MODEL 1
REMARK VINA RESULT:    -4.818      0.000      0.000
REMARK INTER + INTRA:          -7.361
REMARK INTER:                  -7.353
REMARK INTRA:                  -0.009
REMARK UNBOUND:                -0.009
REMARK SMILES CC1=CCC[C@H](C)C(=O)C[C@H](C(C)C)C(=O)C1
REMARK SMILES IDX 8 1 9 2 6 3 7 4 5 5 4 6 3 7 2 8 1 9 10 11 11 12 15 13 16 14
REMARK SMILES IDX 17 15 12 17 13 18 14 19
REMARK H PARENT
REMARK Flexibility Score: 70.00
ROOT
ATOM      1  C   UNL     1     -12.936 -15.508  28.409  1.00  0.00     0.136 C 
ATOM      2  O   UNL     1     -13.764 -14.652  28.138  1.00  0.00    -0.299 OA
ENDROOT
BRANCH   1   3
ATOM      3  C   UNL     1     -12.780 -16.721  27.508  1.00  0.00     0.053 C 
ATOM      4  C   UNL     1     -11.306 -17.035  27.204  1.00  0.00     0.016 C 
BRANCH   3   5
ATOM      5  C   UNL     1     -13.533 -17.943  28.069  1.00  0.00     0.015 C 
BRANCH   5   6
ATOM      6  C   UNL     1     -12.660 -19.206  28.232  1.00  0.00     0.028 C 
BRANCH   6   7
ATOM      7  C   UNL     1     -12.845 -19.839  29.588  1.00  0.00    -0.028 C 
ATOM      8  C   UNL     1     -12.097 -19.553  30.679  1.00  0.00    -0.070 CG0
ATOM      9  C   UNL     1     -12.423 -20.261  31.970  1.00  0.00     0.039 C 
ATOM     10  G   UNL     1     -10.957 -18.546  30.669  1.00  0.00     0.000 G0
ENDBRANCH   6   7
ENDBRANCH   5   6
ENDBRANCH   3   5
ENDBRANCH   1   3
BRANCH   1  11
ATOM     11  C   UNL     1     -12.121 -15.383  29.678  1.00  0.00     0.087 C 
BRANCH  11  12
ATOM     12  C   UNL     1     -12.485 -16.360  30.836  1.00  0.00     0.066 C 
BRANCH  12  13
ATOM     13  C   UNL     1     -11.327 -17.229  31.326  1.00  0.00     0.140 C 
ATOM     14  O   UNL     1     -10.639 -16.805  32.247  1.00  0.00    -0.299 OA
BRANCH  13  15
ATOM     15  C   UNL     1     -10.945 -18.546  30.686  1.00  0.00     0.106 CG0
ATOM     16  G   UNL     1     -12.092 -19.546  30.676  1.00  0.00     0.000 G0
ENDBRANCH  13  15
ENDBRANCH  12  13
BRANCH  12  17
ATOM     17  C   UNL     1     -13.411 -15.755  31.941  1.00  0.00    -0.006 C 
ATOM     18  C   UNL     1     -14.327 -14.654  31.381  1.00  0.00     0.008 C 
ATOM     19  C   UNL     1     -14.227 -16.769  32.754  1.00  0.00     0.008 C 
ENDBRANCH  12  17
ENDBRANCH  11  12
ENDBRANCH   1  11
TORSDOF 1
ENDMDL
MODEL 2
REMARK VINA RESULT:    -4.519      1.694      4.462
REMARK INTER + INTRA:          -6.906
REMARK INTER:                  -6.937
REMARK INTRA:                   0.031
REMARK UNBOUND:                -0.009
REMARK SMILES CC1=CCC[C@H](C)C(=O)C[C@H](C(C)C)C(=O)C1
REMARK SMILES IDX 8 1 9 2 6 3 7 4 5 5 4 6 3 7 2 8 1 9 10 11 11 12 15 13 16 14
REMARK SMILES IDX 17 15 12 17 13 18 14 19
REMARK H PARENT
REMARK Flexibility Score: 70.00
ROOT
ATOM      1  C   UNL     1     -11.445 -18.884  29.700  1.00  0.00     0.136 C 
ATOM      2  O   UNL     1     -10.551 -19.444  30.314  1.00  0.00    -0.299 OA
ENDROOT
BRANCH   1   3
ATOM      3  C   UNL     1     -12.887 -19.326  29.893  1.00  0.00     0.053 C 
ATOM      4  C   UNL     1     -13.217 -20.599  29.098  1.00  0.00     0.016 C 
BRANCH   3   5
ATOM      5  C   UNL     1     -13.241 -19.462  31.387  1.00  0.00     0.015 C 
BRANCH   5   6
ATOM      6  C   UNL     1     -12.709 -18.314  32.272  1.00  0.00     0.028 C 
BRANCH   6   7
ATOM      7  C   UNL     1     -13.642 -17.130  32.265  1.00  0.00    -0.028 C 
ATOM      8  C   UNL     1     -13.425 -15.983  31.581  1.00  0.00    -0.070 CG0
ATOM      9  C   UNL     1     -14.468 -14.897  31.664  1.00  0.00     0.039 C 
ATOM     10  G   UNL     1     -12.191 -15.743  30.723  1.00  0.00     0.000 G0
ENDBRANCH   6   7
ENDBRANCH   5   6
ENDBRANCH   3   5
ENDBRANCH   1   3
BRANCH   1  11
ATOM     11  C   UNL     1     -11.101 -17.800  28.702  1.00  0.00     0.087 C 
BRANCH  11  12
ATOM     12  C   UNL     1     -12.262 -16.853  28.277  1.00  0.00     0.066 C 
BRANCH  12  13
ATOM     13  C   UNL     1     -12.513 -15.682  29.229  1.00  0.00     0.140 C 
ATOM     14  O   UNL     1     -12.940 -14.637  28.756  1.00  0.00    -0.299 OA
BRANCH  13  15
ATOM     15  C   UNL     1     -12.191 -15.729  30.708  1.00  0.00     0.106 CG0
ATOM     16  G   UNL     1     -13.422 -15.981  31.566  1.00  0.00     0.000 G0
ENDBRANCH  13  15
ENDBRANCH  12  13
BRANCH  12  17
ATOM     17  C   UNL     1     -12.319 -16.525  26.749  1.00  0.00    -0.006 C 
ATOM     18  C   UNL     1     -11.235 -17.279  25.962  1.00  0.00     0.008 C 
ATOM     19  C   UNL     1     -13.689 -16.701  26.081  1.00  0.00     0.008 C 
ENDBRANCH  12  17
ENDBRANCH  11  12
ENDBRANCH   1  11
TORSDOF 1
ENDMDL
MODEL 3
REMARK VINA RESULT:    -4.390      1.692      2.807
REMARK INTER + INTRA:          -6.709
REMARK INTER:                  -7.215
REMARK INTRA:                   0.506
REMARK UNBOUND:                -0.009
REMARK SMILES CC1=CCC[C@H](C)C(=O)C[C@H](C(C)C)C(=O)C1
REMARK SMILES IDX 8 1 9 2 6 3 7 4 5 5 4 6 3 7 2 8 1 9 10 11 11 12 15 13 16 14
REMARK SMILES IDX 17 15 12 17 13 18 14 19
REMARK H PARENT
REMARK Flexibility Score: 70.00
ROOT
ATOM      1  C   UNL     1     -13.610 -15.695  30.918  1.00  0.00     0.136 C 
ATOM      2  O   UNL     1     -13.848 -14.620  31.444  1.00  0.00    -0.299 OA
ENDROOT
BRANCH   1   3
ATOM      3  C   UNL     1     -13.240 -15.751  29.445  1.00  0.00     0.053 C 
ATOM      4  C   UNL     1     -13.939 -14.653  28.627  1.00  0.00     0.016 C 
BRANCH   3   5
ATOM      5  C   UNL     1     -11.712 -15.745  29.245  1.00  0.00     0.015 C 
BRANCH   5   6
ATOM      6  C   UNL     1     -11.203 -16.776  28.214  1.00  0.00     0.028 C 
BRANCH   6   7
ATOM      7  C   UNL     1     -12.164 -17.928  28.060  1.00  0.00    -0.028 C 
ATOM      8  C   UNL     1     -12.258 -18.971  28.918  1.00  0.00    -0.070 CG0
ATOM      9  C   UNL     1     -13.286 -20.036  28.631  1.00  0.00     0.039 C 
ATOM     10  G   UNL     1     -11.390 -19.111  30.160  1.00  0.00     0.000 G0
ENDBRANCH   6   7
ENDBRANCH   5   6
ENDBRANCH   3   5
ENDBRANCH   1   3
BRANCH   1  11
ATOM     11  C   UNL     1     -13.751 -16.968  31.724  1.00  0.00     0.087 C 
BRANCH  11  12
ATOM     12  C   UNL     1     -12.428 -17.665  32.160  1.00  0.00     0.066 C 
BRANCH  12  13
ATOM     13  C   UNL     1     -12.139 -18.989  31.452  1.00  0.00     0.140 C 
ATOM     14  O   UNL     1     -12.497 -20.024  32.001  1.00  0.00    -0.299 OA
BRANCH  13  15
ATOM     15  C   UNL     1     -11.373 -19.088  30.151  1.00  0.00     0.106 CG0
ATOM     16  G   UNL     1     -12.276 -18.981  28.931  1.00  0.00     0.000 G0
ENDBRANCH  13  15
ENDBRANCH  12  13
BRANCH  12  17
ATOM     17  C   UNL     1     -11.209 -16.703  32.349  1.00  0.00    -0.006 C 
ATOM     18  C   UNL     1     -11.529 -15.561  33.327  1.00  0.00     0.008 C 
ATOM     19  C   UNL     1      -9.882 -17.376  32.725  1.00  0.00     0.008 C 
ENDBRANCH  12  17
ENDBRANCH  11  12
ENDBRANCH   1  11
TORSDOF 1
ENDMDL
MODEL 4
REMARK VINA RESULT:    -4.289      1.714      3.716
REMARK INTER + INTRA:          -6.555
REMARK INTER:                  -6.843
REMARK INTRA:                   0.288
REMARK UNBOUND:                -0.009
REMARK SMILES CC1=CCC[C@H](C)C(=O)C[C@H](C(C)C)C(=O)C1
REMARK SMILES IDX 8 1 9 2 6 3 7 4 5 5 4 6 3 7 2 8 1 9 10 11 11 12 15 13 16 14
REMARK SMILES IDX 17 15 12 17 13 18 14 19
REMARK H PARENT
REMARK Flexibility Score: 70.00
ROOT
ATOM      1  C   UNL     1     -11.003 -18.367  30.986  1.00  0.00     0.136 C 
ATOM      2  O   UNL     1     -10.038 -18.389  30.238  1.00  0.00    -0.299 OA
ENDROOT
BRANCH   1   3
ATOM      3  C   UNL     1     -11.909 -19.584  31.085  1.00  0.00     0.053 C 
ATOM      4  C   UNL     1     -13.119 -19.335  32.000  1.00  0.00     0.016 C 
BRANCH   3   5
ATOM      5  C   UNL     1     -12.326 -20.094  29.692  1.00  0.00     0.015 C 
BRANCH   5   6
ATOM      6  C   UNL     1     -13.253 -19.134  28.916  1.00  0.00     0.028 C 
BRANCH   6   7
ATOM      7  C   UNL     1     -12.579 -18.585  27.684  1.00  0.00    -0.028 C 
ATOM      8  C   UNL     1     -12.372 -17.270  27.441  1.00  0.00    -0.070 CG0
ATOM      9  C   UNL     1     -11.665 -16.886  26.165  1.00  0.00     0.039 C 
ATOM     10  G   UNL     1     -12.805 -16.166  28.394  1.00  0.00     0.000 G0
ENDBRANCH   6   7
ENDBRANCH   5   6
ENDBRANCH   3   5
ENDBRANCH   1   3
BRANCH   1  11
ATOM     11  C   UNL     1     -11.324 -17.104  31.754  1.00  0.00     0.087 C 
BRANCH  11  12
ATOM     12  C   UNL     1     -12.141 -16.018  30.993  1.00  0.00     0.066 C 
BRANCH  12  13
ATOM     13  C   UNL     1     -11.809 -15.893  29.506  1.00  0.00     0.140 C 
ATOM     14  O   UNL     1     -10.693 -15.496  29.197  1.00  0.00    -0.299 OA
BRANCH  13  15
ATOM     15  C   UNL     1     -12.811 -16.165  28.404  1.00  0.00     0.106 CG0
ATOM     16  G   UNL     1     -12.349 -17.256  27.450  1.00  0.00     0.000 G0
ENDBRANCH  13  15
ENDBRANCH  12  13
BRANCH  12  17
ATOM     17  C   UNL     1     -13.657 -15.948  31.371  1.00  0.00    -0.006 C 
ATOM     18  C   UNL     1     -13.904 -16.384  32.825  1.00  0.00     0.008 C 
ATOM     19  C   UNL     1     -14.354 -14.611  31.086  1.00  0.00     0.008 C 
ENDBRANCH  12  17
ENDBRANCH  11  12
ENDBRANCH   1  11
TORSDOF 1
ENDMDL
MODEL 5
REMARK VINA RESULT:    -4.054      1.895      4.018
REMARK INTER + INTRA:          -6.195
REMARK INTER:                  -6.014
REMARK INTRA:                  -0.181
REMARK UNBOUND:                -0.009
REMARK SMILES CC1=CCC[C@H](C)C(=O)C[C@H](C(C)C)C(=O)C1
REMARK SMILES IDX 8 1 9 2 6 3 7 4 5 5 4 6 3 7 2 8 1 9 10 11 11 12 15 13 16 14
REMARK SMILES IDX 17 15 12 17 13 18 14 19
REMARK H PARENT
REMARK Flexibility Score: 70.00
ROOT
ATOM      1  C   UNL     1     -12.135 -18.510  31.602  1.00  0.00     0.136 C 
ATOM      2  O   UNL     1     -12.254 -19.593  32.154  1.00  0.00    -0.299 OA
ENDROOT
BRANCH   1   3
ATOM      3  C   UNL     1     -10.755 -17.897  31.430  1.00  0.00     0.053 C 
ATOM      4  C   UNL     1      -9.906 -18.005  32.707  1.00  0.00     0.016 C 
BRANCH   3   5
ATOM      5  C   UNL     1     -10.030 -18.472  30.197  1.00  0.00     0.015 C 
BRANCH   5   6
ATOM      6  C   UNL     1      -9.905 -17.483  29.017  1.00  0.00     0.028 C 
BRANCH   6   7
ATOM      7  C   UNL     1     -11.135 -17.499  28.146  1.00  0.00    -0.028 C 
ATOM      8  C   UNL     1     -12.118 -16.570  28.186  1.00  0.00    -0.070 CG0
ATOM      9  C   UNL     1     -13.276 -16.720  27.232  1.00  0.00     0.039 C 
ATOM     10  G   UNL     1     -12.104 -15.379  29.133  1.00  0.00     0.000 G0
ENDBRANCH   6   7
ENDBRANCH   5   6
ENDBRANCH   3   5
ENDBRANCH   1   3
BRANCH   1  11
ATOM     11  C   UNL     1     -13.371 -17.760  31.157  1.00  0.00     0.087 C 
BRANCH  11  12
ATOM     12  C   UNL     1     -13.360 -16.216  31.370  1.00  0.00     0.066 C 
BRANCH  12  13
ATOM     13  C   UNL     1     -13.305 -15.393  30.083  1.00  0.00     0.140 C 
ATOM     14  O   UNL     1     -14.298 -14.749  29.769  1.00  0.00    -0.299 OA
BRANCH  13  15
ATOM     15  C   UNL     1     -12.117 -15.393  29.144  1.00  0.00     0.106 CG0
ATOM     16  G   UNL     1     -12.124 -16.581  28.193  1.00  0.00     0.000 G0
ENDBRANCH  13  15
ENDBRANCH  12  13
BRANCH  12  17
ATOM     17  C   UNL     1     -14.331 -15.698  32.481  1.00  0.00    -0.006 C 
ATOM     18  C   UNL     1     -14.982 -16.855  33.257  1.00  0.00     0.008 C 
ATOM     19  C   UNL     1     -13.743 -14.665  33.451  1.00  0.00     0.008 C 
ENDBRANCH  12  17
ENDBRANCH  11  12
ENDBRANCH   1  11
TORSDOF 1
ENDMDL
MODEL 6
REMARK VINA RESULT:    -4.018      1.784      3.772
REMARK INTER + INTRA:          -6.141
REMARK INTER:                  -6.950
REMARK INTRA:                   0.809
REMARK UNBOUND:                -0.009
REMARK SMILES CC1=CCC[C@H](C)C(=O)C[C@H](C(C)C)C(=O)C1
REMARK SMILES IDX 8 1 9 2 6 3 7 4 5 5 4 6 3 7 2 8 1 9 10 11 11 12 15 13 16 14
REMARK SMILES IDX 17 15 12 17 13 18 14 19
REMARK H PARENT
REMARK Flexibility Score: 70.00
ROOT
ATOM      1  C   UNL     1     -11.034 -16.160  30.761  1.00  0.00     0.136 C 
ATOM      2  O   UNL     1     -10.131 -15.462  30.326  1.00  0.00    -0.299 OA
ENDROOT
BRANCH   1   3
ATOM      3  C   UNL     1     -10.773 -17.088  31.935  1.00  0.00     0.053 C 
ATOM      4  C   UNL     1     -10.301 -16.328  33.185  1.00  0.00     0.016 C 
BRANCH   3   5
ATOM      5  C   UNL     1     -11.989 -17.990  32.224  1.00  0.00     0.015 C 
BRANCH   5   6
ATOM      6  C   UNL     1     -11.885 -19.408  31.622  1.00  0.00     0.028 C 
BRANCH   6   7
ATOM      7  C   UNL     1     -12.905 -19.626  30.533  1.00  0.00    -0.028 C 
ATOM      8  C   UNL     1     -12.718 -19.311  29.230  1.00  0.00    -0.070 CG0
ATOM      9  C   UNL     1     -13.834 -19.610  28.261  1.00  0.00     0.039 C 
ATOM     10  G   UNL     1     -11.438 -18.686  28.697  1.00  0.00     0.000 G0
ENDBRANCH   6   7
ENDBRANCH   5   6
ENDBRANCH   3   5
ENDBRANCH   1   3
BRANCH   1  11
ATOM     11  C   UNL     1     -12.385 -16.141  30.081  1.00  0.00     0.087 C 
BRANCH  11  12
ATOM     12  C   UNL     1     -12.379 -16.186  28.523  1.00  0.00     0.066 C 
BRANCH  12  13
ATOM     13  C   UNL     1     -11.674 -17.402  27.921  1.00  0.00     0.140 C 
ATOM     14  O   UNL     1     -11.343 -17.350  26.743  1.00  0.00    -0.299 OA
BRANCH  13  15
ATOM     15  C   UNL     1     -11.431 -18.686  28.685  1.00  0.00     0.106 CG0
ATOM     16  G   UNL     1     -12.715 -19.292  29.232  1.00  0.00     0.000 G0
ENDBRANCH  13  15
ENDBRANCH  12  13
BRANCH  12  17
ATOM     17  C   UNL     1     -13.725 -15.764  27.848  1.00  0.00    -0.006 C 
ATOM     18  C   UNL     1     -13.968 -14.249  27.955  1.00  0.00     0.008 C 
ATOM     19  C   UNL     1     -13.921 -16.238  26.401  1.00  0.00     0.008 C 
ENDBRANCH  12  17
ENDBRANCH  11  12
ENDBRANCH   1  11
TORSDOF 1
ENDMDL
MODEL 7
REMARK VINA RESULT:    -3.918      1.685      3.962
REMARK INTER + INTRA:          -5.989
REMARK INTER:                  -6.709
REMARK INTRA:                   0.721
REMARK UNBOUND:                -0.009
REMARK SMILES CC1=CCC[C@H](C)C(=O)C[C@H](C(C)C)C(=O)C1
REMARK SMILES IDX 8 1 9 2 6 3 7 4 5 5 4 6 3 7 2 8 1 9 10 11 11 12 15 13 16 14
REMARK SMILES IDX 17 15 12 17 13 18 14 19
REMARK H PARENT
REMARK Flexibility Score: 70.00
ROOT
ATOM      1  C   UNL     1     -11.413 -15.785  30.327  1.00  0.00     0.136 C 
ATOM      2  O   UNL     1     -10.224 -15.655  30.080  1.00  0.00    -0.299 OA
ENDROOT
BRANCH   1   3
ATOM      3  C   UNL     1     -11.912 -15.614  31.752  1.00  0.00     0.053 C 
ATOM      4  C   UNL     1     -13.332 -16.170  31.943  1.00  0.00     0.016 C 
BRANCH   3   5
ATOM      5  C   UNL     1     -10.915 -16.196  32.774  1.00  0.00     0.015 C 
BRANCH   5   6
ATOM      6  C   UNL     1     -10.236 -17.506  32.321  1.00  0.00     0.028 C 
BRANCH   6   7
ATOM      7  C   UNL     1     -11.182 -18.678  32.396  1.00  0.00    -0.028 C 
ATOM      8  C   UNL     1     -11.515 -19.466  31.347  1.00  0.00    -0.070 CG0
ATOM      9  C   UNL     1     -12.464 -20.612  31.593  1.00  0.00     0.039 C 
ATOM     10  G   UNL     1     -10.969 -19.261  29.942  1.00  0.00     0.000 G0
ENDBRANCH   6   7
ENDBRANCH   5   6
ENDBRANCH   3   5
ENDBRANCH   1   3
BRANCH   1  11
ATOM     11  C   UNL     1     -12.366 -16.183  29.221  1.00  0.00     0.087 C 
BRANCH  11  12
ATOM     12  C   UNL     1     -11.915 -17.360  28.306  1.00  0.00     0.066 C 
BRANCH  12  13
ATOM     13  C   UNL     1     -11.982 -18.741  28.960  1.00  0.00     0.140 C 
ATOM     14  O   UNL     1     -12.952 -19.446  28.715  1.00  0.00    -0.299 OA
BRANCH  13  15
ATOM     15  C   UNL     1     -10.951 -19.246  29.947  1.00  0.00     0.106 CG0
ATOM     16  G   UNL     1     -11.532 -19.472  31.334  1.00  0.00     0.000 G0
ENDBRANCH  13  15
ENDBRANCH  12  13
BRANCH  12  17
ATOM     17  C   UNL     1     -12.412 -17.272  26.826  1.00  0.00    -0.006 C 
ATOM     18  C   UNL     1     -13.503 -16.202  26.653  1.00  0.00     0.008 C 
ATOM     19  C   UNL     1     -11.318 -17.099  25.764  1.00  0.00     0.008 C 
ENDBRANCH  12  17
ENDBRANCH  11  12
ENDBRANCH   1  11
TORSDOF 1
ENDMDL
MODEL 8
REMARK VINA RESULT:    -3.839      2.116      4.386
REMARK INTER + INTRA:          -5.868
REMARK INTER:                  -6.073
REMARK INTRA:                   0.205
REMARK UNBOUND:                -0.009
REMARK SMILES CC1=CCC[C@H](C)C(=O)C[C@H](C(C)C)C(=O)C1
REMARK SMILES IDX 8 1 9 2 6 3 7 4 5 5 4 6 3 7 2 8 1 9 10 11 11 12 15 13 16 14
REMARK SMILES IDX 17 15 12 17 13 18 14 19
REMARK H PARENT
REMARK Flexibility Score: 70.00
ROOT
ATOM      1  C   UNL     1     -13.845 -17.256  32.305  1.00  0.00     0.136 C 
ATOM      2  O   UNL     1     -14.574 -17.256  33.285  1.00  0.00    -0.299 OA
ENDROOT
BRANCH   1   3
ATOM      3  C   UNL     1     -13.101 -15.989  31.917  1.00  0.00     0.053 C 
ATOM      4  C   UNL     1     -14.057 -14.830  31.590  1.00  0.00     0.016 C 
BRANCH   3   5
ATOM      5  C   UNL     1     -12.053 -15.600  32.978  1.00  0.00     0.015 C 
BRANCH   5   6
ATOM      6  C   UNL     1     -10.600 -15.956  32.593  1.00  0.00     0.028 C 
BRANCH   6   7
ATOM      7  C   UNL     1     -10.389 -15.895  31.102  1.00  0.00    -0.028 C 
ATOM      8  C   UNL     1     -10.070 -16.957  30.325  1.00  0.00    -0.070 CG0
ATOM      9  C   UNL     1      -9.911 -16.731  28.843  1.00  0.00     0.039 C 
ATOM     10  G   UNL     1      -9.878 -18.364  30.872  1.00  0.00     0.000 G0
ENDBRANCH   6   7
ENDBRANCH   5   6
ENDBRANCH   3   5
ENDBRANCH   1   3
BRANCH   1  11
ATOM     11  C   UNL     1     -13.743 -18.500  31.450  1.00  0.00     0.087 C 
BRANCH  11  12
ATOM     12  C   UNL     1     -12.531 -18.575  30.475  1.00  0.00     0.066 C 
BRANCH  12  13
ATOM     13  C   UNL     1     -11.223 -19.043  31.114  1.00  0.00     0.140 C 
ATOM     14  O   UNL     1     -11.274 -19.969  31.915  1.00  0.00    -0.299 OA
BRANCH  13  15
ATOM     15  C   UNL     1      -9.888 -18.376  30.864  1.00  0.00     0.106 CG0
ATOM     16  G   UNL     1     -10.034 -16.959  30.328  1.00  0.00     0.000 G0
ENDBRANCH  13  15
ENDBRANCH  12  13
BRANCH  12  17
ATOM     17  C   UNL     1     -12.857 -19.160  29.062  1.00  0.00    -0.006 C 
ATOM     18  C   UNL     1     -13.623 -20.490  29.157  1.00  0.00     0.008 C 
ATOM     19  C   UNL     1     -13.562 -18.203  28.091  1.00  0.00     0.008 C 
ENDBRANCH  12  17
ENDBRANCH  11  12
ENDBRANCH   1  11
TORSDOF 1
ENDMDL
MODEL 9
REMARK VINA RESULT:    -3.825      1.877      4.282
REMARK INTER + INTRA:          -5.846
REMARK INTER:                  -6.843
REMARK INTRA:                   0.998
REMARK UNBOUND:                -0.009
REMARK SMILES CC1=CCC[C@H](C)C(=O)C[C@H](C(C)C)C(=O)C1
REMARK SMILES IDX 8 1 9 2 6 3 7 4 5 5 4 6 3 7 2 8 1 9 10 11 11 12 15 13 16 14
REMARK SMILES IDX 17 15 12 17 13 18 14 19
REMARK H PARENT
REMARK Flexibility Score: 70.00
ROOT
ATOM      1  C   UNL     1     -12.898 -16.402  32.279  1.00  0.00     0.136 C 
ATOM      2  O   UNL     1     -11.993 -15.814  32.852  1.00  0.00    -0.299 OA
ENDROOT
BRANCH   1   3
ATOM      3  C   UNL     1     -14.177 -15.660  31.926  1.00  0.00     0.053 C 
ATOM      4  C   UNL     1     -14.582 -14.649  33.011  1.00  0.00     0.016 C 
BRANCH   3   5
ATOM      5  C   UNL     1     -14.089 -15.014  30.530  1.00  0.00     0.015 C 
BRANCH   5   6
ATOM      6  C   UNL     1     -12.669 -15.005  29.924  1.00  0.00     0.028 C 
BRANCH   6   7
ATOM      7  C   UNL     1     -12.622 -15.740  28.608  1.00  0.00    -0.028 C 
ATOM      8  C   UNL     1     -11.628 -16.577  28.228  1.00  0.00    -0.070 CG0
ATOM      9  C   UNL     1     -11.741 -17.250  26.884  1.00  0.00     0.039 C 
ATOM     10  G   UNL     1     -10.416 -16.881  29.096  1.00  0.00     0.000 G0
ENDBRANCH   6   7
ENDBRANCH   5   6
ENDBRANCH   3   5
ENDBRANCH   1   3
BRANCH   1  11
ATOM     11  C   UNL     1     -12.761 -17.880  31.988  1.00  0.00     0.087 C 
BRANCH  11  12
ATOM     12  C   UNL     1     -12.148 -18.261  30.607  1.00  0.00     0.066 C 
BRANCH  12  13
ATOM     13  C   UNL     1     -10.758 -17.681  30.342  1.00  0.00     0.140 C 
ATOM     14  O   UNL     1      -9.901 -17.826  31.204  1.00  0.00    -0.299 OA
BRANCH  13  15
ATOM     15  C   UNL     1     -10.413 -16.879  29.106  1.00  0.00     0.106 CG0
ATOM     16  G   UNL     1     -11.628 -16.593  28.236  1.00  0.00     0.000 G0
ENDBRANCH  13  15
ENDBRANCH  12  13
BRANCH  12  17
ATOM     17  C   UNL     1     -12.369 -19.748  30.177  1.00  0.00    -0.006 C 
ATOM     18  C   UNL     1     -12.513 -20.680  31.391  1.00  0.00     0.008 C 
ATOM     19  C   UNL     1     -13.509 -19.990  29.178  1.00  0.00     0.008 C 
ENDBRANCH  12  17
ENDBRANCH  11  12
ENDBRANCH   1  11
TORSDOF 1
ENDMDL
