MODEL 1
REMARK VINA RESULT:    -3.612      0.000      0.000
REMARK INTER + INTRA:          -3.929
REMARK INTER:                  -3.929
REMARK INTRA:                   0.000
REMARK UNBOUND:                 0.000
REMARK SMILES [NH3+]CC(=O)[O-]
REMARK SMILES IDX 2 1 1 2 3 6 4 7 5 8
REMARK H PARENT 1 3 1 4 1 5
REMARK Flexibility Score: inf
ROOT
ATOM      1  C   UNL     1     146.805 129.176 129.715  1.00  0.00     0.312 C 
ENDROOT
BRANCH   1   2
ATOM      2  N   UNL     1     147.248 130.376 130.422  1.00  0.00    -0.353 N 
ATOM      3  H   UNL     1     146.422 130.893 130.803  1.00  0.00     0.344 HD
ATOM      4  H   UNL     1     147.893 130.114 131.203  1.00  0.00     0.344 HD
ATOM      5  H   UNL     1     147.759 130.997 129.754  1.00  0.00     0.344 HD
ENDBRANCH   1   2
BRANCH   1   6
ATOM      6  C   UNL     1     145.396 129.335 129.234  1.00  0.00     0.096 C 
ATOM      7  O   UNL     1     144.432 129.027 129.983  1.00  0.00    -0.544 OA
ATOM      8  O   UNL     1     145.149 129.775 127.940  1.00  0.00    -0.544 OA
ENDBRANCH   1   6
TORSDOF 2
ENDMDL
MODEL 2
REMARK VINA RESULT:    -3.550      0.107      1.453
REMARK INTER + INTRA:          -3.862
REMARK INTER:                  -3.862
REMARK INTRA:                   0.000
REMARK UNBOUND:                 0.000
REMARK SMILES [NH3+]CC(=O)[O-]
REMARK SMILES IDX 2 1 1 2 3 6 4 7 5 8
REMARK H PARENT 1 3 1 4 1 5
REMARK Flexibility Score: inf
ROOT
ATOM      1  C   UNL     1     146.857 129.269 129.556  1.00  0.00     0.312 C 
ENDROOT
BRANCH   1   2
ATOM      2  N   UNL     1     147.220 130.384 130.429  1.00  0.00    -0.353 N 
ATOM      3  H   UNL     1     146.362 130.784 130.875  1.00  0.00     0.344 HD
ATOM      4  H   UNL     1     147.885 130.059 131.168  1.00  0.00     0.344 HD
ATOM      5  H   UNL     1     147.684 131.127 129.858  1.00  0.00     0.344 HD
ENDBRANCH   1   2
BRANCH   1   6
ATOM      6  C   UNL     1     145.424 129.372 129.134  1.00  0.00     0.096 C 
ATOM      7  O   UNL     1     145.130 129.821 127.995  1.00  0.00    -0.544 OA
ATOM      8  O   UNL     1     144.411 129.022 130.018  1.00  0.00    -0.544 OA
ENDBRANCH   1   6
TORSDOF 2
ENDMDL
MODEL 3
REMARK VINA RESULT:    -3.428      1.005      1.430
REMARK INTER + INTRA:          -3.729
REMARK INTER:                  -3.729
REMARK INTRA:                   0.000
REMARK UNBOUND:                 0.000
REMARK SMILES [NH3+]CC(=O)[O-]
REMARK SMILES IDX 2 1 1 2 3 6 4 7 5 8
REMARK H PARENT 1 3 1 4 1 5
REMARK Flexibility Score: inf
ROOT
ATOM      1  C   UNL     1     146.890 128.955 129.991  1.00  0.00     0.312 C 
ENDROOT
BRANCH   1   2
ATOM      2  N   UNL     1     147.196 130.337 130.356  1.00  0.00    -0.353 N 
ATOM      3  H   UNL     1     146.318 130.843 130.615  1.00  0.00     0.344 HD
ATOM      4  H   UNL     1     147.866 130.356 131.158  1.00  0.00     0.344 HD
ATOM      5  H   UNL     1     147.634 130.817 129.537  1.00  0.00     0.344 HD
ENDBRANCH   1   2
BRANCH   1   6
ATOM      6  C   UNL     1     145.873 128.910 128.894  1.00  0.00     0.096 C 
ATOM      7  O   UNL     1     146.127 128.305 127.819  1.00  0.00    -0.544 OA
ATOM      8  O   UNL     1     144.664 129.580 129.038  1.00  0.00    -0.544 OA
ENDBRANCH   1   6
TORSDOF 2
ENDMDL
MODEL 4
REMARK VINA RESULT:    -3.416      0.984      1.103
REMARK INTER + INTRA:          -3.716
REMARK INTER:                  -3.716
REMARK INTRA:                   0.000
REMARK UNBOUND:                 0.000
REMARK SMILES [NH3+]CC(=O)[O-]
REMARK SMILES IDX 2 1 1 2 3 6 4 7 5 8
REMARK H PARENT 1 3 1 4 1 5
REMARK Flexibility Score: inf
ROOT
ATOM      1  C   UNL     1     146.815 128.982 129.880  1.00  0.00     0.312 C 
ENDROOT
BRANCH   1   2
ATOM      2  N   UNL     1     147.173 130.321 130.344  1.00  0.00    -0.353 N 
ATOM      3  H   UNL     1     146.647 131.042 129.798  1.00  0.00     0.344 HD
ATOM      4  H   UNL     1     146.953 130.418 131.362  1.00  0.00     0.344 HD
ATOM      5  H   UNL     1     148.198 130.469 130.203  1.00  0.00     0.344 HD
ENDBRANCH   1   2
BRANCH   1   6
ATOM      6  C   UNL     1     145.922 129.058 128.681  1.00  0.00     0.096 C 
ATOM      7  O   UNL     1     144.813 129.650 128.755  1.00  0.00    -0.544 OA
ATOM      8  O   UNL     1     146.291 128.431 127.497  1.00  0.00    -0.544 OA
ENDBRANCH   1   6
TORSDOF 2
ENDMDL
MODEL 5
REMARK VINA RESULT:    -3.156      1.462      1.757
REMARK INTER + INTRA:          -3.433
REMARK INTER:                  -3.433
REMARK INTRA:                   0.000
REMARK UNBOUND:                 0.000
REMARK SMILES [NH3+]CC(=O)[O-]
REMARK SMILES IDX 2 1 1 2 3 6 4 7 5 8
REMARK H PARENT 1 3 1 4 1 5
REMARK Flexibility Score: inf
ROOT
ATOM      1  C   UNL     1     146.034 129.874 128.463  1.00  0.00     0.312 C 
ENDROOT
BRANCH   1   2
ATOM      2  N   UNL     1     147.458 130.162 128.621  1.00  0.00    -0.353 N 
ATOM      3  H   UNL     1     147.607 130.806 129.432  1.00  0.00     0.344 HD
ATOM      4  H   UNL     1     147.990 129.274 128.772  1.00  0.00     0.344 HD
ATOM      5  H   UNL     1     147.812 130.625 127.752  1.00  0.00     0.344 HD
ENDBRANCH   1   2
BRANCH   1   6
ATOM      6  C   UNL     1     145.574 128.896 129.500  1.00  0.00     0.096 C 
ATOM      7  O   UNL     1     144.435 129.017 130.022  1.00  0.00    -0.544 OA
ATOM      8  O   UNL     1     146.424 127.883 129.926  1.00  0.00    -0.544 OA
ENDBRANCH   1   6
TORSDOF 2
ENDMDL
MODEL 6
REMARK VINA RESULT:    -3.127      1.092      1.786
REMARK INTER + INTRA:          -3.401
REMARK INTER:                  -3.401
REMARK INTRA:                   0.000
REMARK UNBOUND:                 0.000
REMARK SMILES [NH3+]CC(=O)[O-]
REMARK SMILES IDX 2 1 1 2 3 6 4 7 5 8
REMARK H PARENT 1 3 1 4 1 5
REMARK Flexibility Score: inf
ROOT
ATOM      1  C   UNL     1     146.798 129.703 129.278  1.00  0.00     0.312 C 
ENDROOT
BRANCH   1   2
ATOM      2  N   UNL     1     147.359 130.475 128.172  1.00  0.00    -0.353 N 
ATOM      3  H   UNL     1     146.671 130.528 127.386  1.00  0.00     0.344 HD
ATOM      4  H   UNL     1     147.603 131.439 128.495  1.00  0.00     0.344 HD
ATOM      5  H   UNL     1     148.227 130.002 127.831  1.00  0.00     0.344 HD
ENDBRANCH   1   2
BRANCH   1   6
ATOM      6  C   UNL     1     145.366 129.355 129.009  1.00  0.00     0.096 C 
ATOM      7  O   UNL     1     144.796 129.784 127.972  1.00  0.00    -0.544 OA
ATOM      8  O   UNL     1     144.649 128.601 129.928  1.00  0.00    -0.544 OA
ENDBRANCH   1   6
TORSDOF 2
ENDMDL
MODEL 7
REMARK VINA RESULT:    -3.123      2.102      2.270
REMARK INTER + INTRA:          -3.397
REMARK INTER:                  -3.397
REMARK INTRA:                   0.000
REMARK UNBOUND:                 0.000
REMARK SMILES [NH3+]CC(=O)[O-]
REMARK SMILES IDX 2 1 1 2 3 6 4 7 5 8
REMARK H PARENT 1 3 1 4 1 5
REMARK Flexibility Score: inf
ROOT
ATOM      1  C   UNL     1     146.563 129.736 127.804  1.00  0.00     0.312 C 
ENDROOT
BRANCH   1   2
ATOM      2  N   UNL     1     147.431 130.872 127.502  1.00  0.00    -0.353 N 
ATOM      3  H   UNL     1     148.272 130.857 128.125  1.00  0.00     0.344 HD
ATOM      4  H   UNL     1     147.731 130.838 126.501  1.00  0.00     0.344 HD
ATOM      5  H   UNL     1     146.903 131.759 127.667  1.00  0.00     0.344 HD
ENDBRANCH   1   2
BRANCH   1   6
ATOM      6  C   UNL     1     146.306 129.643 129.276  1.00  0.00     0.096 C 
ATOM      7  O   UNL     1     147.251 129.795 130.095  1.00  0.00    -0.544 OA
ATOM      8  O   UNL     1     145.033 129.338 129.742  1.00  0.00    -0.544 OA
ENDBRANCH   1   6
TORSDOF 2
ENDMDL
MODEL 8
REMARK VINA RESULT:    -3.001      2.215      2.369
REMARK INTER + INTRA:          -3.264
REMARK INTER:                  -3.264
REMARK INTRA:                   0.000
REMARK UNBOUND:                 0.000
REMARK SMILES [NH3+]CC(=O)[O-]
REMARK SMILES IDX 2 1 1 2 3 6 4 7 5 8
REMARK H PARENT 1 3 1 4 1 5
REMARK Flexibility Score: inf
ROOT
ATOM      1  C   UNL     1     145.149 129.280 129.335  1.00  0.00     0.312 C 
ENDROOT
BRANCH   1   2
ATOM      2  N   UNL     1     145.161 127.878 129.747  1.00  0.00    -0.353 N 
ATOM      3  H   UNL     1     144.836 127.270 128.960  1.00  0.00     0.344 HD
ATOM      4  H   UNL     1     146.127 127.598 130.036  1.00  0.00     0.344 HD
ATOM      5  H   UNL     1     144.515 127.755 130.560  1.00  0.00     0.344 HD
ENDBRANCH   1   2
BRANCH   1   6
ATOM      6  C   UNL     1     146.541 129.770 129.081  1.00  0.00     0.096 C 
ATOM      7  O   UNL     1     147.358 129.878 130.034  1.00  0.00    -0.544 OA
ATOM      8  O   UNL     1     146.920 130.155 127.802  1.00  0.00    -0.544 OA
ENDBRANCH   1   6
TORSDOF 2
ENDMDL
MODEL 9
REMARK VINA RESULT:    -2.764      2.848      3.279
REMARK INTER + INTRA:          -3.007
REMARK INTER:                  -3.007
REMARK INTRA:                   0.000
REMARK UNBOUND:                 0.000
REMARK SMILES [NH3+]CC(=O)[O-]
REMARK SMILES IDX 2 1 1 2 3 6 4 7 5 8
REMARK H PARENT 1 3 1 4 1 5
REMARK Flexibility Score: inf
ROOT
ATOM      1  C   UNL     1     146.792 128.614 127.079  1.00  0.00     0.312 C 
ENDROOT
BRANCH   1   2
ATOM      2  N   UNL     1     148.026 128.529 126.301  1.00  0.00    -0.353 N 
ATOM      3  H   UNL     1     147.802 128.440 125.282  1.00  0.00     0.344 HD
ATOM      4  H   UNL     1     148.611 129.381 126.462  1.00  0.00     0.344 HD
ATOM      5  H   UNL     1     148.564 127.685 126.604  1.00  0.00     0.344 HD
ENDBRANCH   1   2
BRANCH   1   6
ATOM      6  C   UNL     1     146.677 129.950 127.745  1.00  0.00     0.096 C 
ATOM      7  O   UNL     1     146.914 131.003 127.097  1.00  0.00    -0.544 OA
ATOM      8  O   UNL     1     146.358 130.030 129.095  1.00  0.00    -0.544 OA
ENDBRANCH   1   6
TORSDOF 2
ENDMDL
