MODEL 1
REMARK VINA RESULT:    -7.676      0.000      0.000
REMARK INTER + INTRA:          -9.113
REMARK INTER:                  -9.470
REMARK INTRA:                   0.358
REMARK UNBOUND:                 0.358
REMARK SMILES Oc1cc(O)c2cc(O)c(-c3cc(O)c(O)c(O)c3)[o+]c2c1
REMARK SMILES IDX 10 1 20 2 21 3 22 4 2 5 3 6 4 7 6 8 7 9 8 10 11 11 12 12
REMARK SMILES IDX 13 13 19 14 15 15 17 16 14 17 16 19 18 21 9 23 1 25 5 27
REMARK H PARENT 14 18 16 20 18 22 9 24 1 26 5 28
REMARK Flexibility Score: inf
ROOT
ATOM      1  C   UNL     1       9.373 -12.879 -23.551  1.00  0.00     0.402 A 
ATOM      2  O   UNL     1       9.557 -11.562 -23.584  1.00  0.00    -0.202 OA
ATOM      3  C   UNL     1       9.258 -10.810 -24.639  1.00  0.00     0.368 A 
ATOM      4  C   UNL     1       9.490  -9.433 -24.579  1.00  0.00     0.162 A 
ATOM      5  C   UNL     1       9.188  -8.620 -25.675  1.00  0.00     0.128 A 
ATOM      6  C   UNL     1       8.653  -9.184 -26.834  1.00  0.00     0.093 A 
ATOM      7  C   UNL     1       8.411 -10.561 -26.919  1.00  0.00     0.136 A 
ATOM      8  C   UNL     1       8.713 -11.392 -25.808  1.00  0.00     0.125 A 
ATOM      9  C   UNL     1       8.492 -12.778 -25.798  1.00  0.00     0.078 A 
ATOM     10  C   UNL     1       8.811 -13.531 -24.664  1.00  0.00     0.223 A 
ENDROOT
BRANCH   1  11
ATOM     11  C   UNL     1       9.755 -13.608 -22.320  1.00  0.00     0.091 A 
ATOM     12  C   UNL     1      10.158 -12.886 -21.186  1.00  0.00     0.068 A 
ATOM     13  C   UNL     1      10.542 -13.553 -20.016  1.00  0.00     0.162 A 
ATOM     14  C   UNL     1       9.776 -15.013 -22.279  1.00  0.00     0.068 A 
ATOM     15  C   UNL     1      10.543 -14.953 -19.975  1.00  0.00     0.200 A 
ATOM     16  C   UNL     1      10.162 -15.686 -21.111  1.00  0.00     0.162 A 
BRANCH  13  17
ATOM     17  O   UNL     1      10.928 -12.830 -18.888  1.00  0.00    -0.504 OA
ATOM     18  H   UNL     1      10.451 -11.979 -18.614  1.00  0.00     0.293 HD
ENDBRANCH  13  17
BRANCH  15  19
ATOM     19  O   UNL     1      10.926 -15.600 -18.799  1.00  0.00    -0.502 OA
ATOM     20  H   UNL     1      11.688 -16.267 -18.775  1.00  0.00     0.293 HD
ENDBRANCH  15  19
BRANCH  16  21
ATOM     21  O   UNL     1      10.175 -17.079 -21.078  1.00  0.00    -0.504 OA
ATOM     22  H   UNL     1      11.037 -17.605 -21.159  1.00  0.00     0.293 HD
ENDBRANCH  16  21
ENDBRANCH   1  11
BRANCH  10  23
ATOM     23  O   UNL     1       8.545 -14.900 -24.635  1.00  0.00    -0.500 OA
ATOM     24  H   UNL     1       8.219 -15.398 -25.456  1.00  0.00     0.294 HD
ENDBRANCH  10  23
BRANCH   5  25
ATOM     25  O   UNL     1       9.417  -7.246 -25.623  1.00  0.00    -0.507 OA
ATOM     26  H   UNL     1       8.870  -6.596 -26.175  1.00  0.00     0.293 HD
ENDBRANCH   5  25
BRANCH   7  27
ATOM     27  O   UNL     1       7.876 -11.048 -28.116  1.00  0.00    -0.507 OA
ATOM     28  H   UNL     1       7.155 -10.584 -28.648  1.00  0.00     0.293 HD
ENDBRANCH   7  27
TORSDOF 7
ENDMDL
MODEL 2
REMARK VINA RESULT:    -7.079      3.952      6.404
REMARK INTER + INTRA:          -8.377
REMARK INTER:                  -8.284
REMARK INTRA:                  -0.093
REMARK UNBOUND:                 0.358
REMARK SMILES Oc1cc(O)c2cc(O)c(-c3cc(O)c(O)c(O)c3)[o+]c2c1
REMARK SMILES IDX 10 1 20 2 21 3 22 4 2 5 3 6 4 7 6 8 7 9 8 10 11 11 12 12
REMARK SMILES IDX 13 13 19 14 15 15 17 16 14 17 16 19 18 21 9 23 1 25 5 27
REMARK H PARENT 14 18 16 20 18 22 9 24 1 26 5 28
REMARK Flexibility Score: inf
ROOT
ATOM      1  C   UNL     1      10.585 -16.881 -23.284  1.00  0.00     0.402 A 
ATOM      2  O   UNL     1      11.259 -16.604 -24.397  1.00  0.00    -0.202 OA
ATOM      3  C   UNL     1      11.346 -17.442 -25.425  1.00  0.00     0.368 A 
ATOM      4  C   UNL     1      12.081 -17.062 -26.551  1.00  0.00     0.162 A 
ATOM      5  C   UNL     1      12.192 -17.926 -27.645  1.00  0.00     0.128 A 
ATOM      6  C   UNL     1      11.567 -19.173 -27.612  1.00  0.00     0.093 A 
ATOM      7  C   UNL     1      10.824 -19.578 -26.496  1.00  0.00     0.136 A 
ATOM      8  C   UNL     1      10.706 -18.704 -25.384  1.00  0.00     0.125 A 
ATOM      9  C   UNL     1       9.972 -19.019 -24.229  1.00  0.00     0.078 A 
ATOM     10  C   UNL     1       9.897 -18.104 -23.174  1.00  0.00     0.223 A 
ENDROOT
BRANCH   1  11
ATOM     11  C   UNL     1      10.570 -15.869 -22.204  1.00  0.00     0.091 A 
ATOM     12  C   UNL     1      10.931 -16.245 -20.901  1.00  0.00     0.068 A 
ATOM     13  C   UNL     1      10.907 -15.309 -19.857  1.00  0.00     0.162 A 
ATOM     14  C   UNL     1      10.149 -14.550 -22.443  1.00  0.00     0.068 A 
ATOM     15  C   UNL     1      10.505 -13.992 -20.106  1.00  0.00     0.200 A 
ATOM     16  C   UNL     1      10.121 -13.610 -21.402  1.00  0.00     0.162 A 
BRANCH  13  17
ATOM     17  O   UNL     1      11.281 -15.685 -18.568  1.00  0.00    -0.504 OA
ATOM     18  H   UNL     1      11.629 -15.010 -17.897  1.00  0.00     0.293 HD
ENDBRANCH  13  17
BRANCH  15  19
ATOM     19  O   UNL     1      10.491 -13.074 -19.054  1.00  0.00    -0.502 OA
ATOM     20  H   UNL     1       9.649 -12.581 -18.782  1.00  0.00     0.293 HD
ENDBRANCH  15  19
BRANCH  16  21
ATOM     21  O   UNL     1       9.707 -12.304 -21.651  1.00  0.00    -0.504 OA
ATOM     22  H   UNL     1       8.861 -12.104 -22.173  1.00  0.00     0.293 HD
ENDBRANCH  16  21
ENDBRANCH   1  11
BRANCH  10  23
ATOM     23  O   UNL     1       9.128 -18.396 -22.048  1.00  0.00    -0.500 OA
ATOM     24  H   UNL     1       8.254 -18.906 -22.116  1.00  0.00     0.294 HD
ENDBRANCH  10  23
BRANCH   5  25
ATOM     25  O   UNL     1      12.924 -17.553 -28.771  1.00  0.00    -0.507 OA
ATOM     26  H   UNL     1      13.933 -17.638 -28.799  1.00  0.00     0.293 HD
ENDBRANCH   5  25
BRANCH   7  27
ATOM     27  O   UNL     1      10.231 -20.843 -26.541  1.00  0.00    -0.507 OA
ATOM     28  H   UNL     1      10.387 -21.520 -27.273  1.00  0.00     0.293 HD
ENDBRANCH   7  27
TORSDOF 7
ENDMDL
MODEL 3
REMARK VINA RESULT:    -7.028      3.932      6.254
REMARK INTER + INTRA:          -8.314
REMARK INTER:                  -8.164
REMARK INTRA:                  -0.150
REMARK UNBOUND:                 0.358
REMARK SMILES Oc1cc(O)c2cc(O)c(-c3cc(O)c(O)c(O)c3)[o+]c2c1
REMARK SMILES IDX 10 1 20 2 21 3 22 4 2 5 3 6 4 7 6 8 7 9 8 10 11 11 12 12
REMARK SMILES IDX 13 13 19 14 15 15 17 16 14 17 16 19 18 21 9 23 1 25 5 27
REMARK H PARENT 14 18 16 20 18 22 9 24 1 26 5 28
REMARK Flexibility Score: inf
ROOT
ATOM      1  C   UNL     1      10.491 -16.822 -23.220  1.00  0.00     0.402 A 
ATOM      2  O   UNL     1      11.173 -16.543 -24.327  1.00  0.00    -0.202 OA
ATOM      3  C   UNL     1      11.243 -17.367 -25.368  1.00  0.00     0.368 A 
ATOM      4  C   UNL     1      11.988 -16.986 -26.487  1.00  0.00     0.162 A 
ATOM      5  C   UNL     1      12.081 -17.834 -27.594  1.00  0.00     0.128 A 
ATOM      6  C   UNL     1      11.428 -19.068 -27.582  1.00  0.00     0.093 A 
ATOM      7  C   UNL     1      10.674 -19.472 -26.473  1.00  0.00     0.136 A 
ATOM      8  C   UNL     1      10.574 -18.614 -25.347  1.00  0.00     0.125 A 
ATOM      9  C   UNL     1       9.832 -18.930 -24.199  1.00  0.00     0.078 A 
ATOM     10  C   UNL     1       9.777 -18.031 -23.129  1.00  0.00     0.223 A 
ENDROOT
BRANCH   1  11
ATOM     11  C   UNL     1      10.498 -15.827 -22.124  1.00  0.00     0.091 A 
ATOM     12  C   UNL     1      10.165 -14.492 -22.401  1.00  0.00     0.068 A 
ATOM     13  C   UNL     1      10.182 -13.527 -21.385  1.00  0.00     0.162 A 
ATOM     14  C   UNL     1      10.886 -16.177 -20.819  1.00  0.00     0.068 A 
ATOM     15  C   UNL     1      10.551 -13.887 -20.083  1.00  0.00     0.200 A 
ATOM     16  C   UNL     1      10.907 -15.216 -19.799  1.00  0.00     0.162 A 
BRANCH  13  17
ATOM     17  O   UNL     1       9.836 -12.206 -21.664  1.00  0.00    -0.504 OA
ATOM     18  H   UNL     1      10.500 -11.448 -21.554  1.00  0.00     0.293 HD
ENDBRANCH  13  17
BRANCH  15  19
ATOM     19  O   UNL     1      10.559 -12.912 -19.083  1.00  0.00    -0.502 OA
ATOM     20  H   UNL     1      10.902 -13.102 -18.149  1.00  0.00     0.293 HD
ENDBRANCH  15  19
BRANCH  16  21
ATOM     21  O   UNL     1      11.288 -15.575 -18.508  1.00  0.00    -0.504 OA
ATOM     22  H   UNL     1      10.800 -15.224 -17.692  1.00  0.00     0.293 HD
ENDBRANCH  16  21
ENDBRANCH   1  11
BRANCH  10  23
ATOM     23  O   UNL     1       8.999 -18.322 -22.009  1.00  0.00    -0.500 OA
ATOM     24  H   UNL     1       8.275 -17.692 -21.683  1.00  0.00     0.294 HD
ENDBRANCH  10  23
BRANCH   5  25
ATOM     25  O   UNL     1      12.823 -17.461 -28.714  1.00  0.00    -0.507 OA
ATOM     26  H   UNL     1      13.613 -16.830 -28.640  1.00  0.00     0.293 HD
ENDBRANCH   5  25
BRANCH   7  27
ATOM     27  O   UNL     1      10.053 -20.723 -26.539  1.00  0.00    -0.507 OA
ATOM     28  H   UNL     1      10.325 -21.525 -25.990  1.00  0.00     0.293 HD
ENDBRANCH   7  27
TORSDOF 7
ENDMDL
MODEL 4
REMARK VINA RESULT:    -6.860      4.068      7.151
REMARK INTER + INTRA:          -8.106
REMARK INTER:                  -7.726
REMARK INTRA:                  -0.380
REMARK UNBOUND:                 0.358
REMARK SMILES Oc1cc(O)c2cc(O)c(-c3cc(O)c(O)c(O)c3)[o+]c2c1
REMARK SMILES IDX 10 1 20 2 21 3 22 4 2 5 3 6 4 7 6 8 7 9 8 10 11 11 12 12
REMARK SMILES IDX 13 13 19 14 15 15 17 16 14 17 16 19 18 21 9 23 1 25 5 27
REMARK H PARENT 14 18 16 20 18 22 9 24 1 26 5 28
REMARK Flexibility Score: inf
ROOT
ATOM      1  C   UNL     1      10.074 -16.736 -24.375  1.00  0.00     0.402 A 
ATOM      2  O   UNL     1      10.427 -16.916 -23.105  1.00  0.00    -0.202 OA
ATOM      3  C   UNL     1      10.398 -15.948 -22.195  1.00  0.00     0.368 A 
ATOM      4  C   UNL     1      10.792 -16.233 -20.885  1.00  0.00     0.162 A 
ATOM      5  C   UNL     1      10.774 -15.233 -19.910  1.00  0.00     0.128 A 
ATOM      6  C   UNL     1      10.361 -13.942 -20.245  1.00  0.00     0.093 A 
ATOM      7  C   UNL     1       9.961 -13.630 -21.550  1.00  0.00     0.136 A 
ATOM      8  C   UNL     1       9.975 -14.643 -22.544  1.00  0.00     0.125 A 
ATOM      9  C   UNL     1       9.579 -14.425 -23.873  1.00  0.00     0.078 A 
ATOM     10  C   UNL     1       9.616 -15.475 -24.797  1.00  0.00     0.223 A 
ENDROOT
BRANCH   1  11
ATOM     11  C   UNL     1      10.160 -17.892 -25.296  1.00  0.00     0.091 A 
ATOM     12  C   UNL     1      11.332 -18.095 -26.042  1.00  0.00     0.068 A 
ATOM     13  C   UNL     1      11.430 -19.171 -26.934  1.00  0.00     0.162 A 
ATOM     14  C   UNL     1       9.072 -18.762 -25.482  1.00  0.00     0.068 A 
ATOM     15  C   UNL     1      10.350 -20.045 -27.101  1.00  0.00     0.200 A 
ATOM     16  C   UNL     1       9.165 -19.839 -26.376  1.00  0.00     0.162 A 
BRANCH  13  17
ATOM     17  O   UNL     1      12.602 -19.375 -27.662  1.00  0.00    -0.504 OA
ATOM     18  H   UNL     1      12.620 -19.297 -28.672  1.00  0.00     0.293 HD
ENDBRANCH  13  17
BRANCH  15  19
ATOM     19  O   UNL     1      10.468 -21.113 -27.993  1.00  0.00    -0.502 OA
ATOM     20  H   UNL     1      10.081 -21.078 -28.928  1.00  0.00     0.293 HD
ENDBRANCH  15  19
BRANCH  16  21
ATOM     21  O   UNL     1       8.082 -20.698 -26.550  1.00  0.00    -0.504 OA
ATOM     22  H   UNL     1       7.181 -20.511 -26.125  1.00  0.00     0.293 HD
ENDBRANCH  16  21
ENDBRANCH   1  11
BRANCH  10  23
ATOM     23  O   UNL     1       9.175 -15.272 -26.105  1.00  0.00    -0.500 OA
ATOM     24  H   UNL     1       8.783 -16.025 -26.658  1.00  0.00     0.294 HD
ENDBRANCH  10  23
BRANCH   5  25
ATOM     25  O   UNL     1      11.166 -15.511 -18.601  1.00  0.00    -0.507 OA
ATOM     26  H   UNL     1      10.710 -16.230 -18.053  1.00  0.00     0.293 HD
ENDBRANCH   5  25
BRANCH   7  27
ATOM     27  O   UNL     1       9.564 -12.313 -21.804  1.00  0.00    -0.507 OA
ATOM     28  H   UNL     1       8.618 -11.975 -21.709  1.00  0.00     0.293 HD
ENDBRANCH   7  27
TORSDOF 7
ENDMDL
MODEL 5
REMARK VINA RESULT:    -6.853      3.187      7.184
REMARK INTER + INTRA:          -8.098
REMARK INTER:                  -7.844
REMARK INTRA:                  -0.254
REMARK UNBOUND:                 0.358
REMARK SMILES Oc1cc(O)c2cc(O)c(-c3cc(O)c(O)c(O)c3)[o+]c2c1
REMARK SMILES IDX 10 1 20 2 21 3 22 4 2 5 3 6 4 7 6 8 7 9 8 10 11 11 12 12
REMARK SMILES IDX 13 13 19 14 15 15 17 16 14 17 16 19 18 21 9 23 1 25 5 27
REMARK H PARENT 14 18 16 20 18 22 9 24 1 26 5 28
REMARK Flexibility Score: inf
ROOT
ATOM      1  C   UNL     1       9.804 -15.363 -23.512  1.00  0.00     0.402 A 
ATOM      2  O   UNL     1      10.283 -16.142 -24.478  1.00  0.00    -0.202 OA
ATOM      3  C   UNL     1      10.268 -17.470 -24.418  1.00  0.00     0.368 A 
ATOM      4  C   UNL     1      10.799 -18.204 -25.483  1.00  0.00     0.162 A 
ATOM      5  C   UNL     1      10.799 -19.601 -25.444  1.00  0.00     0.128 A 
ATOM      6  C   UNL     1      10.267 -20.267 -24.339  1.00  0.00     0.093 A 
ATOM      7  C   UNL     1       9.729 -19.555 -23.260  1.00  0.00     0.136 A 
ATOM      8  C   UNL     1       9.724 -18.136 -23.294  1.00  0.00     0.125 A 
ATOM      9  C   UNL     1       9.195 -17.340 -22.265  1.00  0.00     0.078 A 
ATOM     10  C   UNL     1       9.222 -15.946 -22.372  1.00  0.00     0.223 A 
ENDROOT
BRANCH   1  11
ATOM     11  C   UNL     1       9.887 -13.895 -23.691  1.00  0.00     0.091 A 
ATOM     12  C   UNL     1      10.705 -13.141 -22.835  1.00  0.00     0.068 A 
ATOM     13  C   UNL     1      10.786 -11.748 -22.971  1.00  0.00     0.162 A 
ATOM     14  C   UNL     1       9.122 -13.232 -24.665  1.00  0.00     0.068 A 
ATOM     15  C   UNL     1      10.036 -11.096 -23.957  1.00  0.00     0.200 A 
ATOM     16  C   UNL     1       9.198 -11.839 -24.805  1.00  0.00     0.162 A 
BRANCH  13  17
ATOM     17  O   UNL     1      11.611 -11.006 -22.127  1.00  0.00    -0.504 OA
ATOM     18  H   UNL     1      11.251 -10.557 -21.294  1.00  0.00     0.293 HD
ENDBRANCH  13  17
BRANCH  15  19
ATOM     19  O   UNL     1      10.133  -9.708 -24.079  1.00  0.00    -0.502 OA
ATOM     20  H   UNL     1      10.777  -9.162 -23.521  1.00  0.00     0.293 HD
ENDBRANCH  15  19
BRANCH  16  21
ATOM     21  O   UNL     1       8.439 -11.191 -25.777  1.00  0.00    -0.504 OA
ATOM     22  H   UNL     1       7.968 -10.314 -25.588  1.00  0.00     0.293 HD
ENDBRANCH  16  21
ENDBRANCH   1  11
BRANCH  10  23
ATOM     23  O   UNL     1       8.651 -15.157 -21.374  1.00  0.00    -0.500 OA
ATOM     24  H   UNL     1       7.648 -15.122 -21.229  1.00  0.00     0.294 HD
ENDBRANCH  10  23
BRANCH   5  25
ATOM     25  O   UNL     1      11.327 -20.339 -26.502  1.00  0.00    -0.507 OA
ATOM     26  H   UNL     1      12.190 -20.068 -26.960  1.00  0.00     0.293 HD
ENDBRANCH   5  25
BRANCH   7  27
ATOM     27  O   UNL     1       9.219 -20.296 -22.189  1.00  0.00    -0.507 OA
ATOM     28  H   UNL     1       9.004 -19.912 -21.281  1.00  0.00     0.293 HD
ENDBRANCH   7  27
TORSDOF 7
ENDMDL
MODEL 6
REMARK VINA RESULT:    -6.645      4.581      7.634
REMARK INTER + INTRA:          -7.841
REMARK INTER:                  -7.498
REMARK INTRA:                  -0.343
REMARK UNBOUND:                 0.358
REMARK SMILES Oc1cc(O)c2cc(O)c(-c3cc(O)c(O)c(O)c3)[o+]c2c1
REMARK SMILES IDX 10 1 20 2 21 3 22 4 2 5 3 6 4 7 6 8 7 9 8 10 11 11 12 12
REMARK SMILES IDX 13 13 19 14 15 15 17 16 14 17 16 19 18 21 9 23 1 25 5 27
REMARK H PARENT 14 18 16 20 18 22 9 24 1 26 5 28
REMARK Flexibility Score: inf
ROOT
ATOM      1  C   UNL     1      11.163 -16.862 -25.453  1.00  0.00     0.402 A 
ATOM      2  O   UNL     1      10.881 -15.605 -25.121  1.00  0.00    -0.202 OA
ATOM      3  C   UNL     1      10.697 -15.206 -23.866  1.00  0.00     0.368 A 
ATOM      4  C   UNL     1      10.402 -13.863 -23.617  1.00  0.00     0.162 A 
ATOM      5  C   UNL     1      10.200 -13.417 -22.308  1.00  0.00     0.128 A 
ATOM      6  C   UNL     1      10.293 -14.316 -21.244  1.00  0.00     0.093 A 
ATOM      7  C   UNL     1      10.588 -15.667 -21.467  1.00  0.00     0.136 A 
ATOM      8  C   UNL     1      10.796 -16.125 -22.795  1.00  0.00     0.125 A 
ATOM      9  C   UNL     1      11.108 -17.457 -23.112  1.00  0.00     0.078 A 
ATOM     10  C   UNL     1      11.304 -17.833 -24.444  1.00  0.00     0.223 A 
ENDROOT
BRANCH   1  11
ATOM     11  C   UNL     1      11.336 -17.185 -26.887  1.00  0.00     0.091 A 
ATOM     12  C   UNL     1      12.630 -17.284 -27.421  1.00  0.00     0.068 A 
ATOM     13  C   UNL     1      12.820 -17.570 -28.780  1.00  0.00     0.162 A 
ATOM     14  C   UNL     1      10.231 -17.340 -27.741  1.00  0.00     0.068 A 
ATOM     15  C   UNL     1      11.715 -17.743 -29.622  1.00  0.00     0.200 A 
ATOM     16  C   UNL     1      10.415 -17.624 -29.102  1.00  0.00     0.162 A 
BRANCH  13  17
ATOM     17  O   UNL     1      14.108 -17.681 -29.302  1.00  0.00    -0.504 OA
ATOM     18  H   UNL     1      14.623 -16.870 -29.622  1.00  0.00     0.293 HD
ENDBRANCH  13  17
BRANCH  15  19
ATOM     19  O   UNL     1      11.924 -18.030 -30.972  1.00  0.00    -0.502 OA
ATOM     20  H   UNL     1      11.208 -18.453 -31.549  1.00  0.00     0.293 HD
ENDBRANCH  15  19
BRANCH  16  21
ATOM     21  O   UNL     1       9.312 -17.781 -29.939  1.00  0.00    -0.504 OA
ATOM     22  H   UNL     1       8.981 -18.698 -30.216  1.00  0.00     0.293 HD
ENDBRANCH  16  21
ENDBRANCH   1  11
BRANCH  10  23
ATOM     23  O   UNL     1      11.664 -19.144 -24.756  1.00  0.00    -0.500 OA
ATOM     24  H   UNL     1      12.223 -19.364 -25.573  1.00  0.00     0.294 HD
ENDBRANCH  10  23
BRANCH   5  25
ATOM     25  O   UNL     1       9.905 -12.079 -22.052  1.00  0.00    -0.507 OA
ATOM     26  H   UNL     1       9.658 -11.438 -22.797  1.00  0.00     0.293 HD
ENDBRANCH   5  25
BRANCH   7  27
ATOM     27  O   UNL     1      10.660 -16.504 -20.349  1.00  0.00    -0.507 OA
ATOM     28  H   UNL     1      10.064 -17.304 -20.197  1.00  0.00     0.293 HD
ENDBRANCH   7  27
TORSDOF 7
ENDMDL
MODEL 7
REMARK VINA RESULT:    -6.581      4.597      7.653
REMARK INTER + INTRA:          -7.763
REMARK INTER:                  -7.426
REMARK INTRA:                  -0.336
REMARK UNBOUND:                 0.358
REMARK SMILES Oc1cc(O)c2cc(O)c(-c3cc(O)c(O)c(O)c3)[o+]c2c1
REMARK SMILES IDX 10 1 20 2 21 3 22 4 2 5 3 6 4 7 6 8 7 9 8 10 11 11 12 12
REMARK SMILES IDX 13 13 19 14 15 15 17 16 14 17 16 19 18 21 9 23 1 25 5 27
REMARK H PARENT 14 18 16 20 18 22 9 24 1 26 5 28
REMARK Flexibility Score: inf
ROOT
ATOM      1  C   UNL     1      11.176 -16.841 -25.436  1.00  0.00     0.402 A 
ATOM      2  O   UNL     1      10.898 -15.580 -25.115  1.00  0.00    -0.202 OA
ATOM      3  C   UNL     1      10.664 -15.179 -23.869  1.00  0.00     0.368 A 
ATOM      4  C   UNL     1      10.377 -13.832 -23.632  1.00  0.00     0.162 A 
ATOM      5  C   UNL     1      10.124 -13.385 -22.332  1.00  0.00     0.128 A 
ATOM      6  C   UNL     1      10.158 -14.286 -21.266  1.00  0.00     0.093 A 
ATOM      7  C   UNL     1      10.444 -15.641 -21.478  1.00  0.00     0.136 A 
ATOM      8  C   UNL     1      10.704 -16.100 -22.796  1.00  0.00     0.125 A 
ATOM      9  C   UNL     1      11.011 -17.436 -23.101  1.00  0.00     0.078 A 
ATOM     10  C   UNL     1      11.260 -17.814 -24.424  1.00  0.00     0.223 A 
ENDROOT
BRANCH   1  11
ATOM     11  C   UNL     1      11.407 -17.165 -26.862  1.00  0.00     0.091 A 
ATOM     12  C   UNL     1      10.308 -17.354 -27.714  1.00  0.00     0.068 A 
ATOM     13  C   UNL     1      10.500 -17.680 -29.064  1.00  0.00     0.162 A 
ATOM     14  C   UNL     1      12.705 -17.342 -27.371  1.00  0.00     0.068 A 
ATOM     15  C   UNL     1      11.796 -17.837 -29.569  1.00  0.00     0.200 A 
ATOM     16  C   UNL     1      12.903 -17.671 -28.720  1.00  0.00     0.162 A 
BRANCH  13  17
ATOM     17  O   UNL     1       9.405 -17.852 -29.908  1.00  0.00    -0.504 OA
ATOM     18  H   UNL     1       8.464 -17.622 -29.611  1.00  0.00     0.293 HD
ENDBRANCH  13  17
BRANCH  15  19
ATOM     19  O   UNL     1      11.968 -18.159 -30.917  1.00  0.00    -0.502 OA
ATOM     20  H   UNL     1      12.885 -18.296 -31.325  1.00  0.00     0.293 HD
ENDBRANCH  15  19
BRANCH  16  21
ATOM     21  O   UNL     1      14.194 -17.840 -29.216  1.00  0.00    -0.504 OA
ATOM     22  H   UNL     1      14.372 -18.349 -30.074  1.00  0.00     0.293 HD
ENDBRANCH  16  21
ENDBRANCH   1  11
BRANCH  10  23
ATOM     23  O   UNL     1      11.615 -19.130 -24.721  1.00  0.00    -0.500 OA
ATOM     24  H   UNL     1      12.045 -19.379 -25.604  1.00  0.00     0.294 HD
ENDBRANCH  10  23
BRANCH   5  25
ATOM     25  O   UNL     1       9.836 -12.043 -22.087  1.00  0.00    -0.507 OA
ATOM     26  H   UNL     1       9.412 -11.454 -22.795  1.00  0.00     0.293 HD
ENDBRANCH   5  25
BRANCH   7  27
ATOM     27  O   UNL     1      10.456 -16.479 -20.359  1.00  0.00    -0.507 OA
ATOM     28  H   UNL     1      10.351 -16.160 -19.407  1.00  0.00     0.293 HD
ENDBRANCH   7  27
TORSDOF 7
ENDMDL
MODEL 8
REMARK VINA RESULT:    -6.554      1.057      6.908
REMARK INTER + INTRA:          -7.729
REMARK INTER:                  -8.123
REMARK INTRA:                   0.394
REMARK UNBOUND:                 0.358
REMARK SMILES Oc1cc(O)c2cc(O)c(-c3cc(O)c(O)c(O)c3)[o+]c2c1
REMARK SMILES IDX 10 1 20 2 21 3 22 4 2 5 3 6 4 7 6 8 7 9 8 10 11 11 12 12
REMARK SMILES IDX 13 13 19 14 15 15 17 16 14 17 16 19 18 21 9 23 1 25 5 27
REMARK H PARENT 14 18 16 20 18 22 9 24 1 26 5 28
REMARK Flexibility Score: inf
ROOT
ATOM      1  C   UNL     1       9.060 -12.111 -24.621  1.00  0.00     0.402 A 
ATOM      2  O   UNL     1       9.568 -12.007 -23.396  1.00  0.00    -0.202 OA
ATOM      3  C   UNL     1       9.671 -13.034 -22.559  1.00  0.00     0.368 A 
ATOM      4  C   UNL     1      10.216 -12.824 -21.289  1.00  0.00     0.162 A 
ATOM      5  C   UNL     1      10.333 -13.887 -20.388  1.00  0.00     0.128 A 
ATOM      6  C   UNL     1       9.903 -15.163 -20.757  1.00  0.00     0.093 A 
ATOM      7  C   UNL     1       9.354 -15.399 -22.024  1.00  0.00     0.136 A 
ATOM      8  C   UNL     1       9.235 -14.325 -22.944  1.00  0.00     0.125 A 
ATOM      9  C   UNL     1       8.709 -14.470 -24.237  1.00  0.00     0.078 A 
ATOM     10  C   UNL     1       8.628 -13.365 -25.090  1.00  0.00     0.223 A 
ENDROOT
BRANCH   1  11
ATOM     11  C   UNL     1       8.989 -10.890 -25.455  1.00  0.00     0.091 A 
ATOM     12  C   UNL     1       9.399  -9.660 -24.916  1.00  0.00     0.068 A 
ATOM     13  C   UNL     1       9.323  -8.487 -25.680  1.00  0.00     0.162 A 
ATOM     14  C   UNL     1       8.468 -10.925 -26.760  1.00  0.00     0.068 A 
ATOM     15  C   UNL     1       8.821  -8.532 -26.986  1.00  0.00     0.200 A 
ATOM     16  C   UNL     1       8.389  -9.754 -27.527  1.00  0.00     0.162 A 
BRANCH  13  17
ATOM     17  O   UNL     1       9.745  -7.272 -25.143  1.00  0.00    -0.504 OA
ATOM     18  H   UNL     1      10.680  -7.150 -24.773  1.00  0.00     0.293 HD
ENDBRANCH  13  17
BRANCH  15  19
ATOM     19  O   UNL     1       8.757  -7.354 -27.732  1.00  0.00    -0.502 OA
ATOM     20  H   UNL     1       7.888  -6.852 -27.871  1.00  0.00     0.293 HD
ENDBRANCH  15  19
BRANCH  16  21
ATOM     21  O   UNL     1       7.875  -9.800 -28.822  1.00  0.00    -0.504 OA
ATOM     22  H   UNL     1       8.366  -9.383 -29.604  1.00  0.00     0.293 HD
ENDBRANCH  16  21
ENDBRANCH   1  11
BRANCH  10  23
ATOM     23  O   UNL     1       8.152 -13.519 -26.392  1.00  0.00    -0.500 OA
ATOM     24  H   UNL     1       8.470 -12.925 -27.150  1.00  0.00     0.294 HD
ENDBRANCH  10  23
BRANCH   5  25
ATOM     25  O   UNL     1      10.876 -13.685 -19.120  1.00  0.00    -0.507 OA
ATOM     26  H   UNL     1      10.289 -13.620 -18.297  1.00  0.00     0.293 HD
ENDBRANCH   5  25
BRANCH   7  27
ATOM     27  O   UNL     1       8.945 -16.704 -22.315  1.00  0.00    -0.507 OA
ATOM     28  H   UNL     1       8.195 -17.185 -21.840  1.00  0.00     0.293 HD
ENDBRANCH   7  27
TORSDOF 7
ENDMDL
MODEL 9
REMARK VINA RESULT:    -6.333      4.093      5.926
REMARK INTER + INTRA:          -7.456
REMARK INTER:                  -7.073
REMARK INTRA:                  -0.384
REMARK UNBOUND:                 0.358
REMARK SMILES Oc1cc(O)c2cc(O)c(-c3cc(O)c(O)c(O)c3)[o+]c2c1
REMARK SMILES IDX 10 1 20 2 21 3 22 4 2 5 3 6 4 7 6 8 7 9 8 10 11 11 12 12
REMARK SMILES IDX 13 13 19 14 15 15 17 16 14 17 16 19 18 21 9 23 1 25 5 27
REMARK H PARENT 14 18 16 20 18 22 9 24 1 26 5 28
REMARK Flexibility Score: inf
ROOT
ATOM      1  C   UNL     1      10.196 -15.789 -24.949  1.00  0.00     0.402 A 
ATOM      2  O   UNL     1      11.315 -16.381 -25.359  1.00  0.00    -0.202 OA
ATOM      3  C   UNL     1      11.405 -17.060 -26.498  1.00  0.00     0.368 A 
ATOM      4  C   UNL     1      12.624 -17.651 -26.842  1.00  0.00     0.162 A 
ATOM      5  C   UNL     1      12.746 -18.374 -28.032  1.00  0.00     0.128 A 
ATOM      6  C   UNL     1      11.646 -18.507 -28.881  1.00  0.00     0.093 A 
ATOM      7  C   UNL     1      10.413 -17.923 -28.560  1.00  0.00     0.136 A 
ATOM      8  C   UNL     1      10.285 -17.187 -27.353  1.00  0.00     0.125 A 
ATOM      9  C   UNL     1       9.094 -16.558 -26.956  1.00  0.00     0.078 A 
ATOM     10  C   UNL     1       9.044 -15.845 -25.755  1.00  0.00     0.223 A 
ENDROOT
BRANCH   1  11
ATOM     11  C   UNL     1      10.219 -15.070 -23.655  1.00  0.00     0.091 A 
ATOM     12  C   UNL     1      10.615 -13.723 -23.620  1.00  0.00     0.068 A 
ATOM     13  C   UNL     1      10.663 -13.027 -22.405  1.00  0.00     0.162 A 
ATOM     14  C   UNL     1       9.905 -15.721 -22.450  1.00  0.00     0.068 A 
ATOM     15  C   UNL     1      10.330 -13.676 -21.210  1.00  0.00     0.200 A 
ATOM     16  C   UNL     1       9.953 -15.029 -21.231  1.00  0.00     0.162 A 
BRANCH  13  17
ATOM     17  O   UNL     1      11.044 -11.686 -22.378  1.00  0.00    -0.504 OA
ATOM     18  H   UNL     1      12.007 -11.405 -22.516  1.00  0.00     0.293 HD
ENDBRANCH  13  17
BRANCH  15  19
ATOM     19  O   UNL     1      10.381 -12.965 -20.010  1.00  0.00    -0.502 OA
ATOM     20  H   UNL     1      10.648 -11.988 -19.975  1.00  0.00     0.293 HD
ENDBRANCH  15  19
BRANCH  16  21
ATOM     21  O   UNL     1       9.635 -15.684 -20.043  1.00  0.00    -0.504 OA
ATOM     22  H   UNL     1      10.330 -16.203 -19.519  1.00  0.00     0.293 HD
ENDBRANCH  16  21
ENDBRANCH   1  11
BRANCH  10  23
ATOM     23  O   UNL     1       7.876 -15.178 -25.384  1.00  0.00    -0.500 OA
ATOM     24  H   UNL     1       7.540 -14.368 -25.892  1.00  0.00     0.294 HD
ENDBRANCH  10  23
BRANCH   5  25
ATOM     25  O   UNL     1      13.958 -18.966 -28.381  1.00  0.00    -0.507 OA
ATOM     26  H   UNL     1      14.627 -18.493 -28.978  1.00  0.00     0.293 HD
ENDBRANCH   5  25
BRANCH   7  27
ATOM     27  O   UNL     1       9.360 -18.105 -29.461  1.00  0.00    -0.507 OA
ATOM     28  H   UNL     1       8.669 -17.403 -29.680  1.00  0.00     0.293 HD
ENDBRANCH   7  27
TORSDOF 7
ENDMDL
