MODEL 1
REMARK VINA RESULT:    -2.992      0.000      0.000
REMARK INTER + INTRA:          -4.519
REMARK INTER:                  -4.217
REMARK INTRA:                  -0.302
REMARK UNBOUND:                -0.302
REMARK SMILES CCCCCCCCC(=O)[O-]
REMARK SMILES IDX 6 1 7 2 8 3 9 4 10 5 11 6 5 7 4 8 3 9 2 10 1 11
REMARK H PARENT
REMARK Flexibility Score: inf
ROOT
ATOM      1  C   UNL     1      -4.951  20.230  15.909  1.00  0.00     0.000 C 
ENDROOT
BRANCH   1   2
ATOM      2  C   UNL     1      -3.451  19.925  15.739  1.00  0.00     0.006 C 
BRANCH   2   3
ATOM      3  C   UNL     1      -2.653  19.939  17.052  1.00  0.00     0.053 C 
BRANCH   3   4
ATOM      4  C   UNL     1      -1.485  20.875  16.991  1.00  0.00     0.041 C 
ATOM      5  O   UNL     1      -1.087  21.460  18.032  1.00  0.00    -0.550 OA
ATOM      6  O   UNL     1      -0.859  21.126  15.777  1.00  0.00    -0.550 OA
ENDBRANCH   3   4
ENDBRANCH   2   3
ENDBRANCH   1   2
BRANCH   1   7
ATOM      7  C   UNL     1      -5.571  20.876  14.658  1.00  0.00     0.000 C 
BRANCH   7   8
ATOM      8  C   UNL     1      -7.092  21.081  14.783  1.00  0.00    -0.000 C 
BRANCH   8   9
ATOM      9  C   UNL     1      -7.704  20.591  16.109  1.00  0.00    -0.000 C 
BRANCH   9  10
ATOM     10  C   UNL     1      -8.268  21.734  16.965  1.00  0.00    -0.003 C 
ATOM     11  C   UNL     1      -8.253  21.369  18.447  1.00  0.00     0.004 C 
ENDBRANCH   9  10
ENDBRANCH   8   9
ENDBRANCH   7   8
ENDBRANCH   1   7
TORSDOF 7
ENDMDL
MODEL 2
REMARK VINA RESULT:    -2.693      4.562      6.444
REMARK INTER + INTRA:          -4.097
REMARK INTER:                  -3.809
REMARK INTRA:                  -0.288
REMARK UNBOUND:                -0.302
REMARK SMILES CCCCCCCCC(=O)[O-]
REMARK SMILES IDX 6 1 7 2 8 3 9 4 10 5 11 6 5 7 4 8 3 9 2 10 1 11
REMARK H PARENT
REMARK Flexibility Score: inf
ROOT
ATOM      1  C   UNL     1      -7.992  22.216  19.381  1.00  0.00     0.000 C 
ENDROOT
BRANCH   1   2
ATOM      2  C   UNL     1      -8.698  21.742  20.664  1.00  0.00     0.006 C 
BRANCH   2   3
ATOM      3  C   UNL     1      -8.020  20.545  21.350  1.00  0.00     0.053 C 
BRANCH   3   4
ATOM      4  C   UNL     1      -7.991  20.694  22.841  1.00  0.00     0.041 C 
ATOM      5  O   UNL     1      -6.969  20.353  23.491  1.00  0.00    -0.550 OA
ATOM      6  O   UNL     1      -9.105  21.178  23.513  1.00  0.00    -0.550 OA
ENDBRANCH   3   4
ENDBRANCH   2   3
ENDBRANCH   1   2
BRANCH   1   7
ATOM      7  C   UNL     1      -8.948  22.315  18.180  1.00  0.00     0.000 C 
BRANCH   7   8
ATOM      8  C   UNL     1      -9.043  21.002  17.381  1.00  0.00    -0.000 C 
BRANCH   8   9
ATOM      9  C   UNL     1      -7.743  20.581  16.671  1.00  0.00    -0.000 C 
BRANCH   9  10
ATOM     10  C   UNL     1      -7.684  21.045  15.209  1.00  0.00    -0.003 C 
ATOM     11  C   UNL     1      -6.244  21.084  14.702  1.00  0.00     0.004 C 
ENDBRANCH   9  10
ENDBRANCH   8   9
ENDBRANCH   7   8
ENDBRANCH   1   7
TORSDOF 7
ENDMDL
MODEL 3
REMARK VINA RESULT:    -2.623      4.559      6.183
REMARK INTER + INTRA:          -3.999
REMARK INTER:                  -3.684
REMARK INTRA:                  -0.315
REMARK UNBOUND:                -0.302
REMARK SMILES CCCCCCCCC(=O)[O-]
REMARK SMILES IDX 6 1 7 2 8 3 9 4 10 5 11 6 5 7 4 8 3 9 2 10 1 11
REMARK H PARENT
REMARK Flexibility Score: inf
ROOT
ATOM      1  C   UNL     1      -6.531  20.829  19.389  1.00  0.00     0.000 C 
ENDROOT
BRANCH   1   2
ATOM      2  C   UNL     1      -6.988  20.091  20.661  1.00  0.00     0.006 C 
BRANCH   2   3
ATOM      3  C   UNL     1      -8.507  20.125  20.897  1.00  0.00     0.053 C 
BRANCH   3   4
ATOM      4  C   UNL     1      -8.935  21.365  21.622  1.00  0.00     0.041 C 
ATOM      5  O   UNL     1      -9.123  22.436  20.989  1.00  0.00    -0.550 OA
ATOM      6  O   UNL     1      -9.094  21.343  23.001  1.00  0.00    -0.550 OA
ENDBRANCH   3   4
ENDBRANCH   2   3
ENDBRANCH   1   2
BRANCH   1   7
ATOM      7  C   UNL     1      -6.562  19.933  18.140  1.00  0.00     0.000 C 
BRANCH   7   8
ATOM      8  C   UNL     1      -7.805  20.172  17.264  1.00  0.00    -0.000 C 
BRANCH   8   9
ATOM      9  C   UNL     1      -7.708  21.385  16.320  1.00  0.00    -0.000 C 
BRANCH   9  10
ATOM     10  C   UNL     1      -7.382  20.993  14.872  1.00  0.00    -0.003 C 
ATOM     11  C   UNL     1      -5.874  20.972  14.635  1.00  0.00     0.004 C 
ENDBRANCH   9  10
ENDBRANCH   8   9
ENDBRANCH   7   8
ENDBRANCH   1   7
TORSDOF 7
ENDMDL
MODEL 4
REMARK VINA RESULT:    -2.606      2.662      4.891
REMARK INTER + INTRA:          -3.975
REMARK INTER:                  -3.571
REMARK INTRA:                  -0.405
REMARK UNBOUND:                -0.302
REMARK SMILES CCCCCCCCC(=O)[O-]
REMARK SMILES IDX 6 1 7 2 8 3 9 4 10 5 11 6 5 7 4 8 3 9 2 10 1 11
REMARK H PARENT
REMARK Flexibility Score: inf
ROOT
ATOM      1  C   UNL     1      -7.564  20.780  15.387  1.00  0.00     0.000 C 
ENDROOT
BRANCH   1   2
ATOM      2  C   UNL     1      -7.985  21.375  16.743  1.00  0.00     0.006 C 
BRANCH   2   3
ATOM      3  C   UNL     1      -7.883  20.393  17.921  1.00  0.00     0.053 C 
BRANCH   3   4
ATOM      4  C   UNL     1      -7.137  20.980  19.079  1.00  0.00     0.041 C 
ATOM      5  O   UNL     1      -7.664  21.883  19.780  1.00  0.00    -0.550 OA
ATOM      6  O   UNL     1      -5.847  20.552  19.364  1.00  0.00    -0.550 OA
ENDBRANCH   3   4
ENDBRANCH   2   3
ENDBRANCH   1   2
BRANCH   1   7
ATOM      7  C   UNL     1      -6.286  21.427  14.825  1.00  0.00     0.000 C 
BRANCH   7   8
ATOM      8  C   UNL     1      -5.100  20.448  14.761  1.00  0.00    -0.000 C 
BRANCH   8   9
ATOM      9  C   UNL     1      -4.518  20.046  16.129  1.00  0.00    -0.000 C 
BRANCH   9  10
ATOM     10  C   UNL     1      -2.984  20.091  16.163  1.00  0.00    -0.003 C 
ATOM     11  C   UNL     1      -2.463  20.045  17.597  1.00  0.00     0.004 C 
ENDBRANCH   9  10
ENDBRANCH   8   9
ENDBRANCH   7   8
ENDBRANCH   1   7
TORSDOF 7
ENDMDL
MODEL 5
REMARK VINA RESULT:    -2.602      3.088      5.699
REMARK INTER + INTRA:          -3.970
REMARK INTER:                  -3.772
REMARK INTRA:                  -0.198
REMARK UNBOUND:                -0.302
REMARK SMILES CCCCCCCCC(=O)[O-]
REMARK SMILES IDX 6 1 7 2 8 3 9 4 10 5 11 6 5 7 4 8 3 9 2 10 1 11
REMARK H PARENT
REMARK Flexibility Score: inf
ROOT
ATOM      1  C   UNL     1      -5.242  20.676  14.823  1.00  0.00     0.000 C 
ENDROOT
BRANCH   1   2
ATOM      2  C   UNL     1      -6.644  21.308  14.881  1.00  0.00     0.006 C 
BRANCH   2   3
ATOM      3  C   UNL     1      -7.657  20.519  15.727  1.00  0.00     0.053 C 
BRANCH   3   4
ATOM      4  C   UNL     1      -7.914  21.173  17.050  1.00  0.00     0.041 C 
ATOM      5  O   UNL     1      -7.704  20.543  18.119  1.00  0.00    -0.550 OA
ATOM      6  O   UNL     1      -8.418  22.466  17.100  1.00  0.00    -0.550 OA
ENDBRANCH   3   4
ENDBRANCH   2   3
ENDBRANCH   1   2
BRANCH   1   7
ATOM      7  C   UNL     1      -4.712  20.279  16.212  1.00  0.00     0.000 C 
BRANCH   7   8
ATOM      8  C   UNL     1      -3.226  19.876  16.192  1.00  0.00    -0.000 C 
BRANCH   8   9
ATOM      9  C   UNL     1      -2.398  20.403  17.379  1.00  0.00    -0.000 C 
BRANCH   9  10
ATOM     10  C   UNL     1      -0.939  20.701  17.003  1.00  0.00    -0.003 C 
ATOM     11  C   UNL     1      -0.853  21.415  15.657  1.00  0.00     0.004 C 
ENDBRANCH   9  10
ENDBRANCH   8   9
ENDBRANCH   7   8
ENDBRANCH   1   7
TORSDOF 7
ENDMDL
MODEL 6
REMARK VINA RESULT:    -2.408     10.849     14.527
REMARK INTER + INTRA:          -3.696
REMARK INTER:                  -3.449
REMARK INTRA:                  -0.247
REMARK UNBOUND:                -0.302
REMARK SMILES CCCCCCCCC(=O)[O-]
REMARK SMILES IDX 6 1 7 2 8 3 9 4 10 5 11 6 5 7 4 8 3 9 2 10 1 11
REMARK H PARENT
REMARK Flexibility Score: inf
ROOT
ATOM      1  C   UNL     1       8.690  21.038  13.885  1.00  0.00     0.000 C 
ENDROOT
BRANCH   1   2
ATOM      2  C   UNL     1       8.076  19.922  14.750  1.00  0.00     0.006 C 
BRANCH   2   3
ATOM      3  C   UNL     1       7.020  20.412  15.754  1.00  0.00     0.053 C 
BRANCH   3   4
ATOM      4  C   UNL     1       5.640  20.395  15.171  1.00  0.00     0.041 C 
ATOM      5  O   UNL     1       4.650  20.715  15.879  1.00  0.00    -0.550 OA
ATOM      6  O   UNL     1       5.445  19.992  13.857  1.00  0.00    -0.550 OA
ENDBRANCH   3   4
ENDBRANCH   2   3
ENDBRANCH   1   2
BRANCH   1   7
ATOM      7  C   UNL     1       9.772  20.517  12.924  1.00  0.00     0.000 C 
BRANCH   7   8
ATOM      8  C   UNL     1      11.125  21.228  13.105  1.00  0.00    -0.000 C 
BRANCH   8   9
ATOM      9  C   UNL     1      11.058  22.766  13.061  1.00  0.00    -0.000 C 
BRANCH   9  10
ATOM     10  C   UNL     1      11.091  23.325  11.631  1.00  0.00    -0.003 C 
ATOM     11  C   UNL     1      10.735  24.810  11.613  1.00  0.00     0.004 C 
ENDBRANCH   9  10
ENDBRANCH   8   9
ENDBRANCH   7   8
ENDBRANCH   1   7
TORSDOF 7
ENDMDL
MODEL 7
REMARK VINA RESULT:    -2.256     11.892     15.195
REMARK INTER + INTRA:          -3.482
REMARK INTER:                  -3.148
REMARK INTRA:                  -0.334
REMARK UNBOUND:                -0.302
REMARK SMILES CCCCCCCCC(=O)[O-]
REMARK SMILES IDX 6 1 7 2 8 3 9 4 10 5 11 6 5 7 4 8 3 9 2 10 1 11
REMARK H PARENT
REMARK Flexibility Score: inf
ROOT
ATOM      1  C   UNL     1       9.574  20.995  12.233  1.00  0.00     0.000 C 
ENDROOT
BRANCH   1   2
ATOM      2  C   UNL     1       9.062  20.852  13.679  1.00  0.00     0.006 C 
BRANCH   2   3
ATOM      3  C   UNL     1       7.827  19.948  13.823  1.00  0.00     0.053 C 
BRANCH   3   4
ATOM      4  C   UNL     1       6.834  20.505  14.797  1.00  0.00     0.041 C 
ATOM      5  O   UNL     1       7.128  20.599  16.017  1.00  0.00    -0.550 OA
ATOM      6  O   UNL     1       5.573  20.888  14.360  1.00  0.00    -0.550 OA
ENDBRANCH   3   4
ENDBRANCH   2   3
ENDBRANCH   1   2
BRANCH   1   7
ATOM      7  C   UNL     1      10.892  21.782  12.146  1.00  0.00     0.000 C 
BRANCH   7   8
ATOM      8  C   UNL     1      10.774  23.210  12.710  1.00  0.00    -0.000 C 
BRANCH   8   9
ATOM      9  C   UNL     1      10.779  24.327  11.650  1.00  0.00    -0.000 C 
BRANCH   9  10
ATOM     10  C   UNL     1      11.125  23.815  10.244  1.00  0.00    -0.003 C 
ATOM     11  C   UNL     1      10.201  24.427   9.194  1.00  0.00     0.004 C 
ENDBRANCH   9  10
ENDBRANCH   8   9
ENDBRANCH   7   8
ENDBRANCH   1   7
TORSDOF 7
ENDMDL
MODEL 8
REMARK VINA RESULT:    -1.739     11.771     14.815
REMARK INTER + INTRA:          -2.752
REMARK INTER:                  -2.544
REMARK INTRA:                  -0.209
REMARK UNBOUND:                -0.302
REMARK SMILES CCCCCCCCC(=O)[O-]
REMARK SMILES IDX 6 1 7 2 8 3 9 4 10 5 11 6 5 7 4 8 3 9 2 10 1 11
REMARK H PARENT
REMARK Flexibility Score: inf
ROOT
ATOM      1  C   UNL     1       9.661  21.660  12.972  1.00  0.00     0.000 C 
ENDROOT
BRANCH   1   2
ATOM      2  C   UNL     1      10.906  22.463  12.555  1.00  0.00     0.006 C 
BRANCH   2   3
ATOM      3  C   UNL     1      11.120  22.549  11.035  1.00  0.00     0.053 C 
BRANCH   3   4
ATOM      4  C   UNL     1      10.925  23.942  10.518  1.00  0.00     0.041 C 
ATOM      5  O   UNL     1      10.847  24.152   9.280  1.00  0.00    -0.550 OA
ATOM      6  O   UNL     1      10.863  25.009  11.404  1.00  0.00    -0.550 OA
ENDBRANCH   3   4
ENDBRANCH   2   3
ENDBRANCH   1   2
BRANCH   1   7
ATOM      7  C   UNL     1       9.864  20.889  14.287  1.00  0.00     0.000 C 
BRANCH   7   8
ATOM      8  C   UNL     1       8.740  19.875  14.566  1.00  0.00    -0.000 C 
BRANCH   8   9
ATOM      9  C   UNL     1       7.314  20.452  14.487  1.00  0.00    -0.000 C 
BRANCH   9  10
ATOM     10  C   UNL     1       6.638  20.563  15.861  1.00  0.00    -0.003 C 
ATOM     11  C   UNL     1       5.181  20.999  15.723  1.00  0.00     0.004 C 
ENDBRANCH   9  10
ENDBRANCH   8   9
ENDBRANCH   7   8
ENDBRANCH   1   7
TORSDOF 7
ENDMDL
