MODEL 1
REMARK VINA RESULT:    -4.434      0.000      0.000
REMARK INTER + INTRA:         -15.846
REMARK INTER:                 -11.563
REMARK INTRA:                  -4.282
REMARK UNBOUND:                -4.282
REMARK SMILES CCCCCCCCCCCCCCCCCCCCCCCCCCCCCO
REMARK SMILES IDX 16 1 15 2 14 3 13 4 12 5 11 6 10 7 9 8 8 9 7 10 6 11 5 12
REMARK SMILES IDX 4 13 3 14 2 15 1 16 17 17 18 18 19 19 20 20 21 21 22 22
REMARK SMILES IDX 23 23 24 24 25 25 26 26 27 27 28 28 29 29 30 30
REMARK H PARENT 30 31
REMARK Flexibility Score: inf
ROOT
ATOM      1  C   UNL     1      12.001 -25.976  13.539  1.00  0.00     0.000 C 
ENDROOT
BRANCH   1   2
ATOM      2  C   UNL     1      13.086 -27.053  13.363  1.00  0.00     0.000 C 
BRANCH   2   3
ATOM      3  C   UNL     1      13.219 -27.622  11.937  1.00  0.00     0.000 C 
BRANCH   3   4
ATOM      4  C   UNL     1      14.671 -27.678  11.419  1.00  0.00     0.000 C 
BRANCH   4   5
ATOM      5  C   UNL     1      14.768 -28.264   9.999  1.00  0.00     0.000 C 
BRANCH   5   6
ATOM      6  C   UNL     1      13.497 -28.009   9.173  1.00  0.00     0.000 C 
BRANCH   6   7
ATOM      7  C   UNL     1      13.719 -28.249   7.669  1.00  0.00     0.000 C 
BRANCH   7   8
ATOM      8  C   UNL     1      14.570 -27.150   7.009  1.00  0.00    -0.000 C 
BRANCH   8   9
ATOM      9  C   UNL     1      14.322 -25.727   7.544  1.00  0.00    -0.000 C 
BRANCH   9  10
ATOM     10  C   UNL     1      15.606 -25.039   8.036  1.00  0.00    -0.000 C 
BRANCH  10  11
ATOM     11  C   UNL     1      15.461 -24.564   9.487  1.00  0.00    -0.000 C 
BRANCH  11  12
ATOM     12  C   UNL     1      13.980 -24.428   9.872  1.00  0.00    -0.000 C 
BRANCH  12  13
ATOM     13  C   UNL     1      13.773 -23.796  11.259  1.00  0.00    -0.000 C 
BRANCH  13  14
ATOM     14  C   UNL     1      15.067 -23.378  11.983  1.00  0.00    -0.000 C 
BRANCH  14  15
ATOM     15  C   UNL     1      15.537 -24.411  13.018  1.00  0.00    -0.003 C 
ATOM     16  C   UNL     1      16.969 -24.133  13.464  1.00  0.00     0.004 C 
ENDBRANCH  14  15
ENDBRANCH  13  14
ENDBRANCH  12  13
ENDBRANCH  11  12
ENDBRANCH  10  11
ENDBRANCH   9  10
ENDBRANCH   8   9
ENDBRANCH   7   8
ENDBRANCH   6   7
ENDBRANCH   5   6
ENDBRANCH   4   5
ENDBRANCH   3   4
ENDBRANCH   2   3
ENDBRANCH   1   2
BRANCH   1  17
ATOM     17  C   UNL     1      10.605 -26.578  13.779  1.00  0.00     0.000 C 
BRANCH  17  18
ATOM     18  C   UNL     1       9.499 -25.513  13.887  1.00  0.00     0.000 C 
BRANCH  18  19
ATOM     19  C   UNL     1       8.069 -26.007  13.600  1.00  0.00     0.000 C 
BRANCH  19  20
ATOM     20  C   UNL     1       6.988 -25.186  14.321  1.00  0.00     0.000 C 
BRANCH  20  21
ATOM     21  C   UNL     1       7.584 -24.115  15.251  1.00  0.00     0.000 C 
BRANCH  21  22
ATOM     22  C   UNL     1       7.662 -24.558  16.729  1.00  0.00     0.000 C 
BRANCH  22  23
ATOM     23  C   UNL     1       6.582 -25.592  17.089  1.00  0.00     0.000 C 
BRANCH  23  24
ATOM     24  C   UNL     1       7.159 -26.977  17.437  1.00  0.00     0.000 C 
BRANCH  24  25
ATOM     25  C   UNL     1       8.673 -27.141  17.202  1.00  0.00     0.000 C 
BRANCH  25  26
ATOM     26  C   UNL     1       9.035 -28.448  16.477  1.00  0.00     0.000 C 
BRANCH  26  27
ATOM     27  C   UNL     1      10.305 -29.113  17.041  1.00  0.00     0.002 C 
BRANCH  27  28
ATOM     28  C   UNL     1      11.634 -28.557  16.495  1.00  0.00     0.028 C 
BRANCH  28  29
ATOM     29  C   UNL     1      12.374 -27.642  17.478  1.00  0.00     0.156 C 
BRANCH  29  30
ATOM     30  O   UNL     1      12.263 -26.297  17.098  1.00  0.00    -0.396 OA
ATOM     31  H   UNL     1      11.436 -25.949  17.524  1.00  0.00     0.210 HD
ENDBRANCH  29  30
ENDBRANCH  28  29
ENDBRANCH  27  28
ENDBRANCH  26  27
ENDBRANCH  25  26
ENDBRANCH  24  25
ENDBRANCH  23  24
ENDBRANCH  22  23
ENDBRANCH  21  22
ENDBRANCH  20  21
ENDBRANCH  19  20
ENDBRANCH  18  19
ENDBRANCH  17  18
ENDBRANCH   1  17
TORSDOF 28
ENDMDL
MODEL 2
REMARK VINA RESULT:    -4.239      4.677     10.111
REMARK INTER + INTRA:         -15.337
REMARK INTER:                 -13.505
REMARK INTRA:                  -1.833
REMARK UNBOUND:                -4.282
REMARK SMILES CCCCCCCCCCCCCCCCCCCCCCCCCCCCCO
REMARK SMILES IDX 16 1 15 2 14 3 13 4 12 5 11 6 10 7 9 8 8 9 7 10 6 11 5 12
REMARK SMILES IDX 4 13 3 14 2 15 1 16 17 17 18 18 19 19 20 20 21 21 22 22
REMARK SMILES IDX 23 23 24 24 25 25 26 26 27 27 28 28 29 29 30 30
REMARK H PARENT 30 31
REMARK Flexibility Score: inf
ROOT
ATOM      1  C   UNL     1      14.288 -23.720  12.309  1.00  0.00     0.000 C 
ENDROOT
BRANCH   1   2
ATOM      2  C   UNL     1      13.651 -24.034  10.944  1.00  0.00     0.000 C 
BRANCH   2   3
ATOM      3  C   UNL     1      14.550 -24.813   9.964  1.00  0.00     0.000 C 
BRANCH   3   4
ATOM      4  C   UNL     1      14.725 -26.303  10.326  1.00  0.00     0.000 C 
BRANCH   4   5
ATOM      5  C   UNL     1      13.490 -26.886  11.037  1.00  0.00     0.000 C 
BRANCH   5   6
ATOM      6  C   UNL     1      13.829 -27.453  12.425  1.00  0.00     0.000 C 
BRANCH   6   7
ATOM      7  C   UNL     1      12.663 -28.256  13.028  1.00  0.00     0.000 C 
BRANCH   7   8
ATOM      8  C   UNL     1      11.376 -28.159  12.191  1.00  0.00    -0.000 C 
BRANCH   8   9
ATOM      9  C   UNL     1      10.073 -28.087  13.009  1.00  0.00    -0.000 C 
BRANCH   9  10
ATOM     10  C   UNL     1      10.289 -27.552  14.435  1.00  0.00    -0.000 C 
BRANCH  10  11
ATOM     11  C   UNL     1       9.444 -26.298  14.691  1.00  0.00    -0.000 C 
BRANCH  11  12
ATOM     12  C   UNL     1       8.346 -26.152  13.627  1.00  0.00    -0.000 C 
BRANCH  12  13
ATOM     13  C   UNL     1       7.187 -25.244  14.077  1.00  0.00    -0.000 C 
BRANCH  13  14
ATOM     14  C   UNL     1       7.563 -24.182  15.127  1.00  0.00    -0.000 C 
BRANCH  14  15
ATOM     15  C   UNL     1       6.895 -24.423  16.489  1.00  0.00    -0.003 C 
ATOM     16  C   UNL     1       5.915 -25.592  16.424  1.00  0.00     0.004 C 
ENDBRANCH  14  15
ENDBRANCH  13  14
ENDBRANCH  12  13
ENDBRANCH  11  12
ENDBRANCH  10  11
ENDBRANCH   9  10
ENDBRANCH   8   9
ENDBRANCH   7   8
ENDBRANCH   6   7
ENDBRANCH   5   6
ENDBRANCH   4   5
ENDBRANCH   3   4
ENDBRANCH   2   3
ENDBRANCH   1   2
BRANCH   1  17
ATOM     17  C   UNL     1      15.813 -23.541  12.222  1.00  0.00     0.000 C 
BRANCH  17  18
ATOM     18  C   UNL     1      16.581 -24.392  13.250  1.00  0.00     0.000 C 
BRANCH  18  19
ATOM     19  C   UNL     1      17.718 -23.668  13.995  1.00  0.00     0.000 C 
BRANCH  19  20
ATOM     20  C   UNL     1      18.403 -24.547  15.055  1.00  0.00     0.000 C 
BRANCH  20  21
ATOM     21  C   UNL     1      18.966 -23.726  16.227  1.00  0.00     0.000 C 
BRANCH  21  22
ATOM     22  C   UNL     1      19.942 -24.522  17.123  1.00  0.00     0.000 C 
BRANCH  22  23
ATOM     23  C   UNL     1      20.541 -23.659  18.247  1.00  0.00     0.000 C 
BRANCH  23  24
ATOM     24  C   UNL     1      22.044 -23.378  18.059  1.00  0.00     0.000 C 
BRANCH  24  25
ATOM     25  C   UNL     1      22.490 -21.933  18.356  1.00  0.00     0.000 C 
BRANCH  25  26
ATOM     26  C   UNL     1      23.914 -21.626  17.865  1.00  0.00     0.000 C 
BRANCH  26  27
ATOM     27  C   UNL     1      24.047 -20.214  17.264  1.00  0.00     0.002 C 
BRANCH  27  28
ATOM     28  C   UNL     1      22.718 -19.475  17.025  1.00  0.00     0.028 C 
BRANCH  28  29
ATOM     29  C   UNL     1      22.812 -18.349  15.986  1.00  0.00     0.156 C 
BRANCH  29  30
ATOM     30  O   UNL     1      21.936 -18.576  14.915  1.00  0.00    -0.396 OA
ATOM     31  H   UNL     1      21.820 -17.704  14.455  1.00  0.00     0.210 HD
ENDBRANCH  29  30
ENDBRANCH  28  29
ENDBRANCH  27  28
ENDBRANCH  26  27
ENDBRANCH  25  26
ENDBRANCH  24  25
ENDBRANCH  23  24
ENDBRANCH  22  23
ENDBRANCH  21  22
ENDBRANCH  20  21
ENDBRANCH  19  20
ENDBRANCH  18  19
ENDBRANCH  17  18
ENDBRANCH   1  17
TORSDOF 28
ENDMDL
MODEL 3
REMARK VINA RESULT:    -4.100      2.039      4.960
REMARK INTER + INTRA:         -14.973
REMARK INTER:                 -10.499
REMARK INTRA:                  -4.474
REMARK UNBOUND:                -4.282
REMARK SMILES CCCCCCCCCCCCCCCCCCCCCCCCCCCCCO
REMARK SMILES IDX 16 1 15 2 14 3 13 4 12 5 11 6 10 7 9 8 8 9 7 10 6 11 5 12
REMARK SMILES IDX 4 13 3 14 2 15 1 16 17 17 18 18 19 19 20 20 21 21 22 22
REMARK SMILES IDX 23 23 24 24 25 25 26 26 27 27 28 28 29 29 30 30
REMARK H PARENT 30 31
REMARK Flexibility Score: inf
ROOT
ATOM      1  C   UNL     1      14.833 -23.106  12.008  1.00  0.00     0.000 C 
ENDROOT
BRANCH   1   2
ATOM      2  C   UNL     1      16.203 -23.753  12.273  1.00  0.00     0.000 C 
BRANCH   2   3
ATOM      3  C   UNL     1      16.180 -24.976  13.211  1.00  0.00     0.000 C 
BRANCH   3   4
ATOM      4  C   UNL     1      15.916 -26.313  12.488  1.00  0.00     0.000 C 
BRANCH   4   5
ATOM      5  C   UNL     1      16.128 -27.531  13.405  1.00  0.00     0.000 C 
BRANCH   5   6
ATOM      6  C   UNL     1      16.469 -28.805  12.615  1.00  0.00     0.000 C 
BRANCH   6   7
ATOM      7  C   UNL     1      15.515 -29.029  11.428  1.00  0.00     0.000 C 
BRANCH   7   8
ATOM      8  C   UNL     1      16.226 -28.932  10.066  1.00  0.00    -0.000 C 
BRANCH   8   9
ATOM      9  C   UNL     1      15.388 -28.298   8.940  1.00  0.00    -0.000 C 
BRANCH   9  10
ATOM     10  C   UNL     1      13.989 -27.863   9.406  1.00  0.00    -0.000 C 
BRANCH  10  11
ATOM     11  C   UNL     1      13.265 -27.063   8.315  1.00  0.00    -0.000 C 
BRANCH  11  12
ATOM     12  C   UNL     1      14.253 -26.584   7.241  1.00  0.00    -0.000 C 
BRANCH  12  13
ATOM     13  C   UNL     1      14.569 -25.081   7.340  1.00  0.00    -0.000 C 
BRANCH  13  14
ATOM     14  C   UNL     1      15.990 -24.747   7.832  1.00  0.00    -0.000 C 
BRANCH  14  15
ATOM     15  C   UNL     1      16.827 -23.998   6.784  1.00  0.00    -0.003 C 
ATOM     16  C   UNL     1      17.092 -24.873   5.562  1.00  0.00     0.004 C 
ENDBRANCH  14  15
ENDBRANCH  13  14
ENDBRANCH  12  13
ENDBRANCH  11  12
ENDBRANCH  10  11
ENDBRANCH   9  10
ENDBRANCH   8   9
ENDBRANCH   7   8
ENDBRANCH   6   7
ENDBRANCH   5   6
ENDBRANCH   4   5
ENDBRANCH   3   4
ENDBRANCH   2   3
ENDBRANCH   1   2
BRANCH   1  17
ATOM     17  C   UNL     1      14.086 -23.762  10.834  1.00  0.00     0.000 C 
BRANCH  17  18
ATOM     18  C   UNL     1      12.876 -24.603  11.281  1.00  0.00     0.000 C 
BRANCH  18  19
ATOM     19  C   UNL     1      12.513 -24.504  12.774  1.00  0.00     0.000 C 
BRANCH  19  20
ATOM     20  C   UNL     1      12.552 -25.860  13.498  1.00  0.00     0.000 C 
BRANCH  20  21
ATOM     21  C   UNL     1      12.555 -27.049  12.522  1.00  0.00     0.000 C 
BRANCH  21  22
ATOM     22  C   UNL     1      11.866 -28.311  13.087  1.00  0.00     0.000 C 
BRANCH  22  23
ATOM     23  C   UNL     1      10.514 -28.593  12.410  1.00  0.00     0.000 C 
BRANCH  23  24
ATOM     24  C   UNL     1       9.327 -27.916  13.121  1.00  0.00     0.000 C 
BRANCH  24  25
ATOM     25  C   UNL     1       9.464 -27.773  14.649  1.00  0.00     0.000 C 
BRANCH  25  26
ATOM     26  C   UNL     1       9.445 -26.310  15.124  1.00  0.00     0.000 C 
BRANCH  26  27
ATOM     27  C   UNL     1       8.923 -25.338  14.048  1.00  0.00     0.002 C 
BRANCH  27  28
ATOM     28  C   UNL     1       7.452 -24.912  14.209  1.00  0.00     0.028 C 
BRANCH  28  29
ATOM     29  C   UNL     1       7.203 -23.982  15.404  1.00  0.00     0.156 C 
BRANCH  29  30
ATOM     30  O   UNL     1       6.189 -24.482  16.232  1.00  0.00    -0.396 OA
ATOM     31  H   UNL     1       6.205 -25.470  16.134  1.00  0.00     0.210 HD
ENDBRANCH  29  30
ENDBRANCH  28  29
ENDBRANCH  27  28
ENDBRANCH  26  27
ENDBRANCH  25  26
ENDBRANCH  24  25
ENDBRANCH  23  24
ENDBRANCH  22  23
ENDBRANCH  21  22
ENDBRANCH  20  21
ENDBRANCH  19  20
ENDBRANCH  18  19
ENDBRANCH  17  18
ENDBRANCH   1  17
TORSDOF 28
ENDMDL
MODEL 4
REMARK VINA RESULT:    -4.086      4.240      8.879
REMARK INTER + INTRA:         -14.936
REMARK INTER:                 -12.899
REMARK INTRA:                  -2.037
REMARK UNBOUND:                -4.282
REMARK SMILES CCCCCCCCCCCCCCCCCCCCCCCCCCCCCO
REMARK SMILES IDX 16 1 15 2 14 3 13 4 12 5 11 6 10 7 9 8 8 9 7 10 6 11 5 12
REMARK SMILES IDX 4 13 3 14 2 15 1 16 17 17 18 18 19 19 20 20 21 21 22 22
REMARK SMILES IDX 23 23 24 24 25 25 26 26 27 27 28 28 29 29 30 30
REMARK H PARENT 30 31
REMARK Flexibility Score: inf
ROOT
ATOM      1  C   UNL     1      15.111 -24.246  10.022  1.00  0.00     0.000 C 
ENDROOT
BRANCH   1   2
ATOM      2  C   UNL     1      14.701 -25.155   8.850  1.00  0.00     0.000 C 
BRANCH   2   3
ATOM      3  C   UNL     1      15.555 -26.426   8.677  1.00  0.00     0.000 C 
BRANCH   3   4
ATOM      4  C   UNL     1      15.303 -27.500   9.756  1.00  0.00     0.000 C 
BRANCH   4   5
ATOM      5  C   UNL     1      13.851 -28.011   9.751  1.00  0.00     0.000 C 
BRANCH   5   6
ATOM      6  C   UNL     1      13.438 -28.609  11.106  1.00  0.00     0.000 C 
BRANCH   6   7
ATOM      7  C   UNL     1      13.365 -27.545  12.216  1.00  0.00     0.000 C 
BRANCH   7   8
ATOM      8  C   UNL     1      11.932 -27.314  12.727  1.00  0.00    -0.000 C 
BRANCH   8   9
ATOM      9  C   UNL     1      11.836 -26.630  14.104  1.00  0.00    -0.000 C 
BRANCH   9  10
ATOM     10  C   UNL     1      10.451 -26.782  14.754  1.00  0.00    -0.000 C 
BRANCH  10  11
ATOM     11  C   UNL     1       9.343 -26.266  13.827  1.00  0.00    -0.000 C 
BRANCH  11  12
ATOM     12  C   UNL     1       8.651 -25.037  14.435  1.00  0.00    -0.000 C 
BRANCH  12  13
ATOM     13  C   UNL     1       7.122 -25.060  14.263  1.00  0.00    -0.000 C 
BRANCH  13  14
ATOM     14  C   UNL     1       6.351 -25.766  15.395  1.00  0.00    -0.000 C 
BRANCH  14  15
ATOM     15  C   UNL     1       7.089 -25.723  16.741  1.00  0.00    -0.003 C 
ATOM     16  C   UNL     1       7.572 -27.112  17.150  1.00  0.00     0.004 C 
ENDBRANCH  14  15
ENDBRANCH  13  14
ENDBRANCH  12  13
ENDBRANCH  11  12
ENDBRANCH  10  11
ENDBRANCH   9  10
ENDBRANCH   8   9
ENDBRANCH   7   8
ENDBRANCH   6   7
ENDBRANCH   5   6
ENDBRANCH   4   5
ENDBRANCH   3   4
ENDBRANCH   2   3
ENDBRANCH   1   2
BRANCH   1  17
ATOM     17  C   UNL     1      13.938 -23.936  10.968  1.00  0.00     0.000 C 
BRANCH  17  18
ATOM     18  C   UNL     1      14.335 -23.973  12.455  1.00  0.00     0.000 C 
BRANCH  18  19
ATOM     19  C   UNL     1      15.611 -24.768  12.783  1.00  0.00     0.000 C 
BRANCH  19  20
ATOM     20  C   UNL     1      16.755 -23.887  13.311  1.00  0.00     0.000 C 
BRANCH  20  21
ATOM     21  C   UNL     1      17.704 -24.653  14.249  1.00  0.00     0.000 C 
BRANCH  21  22
ATOM     22  C   UNL     1      18.473 -23.737  15.228  1.00  0.00     0.000 C 
BRANCH  22  23
ATOM     23  C   UNL     1      19.395 -24.530  16.170  1.00  0.00     0.000 C 
BRANCH  23  24
ATOM     24  C   UNL     1      19.569 -23.865  17.548  1.00  0.00     0.000 C 
BRANCH  24  25
ATOM     25  C   UNL     1      21.026 -23.668  18.009  1.00  0.00     0.000 C 
BRANCH  25  26
ATOM     26  C   UNL     1      21.544 -24.819  18.887  1.00  0.00     0.000 C 
BRANCH  26  27
ATOM     27  C   UNL     1      20.735 -24.992  20.186  1.00  0.00     0.002 C 
BRANCH  27  28
ATOM     28  C   UNL     1      21.502 -25.636  21.356  1.00  0.00     0.028 C 
BRANCH  28  29
ATOM     29  C   UNL     1      22.999 -25.832  21.082  1.00  0.00     0.156 C 
BRANCH  29  30
ATOM     30  O   UNL     1      23.662 -24.600  20.995  1.00  0.00    -0.396 OA
ATOM     31  H   UNL     1      24.633 -24.794  21.073  1.00  0.00     0.210 HD
ENDBRANCH  29  30
ENDBRANCH  28  29
ENDBRANCH  27  28
ENDBRANCH  26  27
ENDBRANCH  25  26
ENDBRANCH  24  25
ENDBRANCH  23  24
ENDBRANCH  22  23
ENDBRANCH  21  22
ENDBRANCH  20  21
ENDBRANCH  19  20
ENDBRANCH  18  19
ENDBRANCH  17  18
ENDBRANCH   1  17
TORSDOF 28
ENDMDL
MODEL 5
REMARK VINA RESULT:    -4.072      2.458      8.959
REMARK INTER + INTRA:         -14.901
REMARK INTER:                 -10.041
REMARK INTRA:                  -4.860
REMARK UNBOUND:                -4.282
REMARK SMILES CCCCCCCCCCCCCCCCCCCCCCCCCCCCCO
REMARK SMILES IDX 16 1 15 2 14 3 13 4 12 5 11 6 10 7 9 8 8 9 7 10 6 11 5 12
REMARK SMILES IDX 4 13 3 14 2 15 1 16 17 17 18 18 19 19 20 20 21 21 22 22
REMARK SMILES IDX 23 23 24 24 25 25 26 26 27 27 28 28 29 29 30 30
REMARK H PARENT 30 31
REMARK Flexibility Score: inf
ROOT
ATOM      1  C   UNL     1      13.931 -23.504  12.167  1.00  0.00     0.000 C 
ENDROOT
BRANCH   1   2
ATOM      2  C   UNL     1      12.883 -24.607  11.937  1.00  0.00     0.000 C 
BRANCH   2   3
ATOM      3  C   UNL     1      12.481 -25.402  13.194  1.00  0.00     0.000 C 
BRANCH   3   4
ATOM      4  C   UNL     1      11.955 -26.821  12.896  1.00  0.00     0.000 C 
BRANCH   4   5
ATOM      5  C   UNL     1      11.791 -27.669  14.169  1.00  0.00     0.000 C 
BRANCH   5   6
ATOM      6  C   UNL     1      12.170 -26.893  15.441  1.00  0.00     0.000 C 
BRANCH   6   7
ATOM      7  C   UNL     1      11.128 -27.062  16.561  1.00  0.00     0.000 C 
BRANCH   7   8
ATOM      8  C   UNL     1      10.275 -28.332  16.396  1.00  0.00    -0.000 C 
BRANCH   8   9
ATOM      9  C   UNL     1       8.773 -28.148  16.680  1.00  0.00    -0.000 C 
BRANCH   9  10
ATOM     10  C   UNL     1       8.431 -26.748  17.216  1.00  0.00    -0.000 C 
BRANCH  10  11
ATOM     11  C   UNL     1       6.920 -26.586  17.424  1.00  0.00    -0.000 C 
BRANCH  11  12
ATOM     12  C   UNL     1       6.317 -25.662  16.355  1.00  0.00    -0.000 C 
BRANCH  12  13
ATOM     13  C   UNL     1       7.217 -24.460  16.020  1.00  0.00    -0.000 C 
BRANCH  13  14
ATOM     14  C   UNL     1       7.576 -24.311  14.530  1.00  0.00    -0.000 C 
BRANCH  14  15
ATOM     15  C   UNL     1       8.788 -25.158  14.117  1.00  0.00    -0.003 C 
ATOM     16  C   UNL     1       8.353 -26.430  13.396  1.00  0.00     0.004 C 
ENDBRANCH  14  15
ENDBRANCH  13  14
ENDBRANCH  12  13
ENDBRANCH  11  12
ENDBRANCH  10  11
ENDBRANCH   9  10
ENDBRANCH   8   9
ENDBRANCH   7   8
ENDBRANCH   6   7
ENDBRANCH   5   6
ENDBRANCH   4   5
ENDBRANCH   3   4
ENDBRANCH   2   3
ENDBRANCH   1   2
BRANCH   1  17
ATOM     17  C   UNL     1      15.352 -23.947  11.776  1.00  0.00     0.000 C 
BRANCH  17  18
ATOM     18  C   UNL     1      16.223 -24.321  12.989  1.00  0.00     0.000 C 
BRANCH  18  19
ATOM     19  C   UNL     1      16.117 -25.783  13.459  1.00  0.00     0.000 C 
BRANCH  19  20
ATOM     20  C   UNL     1      15.778 -26.761  12.322  1.00  0.00     0.000 C 
BRANCH  20  21
ATOM     21  C   UNL     1      15.393 -28.157  12.841  1.00  0.00     0.000 C 
BRANCH  21  22
ATOM     22  C   UNL     1      14.658 -29.023  11.792  1.00  0.00     0.000 C 
BRANCH  22  23
ATOM     23  C   UNL     1      14.710 -28.406  10.384  1.00  0.00     0.000 C 
BRANCH  23  24
ATOM     24  C   UNL     1      13.319 -28.038   9.832  1.00  0.00     0.000 C 
BRANCH  24  25
ATOM     25  C   UNL     1      13.300 -26.913   8.781  1.00  0.00     0.000 C 
BRANCH  25  26
ATOM     26  C   UNL     1      14.430 -25.886   8.972  1.00  0.00     0.000 C 
BRANCH  26  27
ATOM     27  C   UNL     1      15.327 -25.746   7.729  1.00  0.00     0.002 C 
BRANCH  27  28
ATOM     28  C   UNL     1      14.680 -25.026   6.531  1.00  0.00     0.028 C 
BRANCH  28  29
ATOM     29  C   UNL     1      14.664 -25.860   5.242  1.00  0.00     0.156 C 
BRANCH  29  30
ATOM     30  O   UNL     1      14.675 -27.232   5.528  1.00  0.00    -0.396 OA
ATOM     31  H   UNL     1      13.773 -27.577   5.296  1.00  0.00     0.210 HD
ENDBRANCH  29  30
ENDBRANCH  28  29
ENDBRANCH  27  28
ENDBRANCH  26  27
ENDBRANCH  25  26
ENDBRANCH  24  25
ENDBRANCH  23  24
ENDBRANCH  22  23
ENDBRANCH  21  22
ENDBRANCH  20  21
ENDBRANCH  19  20
ENDBRANCH  18  19
ENDBRANCH  17  18
ENDBRANCH   1  17
TORSDOF 28
ENDMDL
MODEL 6
REMARK VINA RESULT:    -4.048      2.537      8.759
REMARK INTER + INTRA:         -14.837
REMARK INTER:                 -10.373
REMARK INTRA:                  -4.464
REMARK UNBOUND:                -4.282
REMARK SMILES CCCCCCCCCCCCCCCCCCCCCCCCCCCCCO
REMARK SMILES IDX 16 1 15 2 14 3 13 4 12 5 11 6 10 7 9 8 8 9 7 10 6 11 5 12
REMARK SMILES IDX 4 13 3 14 2 15 1 16 17 17 18 18 19 19 20 20 21 21 22 22
REMARK SMILES IDX 23 23 24 24 25 25 26 26 27 27 28 28 29 29 30 30
REMARK H PARENT 30 31
REMARK Flexibility Score: inf
ROOT
ATOM      1  C   UNL     1      14.517 -25.443  13.137  1.00  0.00     0.000 C 
ENDROOT
BRANCH   1   2
ATOM      2  C   UNL     1      15.207 -26.813  13.019  1.00  0.00     0.000 C 
BRANCH   2   3
ATOM      3  C   UNL     1      14.275 -27.988  12.667  1.00  0.00     0.000 C 
BRANCH   3   4
ATOM      4  C   UNL     1      12.808 -27.573  12.430  1.00  0.00     0.000 C 
BRANCH   4   5
ATOM      5  C   UNL     1      11.880 -28.783  12.216  1.00  0.00     0.000 C 
BRANCH   5   6
ATOM      6  C   UNL     1      10.393 -28.397  12.277  1.00  0.00     0.000 C 
BRANCH   6   7
ATOM      7  C   UNL     1       9.965 -27.944  13.684  1.00  0.00     0.000 C 
BRANCH   7   8
ATOM      8  C   UNL     1       9.604 -26.449  13.745  1.00  0.00    -0.000 C 
BRANCH   8   9
ATOM      9  C   UNL     1       8.127 -26.124  13.453  1.00  0.00    -0.000 C 
BRANCH   9  10
ATOM     10  C   UNL     1       7.424 -25.424  14.627  1.00  0.00    -0.000 C 
BRANCH  10  11
ATOM     11  C   UNL     1       8.426 -24.650  15.493  1.00  0.00    -0.000 C 
BRANCH  11  12
ATOM     12  C   UNL     1       8.333 -25.090  16.962  1.00  0.00    -0.000 C 
BRANCH  12  13
ATOM     13  C   UNL     1       8.131 -26.607  17.126  1.00  0.00    -0.000 C 
BRANCH  13  14
ATOM     14  C   UNL     1       9.430 -27.426  17.246  1.00  0.00    -0.000 C 
BRANCH  14  15
ATOM     15  C   UNL     1      10.656 -26.562  17.574  1.00  0.00    -0.003 C 
ATOM     16  C   UNL     1      11.849 -26.942  16.701  1.00  0.00     0.004 C 
ENDBRANCH  14  15
ENDBRANCH  13  14
ENDBRANCH  12  13
ENDBRANCH  11  12
ENDBRANCH  10  11
ENDBRANCH   9  10
ENDBRANCH   8   9
ENDBRANCH   7   8
ENDBRANCH   6   7
ENDBRANCH   5   6
ENDBRANCH   4   5
ENDBRANCH   3   4
ENDBRANCH   2   3
ENDBRANCH   1   2
BRANCH   1  17
ATOM     17  C   UNL     1      15.450 -24.278  12.765  1.00  0.00     0.000 C 
BRANCH  17  18
ATOM     18  C   UNL     1      14.788 -23.248  11.831  1.00  0.00     0.000 C 
BRANCH  18  19
ATOM     19  C   UNL     1      13.782 -23.822  10.816  1.00  0.00     0.000 C 
BRANCH  19  20
ATOM     20  C   UNL     1      14.444 -24.307   9.516  1.00  0.00     0.000 C 
BRANCH  20  21
ATOM     21  C   UNL     1      14.811 -25.800   9.563  1.00  0.00     0.000 C 
BRANCH  21  22
ATOM     22  C   UNL     1      13.697 -26.725   9.021  1.00  0.00     0.000 C 
BRANCH  22  23
ATOM     23  C   UNL     1      14.217 -28.132   8.683  1.00  0.00     0.000 C 
BRANCH  23  24
ATOM     24  C   UNL     1      15.652 -28.385   9.184  1.00  0.00     0.000 C 
BRANCH  24  25
ATOM     25  C   UNL     1      16.687 -28.714   8.092  1.00  0.00     0.000 C 
BRANCH  25  26
ATOM     26  C   UNL     1      16.555 -27.824   6.844  1.00  0.00     0.000 C 
BRANCH  26  27
ATOM     27  C   UNL     1      17.352 -26.511   6.958  1.00  0.00     0.002 C 
BRANCH  27  28
ATOM     28  C   UNL     1      16.693 -25.284   6.302  1.00  0.00     0.028 C 
BRANCH  28  29
ATOM     29  C   UNL     1      15.249 -25.528   5.843  1.00  0.00     0.156 C 
BRANCH  29  30
ATOM     30  O   UNL     1      14.461 -24.383   6.023  1.00  0.00    -0.396 OA
ATOM     31  H   UNL     1      15.021 -23.608   5.753  1.00  0.00     0.210 HD
ENDBRANCH  29  30
ENDBRANCH  28  29
ENDBRANCH  27  28
ENDBRANCH  26  27
ENDBRANCH  25  26
ENDBRANCH  24  25
ENDBRANCH  23  24
ENDBRANCH  22  23
ENDBRANCH  21  22
ENDBRANCH  20  21
ENDBRANCH  19  20
ENDBRANCH  18  19
ENDBRANCH  17  18
ENDBRANCH   1  17
TORSDOF 28
ENDMDL
MODEL 7
REMARK VINA RESULT:    -4.029      1.826      4.313
REMARK INTER + INTRA:         -14.788
REMARK INTER:                 -10.170
REMARK INTRA:                  -4.618
REMARK UNBOUND:                -4.282
REMARK SMILES CCCCCCCCCCCCCCCCCCCCCCCCCCCCCO
REMARK SMILES IDX 16 1 15 2 14 3 13 4 12 5 11 6 10 7 9 8 8 9 7 10 6 11 5 12
REMARK SMILES IDX 4 13 3 14 2 15 1 16 17 17 18 18 19 19 20 20 21 21 22 22
REMARK SMILES IDX 23 23 24 24 25 25 26 26 27 27 28 28 29 29 30 30
REMARK H PARENT 30 31
REMARK Flexibility Score: inf
ROOT
ATOM      1  C   UNL     1      14.264 -23.722  11.862  1.00  0.00     0.000 C 
ENDROOT
BRANCH   1   2
ATOM      2  C   UNL     1      15.543 -24.564  12.014  1.00  0.00     0.000 C 
BRANCH   2   3
ATOM      3  C   UNL     1      15.496 -25.633  13.122  1.00  0.00     0.000 C 
BRANCH   3   4
ATOM      4  C   UNL     1      15.639 -27.079  12.603  1.00  0.00     0.000 C 
BRANCH   4   5
ATOM      5  C   UNL     1      14.917 -28.101  13.499  1.00  0.00     0.000 C 
BRANCH   5   6
ATOM      6  C   UNL     1      13.600 -28.596  12.877  1.00  0.00     0.000 C 
BRANCH   6   7
ATOM      7  C   UNL     1      13.625 -28.545  11.339  1.00  0.00     0.000 C 
BRANCH   7   8
ATOM      8  C   UNL     1      12.309 -28.023  10.738  1.00  0.00    -0.000 C 
BRANCH   8   9
ATOM      9  C   UNL     1      12.110 -28.332   9.243  1.00  0.00    -0.000 C 
BRANCH   9  10
ATOM     10  C   UNL     1      13.316 -29.047   8.612  1.00  0.00    -0.000 C 
BRANCH  10  11
ATOM     11  C   UNL     1      13.987 -28.171   7.547  1.00  0.00    -0.000 C 
BRANCH  11  12
ATOM     12  C   UNL     1      15.426 -27.821   7.955  1.00  0.00    -0.000 C 
BRANCH  12  13
ATOM     13  C   UNL     1      15.501 -26.662   8.965  1.00  0.00    -0.000 C 
BRANCH  13  14
ATOM     14  C   UNL     1      14.848 -25.348   8.498  1.00  0.00    -0.000 C 
BRANCH  14  15
ATOM     15  C   UNL     1      15.696 -24.590   7.466  1.00  0.00    -0.003 C 
ATOM     16  C   UNL     1      15.045 -24.622   6.086  1.00  0.00     0.004 C 
ENDBRANCH  14  15
ENDBRANCH  13  14
ENDBRANCH  12  13
ENDBRANCH  11  12
ENDBRANCH  10  11
ENDBRANCH   9  10
ENDBRANCH   8   9
ENDBRANCH   7   8
ENDBRANCH   6   7
ENDBRANCH   5   6
ENDBRANCH   4   5
ENDBRANCH   3   4
ENDBRANCH   2   3
ENDBRANCH   1   2
BRANCH   1  17
ATOM     17  C   UNL     1      12.989 -24.582  11.840  1.00  0.00     0.000 C 
BRANCH  17  18
ATOM     18  C   UNL     1      12.255 -24.611  13.193  1.00  0.00     0.000 C 
BRANCH  18  19
ATOM     19  C   UNL     1      11.437 -25.883  13.479  1.00  0.00     0.000 C 
BRANCH  19  20
ATOM     20  C   UNL     1       9.961 -25.595  13.799  1.00  0.00     0.000 C 
BRANCH  20  21
ATOM     21  C   UNL     1       9.092 -26.864  13.761  1.00  0.00     0.000 C 
BRANCH  21  22
ATOM     22  C   UNL     1       9.911 -28.169  13.646  1.00  0.00     0.000 C 
BRANCH  22  23
ATOM     23  C   UNL     1      10.120 -28.852  15.007  1.00  0.00     0.000 C 
BRANCH  23  24
ATOM     24  C   UNL     1       9.339 -28.177  16.151  1.00  0.00     0.000 C 
BRANCH  24  25
ATOM     25  C   UNL     1      10.202 -27.483  17.222  1.00  0.00     0.000 C 
BRANCH  25  26
ATOM     26  C   UNL     1       9.793 -26.022  17.477  1.00  0.00     0.000 C 
BRANCH  26  27
ATOM     27  C   UNL     1       8.299 -25.763  17.201  1.00  0.00     0.002 C 
BRANCH  27  28
ATOM     28  C   UNL     1       7.984 -24.429  16.499  1.00  0.00     0.028 C 
BRANCH  28  29
ATOM     29  C   UNL     1       6.608 -23.852  16.856  1.00  0.00     0.156 C 
BRANCH  29  30
ATOM     30  O   UNL     1       6.653 -23.149  18.068  1.00  0.00    -0.396 OA
ATOM     31  H   UNL     1       7.235 -23.674  18.678  1.00  0.00     0.210 HD
ENDBRANCH  29  30
ENDBRANCH  28  29
ENDBRANCH  27  28
ENDBRANCH  26  27
ENDBRANCH  25  26
ENDBRANCH  24  25
ENDBRANCH  23  24
ENDBRANCH  22  23
ENDBRANCH  21  22
ENDBRANCH  20  21
ENDBRANCH  19  20
ENDBRANCH  18  19
ENDBRANCH  17  18
ENDBRANCH   1  17
TORSDOF 28
ENDMDL
MODEL 8
REMARK VINA RESULT:    -4.026      4.026      6.502
REMARK INTER + INTRA:         -14.782
REMARK INTER:                 -11.733
REMARK INTRA:                  -3.049
REMARK UNBOUND:                -4.282
REMARK SMILES CCCCCCCCCCCCCCCCCCCCCCCCCCCCCO
REMARK SMILES IDX 16 1 15 2 14 3 13 4 12 5 11 6 10 7 9 8 8 9 7 10 6 11 5 12
REMARK SMILES IDX 4 13 3 14 2 15 1 16 17 17 18 18 19 19 20 20 21 21 22 22
REMARK SMILES IDX 23 23 24 24 25 25 26 26 27 27 28 28 29 29 30 30
REMARK H PARENT 30 31
REMARK Flexibility Score: inf
ROOT
ATOM      1  C   UNL     1       7.906 -25.994  13.505  1.00  0.00     0.000 C 
ENDROOT
BRANCH   1   2
ATOM      2  C   UNL     1       9.308 -26.376  14.011  1.00  0.00     0.000 C 
BRANCH   2   3
ATOM      3  C   UNL     1       9.528 -27.881  14.258  1.00  0.00     0.000 C 
BRANCH   3   4
ATOM      4  C   UNL     1      10.054 -28.213  15.670  1.00  0.00     0.000 C 
BRANCH   4   5
ATOM      5  C   UNL     1      10.717 -27.003  16.351  1.00  0.00     0.000 C 
BRANCH   5   6
ATOM      6  C   UNL     1      12.224 -27.208  16.571  1.00  0.00     0.000 C 
BRANCH   6   7
ATOM      7  C   UNL     1      12.838 -28.174  15.542  1.00  0.00     0.000 C 
BRANCH   7   8
ATOM      8  C   UNL     1      13.657 -27.450  14.459  1.00  0.00    -0.000 C 
BRANCH   8   9
ATOM      9  C   UNL     1      13.215 -27.735  13.011  1.00  0.00    -0.000 C 
BRANCH   9  10
ATOM     10  C   UNL     1      12.521 -26.533  12.349  1.00  0.00    -0.000 C 
BRANCH  10  11
ATOM     11  C   UNL     1      12.565 -25.298  13.256  1.00  0.00    -0.000 C 
BRANCH  11  12
ATOM     12  C   UNL     1      13.333 -24.151  12.582  1.00  0.00    -0.000 C 
BRANCH  12  13
ATOM     13  C   UNL     1      14.856 -24.373  12.568  1.00  0.00    -0.000 C 
BRANCH  13  14
ATOM     14  C   UNL     1      15.541 -24.100  11.216  1.00  0.00    -0.000 C 
BRANCH  14  15
ATOM     15  C   UNL     1      14.659 -24.463  10.013  1.00  0.00    -0.003 C 
ATOM     16  C   UNL     1      14.883 -25.909   9.581  1.00  0.00     0.004 C 
ENDBRANCH  14  15
ENDBRANCH  13  14
ENDBRANCH  12  13
ENDBRANCH  11  12
ENDBRANCH  10  11
ENDBRANCH   9  10
ENDBRANCH   8   9
ENDBRANCH   7   8
ENDBRANCH   6   7
ENDBRANCH   5   6
ENDBRANCH   4   5
ENDBRANCH   3   4
ENDBRANCH   2   3
ENDBRANCH   1   2
BRANCH   1  17
ATOM     17  C   UNL     1       7.192 -24.999  14.437  1.00  0.00     0.000 C 
BRANCH  17  18
ATOM     18  C   UNL     1       8.131 -24.369  15.482  1.00  0.00     0.000 C 
BRANCH  18  19
ATOM     19  C   UNL     1       7.738 -24.599  16.952  1.00  0.00     0.000 C 
BRANCH  19  20
ATOM     20  C   UNL     1       6.494 -23.802  17.378  1.00  0.00     0.000 C 
BRANCH  20  21
ATOM     21  C   UNL     1       5.883 -24.320  18.691  1.00  0.00     0.000 C 
BRANCH  21  22
ATOM     22  C   UNL     1       4.837 -23.361  19.304  1.00  0.00     0.000 C 
BRANCH  22  23
ATOM     23  C   UNL     1       5.147 -23.015  20.771  1.00  0.00     0.000 C 
BRANCH  23  24
ATOM     24  C   UNL     1       5.518 -21.535  20.980  1.00  0.00     0.000 C 
BRANCH  24  25
ATOM     25  C   UNL     1       6.436 -21.246  22.182  1.00  0.00     0.000 C 
BRANCH  25  26
ATOM     26  C   UNL     1       6.839 -19.765  22.294  1.00  0.00     0.000 C 
BRANCH  26  27
ATOM     27  C   UNL     1       8.361 -19.568  22.424  1.00  0.00     0.002 C 
BRANCH  27  28
ATOM     28  C   UNL     1       8.821 -18.108  22.590  1.00  0.00     0.028 C 
BRANCH  28  29
ATOM     29  C   UNL     1       9.267 -17.445  21.280  1.00  0.00     0.156 C 
BRANCH  29  30
ATOM     30  O   UNL     1       9.243 -18.360  20.218  1.00  0.00    -0.396 OA
ATOM     31  H   UNL     1       8.288 -18.496  19.982  1.00  0.00     0.210 HD
ENDBRANCH  29  30
ENDBRANCH  28  29
ENDBRANCH  27  28
ENDBRANCH  26  27
ENDBRANCH  25  26
ENDBRANCH  24  25
ENDBRANCH  23  24
ENDBRANCH  22  23
ENDBRANCH  21  22
ENDBRANCH  20  21
ENDBRANCH  19  20
ENDBRANCH  18  19
ENDBRANCH  17  18
ENDBRANCH   1  17
TORSDOF 28
ENDMDL
MODEL 9
REMARK VINA RESULT:    -3.966      4.154      6.871
REMARK INTER + INTRA:         -14.624
REMARK INTER:                 -11.483
REMARK INTRA:                  -3.141
REMARK UNBOUND:                -4.282
REMARK SMILES CCCCCCCCCCCCCCCCCCCCCCCCCCCCCO
REMARK SMILES IDX 16 1 15 2 14 3 13 4 12 5 11 6 10 7 9 8 8 9 7 10 6 11 5 12
REMARK SMILES IDX 4 13 3 14 2 15 1 16 17 17 18 18 19 19 20 20 21 21 22 22
REMARK SMILES IDX 23 23 24 24 25 25 26 26 27 27 28 28 29 29 30 30
REMARK H PARENT 30 31
REMARK Flexibility Score: inf
ROOT
ATOM      1  C   UNL     1       7.987 -24.259  15.760  1.00  0.00     0.000 C 
ENDROOT
BRANCH   1   2
ATOM      2  C   UNL     1       7.016 -25.079  14.892  1.00  0.00     0.000 C 
BRANCH   2   3
ATOM      3  C   UNL     1       7.644 -25.734  13.647  1.00  0.00     0.000 C 
BRANCH   3   4
ATOM      4  C   UNL     1       9.132 -26.105  13.818  1.00  0.00     0.000 C 
BRANCH   4   5
ATOM      5  C   UNL     1       9.439 -27.539  13.350  1.00  0.00     0.000 C 
BRANCH   5   6
ATOM      6  C   UNL     1       9.783 -28.475  14.520  1.00  0.00     0.000 C 
BRANCH   6   7
ATOM      7  C   UNL     1      10.384 -27.716  15.717  1.00  0.00     0.000 C 
BRANCH   7   8
ATOM      8  C   UNL     1      11.899 -27.941  15.864  1.00  0.00    -0.000 C 
BRANCH   8   9
ATOM      9  C   UNL     1      12.783 -26.863  15.208  1.00  0.00    -0.000 C 
BRANCH   9  10
ATOM     10  C   UNL     1      13.453 -27.345  13.911  1.00  0.00    -0.000 C 
BRANCH  10  11
ATOM     11  C   UNL     1      12.936 -26.564  12.697  1.00  0.00    -0.000 C 
BRANCH  11  12
ATOM     12  C   UNL     1      12.618 -25.110  13.076  1.00  0.00    -0.000 C 
BRANCH  12  13
ATOM     13  C   UNL     1      13.206 -24.087  12.089  1.00  0.00    -0.000 C 
BRANCH  13  14
ATOM     14  C   UNL     1      14.553 -24.490  11.460  1.00  0.00    -0.000 C 
BRANCH  14  15
ATOM     15  C   UNL     1      15.754 -23.789  12.112  1.00  0.00    -0.003 C 
ATOM     16  C   UNL     1      16.285 -24.592  13.296  1.00  0.00     0.004 C 
ENDBRANCH  14  15
ENDBRANCH  13  14
ENDBRANCH  12  13
ENDBRANCH  11  12
ENDBRANCH  10  11
ENDBRANCH   9  10
ENDBRANCH   8   9
ENDBRANCH   7   8
ENDBRANCH   6   7
ENDBRANCH   5   6
ENDBRANCH   4   5
ENDBRANCH   3   4
ENDBRANCH   2   3
ENDBRANCH   1   2
BRANCH   1  17
ATOM     17  C   UNL     1       8.017 -24.734  17.223  1.00  0.00     0.000 C 
BRANCH  17  18
ATOM     18  C   UNL     1       6.934 -25.781  17.542  1.00  0.00     0.000 C 
BRANCH  18  19
ATOM     19  C   UNL     1       5.849 -25.333  18.537  1.00  0.00     0.000 C 
BRANCH  19  20
ATOM     20  C   UNL     1       5.050 -24.111  18.053  1.00  0.00     0.000 C 
BRANCH  20  21
ATOM     21  C   UNL     1       4.289 -23.415  19.195  1.00  0.00     0.000 C 
BRANCH  21  22
ATOM     22  C   UNL     1       4.992 -23.535  20.566  1.00  0.00     0.000 C 
BRANCH  22  23
ATOM     23  C   UNL     1       5.616 -22.205  21.023  1.00  0.00     0.000 C 
BRANCH  23  24
ATOM     24  C   UNL     1       4.875 -21.565  22.212  1.00  0.00     0.000 C 
BRANCH  24  25
ATOM     25  C   UNL     1       5.716 -20.610  23.080  1.00  0.00     0.000 C 
BRANCH  25  26
ATOM     26  C   UNL     1       7.231 -20.784  22.877  1.00  0.00     0.000 C 
BRANCH  26  27
ATOM     27  C   UNL     1       8.030 -19.512  23.220  1.00  0.00     0.002 C 
BRANCH  27  28
ATOM     28  C   UNL     1       8.794 -18.880  22.041  1.00  0.00     0.028 C 
BRANCH  28  29
ATOM     29  C   UNL     1       7.900 -18.515  20.849  1.00  0.00     0.156 C 
BRANCH  29  30
ATOM     30  O   UNL     1       8.668 -18.196  19.720  1.00  0.00    -0.396 OA
ATOM     31  H   UNL     1       9.518 -17.809  20.057  1.00  0.00     0.210 HD
ENDBRANCH  29  30
ENDBRANCH  28  29
ENDBRANCH  27  28
ENDBRANCH  26  27
ENDBRANCH  25  26
ENDBRANCH  24  25
ENDBRANCH  23  24
ENDBRANCH  22  23
ENDBRANCH  21  22
ENDBRANCH  20  21
ENDBRANCH  19  20
ENDBRANCH  18  19
ENDBRANCH  17  18
ENDBRANCH   1  17
TORSDOF 28
ENDMDL
