MODEL 1
REMARK VINA RESULT:    -4.154      0.000      0.000
REMARK INTER + INTRA:          -4.576
REMARK INTER:                  -4.518
REMARK INTRA:                  -0.058
REMARK UNBOUND:                -0.058
REMARK SMILES CCc1cccc(O)c1
REMARK SMILES IDX 3 1 9 2 7 3 6 4 5 5 4 6 2 7 1 8 8 9
REMARK H PARENT 8 10
REMARK Flexibility Score: inf
ROOT
ATOM      1  C   UNL     1      30.128  -4.780  34.053  1.00  0.00    -0.045 A 
ATOM      2  C   UNL     1      30.887  -5.078  32.909  1.00  0.00     0.049 A 
ATOM      3  C   UNL     1      32.228  -4.683  32.828  1.00  0.00     0.115 A 
ATOM      4  C   UNL     1      32.816  -3.994  33.897  1.00  0.00     0.046 A 
ATOM      5  C   UNL     1      32.070  -3.706  35.043  1.00  0.00     0.004 A 
ATOM      6  C   UNL     1      30.731  -4.101  35.124  1.00  0.00     0.004 A 
ENDROOT
BRANCH   1   7
ATOM      7  C   UNL     1      28.695  -5.233  34.152  1.00  0.00     0.032 C 
ATOM      8  C   UNL     1      27.750  -4.037  34.168  1.00  0.00     0.009 C 
ENDBRANCH   1   7
BRANCH   3   9
ATOM      9  O   UNL     1      32.964  -4.981  31.684  1.00  0.00    -0.508 OA
ATOM     10  H   UNL     1      32.523  -5.057  30.776  1.00  0.00     0.293 HD
ENDBRANCH   3   9
TORSDOF 2
ENDMDL
MODEL 2
REMARK VINA RESULT:    -3.937      7.213      8.554
REMARK INTER + INTRA:          -4.340
REMARK INTER:                  -4.271
REMARK INTRA:                  -0.069
REMARK UNBOUND:                -0.058
REMARK SMILES CCc1cccc(O)c1
REMARK SMILES IDX 3 1 9 2 7 3 6 4 5 5 4 6 2 7 1 8 8 9
REMARK H PARENT 8 10
REMARK Flexibility Score: inf
ROOT
ATOM      1  C   UNL     1      24.666   0.090  33.479  1.00  0.00    -0.045 A 
ATOM      2  C   UNL     1      24.866  -1.281  33.709  1.00  0.00     0.049 A 
ATOM      3  C   UNL     1      23.921  -2.023  34.428  1.00  0.00     0.115 A 
ATOM      4  C   UNL     1      22.766  -1.395  34.913  1.00  0.00     0.046 A 
ATOM      5  C   UNL     1      22.554  -0.034  34.676  1.00  0.00     0.004 A 
ATOM      6  C   UNL     1      23.498   0.707  33.957  1.00  0.00     0.004 A 
ENDROOT
BRANCH   1   7
ATOM      7  C   UNL     1      25.666   0.880  32.678  1.00  0.00     0.032 C 
ATOM      8  C   UNL     1      24.972   1.664  31.570  1.00  0.00     0.009 C 
ENDBRANCH   1   7
BRANCH   3   9
ATOM      9  O   UNL     1      24.139  -3.380  34.651  1.00  0.00    -0.508 OA
ATOM     10  H   UNL     1      24.916  -3.869  34.223  1.00  0.00     0.293 HD
ENDBRANCH   3   9
TORSDOF 2
ENDMDL
MODEL 3
REMARK VINA RESULT:    -3.915      2.799      4.103
REMARK INTER + INTRA:          -4.316
REMARK INTER:                  -4.259
REMARK INTRA:                  -0.057
REMARK UNBOUND:                -0.058
REMARK SMILES CCc1cccc(O)c1
REMARK SMILES IDX 3 1 9 2 7 3 6 4 5 5 4 6 2 7 1 8 8 9
REMARK H PARENT 8 10
REMARK Flexibility Score: inf
ROOT
ATOM      1  C   UNL     1      29.453  -4.686  34.360  1.00  0.00    -0.045 A 
ATOM      2  C   UNL     1      28.139  -4.394  33.960  1.00  0.00     0.049 A 
ATOM      3  C   UNL     1      27.398  -3.412  34.628  1.00  0.00     0.115 A 
ATOM      4  C   UNL     1      27.974  -2.711  35.696  1.00  0.00     0.046 A 
ATOM      5  C   UNL     1      29.286  -2.987  36.090  1.00  0.00     0.004 A 
ATOM      6  C   UNL     1      30.027  -3.968  35.422  1.00  0.00     0.004 A 
ENDROOT
BRANCH   1   7
ATOM      7  C   UNL     1      30.261  -5.719  33.620  1.00  0.00     0.032 C 
ATOM      8  C   UNL     1      31.214  -5.053  32.633  1.00  0.00     0.009 C 
ENDBRANCH   1   7
BRANCH   3   9
ATOM      9  O   UNL     1      26.093  -3.140  34.221  1.00  0.00    -0.508 OA
ATOM     10  H   UNL     1      25.867  -2.307  33.693  1.00  0.00     0.293 HD
ENDBRANCH   3   9
TORSDOF 2
ENDMDL
MODEL 4
REMARK VINA RESULT:    -3.884      2.502      4.250
REMARK INTER + INTRA:          -4.282
REMARK INTER:                  -4.210
REMARK INTRA:                  -0.072
REMARK UNBOUND:                -0.058
REMARK SMILES CCc1cccc(O)c1
REMARK SMILES IDX 3 1 9 2 7 3 6 4 5 5 4 6 2 7 1 8 8 9
REMARK H PARENT 8 10
REMARK Flexibility Score: inf
ROOT
ATOM      1  C   UNL     1      30.985  -3.927  34.944  1.00  0.00    -0.045 A 
ATOM      2  C   UNL     1      29.862  -3.166  35.309  1.00  0.00     0.049 A 
ATOM      3  C   UNL     1      28.580  -3.561  34.910  1.00  0.00     0.115 A 
ATOM      4  C   UNL     1      28.416  -4.727  34.149  1.00  0.00     0.046 A 
ATOM      5  C   UNL     1      29.527  -5.495  33.794  1.00  0.00     0.004 A 
ATOM      6  C   UNL     1      30.808  -5.101  34.193  1.00  0.00     0.004 A 
ENDROOT
BRANCH   1   7
ATOM      7  C   UNL     1      32.360  -3.520  35.401  1.00  0.00     0.032 C 
ATOM      8  C   UNL     1      33.419  -3.989  34.410  1.00  0.00     0.009 C 
ENDBRANCH   1   7
BRANCH   3   9
ATOM      9  O   UNL     1      27.479  -2.791  35.275  1.00  0.00    -0.508 OA
ATOM     10  H   UNL     1      27.210  -1.968  34.749  1.00  0.00     0.293 HD
ENDBRANCH   3   9
TORSDOF 2
ENDMDL
MODEL 5
REMARK VINA RESULT:    -3.879      5.726      7.928
REMARK INTER + INTRA:          -4.277
REMARK INTER:                  -4.212
REMARK INTRA:                  -0.065
REMARK UNBOUND:                -0.058
REMARK SMILES CCc1cccc(O)c1
REMARK SMILES IDX 3 1 9 2 7 3 6 4 5 5 4 6 2 7 1 8 8 9
REMARK H PARENT 8 10
REMARK Flexibility Score: inf
ROOT
ATOM      1  C   UNL     1      26.089  -1.233  35.696  1.00  0.00    -0.045 A 
ATOM      2  C   UNL     1      25.070  -0.860  36.588  1.00  0.00     0.049 A 
ATOM      3  C   UNL     1      23.725  -0.988  36.218  1.00  0.00     0.115 A 
ATOM      4  C   UNL     1      23.396  -1.499  34.956  1.00  0.00     0.046 A 
ATOM      5  C   UNL     1      24.405  -1.885  34.070  1.00  0.00     0.004 A 
ATOM      6  C   UNL     1      25.748  -1.757  34.439  1.00  0.00     0.004 A 
ENDROOT
BRANCH   1   7
ATOM      7  C   UNL     1      27.533  -1.126  36.106  1.00  0.00     0.032 C 
ATOM      8  C   UNL     1      28.206  -2.494  36.076  1.00  0.00     0.009 C 
ENDBRANCH   1   7
BRANCH   3   9
ATOM      9  O   UNL     1      22.728  -0.607  37.113  1.00  0.00    -0.508 OA
ATOM     10  H   UNL     1      21.752  -0.808  36.934  1.00  0.00     0.293 HD
ENDBRANCH   3   9
TORSDOF 2
ENDMDL
MODEL 6
REMARK VINA RESULT:    -3.854      1.827      2.255
REMARK INTER + INTRA:          -4.249
REMARK INTER:                  -4.198
REMARK INTRA:                  -0.052
REMARK UNBOUND:                -0.058
REMARK SMILES CCc1cccc(O)c1
REMARK SMILES IDX 3 1 9 2 7 3 6 4 5 5 4 6 2 7 1 8 8 9
REMARK H PARENT 8 10
REMARK Flexibility Score: inf
ROOT
ATOM      1  C   UNL     1      30.635  -4.676  34.107  1.00  0.00    -0.045 A 
ATOM      2  C   UNL     1      30.716  -3.309  34.419  1.00  0.00     0.049 A 
ATOM      3  C   UNL     1      31.923  -2.618  34.263  1.00  0.00     0.115 A 
ATOM      4  C   UNL     1      33.054  -3.292  33.784  1.00  0.00     0.046 A 
ATOM      5  C   UNL     1      32.977  -4.649  33.459  1.00  0.00     0.004 A 
ATOM      6  C   UNL     1      31.771  -5.340  33.615  1.00  0.00     0.004 A 
ENDROOT
BRANCH   1   7
ATOM      7  C   UNL     1      29.329  -5.411  34.245  1.00  0.00     0.032 C 
ATOM      8  C   UNL     1      28.154  -4.445  34.149  1.00  0.00     0.009 C 
ENDBRANCH   1   7
BRANCH   3   9
ATOM      9  O   UNL     1      31.986  -1.264  34.583  1.00  0.00    -0.508 OA
ATOM     10  H   UNL     1      32.859  -0.752  34.549  1.00  0.00     0.293 HD
ENDBRANCH   3   9
TORSDOF 2
ENDMDL
MODEL 7
REMARK VINA RESULT:    -3.813      7.052      8.544
REMARK INTER + INTRA:          -4.205
REMARK INTER:                  -4.136
REMARK INTRA:                  -0.069
REMARK UNBOUND:                -0.058
REMARK SMILES CCc1cccc(O)c1
REMARK SMILES IDX 3 1 9 2 7 3 6 4 5 5 4 6 2 7 1 8 8 9
REMARK H PARENT 8 10
REMARK Flexibility Score: inf
ROOT
ATOM      1  C   UNL     1      24.522   0.197  33.645  1.00  0.00    -0.045 A 
ATOM      2  C   UNL     1      23.293  -0.203  34.193  1.00  0.00     0.049 A 
ATOM      3  C   UNL     1      23.068  -1.546  34.518  1.00  0.00     0.115 A 
ATOM      4  C   UNL     1      24.078  -2.493  34.301  1.00  0.00     0.046 A 
ATOM      5  C   UNL     1      25.307  -2.099  33.768  1.00  0.00     0.004 A 
ATOM      6  C   UNL     1      25.533  -0.757  33.444  1.00  0.00     0.004 A 
ENDROOT
BRANCH   1   7
ATOM      7  C   UNL     1      24.775   1.647  33.327  1.00  0.00     0.032 C 
ATOM      8  C   UNL     1      25.548   1.786  32.019  1.00  0.00     0.009 C 
ENDBRANCH   1   7
BRANCH   3   9
ATOM      9  O   UNL     1      21.841  -1.927  35.055  1.00  0.00    -0.508 OA
ATOM     10  H   UNL     1      21.142  -1.242  35.315  1.00  0.00     0.293 HD
ENDBRANCH   3   9
TORSDOF 2
ENDMDL
MODEL 8
REMARK VINA RESULT:    -3.760      6.864      8.632
REMARK INTER + INTRA:          -4.147
REMARK INTER:                  -4.083
REMARK INTRA:                  -0.064
REMARK UNBOUND:                -0.058
REMARK SMILES CCc1cccc(O)c1
REMARK SMILES IDX 3 1 9 2 7 3 6 4 5 5 4 6 2 7 1 8 8 9
REMARK H PARENT 8 10
REMARK Flexibility Score: inf
ROOT
ATOM      1  C   UNL     1      23.038   0.072  34.315  1.00  0.00    -0.045 A 
ATOM      2  C   UNL     1      23.016  -1.293  34.645  1.00  0.00     0.049 A 
ATOM      3  C   UNL     1      24.100  -2.116  34.319  1.00  0.00     0.115 A 
ATOM      4  C   UNL     1      25.215  -1.573  33.667  1.00  0.00     0.046 A 
ATOM      5  C   UNL     1      25.249  -0.214  33.348  1.00  0.00     0.004 A 
ATOM      6  C   UNL     1      24.166   0.610  33.674  1.00  0.00     0.004 A 
ENDROOT
BRANCH   1   7
ATOM      7  C   UNL     1      21.886   0.964  34.695  1.00  0.00     0.032 C 
ATOM      8  C   UNL     1      21.385   1.744  33.485  1.00  0.00     0.009 C 
ENDBRANCH   1   7
BRANCH   3   9
ATOM      9  O   UNL     1      24.059  -3.469  34.649  1.00  0.00    -0.508 OA
ATOM     10  H   UNL     1      23.472  -4.120  34.141  1.00  0.00     0.293 HD
ENDBRANCH   3   9
TORSDOF 2
ENDMDL
MODEL 9
REMARK VINA RESULT:    -3.704      1.601      2.037
REMARK INTER + INTRA:          -4.086
REMARK INTER:                  -4.040
REMARK INTRA:                  -0.046
REMARK UNBOUND:                -0.058
REMARK SMILES CCc1cccc(O)c1
REMARK SMILES IDX 3 1 9 2 7 3 6 4 5 5 4 6 2 7 1 8 8 9
REMARK H PARENT 8 10
REMARK Flexibility Score: inf
ROOT
ATOM      1  C   UNL     1      30.093  -3.753  35.342  1.00  0.00    -0.045 A 
ATOM      2  C   UNL     1      29.593  -4.365  34.180  1.00  0.00     0.049 A 
ATOM      3  C   UNL     1      30.468  -4.792  33.174  1.00  0.00     0.115 A 
ATOM      4  C   UNL     1      31.849  -4.614  33.331  1.00  0.00     0.046 A 
ATOM      5  C   UNL     1      32.353  -4.018  34.490  1.00  0.00     0.004 A 
ATOM      6  C   UNL     1      31.480  -3.592  35.496  1.00  0.00     0.004 A 
ENDROOT
BRANCH   1   7
ATOM      7  C   UNL     1      29.154  -3.324  36.438  1.00  0.00     0.032 C 
ATOM      8  C   UNL     1      28.126  -2.330  35.909  1.00  0.00     0.009 C 
ENDBRANCH   1   7
BRANCH   3   9
ATOM      9  O   UNL     1      29.955  -5.391  32.026  1.00  0.00    -0.508 OA
ATOM     10  H   UNL     1      29.298  -6.160  32.080  1.00  0.00     0.293 HD
ENDBRANCH   3   9
TORSDOF 2
ENDMDL
