MODEL 1
REMARK VINA RESULT:    -3.687      0.000      0.000
REMARK INTER + INTRA:         -11.046
REMARK INTER:                  -7.998
REMARK INTRA:                  -3.048
REMARK UNBOUND:                -3.048
REMARK SMILES CCCCCCCCCCCCCCCCCCCCCC(=O)[O-]
REMARK SMILES IDX 12 1 11 2 10 3 9 4 8 5 7 6 6 7 5 8 4 9 3 10 2 11 1 12 13 13
REMARK SMILES IDX 14 14 15 15 16 16 17 17 18 18 19 19 20 20 21 21 22 22 23 23
REMARK SMILES IDX 24 24
REMARK H PARENT
REMARK Flexibility Score: inf
ROOT
ATOM      1  C   UNL     1      33.829   5.048  -6.146  1.00  0.00     0.000 C 
ENDROOT
BRANCH   1   2
ATOM      2  C   UNL     1      33.194   6.288  -6.798  1.00  0.00     0.000 C 
BRANCH   2   3
ATOM      3  C   UNL     1      32.934   6.103  -8.303  1.00  0.00     0.000 C 
BRANCH   3   4
ATOM      4  C   UNL     1      33.053   7.419  -9.088  1.00  0.00    -0.000 C 
BRANCH   4   5
ATOM      5  C   UNL     1      32.492   7.312 -10.514  1.00  0.00    -0.000 C 
BRANCH   5   6
ATOM      6  C   UNL     1      31.621   6.059 -10.668  1.00  0.00    -0.000 C 
BRANCH   6   7
ATOM      7  C   UNL     1      30.303   6.389 -11.383  1.00  0.00    -0.000 C 
BRANCH   7   8
ATOM      8  C   UNL     1      29.589   7.615 -10.783  1.00  0.00    -0.000 C 
BRANCH   8   9
ATOM      9  C   UNL     1      28.601   7.301  -9.640  1.00  0.00    -0.000 C 
BRANCH   9  10
ATOM     10  C   UNL     1      28.503   8.380  -8.548  1.00  0.00    -0.000 C 
BRANCH  10  11
ATOM     11  C   UNL     1      29.598   8.249  -7.480  1.00  0.00    -0.003 C 
ATOM     12  C   UNL     1      29.658   6.828  -6.925  1.00  0.00     0.004 C 
ENDBRANCH  10  11
ENDBRANCH   9  10
ENDBRANCH   8   9
ENDBRANCH   7   8
ENDBRANCH   6   7
ENDBRANCH   5   6
ENDBRANCH   4   5
ENDBRANCH   3   4
ENDBRANCH   2   3
ENDBRANCH   1   2
BRANCH   1  13
ATOM     13  C   UNL     1      35.133   5.351  -5.378  1.00  0.00     0.000 C 
BRANCH  13  14
ATOM     14  C   UNL     1      35.837   6.614  -5.905  1.00  0.00     0.000 C 
BRANCH  14  15
ATOM     15  C   UNL     1      37.014   6.279  -6.846  1.00  0.00     0.000 C 
BRANCH  15  16
ATOM     16  C   UNL     1      36.638   6.309  -8.338  1.00  0.00     0.000 C 
BRANCH  16  17
ATOM     17  C   UNL     1      37.000   5.007  -9.071  1.00  0.00     0.000 C 
BRANCH  17  18
ATOM     18  C   UNL     1      36.545   3.751  -8.310  1.00  0.00     0.000 C 
BRANCH  18  19
ATOM     19  C   UNL     1      37.713   2.808  -7.974  1.00  0.00     0.000 C 
BRANCH  19  20
ATOM     20  C   UNL     1      39.086   3.504  -8.051  1.00  0.00     0.006 C 
BRANCH  20  21
ATOM     21  C   UNL     1      39.809   3.609  -6.698  1.00  0.00     0.053 C 
BRANCH  21  22
ATOM     22  C   UNL     1      40.450   2.320  -6.286  1.00  0.00     0.041 C 
ATOM     23  O   UNL     1      39.971   1.650  -5.333  1.00  0.00    -0.550 OA
ATOM     24  O   UNL     1      41.564   1.847  -6.967  1.00  0.00    -0.550 OA
ENDBRANCH  21  22
ENDBRANCH  20  21
ENDBRANCH  19  20
ENDBRANCH  18  19
ENDBRANCH  17  18
ENDBRANCH  16  17
ENDBRANCH  15  16
ENDBRANCH  14  15
ENDBRANCH  13  14
ENDBRANCH   1  13
TORSDOF 20
ENDMDL
MODEL 2
REMARK VINA RESULT:    -3.405      1.531      3.120
REMARK INTER + INTRA:         -10.434
REMARK INTER:                  -8.127
REMARK INTRA:                  -2.307
REMARK UNBOUND:                -3.048
REMARK SMILES CCCCCCCCCCCCCCCCCCCCCC(=O)[O-]
REMARK SMILES IDX 12 1 11 2 10 3 9 4 8 5 7 6 6 7 5 8 4 9 3 10 2 11 1 12 13 13
REMARK SMILES IDX 14 14 15 15 16 16 17 17 18 18 19 19 20 20 21 21 22 22 23 23
REMARK SMILES IDX 24 24
REMARK H PARENT
REMARK Flexibility Score: inf
ROOT
ATOM      1  C   UNL     1      34.812   5.441  -5.194  1.00  0.00     0.000 C 
ENDROOT
BRANCH   1   2
ATOM      2  C   UNL     1      35.474   6.787  -5.534  1.00  0.00     0.000 C 
BRANCH   2   3
ATOM      3  C   UNL     1      35.158   7.883  -4.503  1.00  0.00     0.000 C 
BRANCH   3   4
ATOM      4  C   UNL     1      33.830   8.600  -4.791  1.00  0.00    -0.000 C 
BRANCH   4   5
ATOM      5  C   UNL     1      33.558   8.766  -6.294  1.00  0.00    -0.000 C 
BRANCH   5   6
ATOM      6  C   UNL     1      32.173   8.221  -6.664  1.00  0.00    -0.000 C 
BRANCH   6   7
ATOM      7  C   UNL     1      31.063   9.022  -5.970  1.00  0.00    -0.000 C 
BRANCH   7   8
ATOM      8  C   UNL     1      29.730   8.254  -5.896  1.00  0.00    -0.000 C 
BRANCH   8   9
ATOM      9  C   UNL     1      29.431   7.346  -7.107  1.00  0.00    -0.000 C 
BRANCH   9  10
ATOM     10  C   UNL     1      28.711   8.036  -8.278  1.00  0.00    -0.000 C 
BRANCH  10  11
ATOM     11  C   UNL     1      29.022   7.387  -9.635  1.00  0.00    -0.003 C 
ATOM     12  C   UNL     1      30.525   7.205  -9.826  1.00  0.00     0.004 C 
ENDBRANCH  10  11
ENDBRANCH   9  10
ENDBRANCH   8   9
ENDBRANCH   7   8
ENDBRANCH   6   7
ENDBRANCH   5   6
ENDBRANCH   4   5
ENDBRANCH   3   4
ENDBRANCH   2   3
ENDBRANCH   1   2
BRANCH   1  13
ATOM     13  C   UNL     1      34.431   4.606  -6.436  1.00  0.00     0.000 C 
BRANCH  13  14
ATOM     14  C   UNL     1      34.389   5.457  -7.717  1.00  0.00     0.000 C 
BRANCH  14  15
ATOM     15  C   UNL     1      35.126   4.782  -8.893  1.00  0.00     0.000 C 
BRANCH  15  16
ATOM     16  C   UNL     1      36.134   3.705  -8.453  1.00  0.00     0.000 C 
BRANCH  16  17
ATOM     17  C   UNL     1      37.593   4.183  -8.541  1.00  0.00     0.000 C 
BRANCH  17  18
ATOM     18  C   UNL     1      38.127   4.711  -7.200  1.00  0.00     0.000 C 
BRANCH  18  19
ATOM     19  C   UNL     1      39.588   4.303  -6.945  1.00  0.00     0.000 C 
BRANCH  19  20
ATOM     20  C   UNL     1      39.937   2.922  -7.532  1.00  0.00     0.006 C 
BRANCH  20  21
ATOM     21  C   UNL     1      39.501   1.741  -6.648  1.00  0.00     0.053 C 
BRANCH  21  22
ATOM     22  C   UNL     1      40.597   1.259  -5.749  1.00  0.00     0.041 C 
ATOM     23  O   UNL     1      41.627   1.963  -5.573  1.00  0.00    -0.550 OA
ATOM     24  O   UNL     1      40.474   0.043  -5.090  1.00  0.00    -0.550 OA
ENDBRANCH  21  22
ENDBRANCH  20  21
ENDBRANCH  19  20
ENDBRANCH  18  19
ENDBRANCH  17  18
ENDBRANCH  16  17
ENDBRANCH  15  16
ENDBRANCH  14  15
ENDBRANCH  13  14
ENDBRANCH   1  13
TORSDOF 20
ENDMDL
MODEL 3
REMARK VINA RESULT:    -3.381      2.040      3.337
REMARK INTER + INTRA:         -10.381
REMARK INTER:                  -7.353
REMARK INTRA:                  -3.028
REMARK UNBOUND:                -3.048
REMARK SMILES CCCCCCCCCCCCCCCCCCCCCC(=O)[O-]
REMARK SMILES IDX 12 1 11 2 10 3 9 4 8 5 7 6 6 7 5 8 4 9 3 10 2 11 1 12 13 13
REMARK SMILES IDX 14 14 15 15 16 16 17 17 18 18 19 19 20 20 21 21 22 22 23 23
REMARK SMILES IDX 24 24
REMARK H PARENT
REMARK Flexibility Score: inf
ROOT
ATOM      1  C   UNL     1      32.758   5.653  -6.859  1.00  0.00     0.000 C 
ENDROOT
BRANCH   1   2
ATOM      2  C   UNL     1      32.974   7.165  -6.676  1.00  0.00     0.000 C 
BRANCH   2   3
ATOM      3  C   UNL     1      31.961   8.011  -7.466  1.00  0.00     0.000 C 
BRANCH   3   4
ATOM      4  C   UNL     1      30.967   8.747  -6.554  1.00  0.00    -0.000 C 
BRANCH   4   5
ATOM      5  C   UNL     1      29.632   8.002  -6.407  1.00  0.00    -0.000 C 
BRANCH   5   6
ATOM      6  C   UNL     1      29.344   7.142  -7.644  1.00  0.00    -0.000 C 
BRANCH   6   7
ATOM      7  C   UNL     1      28.471   7.903  -8.652  1.00  0.00    -0.000 C 
BRANCH   7   8
ATOM      8  C   UNL     1      28.514   7.287 -10.062  1.00  0.00    -0.000 C 
BRANCH   8   9
ATOM      9  C   UNL     1      29.923   7.162 -10.679  1.00  0.00    -0.000 C 
BRANCH   9  10
ATOM     10  C   UNL     1      30.070   6.072 -11.755  1.00  0.00    -0.000 C 
BRANCH  10  11
ATOM     11  C   UNL     1      31.447   5.395 -11.734  1.00  0.00    -0.003 C 
ATOM     12  C   UNL     1      32.231   5.782 -10.483  1.00  0.00     0.004 C 
ENDBRANCH  10  11
ENDBRANCH   9  10
ENDBRANCH   8   9
ENDBRANCH   7   8
ENDBRANCH   6   7
ENDBRANCH   5   6
ENDBRANCH   4   5
ENDBRANCH   3   4
ENDBRANCH   2   3
ENDBRANCH   1   2
BRANCH   1  13
ATOM     13  C   UNL     1      33.972   4.798  -6.436  1.00  0.00     0.000 C 
BRANCH  13  14
ATOM     14  C   UNL     1      34.940   5.575  -5.527  1.00  0.00     0.000 C 
BRANCH  14  15
ATOM     15  C   UNL     1      36.374   5.615  -6.097  1.00  0.00     0.000 C 
BRANCH  15  16
ATOM     16  C   UNL     1      36.540   6.584  -7.281  1.00  0.00     0.000 C 
BRANCH  16  17
ATOM     17  C   UNL     1      36.952   5.873  -8.580  1.00  0.00     0.000 C 
BRANCH  17  18
ATOM     18  C   UNL     1      35.763   5.612  -9.517  1.00  0.00     0.000 C 
BRANCH  18  19
ATOM     19  C   UNL     1      35.542   4.114  -9.788  1.00  0.00     0.000 C 
BRANCH  19  20
ATOM     20  C   UNL     1      36.492   3.212  -8.976  1.00  0.00     0.006 C 
BRANCH  20  21
ATOM     21  C   UNL     1      35.780   2.086  -8.208  1.00  0.00     0.053 C 
BRANCH  21  22
ATOM     22  C   UNL     1      36.655   0.889  -7.999  1.00  0.00     0.041 C 
ATOM     23  O   UNL     1      37.684   0.725  -8.706  1.00  0.00    -0.550 OA
ATOM     24  O   UNL     1      36.345  -0.036  -7.010  1.00  0.00    -0.550 OA
ENDBRANCH  21  22
ENDBRANCH  20  21
ENDBRANCH  19  20
ENDBRANCH  18  19
ENDBRANCH  17  18
ENDBRANCH  16  17
ENDBRANCH  15  16
ENDBRANCH  14  15
ENDBRANCH  13  14
ENDBRANCH   1  13
TORSDOF 20
ENDMDL
MODEL 4
REMARK VINA RESULT:    -3.380      2.567      4.435
REMARK INTER + INTRA:         -10.380
REMARK INTER:                  -6.784
REMARK INTRA:                  -3.596
REMARK UNBOUND:                -3.048
REMARK SMILES CCCCCCCCCCCCCCCCCCCCCC(=O)[O-]
REMARK SMILES IDX 12 1 11 2 10 3 9 4 8 5 7 6 6 7 5 8 4 9 3 10 2 11 1 12 13 13
REMARK SMILES IDX 14 14 15 15 16 16 17 17 18 18 19 19 20 20 21 21 22 22 23 23
REMARK SMILES IDX 24 24
REMARK H PARENT
REMARK Flexibility Score: inf
ROOT
ATOM      1  C   UNL     1      33.837   6.289 -10.997  1.00  0.00     0.000 C 
ENDROOT
BRANCH   1   2
ATOM      2  C   UNL     1      33.628   7.621 -10.257  1.00  0.00     0.000 C 
BRANCH   2   3
ATOM      3  C   UNL     1      32.940   7.442  -8.893  1.00  0.00     0.000 C 
BRANCH   3   4
ATOM      4  C   UNL     1      32.524   5.986  -8.628  1.00  0.00    -0.000 C 
BRANCH   4   5
ATOM      5  C   UNL     1      31.873   5.796  -7.250  1.00  0.00    -0.000 C 
BRANCH   5   6
ATOM      6  C   UNL     1      31.114   7.059  -6.823  1.00  0.00    -0.000 C 
BRANCH   6   7
ATOM      7  C   UNL     1      29.638   6.981  -7.239  1.00  0.00    -0.000 C 
BRANCH   7   8
ATOM      8  C   UNL     1      29.045   8.356  -7.596  1.00  0.00    -0.000 C 
BRANCH   8   9
ATOM      9  C   UNL     1      28.334   8.427  -8.963  1.00  0.00    -0.000 C 
BRANCH   9  10
ATOM     10  C   UNL     1      28.546   7.205  -9.874  1.00  0.00    -0.000 C 
BRANCH  10  11
ATOM     11  C   UNL     1      29.511   7.487 -11.034  1.00  0.00    -0.003 C 
ATOM     12  C   UNL     1      30.224   6.213 -11.478  1.00  0.00     0.004 C 
ENDBRANCH  10  11
ENDBRANCH   9  10
ENDBRANCH   8   9
ENDBRANCH   7   8
ENDBRANCH   6   7
ENDBRANCH   5   6
ENDBRANCH   4   5
ENDBRANCH   3   4
ENDBRANCH   2   3
ENDBRANCH   1   2
BRANCH   1  13
ATOM     13  C   UNL     1      35.300   6.040 -11.422  1.00  0.00     0.000 C 
BRANCH  13  14
ATOM     14  C   UNL     1      35.728   4.577 -11.203  1.00  0.00     0.000 C 
BRANCH  14  15
ATOM     15  C   UNL     1      35.461   4.099  -9.760  1.00  0.00     0.000 C 
BRANCH  15  16
ATOM     16  C   UNL     1      36.716   3.570  -9.043  1.00  0.00     0.000 C 
BRANCH  16  17
ATOM     17  C   UNL     1      37.936   4.488  -9.222  1.00  0.00     0.000 C 
BRANCH  17  18
ATOM     18  C   UNL     1      38.123   5.463  -8.049  1.00  0.00     0.000 C 
BRANCH  18  19
ATOM     19  C   UNL     1      37.357   6.782  -8.250  1.00  0.00     0.000 C 
BRANCH  19  20
ATOM     20  C   UNL     1      36.123   6.904  -7.336  1.00  0.00     0.006 C 
BRANCH  20  21
ATOM     21  C   UNL     1      36.103   5.894  -6.176  1.00  0.00     0.053 C 
BRANCH  21  22
ATOM     22  C   UNL     1      35.002   6.163  -5.198  1.00  0.00     0.041 C 
ATOM     23  O   UNL     1      34.426   7.283  -5.183  1.00  0.00    -0.550 OA
ATOM     24  O   UNL     1      34.597   5.171  -4.314  1.00  0.00    -0.550 OA
ENDBRANCH  21  22
ENDBRANCH  20  21
ENDBRANCH  19  20
ENDBRANCH  18  19
ENDBRANCH  17  18
ENDBRANCH  16  17
ENDBRANCH  15  16
ENDBRANCH  14  15
ENDBRANCH  13  14
ENDBRANCH   1  13
TORSDOF 20
ENDMDL
MODEL 5
REMARK VINA RESULT:    -3.363     11.930     15.505
REMARK INTER + INTRA:         -10.344
REMARK INTER:                  -6.138
REMARK INTRA:                  -4.206
REMARK UNBOUND:                -3.048
REMARK SMILES CCCCCCCCCCCCCCCCCCCCCC(=O)[O-]
REMARK SMILES IDX 12 1 11 2 10 3 9 4 8 5 7 6 6 7 5 8 4 9 3 10 2 11 1 12 13 13
REMARK SMILES IDX 14 14 15 15 16 16 17 17 18 18 19 19 20 20 21 21 22 22 23 23
REMARK SMILES IDX 24 24
REMARK H PARENT
REMARK Flexibility Score: inf
ROOT
ATOM      1  C   UNL     1      37.615   1.342   5.437  1.00  0.00     0.000 C 
ENDROOT
BRANCH   1   2
ATOM      2  C   UNL     1      38.780   1.314   4.433  1.00  0.00     0.000 C 
BRANCH   2   3
ATOM      3  C   UNL     1      38.621   2.349   3.307  1.00  0.00     0.000 C 
BRANCH   3   4
ATOM      4  C   UNL     1      39.953   3.016   2.926  1.00  0.00    -0.000 C 
BRANCH   4   5
ATOM      5  C   UNL     1      41.000   2.937   4.047  1.00  0.00    -0.000 C 
BRANCH   5   6
ATOM      6  C   UNL     1      42.282   2.256   3.554  1.00  0.00    -0.000 C 
BRANCH   6   7
ATOM      7  C   UNL     1      42.486   0.900   4.246  1.00  0.00    -0.000 C 
BRANCH   7   8
ATOM      8  C   UNL     1      42.485  -0.281   3.258  1.00  0.00    -0.000 C 
BRANCH   8   9
ATOM      9  C   UNL     1      41.176  -1.097   3.217  1.00  0.00    -0.000 C 
BRANCH   9  10
ATOM     10  C   UNL     1      40.368  -0.969   1.914  1.00  0.00    -0.000 C 
BRANCH  10  11
ATOM     11  C   UNL     1      41.007  -0.001   0.909  1.00  0.00    -0.003 C 
ATOM     12  C   UNL     1      41.671  -0.757  -0.238  1.00  0.00     0.004 C 
ENDBRANCH  10  11
ENDBRANCH   9  10
ENDBRANCH   8   9
ENDBRANCH   7   8
ENDBRANCH   6   7
ENDBRANCH   5   6
ENDBRANCH   4   5
ENDBRANCH   3   4
ENDBRANCH   2   3
ENDBRANCH   1   2
BRANCH   1  13
ATOM     13  C   UNL     1      38.066   1.507   6.904  1.00  0.00     0.000 C 
BRANCH  13  14
ATOM     14  C   UNL     1      39.596   1.439   7.053  1.00  0.00     0.000 C 
BRANCH  14  15
ATOM     15  C   UNL     1      40.179   2.713   7.702  1.00  0.00     0.000 C 
BRANCH  15  16
ATOM     16  C   UNL     1      39.243   3.931   7.618  1.00  0.00     0.000 C 
BRANCH  16  17
ATOM     17  C   UNL     1      39.825   5.073   6.769  1.00  0.00     0.000 C 
BRANCH  17  18
ATOM     18  C   UNL     1      38.846   5.574   5.696  1.00  0.00     0.000 C 
BRANCH  18  19
ATOM     19  C   UNL     1      37.423   5.021   5.890  1.00  0.00     0.000 C 
BRANCH  19  20
ATOM     20  C   UNL     1      36.539   5.188   4.639  1.00  0.00     0.006 C 
BRANCH  20  21
ATOM     21  C   UNL     1      35.387   4.173   4.549  1.00  0.00     0.053 C 
BRANCH  21  22
ATOM     22  C   UNL     1      34.271   4.645   3.669  1.00  0.00     0.041 C 
ATOM     23  O   UNL     1      33.393   3.835   3.269  1.00  0.00    -0.550 OA
ATOM     24  O   UNL     1      34.189   5.983   3.306  1.00  0.00    -0.550 OA
ENDBRANCH  21  22
ENDBRANCH  20  21
ENDBRANCH  19  20
ENDBRANCH  18  19
ENDBRANCH  17  18
ENDBRANCH  16  17
ENDBRANCH  15  16
ENDBRANCH  14  15
ENDBRANCH  13  14
ENDBRANCH   1  13
TORSDOF 20
ENDMDL
MODEL 6
REMARK VINA RESULT:    -3.288     10.776     14.650
REMARK INTER + INTRA:         -10.181
REMARK INTER:                  -7.142
REMARK INTRA:                  -3.039
REMARK UNBOUND:                -3.048
REMARK SMILES CCCCCCCCCCCCCCCCCCCCCC(=O)[O-]
REMARK SMILES IDX 12 1 11 2 10 3 9 4 8 5 7 6 6 7 5 8 4 9 3 10 2 11 1 12 13 13
REMARK SMILES IDX 14 14 15 15 16 16 17 17 18 18 19 19 20 20 21 21 22 22 23 23
REMARK SMILES IDX 24 24
REMARK H PARENT
REMARK Flexibility Score: inf
ROOT
ATOM      1  C   UNL     1      37.146   7.530   3.618  1.00  0.00     0.000 C 
ENDROOT
BRANCH   1   2
ATOM      2  C   UNL     1      38.144   6.713   4.457  1.00  0.00     0.000 C 
BRANCH   2   3
ATOM      3  C   UNL     1      37.882   6.824   5.968  1.00  0.00     0.000 C 
BRANCH   3   4
ATOM      4  C   UNL     1      38.423   5.618   6.752  1.00  0.00    -0.000 C 
BRANCH   4   5
ATOM      5  C   UNL     1      38.215   4.287   6.014  1.00  0.00    -0.000 C 
BRANCH   5   6
ATOM      6  C   UNL     1      39.416   3.355   6.212  1.00  0.00    -0.000 C 
BRANCH   6   7
ATOM      7  C   UNL     1      40.659   3.899   5.492  1.00  0.00    -0.000 C 
BRANCH   7   8
ATOM      8  C   UNL     1      41.667   2.795   5.126  1.00  0.00    -0.000 C 
BRANCH   8   9
ATOM      9  C   UNL     1      41.753   2.460   3.622  1.00  0.00    -0.000 C 
BRANCH   9  10
ATOM     10  C   UNL     1      40.468   2.728   2.820  1.00  0.00    -0.000 C 
BRANCH  10  11
ATOM     11  C   UNL     1      39.574   1.486   2.694  1.00  0.00    -0.003 C 
ATOM     12  C   UNL     1      38.123   1.816   3.032  1.00  0.00     0.004 C 
ENDBRANCH  10  11
ENDBRANCH   9  10
ENDBRANCH   8   9
ENDBRANCH   7   8
ENDBRANCH   6   7
ENDBRANCH   5   6
ENDBRANCH   4   5
ENDBRANCH   3   4
ENDBRANCH   2   3
ENDBRANCH   1   2
BRANCH   1  13
ATOM     13  C   UNL     1      36.383   8.598   4.429  1.00  0.00     0.000 C 
BRANCH  13  14
ATOM     14  C   UNL     1      34.877   8.601   4.113  1.00  0.00     0.000 C 
BRANCH  14  15
ATOM     15  C   UNL     1      34.279   7.177   4.093  1.00  0.00     0.000 C 
BRANCH  15  16
ATOM     16  C   UNL     1      34.086   6.569   5.493  1.00  0.00     0.000 C 
BRANCH  16  17
ATOM     17  C   UNL     1      34.546   5.104   5.576  1.00  0.00     0.000 C 
BRANCH  17  18
ATOM     18  C   UNL     1      35.041   4.560   4.226  1.00  0.00     0.000 C 
BRANCH  18  19
ATOM     19  C   UNL     1      34.602   3.106   3.980  1.00  0.00     0.000 C 
BRANCH  19  20
ATOM     20  C   UNL     1      33.218   3.003   3.309  1.00  0.00     0.006 C 
BRANCH  20  21
ATOM     21  C   UNL     1      33.277   2.762   1.791  1.00  0.00     0.053 C 
BRANCH  21  22
ATOM     22  C   UNL     1      31.931   2.854   1.142  1.00  0.00     0.041 C 
ATOM     23  O   UNL     1      31.515   3.957   0.699  1.00  0.00    -0.550 OA
ATOM     24  O   UNL     1      31.143   1.718   1.007  1.00  0.00    -0.550 OA
ENDBRANCH  21  22
ENDBRANCH  20  21
ENDBRANCH  19  20
ENDBRANCH  18  19
ENDBRANCH  17  18
ENDBRANCH  16  17
ENDBRANCH  15  16
ENDBRANCH  14  15
ENDBRANCH  13  14
ENDBRANCH   1  13
TORSDOF 20
ENDMDL
MODEL 7
REMARK VINA RESULT:    -3.268      1.133      3.644
REMARK INTER + INTRA:         -10.137
REMARK INTER:                  -6.993
REMARK INTRA:                  -3.144
REMARK UNBOUND:                -3.048
REMARK SMILES CCCCCCCCCCCCCCCCCCCCCC(=O)[O-]
REMARK SMILES IDX 12 1 11 2 10 3 9 4 8 5 7 6 6 7 5 8 4 9 3 10 2 11 1 12 13 13
REMARK SMILES IDX 14 14 15 15 16 16 17 17 18 18 19 19 20 20 21 21 22 22 23 23
REMARK SMILES IDX 24 24
REMARK H PARENT
REMARK Flexibility Score: inf
ROOT
ATOM      1  C   UNL     1      31.842   5.748 -10.880  1.00  0.00     0.000 C 
ENDROOT
BRANCH   1   2
ATOM      2  C   UNL     1      30.517   6.526 -10.955  1.00  0.00     0.000 C 
BRANCH   2   3
ATOM      3  C   UNL     1      30.672   8.005 -10.563  1.00  0.00     0.000 C 
BRANCH   3   4
ATOM      4  C   UNL     1      29.355   8.626 -10.070  1.00  0.00    -0.000 C 
BRANCH   4   5
ATOM      5  C   UNL     1      28.710   7.824  -8.929  1.00  0.00    -0.000 C 
BRANCH   5   6
ATOM      6  C   UNL     1      28.898   8.535  -7.584  1.00  0.00    -0.000 C 
BRANCH   6   7
ATOM      7  C   UNL     1      29.653   7.642  -6.589  1.00  0.00    -0.000 C 
BRANCH   7   8
ATOM      8  C   UNL     1      30.071   6.291  -7.198  1.00  0.00    -0.000 C 
BRANCH   8   9
ATOM      9  C   UNL     1      31.590   6.024  -7.216  1.00  0.00    -0.000 C 
BRANCH   9  10
ATOM     10  C   UNL     1      32.474   7.283  -7.267  1.00  0.00    -0.000 C 
BRANCH  10  11
ATOM     11  C   UNL     1      33.765   7.139  -6.449  1.00  0.00    -0.003 C 
ATOM     12  C   UNL     1      34.039   5.677  -6.108  1.00  0.00     0.004 C 
ENDBRANCH  10  11
ENDBRANCH   9  10
ENDBRANCH   8   9
ENDBRANCH   7   8
ENDBRANCH   6   7
ENDBRANCH   5   6
ENDBRANCH   4   5
ENDBRANCH   3   4
ENDBRANCH   2   3
ENDBRANCH   1   2
BRANCH   1  13
ATOM     13  C   UNL     1      33.092   6.654 -10.863  1.00  0.00     0.000 C 
BRANCH  13  14
ATOM     14  C   UNL     1      34.345   5.905 -10.375  1.00  0.00     0.000 C 
BRANCH  14  15
ATOM     15  C   UNL     1      35.368   6.848  -9.705  1.00  0.00     0.000 C 
BRANCH  15  16
ATOM     16  C   UNL     1      36.592   6.118  -9.125  1.00  0.00     0.000 C 
BRANCH  16  17
ATOM     17  C   UNL     1      36.356   4.610  -8.941  1.00  0.00     0.000 C 
BRANCH  17  18
ATOM     18  C   UNL     1      36.989   4.063  -7.652  1.00  0.00     0.000 C 
BRANCH  18  19
ATOM     19  C   UNL     1      38.217   4.875  -7.206  1.00  0.00     0.000 C 
BRANCH  19  20
ATOM     20  C   UNL     1      39.468   4.002  -6.991  1.00  0.00     0.006 C 
BRANCH  20  21
ATOM     21  C   UNL     1      39.189   2.490  -7.038  1.00  0.00     0.053 C 
BRANCH  21  22
ATOM     22  C   UNL     1      40.226   1.690  -6.313  1.00  0.00     0.041 C 
ATOM     23  O   UNL     1      39.880   0.813  -5.476  1.00  0.00    -0.550 OA
ATOM     24  O   UNL     1      41.574   1.898  -6.572  1.00  0.00    -0.550 OA
ENDBRANCH  21  22
ENDBRANCH  20  21
ENDBRANCH  19  20
ENDBRANCH  18  19
ENDBRANCH  17  18
ENDBRANCH  16  17
ENDBRANCH  15  16
ENDBRANCH  14  15
ENDBRANCH  13  14
ENDBRANCH   1  13
TORSDOF 20
ENDMDL
MODEL 8
REMARK VINA RESULT:    -3.260     10.652     14.632
REMARK INTER + INTRA:         -10.119
REMARK INTER:                  -6.623
REMARK INTRA:                  -3.497
REMARK UNBOUND:                -3.048
REMARK SMILES CCCCCCCCCCCCCCCCCCCCCC(=O)[O-]
REMARK SMILES IDX 12 1 11 2 10 3 9 4 8 5 7 6 6 7 5 8 4 9 3 10 2 11 1 12 13 13
REMARK SMILES IDX 14 14 15 15 16 16 17 17 18 18 19 19 20 20 21 21 22 22 23 23
REMARK SMILES IDX 24 24
REMARK H PARENT
REMARK Flexibility Score: inf
ROOT
ATOM      1  C   UNL     1      39.716   4.056   5.795  1.00  0.00     0.000 C 
ENDROOT
BRANCH   1   2
ATOM      2  C   UNL     1      39.097   2.907   6.610  1.00  0.00     0.000 C 
BRANCH   2   3
ATOM      3  C   UNL     1      38.732   1.692   5.742  1.00  0.00     0.000 C 
BRANCH   3   4
ATOM      4  C   UNL     1      37.333   1.812   5.116  1.00  0.00    -0.000 C 
BRANCH   4   5
ATOM      5  C   UNL     1      37.379   2.100   3.608  1.00  0.00    -0.000 C 
BRANCH   5   6
ATOM      6  C   UNL     1      37.157   0.817   2.798  1.00  0.00    -0.000 C 
BRANCH   6   7
ATOM      7  C   UNL     1      38.482   0.286   2.233  1.00  0.00    -0.000 C 
BRANCH   7   8
ATOM      8  C   UNL     1      39.367   1.398   1.640  1.00  0.00    -0.000 C 
BRANCH   8   9
ATOM      9  C   UNL     1      40.850   1.347   2.061  1.00  0.00    -0.000 C 
BRANCH   9  10
ATOM     10  C   UNL     1      41.306   2.489   2.985  1.00  0.00    -0.000 C 
BRANCH  10  11
ATOM     11  C   UNL     1      42.402   2.057   3.970  1.00  0.00    -0.003 C 
ATOM     12  C   UNL     1      42.088   0.693   4.578  1.00  0.00     0.004 C 
ENDBRANCH  10  11
ENDBRANCH   9  10
ENDBRANCH   8   9
ENDBRANCH   7   8
ENDBRANCH   6   7
ENDBRANCH   5   6
ENDBRANCH   4   5
ENDBRANCH   3   4
ENDBRANCH   2   3
ENDBRANCH   1   2
BRANCH   1  13
ATOM     13  C   UNL     1      39.223   5.455   6.223  1.00  0.00     0.000 C 
BRANCH  13  14
ATOM     14  C   UNL     1      37.920   5.855   5.510  1.00  0.00     0.000 C 
BRANCH  14  15
ATOM     15  C   UNL     1      36.698   5.809   6.454  1.00  0.00     0.000 C 
BRANCH  15  16
ATOM     16  C   UNL     1      35.511   5.010   5.888  1.00  0.00     0.000 C 
BRANCH  16  17
ATOM     17  C   UNL     1      35.457   5.029   4.352  1.00  0.00     0.000 C 
BRANCH  17  18
ATOM     18  C   UNL     1      34.121   4.508   3.799  1.00  0.00     0.000 C 
BRANCH  18  19
ATOM     19  C   UNL     1      33.814   3.071   4.253  1.00  0.00     0.000 C 
BRANCH  19  20
ATOM     20  C   UNL     1      33.536   2.116   3.076  1.00  0.00     0.006 C 
BRANCH  20  21
ATOM     21  C   UNL     1      33.423   2.822   1.714  1.00  0.00     0.053 C 
BRANCH  21  22
ATOM     22  C   UNL     1      32.017   2.857   1.199  1.00  0.00     0.041 C 
ATOM     23  O   UNL     1      31.540   3.925   0.731  1.00  0.00    -0.550 OA
ATOM     24  O   UNL     1      31.238   1.707   1.219  1.00  0.00    -0.550 OA
ENDBRANCH  21  22
ENDBRANCH  20  21
ENDBRANCH  19  20
ENDBRANCH  18  19
ENDBRANCH  17  18
ENDBRANCH  16  17
ENDBRANCH  15  16
ENDBRANCH  14  15
ENDBRANCH  13  14
ENDBRANCH   1  13
TORSDOF 20
ENDMDL
MODEL 9
REMARK VINA RESULT:    -3.232      1.933      3.271
REMARK INTER + INTRA:         -10.060
REMARK INTER:                  -7.406
REMARK INTRA:                  -2.654
REMARK UNBOUND:                -3.048
REMARK SMILES CCCCCCCCCCCCCCCCCCCCCC(=O)[O-]
REMARK SMILES IDX 12 1 11 2 10 3 9 4 8 5 7 6 6 7 5 8 4 9 3 10 2 11 1 12 13 13
REMARK SMILES IDX 14 14 15 15 16 16 17 17 18 18 19 19 20 20 21 21 22 22 23 23
REMARK SMILES IDX 24 24
REMARK H PARENT
REMARK Flexibility Score: inf
ROOT
ATOM      1  C   UNL     1      34.987   5.487  -5.393  1.00  0.00     0.000 C 
ENDROOT
BRANCH   1   2
ATOM      2  C   UNL     1      35.885   6.692  -5.724  1.00  0.00     0.000 C 
BRANCH   2   3
ATOM      3  C   UNL     1      35.563   7.927  -4.867  1.00  0.00     0.000 C 
BRANCH   3   4
ATOM      4  C   UNL     1      34.253   8.613  -5.287  1.00  0.00    -0.000 C 
BRANCH   4   5
ATOM      5  C   UNL     1      34.227   8.981  -6.778  1.00  0.00    -0.000 C 
BRANCH   5   6
ATOM      6  C   UNL     1      32.873   8.630  -7.406  1.00  0.00    -0.000 C 
BRANCH   6   7
ATOM      7  C   UNL     1      32.061   7.709  -6.484  1.00  0.00    -0.000 C 
BRANCH   7   8
ATOM      8  C   UNL     1      31.265   6.642  -7.257  1.00  0.00    -0.000 C 
BRANCH   8   9
ATOM      9  C   UNL     1      29.731   6.793  -7.189  1.00  0.00    -0.000 C 
BRANCH   9  10
ATOM     10  C   UNL     1      29.221   8.243  -7.127  1.00  0.00    -0.000 C 
BRANCH  10  11
ATOM     11  C   UNL     1      28.481   8.671  -8.403  1.00  0.00    -0.003 C 
ATOM     12  C   UNL     1      28.517   7.566  -9.455  1.00  0.00     0.004 C 
ENDBRANCH  10  11
ENDBRANCH   9  10
ENDBRANCH   8   9
ENDBRANCH   7   8
ENDBRANCH   6   7
ENDBRANCH   5   6
ENDBRANCH   4   5
ENDBRANCH   3   4
ENDBRANCH   2   3
ENDBRANCH   1   2
BRANCH   1  13
ATOM     13  C   UNL     1      34.380   4.806  -6.638  1.00  0.00     0.000 C 
BRANCH  13  14
ATOM     14  C   UNL     1      34.805   5.500  -7.944  1.00  0.00     0.000 C 
BRANCH  14  15
ATOM     15  C   UNL     1      35.653   4.578  -8.847  1.00  0.00     0.000 C 
BRANCH  15  16
ATOM     16  C   UNL     1      37.122   4.463  -8.405  1.00  0.00     0.000 C 
BRANCH  16  17
ATOM     17  C   UNL     1      37.530   3.021  -8.060  1.00  0.00     0.000 C 
BRANCH  17  18
ATOM     18  C   UNL     1      37.016   1.997  -9.085  1.00  0.00     0.000 C 
BRANCH  18  19
ATOM     19  C   UNL     1      35.963   1.046  -8.491  1.00  0.00     0.000 C 
BRANCH  19  20
ATOM     20  C   UNL     1      36.531   0.139  -7.383  1.00  0.00     0.006 C 
BRANCH  20  21
ATOM     21  C   UNL     1      37.744  -0.699  -7.822  1.00  0.00     0.053 C 
BRANCH  21  22
ATOM     22  C   UNL     1      38.957  -0.439  -6.983  1.00  0.00     0.041 C 
ATOM     23  O   UNL     1      39.073  -0.982  -5.852  1.00  0.00    -0.550 OA
ATOM     24  O   UNL     1      39.968   0.386  -7.457  1.00  0.00    -0.550 OA
ENDBRANCH  21  22
ENDBRANCH  20  21
ENDBRANCH  19  20
ENDBRANCH  18  19
ENDBRANCH  17  18
ENDBRANCH  16  17
ENDBRANCH  15  16
ENDBRANCH  14  15
ENDBRANCH  13  14
ENDBRANCH   1  13
TORSDOF 20
ENDMDL
