MODEL 1
REMARK VINA RESULT:    -5.493      0.000      0.000
REMARK INTER + INTRA:          -6.615
REMARK INTER:                  -6.456
REMARK INTRA:                  -0.160
REMARK UNBOUND:                -0.160
REMARK SMILES COc1ccc(C=CC(=O)[O-])cc1
REMARK SMILES IDX 6 1 5 2 12 3 4 4 13 5 3 6 7 7 8 8 9 9 10 10 11 11 2 12 1 13
REMARK H PARENT
REMARK Flexibility Score: inf
ROOT
ATOM      1  C   UNL     1     -35.596  -5.968 -15.291  1.00  0.00    -0.025 A 
ATOM      2  C   UNL     1     -35.697  -6.086 -13.891  1.00  0.00     0.012 A 
ATOM      3  C   UNL     1     -36.315  -6.866 -16.098  1.00  0.00     0.012 A 
ATOM      4  C   UNL     1     -36.479  -7.094 -13.320  1.00  0.00     0.047 A 
ATOM      5  C   UNL     1     -37.096  -7.873 -15.525  1.00  0.00     0.047 A 
ATOM      6  C   UNL     1     -37.182  -7.996 -14.127  1.00  0.00     0.118 A 
ENDROOT
BRANCH   1   7
ATOM      7  C   UNL     1     -34.790  -4.910 -15.948  1.00  0.00     0.010 C 
ATOM      8  C   UNL     1     -33.747  -5.158 -16.751  1.00  0.00     0.025 C 
BRANCH   8   9
ATOM      9  C   UNL     1     -32.982  -4.077 -17.391  1.00  0.00     0.064 C 
ATOM     10  O   UNL     1     -33.536  -3.353 -18.260  1.00  0.00    -0.545 OA
ATOM     11  O   UNL     1     -31.654  -3.841 -17.052  1.00  0.00    -0.545 OA
ENDBRANCH   8   9
ENDBRANCH   1   7
BRANCH   6  12
ATOM     12  O   UNL     1     -37.950  -8.990 -13.504  1.00  0.00    -0.497 OA
ATOM     13  C   UNL     1     -39.364  -9.103 -13.619  1.00  0.00     0.278 C 
ENDBRANCH   6  12
TORSDOF 3
ENDMDL
MODEL 2
REMARK VINA RESULT:    -5.488      0.166      1.352
REMARK INTER + INTRA:          -6.610
REMARK INTER:                  -6.454
REMARK INTRA:                  -0.156
REMARK UNBOUND:                -0.160
REMARK SMILES COc1ccc(C=CC(=O)[O-])cc1
REMARK SMILES IDX 6 1 5 2 12 3 4 4 13 5 3 6 7 7 8 8 9 9 10 10 11 11 2 12 1 13
REMARK H PARENT
REMARK Flexibility Score: inf
ROOT
ATOM      1  C   UNL     1     -35.578  -5.982 -15.298  1.00  0.00    -0.025 A 
ATOM      2  C   UNL     1     -36.277  -6.925 -16.076  1.00  0.00     0.012 A 
ATOM      3  C   UNL     1     -35.671  -6.059 -13.898  1.00  0.00     0.012 A 
ATOM      4  C   UNL     1     -37.068  -7.902 -15.464  1.00  0.00     0.047 A 
ATOM      5  C   UNL     1     -36.463  -7.036 -13.288  1.00  0.00     0.047 A 
ATOM      6  C   UNL     1     -37.170  -7.967 -14.070  1.00  0.00     0.118 A 
ENDROOT
BRANCH   1   7
ATOM      7  C   UNL     1     -34.717  -4.932 -15.896  1.00  0.00     0.010 C 
ATOM      8  C   UNL     1     -33.659  -5.191 -16.675  1.00  0.00     0.025 C 
BRANCH   8   9
ATOM      9  C   UNL     1     -32.839  -4.118 -17.256  1.00  0.00     0.064 C 
ATOM     10  O   UNL     1     -33.237  -3.521 -18.291  1.00  0.00    -0.545 OA
ATOM     11  O   UNL     1     -31.627  -3.750 -16.682  1.00  0.00    -0.545 OA
ENDBRANCH   8   9
ENDBRANCH   1   7
BRANCH   6  12
ATOM     12  O   UNL     1     -37.978  -8.965 -13.506  1.00  0.00    -0.497 OA
ATOM     13  C   UNL     1     -39.394  -9.025 -13.641  1.00  0.00     0.278 C 
ENDBRANCH   6  12
TORSDOF 3
ENDMDL
MODEL 3
REMARK VINA RESULT:    -5.273      1.530      6.496
REMARK INTER + INTRA:          -6.357
REMARK INTER:                  -6.185
REMARK INTRA:                  -0.172
REMARK UNBOUND:                -0.160
REMARK SMILES COc1ccc(C=CC(=O)[O-])cc1
REMARK SMILES IDX 6 1 5 2 12 3 4 4 13 5 3 6 7 7 8 8 9 9 10 10 11 11 2 12 1 13
REMARK H PARENT
REMARK Flexibility Score: inf
ROOT
ATOM      1  C   UNL     1     -35.206  -5.653 -16.769  1.00  0.00    -0.025 A 
ATOM      2  C   UNL     1     -35.650  -5.245 -18.043  1.00  0.00     0.012 A 
ATOM      3  C   UNL     1     -33.964  -5.189 -16.306  1.00  0.00     0.012 A 
ATOM      4  C   UNL     1     -34.854  -4.414 -18.837  1.00  0.00     0.047 A 
ATOM      5  C   UNL     1     -33.170  -4.359 -17.102  1.00  0.00     0.047 A 
ATOM      6  C   UNL     1     -33.611  -3.966 -18.379  1.00  0.00     0.118 A 
ENDROOT
BRANCH   1   7
ATOM      7  C   UNL     1     -36.016  -6.524 -15.882  1.00  0.00     0.010 C 
ATOM      8  C   UNL     1     -36.066  -6.390 -14.551  1.00  0.00     0.025 C 
BRANCH   8   9
ATOM      9  C   UNL     1     -36.892  -7.271 -13.710  1.00  0.00     0.064 C 
ATOM     10  O   UNL     1     -36.380  -8.300 -13.197  1.00  0.00    -0.545 OA
ATOM     11  O   UNL     1     -38.231  -6.984 -13.472  1.00  0.00    -0.545 OA
ENDBRANCH   8   9
ENDBRANCH   1   7
BRANCH   6  12
ATOM     12  O   UNL     1     -32.851  -3.136 -19.215  1.00  0.00    -0.497 OA
ATOM     13  C   UNL     1     -31.708  -2.399 -18.794  1.00  0.00     0.278 C 
ENDBRANCH   6  12
TORSDOF 3
ENDMDL
MODEL 4
REMARK VINA RESULT:    -5.214      1.538      6.345
REMARK INTER + INTRA:          -6.288
REMARK INTER:                  -6.121
REMARK INTRA:                  -0.167
REMARK UNBOUND:                -0.160
REMARK SMILES COc1ccc(C=CC(=O)[O-])cc1
REMARK SMILES IDX 6 1 5 2 12 3 4 4 13 5 3 6 7 7 8 8 9 9 10 10 11 11 2 12 1 13
REMARK H PARENT
REMARK Flexibility Score: inf
ROOT
ATOM      1  C   UNL     1     -35.138  -5.489 -16.698  1.00  0.00    -0.025 A 
ATOM      2  C   UNL     1     -33.924  -4.927 -16.256  1.00  0.00     0.012 A 
ATOM      3  C   UNL     1     -35.553  -5.247 -18.019  1.00  0.00     0.012 A 
ATOM      4  C   UNL     1     -33.162  -4.125 -17.111  1.00  0.00     0.047 A 
ATOM      5  C   UNL     1     -34.790  -4.444 -18.871  1.00  0.00     0.047 A 
ATOM      6  C   UNL     1     -33.586  -3.874 -18.420  1.00  0.00     0.118 A 
ENDROOT
BRANCH   1   7
ATOM      7  C   UNL     1     -35.979  -6.356 -15.836  1.00  0.00     0.010 C 
ATOM      8  C   UNL     1     -36.028  -6.256 -14.502  1.00  0.00     0.025 C 
BRANCH   8   9
ATOM      9  C   UNL     1     -36.885  -7.131 -13.687  1.00  0.00     0.064 C 
ATOM     10  O   UNL     1     -38.083  -6.805 -13.474  1.00  0.00    -0.545 OA
ATOM     11  O   UNL     1     -36.394  -8.314 -13.146  1.00  0.00    -0.545 OA
ENDBRANCH   8   9
ENDBRANCH   1   7
BRANCH   6  12
ATOM     12  O   UNL     1     -32.786  -3.061 -19.236  1.00  0.00    -0.497 OA
ATOM     13  C   UNL     1     -31.583  -2.430 -18.810  1.00  0.00     0.278 C 
ENDBRANCH   6  12
TORSDOF 3
ENDMDL
MODEL 5
REMARK VINA RESULT:    -5.189      1.543      6.382
REMARK INTER + INTRA:          -6.259
REMARK INTER:                  -6.104
REMARK INTRA:                  -0.154
REMARK UNBOUND:                -0.160
REMARK SMILES COc1ccc(C=CC(=O)[O-])cc1
REMARK SMILES IDX 6 1 5 2 12 3 4 4 13 5 3 6 7 7 8 8 9 9 10 10 11 11 2 12 1 13
REMARK H PARENT
REMARK Flexibility Score: inf
ROOT
ATOM      1  C   UNL     1     -36.271  -6.038 -14.583  1.00  0.00    -0.025 A 
ATOM      2  C   UNL     1     -35.970  -6.451 -15.896  1.00  0.00     0.012 A 
ATOM      3  C   UNL     1     -35.548  -4.968 -14.029  1.00  0.00     0.012 A 
ATOM      4  C   UNL     1     -34.954  -5.822 -16.621  1.00  0.00     0.047 A 
ATOM      5  C   UNL     1     -34.532  -4.341 -14.755  1.00  0.00     0.047 A 
ATOM      6  C   UNL     1     -34.225  -4.767 -16.061  1.00  0.00     0.118 A 
ENDROOT
BRANCH   1   7
ATOM      7  C   UNL     1     -37.347  -6.663 -13.774  1.00  0.00     0.010 C 
ATOM      8  C   UNL     1     -38.557  -6.974 -14.257  1.00  0.00     0.025 C 
BRANCH   8   9
ATOM      9  C   UNL     1     -39.590  -7.603 -13.421  1.00  0.00     0.064 C 
ATOM     10  O   UNL     1     -40.329  -6.885 -12.698  1.00  0.00    -0.545 OA
ATOM     11  O   UNL     1     -39.765  -8.983 -13.415  1.00  0.00    -0.545 OA
ENDBRANCH   8   9
ENDBRANCH   1   7
BRANCH   6  12
ATOM     12  O   UNL     1     -33.215  -4.172 -16.829  1.00  0.00    -0.497 OA
ATOM     13  C   UNL     1     -31.826  -4.447 -16.683  1.00  0.00     0.278 C 
ENDBRANCH   6  12
TORSDOF 3
ENDMDL
MODEL 6
REMARK VINA RESULT:    -5.101      3.237      7.898
REMARK INTER + INTRA:          -6.155
REMARK INTER:                  -5.995
REMARK INTRA:                  -0.160
REMARK UNBOUND:                -0.160
REMARK SMILES COc1ccc(C=CC(=O)[O-])cc1
REMARK SMILES IDX 6 1 5 2 12 3 4 4 13 5 3 6 7 7 8 8 9 9 10 10 11 11 2 12 1 13
REMARK H PARENT
REMARK Flexibility Score: inf
ROOT
ATOM      1  C   UNL     1     -32.871  -3.464 -18.124  1.00  0.00    -0.025 A 
ATOM      2  C   UNL     1     -33.415  -3.236 -19.404  1.00  0.00     0.012 A 
ATOM      3  C   UNL     1     -31.543  -3.077 -17.876  1.00  0.00     0.012 A 
ATOM      4  C   UNL     1     -32.636  -2.660 -20.412  1.00  0.00     0.047 A 
ATOM      5  C   UNL     1     -30.766  -2.502 -18.885  1.00  0.00     0.047 A 
ATOM      6  C   UNL     1     -31.310  -2.291 -20.166  1.00  0.00     0.118 A 
ENDROOT
BRANCH   1   7
ATOM      7  C   UNL     1     -33.656  -4.061 -17.016  1.00  0.00     0.010 C 
ATOM      8  C   UNL     1     -34.398  -5.169 -17.141  1.00  0.00     0.025 C 
BRANCH   8   9
ATOM      9  C   UNL     1     -35.152  -5.733 -16.012  1.00  0.00     0.064 C 
ATOM     10  O   UNL     1     -35.985  -6.655 -16.218  1.00  0.00    -0.545 OA
ATOM     11  O   UNL     1     -34.962  -5.264 -14.717  1.00  0.00    -0.545 OA
ENDBRANCH   8   9
ENDBRANCH   1   7
BRANCH   6  12
ATOM     12  O   UNL     1     -30.572  -1.718 -21.212  1.00  0.00    -0.497 OA
ATOM     13  C   UNL     1     -29.151  -1.746 -21.303  1.00  0.00     0.278 C 
ENDBRANCH   6  12
TORSDOF 3
ENDMDL
MODEL 7
REMARK VINA RESULT:    -5.067      1.511      2.136
REMARK INTER + INTRA:          -6.115
REMARK INTER:                  -5.953
REMARK INTRA:                  -0.162
REMARK UNBOUND:                -0.160
REMARK SMILES COc1ccc(C=CC(=O)[O-])cc1
REMARK SMILES IDX 6 1 5 2 12 3 4 4 13 5 3 6 7 7 8 8 9 9 10 10 11 11 2 12 1 13
REMARK H PARENT
REMARK Flexibility Score: inf
ROOT
ATOM      1  C   UNL     1     -34.223  -4.823 -16.112  1.00  0.00    -0.025 A 
ATOM      2  C   UNL     1     -34.448  -4.344 -14.806  1.00  0.00     0.012 A 
ATOM      3  C   UNL     1     -35.013  -5.883 -16.588  1.00  0.00     0.012 A 
ATOM      4  C   UNL     1     -35.423  -4.931 -13.995  1.00  0.00     0.047 A 
ATOM      5  C   UNL     1     -35.987  -6.469 -15.775  1.00  0.00     0.047 A 
ATOM      6  C   UNL     1     -36.198  -5.996 -14.467  1.00  0.00     0.118 A 
ENDROOT
BRANCH   1   7
ATOM      7  C   UNL     1     -33.209  -4.229 -17.018  1.00  0.00     0.010 C 
ATOM      8  C   UNL     1     -33.498  -3.349 -17.985  1.00  0.00     0.025 C 
BRANCH   8   9
ATOM      9  C   UNL     1     -32.458  -2.777 -18.854  1.00  0.00     0.064 C 
ATOM     10  O   UNL     1     -32.692  -2.615 -20.080  1.00  0.00    -0.545 OA
ATOM     11  O   UNL     1     -31.218  -2.411 -18.342  1.00  0.00    -0.545 OA
ENDBRANCH   8   9
ENDBRANCH   1   7
BRANCH   6  12
ATOM     12  O   UNL     1     -37.161  -6.551 -13.612  1.00  0.00    -0.497 OA
ATOM     13  C   UNL     1     -38.221  -7.400 -14.039  1.00  0.00     0.278 C 
ENDBRANCH   6  12
TORSDOF 3
ENDMDL
MODEL 8
REMARK VINA RESULT:    -4.881      1.686      2.083
REMARK INTER + INTRA:          -5.897
REMARK INTER:                  -5.740
REMARK INTRA:                  -0.157
REMARK UNBOUND:                -0.160
REMARK SMILES COc1ccc(C=CC(=O)[O-])cc1
REMARK SMILES IDX 6 1 5 2 12 3 4 4 13 5 3 6 7 7 8 8 9 9 10 10 11 11 2 12 1 13
REMARK H PARENT
REMARK Flexibility Score: inf
ROOT
ATOM      1  C   UNL     1     -36.535  -6.265 -15.645  1.00  0.00    -0.025 A 
ATOM      2  C   UNL     1     -37.744  -5.560 -15.483  1.00  0.00     0.012 A 
ATOM      3  C   UNL     1     -36.383  -7.502 -14.997  1.00  0.00     0.012 A 
ATOM      4  C   UNL     1     -38.761  -6.074 -14.673  1.00  0.00     0.047 A 
ATOM      5  C   UNL     1     -37.400  -8.014 -14.187  1.00  0.00     0.047 A 
ATOM      6  C   UNL     1     -38.600  -7.300 -14.018  1.00  0.00     0.118 A 
ENDROOT
BRANCH   1   7
ATOM      7  C   UNL     1     -35.429  -5.770 -16.501  1.00  0.00     0.010 C 
ATOM      8  C   UNL     1     -35.606  -5.266 -17.729  1.00  0.00     0.025 C 
BRANCH   8   9
ATOM      9  C   UNL     1     -34.481  -4.776 -18.540  1.00  0.00     0.064 C 
ATOM     10  O   UNL     1     -33.493  -4.239 -17.973  1.00  0.00    -0.545 OA
ATOM     11  O   UNL     1     -34.490  -4.896 -19.925  1.00  0.00    -0.545 OA
ENDBRANCH   8   9
ENDBRANCH   1   7
BRANCH   6  12
ATOM     12  O   UNL     1     -39.650  -7.770 -13.215  1.00  0.00    -0.497 OA
ATOM     13  C   UNL     1     -40.560  -8.795 -13.601  1.00  0.00     0.278 C 
ENDBRANCH   6  12
TORSDOF 3
ENDMDL
MODEL 9
REMARK VINA RESULT:    -4.844      1.408      6.404
REMARK INTER + INTRA:          -5.854
REMARK INTER:                  -5.683
REMARK INTRA:                  -0.171
REMARK UNBOUND:                -0.160
REMARK SMILES COc1ccc(C=CC(=O)[O-])cc1
REMARK SMILES IDX 6 1 5 2 12 3 4 4 13 5 3 6 7 7 8 8 9 9 10 10 11 11 2 12 1 13
REMARK H PARENT
REMARK Flexibility Score: inf
ROOT
ATOM      1  C   UNL     1     -35.851  -6.085 -15.913  1.00  0.00    -0.025 A 
ATOM      2  C   UNL     1     -35.968  -5.836 -17.295  1.00  0.00     0.012 A 
ATOM      3  C   UNL     1     -34.897  -5.363 -15.176  1.00  0.00     0.012 A 
ATOM      4  C   UNL     1     -35.133  -4.907 -17.921  1.00  0.00     0.047 A 
ATOM      5  C   UNL     1     -34.062  -4.435 -15.803  1.00  0.00     0.047 A 
ATOM      6  C   UNL     1     -34.174  -4.201 -17.186  1.00  0.00     0.118 A 
ENDROOT
BRANCH   1   7
ATOM      7  C   UNL     1     -36.719  -7.052 -15.197  1.00  0.00     0.010 C 
ATOM      8  C   UNL     1     -37.737  -6.694 -14.404  1.00  0.00     0.025 C 
BRANCH   8   9
ATOM      9  C   UNL     1     -38.580  -7.688 -13.722  1.00  0.00     0.064 C 
ATOM     10  O   UNL     1     -38.236  -8.900 -13.721  1.00  0.00    -0.545 OA
ATOM     11  O   UNL     1     -39.753  -7.312 -13.078  1.00  0.00    -0.545 OA
ENDBRANCH   8   9
ENDBRANCH   1   7
BRANCH   6  12
ATOM     12  O   UNL     1     -33.360  -3.281 -17.863  1.00  0.00    -0.497 OA
ATOM     13  C   UNL     1     -33.373  -3.080 -19.272  1.00  0.00     0.278 C 
ENDBRANCH   6  12
TORSDOF 3
ENDMDL
