MODEL 1
REMARK VINA RESULT:    -6.418      0.000      0.000
REMARK INTER + INTRA:         -11.560
REMARK INTER:                  -9.983
REMARK INTRA:                  -1.577
REMARK UNBOUND:                -1.577
REMARK SMILES C[C@]12C[C@H](O)[C@@H]3C[C@@]1(O[C@H]1O[C@@H](CO)[C@@H](O)[C@@H](O)[C@H]1O)[C@]3(COC(=O)c1ccccc1)C(=O)O2
REMARK SMILES IDX 1 1 2 2 3 3 4 4 6 5 7 6 8 7 21 8 32 9 33 10 34 11 9 12 10 13
REMARK SMILES IDX 19 14 11 15 17 16 12 17 15 18 20 19 18 21 13 23 14 24 16 26
REMARK SMILES IDX 5 28 22 30 23 31 24 32 25 33 26 34 27 35 31 36 28 37 30 38
REMARK SMILES IDX 29 39
REMARK H PARENT 20 20 18 22 14 25 16 27 5 29
REMARK Flexibility Score: inf
ROOT
ATOM      1  C   UNL     1     -20.958  15.811  -8.706  1.00  0.00     0.060 C 
ATOM      2  C   UNL     1     -20.337  15.653  -7.310  1.00  0.00     0.142 C 
ATOM      3  C   UNL     1     -20.475  17.019  -6.534  1.00  0.00     0.083 C 
ATOM      4  C   UNL     1     -19.607  17.027  -5.227  1.00  0.00     0.123 C 
ATOM      5  C   UNL     1     -18.366  16.091  -5.387  1.00  0.00     0.045 C 
ATOM      6  C   UNL     1     -17.851  16.242  -6.825  1.00  0.00     0.049 C 
ATOM      7  C   UNL     1     -18.820  15.119  -7.208  1.00  0.00     0.131 C 
ATOM      8  C   UNL     1     -18.806  14.633  -5.743  1.00  0.00     0.140 C 
ATOM      9  C   UNL     1     -20.235  14.223  -5.537  1.00  0.00     0.319 C 
ATOM     10  O   UNL     1     -20.658  13.534  -4.574  1.00  0.00    -0.251 OA
ATOM     11  O   UNL     1     -21.061  14.715  -6.529  1.00  0.00    -0.456 OA
ENDROOT
BRANCH   7  12
ATOM     12  O   UNL     1     -18.215  14.220  -8.144  1.00  0.00    -0.338 OA
BRANCH  12  13
ATOM     13  C   UNL     1     -18.946  13.931  -9.323  1.00  0.00     0.282 C 
ATOM     14  C   UNL     1     -19.468  12.476  -9.350  1.00  0.00     0.202 C 
ATOM     15  O   UNL     1     -18.156  14.205 -10.475  1.00  0.00    -0.341 OA
ATOM     16  C   UNL     1     -18.349  11.433  -9.530  1.00  0.00     0.179 C 
ATOM     17  C   UNL     1     -17.029  13.347 -10.644  1.00  0.00     0.178 C 
ATOM     18  C   UNL     1     -17.407  11.840 -10.671  1.00  0.00     0.177 C 
BRANCH  14  19
ATOM     19  O   UNL     1     -20.212  12.197  -8.199  1.00  0.00    -0.385 OA
ATOM     20  H   UNL     1     -20.455  11.234  -8.237  1.00  0.00     0.211 HD
ENDBRANCH  14  19
BRANCH  16  21
ATOM     21  O   UNL     1     -17.654  11.139  -8.341  1.00  0.00    -0.387 OA
ATOM     22  H   UNL     1     -16.890  10.548  -8.549  1.00  0.00     0.211 HD
ENDBRANCH  16  21
BRANCH  17  23
ATOM     23  C   UNL     1     -15.836  13.704  -9.728  1.00  0.00     0.191 C 
BRANCH  23  24
ATOM     24  O   UNL     1     -15.801  15.087  -9.513  1.00  0.00    -0.394 OA
ATOM     25  H   UNL     1     -15.954  15.222  -8.542  1.00  0.00     0.210 HD
ENDBRANCH  23  24
ENDBRANCH  17  23
BRANCH  18  26
ATOM     26  O   UNL     1     -16.266  11.022 -10.663  1.00  0.00    -0.387 OA
ATOM     27  H   UNL     1     -15.479  11.624 -10.608  1.00  0.00     0.211 HD
ENDBRANCH  18  26
ENDBRANCH  12  13
ENDBRANCH   7  12
BRANCH   4  28
ATOM     28  O   UNL     1     -19.224  18.334  -4.883  1.00  0.00    -0.393 OA
ATOM     29  H   UNL     1     -18.513  18.622  -5.515  1.00  0.00     0.210 HD
ENDBRANCH   4  28
BRANCH   8  30
ATOM     30  C   UNL     1     -17.757  13.557  -5.366  1.00  0.00     0.255 C 
BRANCH  30  31
ATOM     31  O   UNL     1     -17.241  13.793  -4.057  1.00  0.00    -0.461 OA
BRANCH  31  32
ATOM     32  C   UNL     1     -15.890  13.681  -3.708  1.00  0.00     0.338 C 
ATOM     33  O   UNL     1     -15.496  12.727  -2.981  1.00  0.00    -0.246 OA
BRANCH  32  34
ATOM     34  C   UNL     1     -14.922  14.675  -4.216  1.00  0.00     0.060 A 
ATOM     35  C   UNL     1     -14.939  16.002  -3.745  1.00  0.00     0.015 A 
ATOM     36  C   UNL     1     -13.977  14.311  -5.192  1.00  0.00     0.015 A 
ATOM     37  C   UNL     1     -14.023  16.937  -4.235  1.00  0.00     0.001 A 
ATOM     38  C   UNL     1     -13.061  15.251  -5.676  1.00  0.00     0.001 A 
ATOM     39  C   UNL     1     -13.084  16.562  -5.199  1.00  0.00     0.000 A 
ENDBRANCH  32  34
ENDBRANCH  31  32
ENDBRANCH  30  31
ENDBRANCH   8  30
TORSDOF 12
ENDMDL
MODEL 2
REMARK VINA RESULT:    -6.169      2.187      3.303
REMARK INTER + INTRA:         -11.172
REMARK INTER:                  -9.962
REMARK INTRA:                  -1.210
REMARK UNBOUND:                -1.577
REMARK SMILES C[C@]12C[C@H](O)[C@@H]3C[C@@]1(O[C@H]1O[C@@H](CO)[C@@H](O)[C@@H](O)[C@H]1O)[C@]3(COC(=O)c1ccccc1)C(=O)O2
REMARK SMILES IDX 1 1 2 2 3 3 4 4 6 5 7 6 8 7 21 8 32 9 33 10 34 11 9 12 10 13
REMARK SMILES IDX 19 14 11 15 17 16 12 17 15 18 20 19 18 21 13 23 14 24 16 26
REMARK SMILES IDX 5 28 22 30 23 31 24 32 25 33 26 34 27 35 31 36 28 37 30 38
REMARK SMILES IDX 29 39
REMARK H PARENT 20 20 18 22 14 25 16 27 5 29
REMARK Flexibility Score: inf
ROOT
ATOM      1  C   UNL     1     -19.986  13.221  -4.932  1.00  0.00     0.060 C 
ATOM      2  C   UNL     1     -18.686  14.023  -4.765  1.00  0.00     0.142 C 
ATOM      3  C   UNL     1     -19.013  15.372  -4.015  1.00  0.00     0.083 C 
ATOM      4  C   UNL     1     -17.804  16.368  -4.073  1.00  0.00     0.123 C 
ATOM      5  C   UNL     1     -16.951  16.123  -5.360  1.00  0.00     0.045 C 
ATOM      6  C   UNL     1     -17.919  15.797  -6.505  1.00  0.00     0.049 C 
ATOM      7  C   UNL     1     -17.806  14.330  -6.080  1.00  0.00     0.131 C 
ATOM      8  C   UNL     1     -16.446  14.645  -5.422  1.00  0.00     0.140 C 
ATOM      9  C   UNL     1     -16.493  13.796  -4.187  1.00  0.00     0.319 C 
ATOM     10  O   UNL     1     -15.506  13.528  -3.454  1.00  0.00    -0.251 OA
ATOM     11  O   UNL     1     -17.771  13.348  -3.916  1.00  0.00    -0.456 OA
ENDROOT
BRANCH   7  12
ATOM     12  O   UNL     1     -17.736  13.471  -7.223  1.00  0.00    -0.338 OA
BRANCH  12  13
ATOM     13  C   UNL     1     -18.916  13.329  -7.996  1.00  0.00     0.282 C 
ATOM     14  C   UNL     1     -19.148  11.871  -8.452  1.00  0.00     0.202 C 
ATOM     15  O   UNL     1     -18.885  14.209  -9.114  1.00  0.00    -0.341 OA
ATOM     16  C   UNL     1     -18.138  11.400  -9.515  1.00  0.00     0.179 C 
ATOM     17  C   UNL     1     -17.890  13.900 -10.089  1.00  0.00     0.178 C 
ATOM     18  C   UNL     1     -17.993  12.447 -10.627  1.00  0.00     0.177 C 
BRANCH  14  19
ATOM     19  O   UNL     1     -19.141  11.002  -7.355  1.00  0.00    -0.385 OA
ATOM     20  H   UNL     1     -18.738  11.499  -6.594  1.00  0.00     0.211 HD
ENDBRANCH  14  19
BRANCH  16  21
ATOM     21  O   UNL     1     -16.895  11.011  -8.980  1.00  0.00    -0.387 OA
ATOM     22  H   UNL     1     -16.357  11.818  -8.788  1.00  0.00     0.211 HD
ENDBRANCH  16  21
BRANCH  17  23
ATOM     23  C   UNL     1     -16.467  14.346  -9.685  1.00  0.00     0.191 C 
BRANCH  23  24
ATOM     24  O   UNL     1     -15.711  13.231  -9.301  1.00  0.00    -0.394 OA
ATOM     25  H   UNL     1     -15.308  12.868 -10.132  1.00  0.00     0.210 HD
ENDBRANCH  23  24
ENDBRANCH  17  23
BRANCH  18  26
ATOM     26  O   UNL     1     -16.902  12.122 -11.449  1.00  0.00    -0.387 OA
ATOM     27  H   UNL     1     -16.175  11.806 -10.852  1.00  0.00     0.211 HD
ENDBRANCH  18  26
ENDBRANCH  12  13
ENDBRANCH   7  12
BRANCH   4  28
ATOM     28  O   UNL     1     -18.242  17.701  -3.994  1.00  0.00    -0.393 OA
ATOM     29  H   UNL     1     -18.879  17.769  -3.234  1.00  0.00     0.210 HD
ENDBRANCH   4  28
BRANCH   8  30
ATOM     30  C   UNL     1     -15.180  14.457  -6.296  1.00  0.00     0.255 C 
BRANCH  30  31
ATOM     31  O   UNL     1     -14.066  15.140  -5.723  1.00  0.00    -0.461 OA
BRANCH  31  32
ATOM     32  C   UNL     1     -13.566  16.363  -6.187  1.00  0.00     0.338 C 
ATOM     33  O   UNL     1     -12.924  17.124  -5.412  1.00  0.00    -0.246 OA
BRANCH  32  34
ATOM     34  C   UNL     1     -13.775  16.747  -7.599  1.00  0.00     0.060 A 
ATOM     35  C   UNL     1     -13.103  16.072  -8.636  1.00  0.00     0.015 A 
ATOM     36  C   UNL     1     -14.641  17.807  -7.926  1.00  0.00     0.015 A 
ATOM     37  C   UNL     1     -13.303  16.445  -9.967  1.00  0.00     0.001 A 
ATOM     38  C   UNL     1     -14.839  18.173  -9.260  1.00  0.00     0.001 A 
ATOM     39  C   UNL     1     -14.171  17.494 -10.280  1.00  0.00     0.000 A 
ENDBRANCH  32  34
ENDBRANCH  31  32
ENDBRANCH  30  31
ENDBRANCH   8  30
TORSDOF 12
ENDMDL
MODEL 3
REMARK VINA RESULT:    -5.960      2.338      7.447
REMARK INTER + INTRA:         -10.846
REMARK INTER:                  -9.910
REMARK INTRA:                  -0.936
REMARK UNBOUND:                -1.577
REMARK SMILES C[C@]12C[C@H](O)[C@@H]3C[C@@]1(O[C@H]1O[C@@H](CO)[C@@H](O)[C@@H](O)[C@H]1O)[C@]3(COC(=O)c1ccccc1)C(=O)O2
REMARK SMILES IDX 1 1 2 2 3 3 4 4 6 5 7 6 8 7 21 8 32 9 33 10 34 11 9 12 10 13
REMARK SMILES IDX 19 14 11 15 17 16 12 17 15 18 20 19 18 21 13 23 14 24 16 26
REMARK SMILES IDX 5 28 22 30 23 31 24 32 25 33 26 34 27 35 31 36 28 37 30 38
REMARK SMILES IDX 29 39
REMARK H PARENT 20 20 18 22 14 25 16 27 5 29
REMARK Flexibility Score: inf
ROOT
ATOM      1  C   UNL     1     -14.116  17.373  -3.732  1.00  0.00     0.060 C 
ATOM      2  C   UNL     1     -14.686  16.547  -4.895  1.00  0.00     0.142 C 
ATOM      3  C   UNL     1     -13.522  16.235  -5.914  1.00  0.00     0.083 C 
ATOM      4  C   UNL     1     -14.080  15.658  -7.262  1.00  0.00     0.123 C 
ATOM      5  C   UNL     1     -15.526  16.187  -7.529  1.00  0.00     0.045 C 
ATOM      6  C   UNL     1     -15.578  17.651  -7.073  1.00  0.00     0.049 C 
ATOM      7  C   UNL     1     -15.964  17.126  -5.687  1.00  0.00     0.131 C 
ATOM      8  C   UNL     1     -16.481  15.828  -6.343  1.00  0.00     0.140 C 
ATOM      9  C   UNL     1     -16.062  14.787  -5.348  1.00  0.00     0.319 C 
ATOM     10  O   UNL     1     -16.476  13.600  -5.325  1.00  0.00    -0.251 OA
ATOM     11  O   UNL     1     -15.131  15.275  -4.451  1.00  0.00    -0.456 OA
ENDROOT
BRANCH   7  12
ATOM     12  O   UNL     1     -16.978  17.945  -5.094  1.00  0.00    -0.338 OA
BRANCH  12  13
ATOM     13  C   UNL     1     -16.895  18.162  -3.696  1.00  0.00     0.282 C 
ATOM     14  C   UNL     1     -18.134  17.625  -2.944  1.00  0.00     0.202 C 
ATOM     15  O   UNL     1     -16.695  19.543  -3.420  1.00  0.00    -0.341 OA
ATOM     16  C   UNL     1     -19.409  18.446  -3.213  1.00  0.00     0.179 C 
ATOM     17  C   UNL     1     -17.799  20.384  -3.754  1.00  0.00     0.178 C 
ATOM     18  C   UNL     1     -19.127  19.947  -3.077  1.00  0.00     0.177 C 
BRANCH  14  19
ATOM     19  O   UNL     1     -18.351  16.276  -3.246  1.00  0.00    -0.385 OA
ATOM     20  H   UNL     1     -18.269  15.771  -2.394  1.00  0.00     0.211 HD
ENDBRANCH  14  19
BRANCH  16  21
ATOM     21  O   UNL     1     -20.039  18.128  -4.432  1.00  0.00    -0.387 OA
ATOM     22  H   UNL     1     -19.391  18.239  -5.170  1.00  0.00     0.211 HD
ENDBRANCH  16  21
BRANCH  17  23
ATOM     23  C   UNL     1     -17.908  20.691  -5.265  1.00  0.00     0.191 C 
BRANCH  23  24
ATOM     24  O   UNL     1     -16.627  20.806  -5.819  1.00  0.00    -0.394 OA
ATOM     25  H   UNL     1     -16.012  20.333  -5.200  1.00  0.00     0.210 HD
ENDBRANCH  23  24
ENDBRANCH  17  23
BRANCH  18  26
ATOM     26  O   UNL     1     -20.220  20.685  -3.560  1.00  0.00    -0.387 OA
ATOM     27  H   UNL     1     -20.982  20.055  -3.636  1.00  0.00     0.211 HD
ENDBRANCH  18  26
ENDBRANCH  12  13
ENDBRANCH   7  12
BRANCH   4  28
ATOM     28  O   UNL     1     -13.220  15.953  -8.333  1.00  0.00    -0.393 OA
ATOM     29  H   UNL     1     -12.500  16.548  -7.993  1.00  0.00     0.210 HD
ENDBRANCH   4  28
BRANCH   8  30
ATOM     30  C   UNL     1     -17.978  15.787  -6.741  1.00  0.00     0.255 C 
BRANCH  30  31
ATOM     31  O   UNL     1     -18.218  14.756  -7.697  1.00  0.00    -0.461 OA
BRANCH  31  32
ATOM     32  C   UNL     1     -19.256  14.775  -8.637  1.00  0.00     0.338 C 
ATOM     33  O   UNL     1     -20.180  15.630  -8.548  1.00  0.00    -0.246 OA
BRANCH  32  34
ATOM     34  C   UNL     1     -19.250  13.801  -9.748  1.00  0.00     0.060 A 
ATOM     35  C   UNL     1     -18.883  14.196 -11.049  1.00  0.00     0.015 A 
ATOM     36  C   UNL     1     -19.627  12.465  -9.523  1.00  0.00     0.015 A 
ATOM     37  C   UNL     1     -18.885  13.269 -12.095  1.00  0.00     0.001 A 
ATOM     38  C   UNL     1     -19.624  11.542 -10.574  1.00  0.00     0.001 A 
ATOM     39  C   UNL     1     -19.254  11.943 -11.858  1.00  0.00     0.000 A 
ENDBRANCH  32  34
ENDBRANCH  31  32
ENDBRANCH  30  31
ENDBRANCH   8  30
TORSDOF 12
ENDMDL
MODEL 4
REMARK VINA RESULT:    -5.765      2.053      5.991
REMARK INTER + INTRA:         -10.544
REMARK INTER:                  -9.328
REMARK INTRA:                  -1.215
REMARK UNBOUND:                -1.577
REMARK SMILES C[C@]12C[C@H](O)[C@@H]3C[C@@]1(O[C@H]1O[C@@H](CO)[C@@H](O)[C@@H](O)[C@H]1O)[C@]3(COC(=O)c1ccccc1)C(=O)O2
REMARK SMILES IDX 1 1 2 2 3 3 4 4 6 5 7 6 8 7 21 8 32 9 33 10 34 11 9 12 10 13
REMARK SMILES IDX 19 14 11 15 17 16 12 17 15 18 20 19 18 21 13 23 14 24 16 26
REMARK SMILES IDX 5 28 22 30 23 31 24 32 25 33 26 34 27 35 31 36 28 37 30 38
REMARK SMILES IDX 29 39
REMARK H PARENT 20 20 18 22 14 25 16 27 5 29
REMARK Flexibility Score: inf
ROOT
ATOM      1  C   UNL     1     -15.231  14.690  -3.475  1.00  0.00     0.060 C 
ATOM      2  C   UNL     1     -16.713  14.800  -3.866  1.00  0.00     0.142 C 
ATOM      3  C   UNL     1     -17.500  13.594  -3.220  1.00  0.00     0.083 C 
ATOM      4  C   UNL     1     -18.947  13.471  -3.814  1.00  0.00     0.123 C 
ATOM      5  C   UNL     1     -18.989  14.022  -5.275  1.00  0.00     0.045 C 
ATOM      6  C   UNL     1     -17.682  13.612  -5.966  1.00  0.00     0.049 C 
ATOM      7  C   UNL     1     -17.080  14.915  -5.431  1.00  0.00     0.131 C 
ATOM      8  C   UNL     1     -18.502  15.507  -5.328  1.00  0.00     0.140 C 
ATOM      9  C   UNL     1     -18.417  16.300  -4.058  1.00  0.00     0.319 C 
ATOM     10  O   UNL     1     -19.256  17.160  -3.684  1.00  0.00    -0.251 OA
ATOM     11  O   UNL     1     -17.306  15.962  -3.310  1.00  0.00    -0.456 OA
ENDROOT
BRANCH   7  12
ATOM     12  O   UNL     1     -16.243  15.532  -6.414  1.00  0.00    -0.338 OA
BRANCH  12  13
ATOM     13  C   UNL     1     -14.848  15.306  -6.306  1.00  0.00     0.282 C 
ATOM     14  C   UNL     1     -14.036  16.621  -6.314  1.00  0.00     0.202 C 
ATOM     15  O   UNL     1     -14.406  14.433  -7.339  1.00  0.00    -0.341 OA
ATOM     16  C   UNL     1     -14.033  17.324  -7.685  1.00  0.00     0.179 C 
ATOM     17  C   UNL     1     -14.484  14.979  -8.655  1.00  0.00     0.178 C 
ATOM     18  C   UNL     1     -13.722  16.323  -8.806  1.00  0.00     0.177 C 
BRANCH  14  19
ATOM     19  O   UNL     1     -14.497  17.494  -5.322  1.00  0.00    -0.385 OA
ATOM     20  H   UNL     1     -13.696  17.906  -4.903  1.00  0.00     0.211 HD
ENDBRANCH  14  19
BRANCH  16  21
ATOM     21  O   UNL     1     -15.202  18.068  -7.941  1.00  0.00    -0.387 OA
ATOM     22  H   UNL     1     -15.270  18.242  -8.911  1.00  0.00     0.211 HD
ENDBRANCH  16  21
BRANCH  17  23
ATOM     23  C   UNL     1     -15.914  14.970  -9.244  1.00  0.00     0.191 C 
BRANCH  23  24
ATOM     24  O   UNL     1     -16.495  13.709  -9.060  1.00  0.00    -0.394 OA
ATOM     25  H   UNL     1     -17.387  13.870  -8.656  1.00  0.00     0.210 HD
ENDBRANCH  23  24
ENDBRANCH  17  23
BRANCH  18  26
ATOM     26  O   UNL     1     -13.964  16.917 -10.056  1.00  0.00    -0.387 OA
ATOM     27  H   UNL     1     -13.584  16.309 -10.742  1.00  0.00     0.211 HD
ENDBRANCH  18  26
ENDBRANCH  12  13
ENDBRANCH   7  12
BRANCH   4  28
ATOM     28  O   UNL     1     -19.407  12.144  -3.751  1.00  0.00    -0.393 OA
ATOM     29  H   UNL     1     -18.876  11.605  -4.396  1.00  0.00     0.210 HD
ENDBRANCH   4  28
BRANCH   8  30
ATOM     30  C   UNL     1     -19.030  16.292  -6.555  1.00  0.00     0.255 C 
BRANCH  30  31
ATOM     31  O   UNL     1     -20.180  15.652  -7.106  1.00  0.00    -0.461 OA
BRANCH  31  32
ATOM     32  C   UNL     1     -20.494  15.629  -8.470  1.00  0.00     0.338 C 
ATOM     33  O   UNL     1     -21.124  16.588  -8.995  1.00  0.00    -0.246 OA
BRANCH  32  34
ATOM     34  C   UNL     1     -20.062  14.484  -9.298  1.00  0.00     0.060 A 
ATOM     35  C   UNL     1     -19.588  14.682 -10.609  1.00  0.00     0.015 A 
ATOM     36  C   UNL     1     -20.133  13.174  -8.791  1.00  0.00     0.015 A 
ATOM     37  C   UNL     1     -19.186  13.593 -11.387  1.00  0.00     0.001 A 
ATOM     38  C   UNL     1     -19.726  12.089  -9.573  1.00  0.00     0.001 A 
ATOM     39  C   UNL     1     -19.254  12.297 -10.870  1.00  0.00     0.000 A 
ENDBRANCH  32  34
ENDBRANCH  31  32
ENDBRANCH  30  31
ENDBRANCH   8  30
TORSDOF 12
ENDMDL
MODEL 5
REMARK VINA RESULT:    -5.401      1.954      5.783
REMARK INTER + INTRA:          -9.977
REMARK INTER:                  -9.240
REMARK INTRA:                  -0.737
REMARK UNBOUND:                -1.577
REMARK SMILES C[C@]12C[C@H](O)[C@@H]3C[C@@]1(O[C@H]1O[C@@H](CO)[C@@H](O)[C@@H](O)[C@H]1O)[C@]3(COC(=O)c1ccccc1)C(=O)O2
REMARK SMILES IDX 1 1 2 2 3 3 4 4 6 5 7 6 8 7 21 8 32 9 33 10 34 11 9 12 10 13
REMARK SMILES IDX 19 14 11 15 17 16 12 17 15 18 20 19 18 21 13 23 14 24 16 26
REMARK SMILES IDX 5 28 22 30 23 31 24 32 25 33 26 34 27 35 31 36 28 37 30 38
REMARK SMILES IDX 29 39
REMARK H PARENT 20 20 18 22 14 25 16 27 5 29
REMARK Flexibility Score: inf
ROOT
ATOM      1  C   UNL     1     -18.691  18.112  -4.687  1.00  0.00     0.060 C 
ATOM      2  C   UNL     1     -19.189  16.701  -5.038  1.00  0.00     0.142 C 
ATOM      3  C   UNL     1     -20.293  16.277  -3.994  1.00  0.00     0.083 C 
ATOM      4  C   UNL     1     -20.631  14.750  -4.106  1.00  0.00     0.123 C 
ATOM      5  C   UNL     1     -19.395  13.951  -4.631  1.00  0.00     0.045 C 
ATOM      6  C   UNL     1     -18.140  14.563  -3.995  1.00  0.00     0.049 C 
ATOM      7  C   UNL     1     -18.098  15.525  -5.186  1.00  0.00     0.131 C 
ATOM      8  C   UNL     1     -18.915  14.507  -6.012  1.00  0.00     0.140 C 
ATOM      9  C   UNL     1     -19.823  15.404  -6.801  1.00  0.00     0.319 C 
ATOM     10  O   UNL     1     -20.505  15.048  -7.796  1.00  0.00    -0.251 OA
ATOM     11  O   UNL     1     -19.851  16.688  -6.293  1.00  0.00    -0.456 OA
ENDROOT
BRANCH   7  12
ATOM     12  O   UNL     1     -16.754  15.721  -5.637  1.00  0.00    -0.338 OA
BRANCH  12  13
ATOM     13  C   UNL     1     -16.131  16.947  -5.291  1.00  0.00     0.282 C 
ATOM     14  C   UNL     1     -15.212  17.478  -6.415  1.00  0.00     0.202 C 
ATOM     15  O   UNL     1     -15.411  16.809  -4.072  1.00  0.00    -0.341 OA
ATOM     16  C   UNL     1     -13.937  16.635  -6.604  1.00  0.00     0.179 C 
ATOM     17  C   UNL     1     -14.277  15.946  -4.143  1.00  0.00     0.178 C 
ATOM     18  C   UNL     1     -13.268  16.353  -5.252  1.00  0.00     0.177 C 
BRANCH  14  19
ATOM     19  O   UNL     1     -15.913  17.576  -7.622  1.00  0.00    -0.385 OA
ATOM     20  H   UNL     1     -15.383  17.087  -8.306  1.00  0.00     0.211 HD
ENDBRANCH  14  19
BRANCH  16  21
ATOM     21  O   UNL     1     -14.141  15.461  -7.355  1.00  0.00    -0.387 OA
ATOM     22  H   UNL     1     -13.266  15.054  -7.566  1.00  0.00     0.211 HD
ENDBRANCH  16  21
BRANCH  17  23
ATOM     23  C   UNL     1     -14.639  14.444  -4.111  1.00  0.00     0.191 C 
BRANCH  23  24
ATOM     24  O   UNL     1     -14.573  13.912  -5.405  1.00  0.00    -0.394 OA
ATOM     25  H   UNL     1     -14.720  14.672  -6.026  1.00  0.00     0.210 HD
ENDBRANCH  23  24
ENDBRANCH  17  23
BRANCH  18  26
ATOM     26  O   UNL     1     -12.258  15.390  -5.411  1.00  0.00    -0.387 OA
ATOM     27  H   UNL     1     -11.877  15.221  -4.511  1.00  0.00     0.211 HD
ENDBRANCH  18  26
ENDBRANCH  12  13
ENDBRANCH   7  12
BRANCH   4  28
ATOM     28  O   UNL     1     -21.087  14.241  -2.877  1.00  0.00    -0.393 OA
ATOM     29  H   UNL     1     -20.296  13.930  -2.362  1.00  0.00     0.210 HD
ENDBRANCH   4  28
BRANCH   8  30
ATOM     30  C   UNL     1     -18.118  13.479  -6.854  1.00  0.00     0.255 C 
BRANCH  30  31
ATOM     31  O   UNL     1     -18.778  12.215  -6.862  1.00  0.00    -0.461 OA
BRANCH  31  32
ATOM     32  C   UNL     1     -18.933  11.412  -7.999  1.00  0.00     0.338 C 
ATOM     33  O   UNL     1     -19.227  10.191  -7.882  1.00  0.00    -0.246 OA
BRANCH  32  34
ATOM     34  C   UNL     1     -18.773  12.011  -9.341  1.00  0.00     0.060 A 
ATOM     35  C   UNL     1     -19.885  12.519 -10.039  1.00  0.00     0.015 A 
ATOM     36  C   UNL     1     -17.504  12.068  -9.946  1.00  0.00     0.015 A 
ATOM     37  C   UNL     1     -19.725  13.079 -11.310  1.00  0.00     0.001 A 
ATOM     38  C   UNL     1     -17.350  12.633 -11.216  1.00  0.00     0.001 A 
ATOM     39  C   UNL     1     -18.459  13.137 -11.897  1.00  0.00     0.000 A 
ENDBRANCH  32  34
ENDBRANCH  31  32
ENDBRANCH  30  31
ENDBRANCH   8  30
TORSDOF 12
ENDMDL
MODEL 6
REMARK VINA RESULT:    -5.390      1.923      3.293
REMARK INTER + INTRA:          -9.960
REMARK INTER:                  -8.753
REMARK INTRA:                  -1.207
REMARK UNBOUND:                -1.577
REMARK SMILES C[C@]12C[C@H](O)[C@@H]3C[C@@]1(O[C@H]1O[C@@H](CO)[C@@H](O)[C@@H](O)[C@H]1O)[C@]3(COC(=O)c1ccccc1)C(=O)O2
REMARK SMILES IDX 1 1 2 2 3 3 4 4 6 5 7 6 8 7 21 8 32 9 33 10 34 11 9 12 10 13
REMARK SMILES IDX 19 14 11 15 17 16 12 17 15 18 20 19 18 21 13 23 14 24 16 26
REMARK SMILES IDX 5 28 22 30 23 31 24 32 25 33 26 34 27 35 31 36 28 37 30 38
REMARK SMILES IDX 29 39
REMARK H PARENT 20 20 18 22 14 25 16 27 5 29
REMARK Flexibility Score: inf
ROOT
ATOM      1  C   UNL     1     -20.402  12.418  -5.239  1.00  0.00     0.060 C 
ATOM      2  C   UNL     1     -19.402  13.582  -5.319  1.00  0.00     0.142 C 
ATOM      3  C   UNL     1     -19.955  14.786  -4.462  1.00  0.00     0.083 C 
ATOM      4  C   UNL     1     -19.146  16.102  -4.733  1.00  0.00     0.123 C 
ATOM      5  C   UNL     1     -18.556  16.094  -6.180  1.00  0.00     0.045 C 
ATOM      6  C   UNL     1     -19.601  15.459  -7.107  1.00  0.00     0.049 C 
ATOM      7  C   UNL     1     -18.961  14.108  -6.776  1.00  0.00     0.131 C 
ATOM      8  C   UNL     1     -17.651  14.839  -6.410  1.00  0.00     0.140 C 
ATOM      9  C   UNL     1     -17.174  14.049  -5.228  1.00  0.00     0.319 C 
ATOM     10  O   UNL     1     -16.019  14.114  -4.733  1.00  0.00    -0.251 OA
ATOM     11  O   UNL     1     -18.167  13.240  -4.712  1.00  0.00    -0.456 OA
ENDROOT
BRANCH   7  12
ATOM     12  O   UNL     1     -18.880  13.282  -7.943  1.00  0.00    -0.338 OA
BRANCH  12  13
ATOM     13  C   UNL     1     -20.022  12.506  -8.263  1.00  0.00     0.282 C 
ATOM     14  C   UNL     1     -19.657  11.059  -8.665  1.00  0.00     0.202 C 
ATOM     15  O   UNL     1     -20.779  13.139  -9.289  1.00  0.00    -0.341 OA
ATOM     16  C   UNL     1     -18.948  10.969 -10.029  1.00  0.00     0.179 C 
ATOM     17  C   UNL     1     -20.133  13.196 -10.559  1.00  0.00     0.178 C 
ATOM     18  C   UNL     1     -19.690  11.802 -11.082  1.00  0.00     0.177 C 
BRANCH  14  19
ATOM     19  O   UNL     1     -18.881  10.451  -7.672  1.00  0.00    -0.385 OA
ATOM     20  H   UNL     1     -19.394  10.515  -6.823  1.00  0.00     0.211 HD
ENDBRANCH  14  19
BRANCH  16  21
ATOM     21  O   UNL     1     -17.574  11.277  -9.973  1.00  0.00    -0.387 OA
ATOM     22  H   UNL     1     -17.293  11.334  -9.027  1.00  0.00     0.211 HD
ENDBRANCH  16  21
BRANCH  17  23
ATOM     23  C   UNL     1     -19.056  14.301 -10.657  1.00  0.00     0.191 C 
BRANCH  23  24
ATOM     24  O   UNL     1     -17.780  13.726 -10.607  1.00  0.00    -0.394 OA
ATOM     25  H   UNL     1     -17.650  13.419  -9.672  1.00  0.00     0.210 HD
ENDBRANCH  23  24
ENDBRANCH  17  23
BRANCH  18  26
ATOM     26  O   UNL     1     -18.907  11.910 -12.243  1.00  0.00    -0.387 OA
ATOM     27  H   UNL     1     -18.368  12.738 -12.151  1.00  0.00     0.211 HD
ENDBRANCH  18  26
ENDBRANCH  12  13
ENDBRANCH   7  12
BRANCH   4  28
ATOM     28  O   UNL     1     -19.940  17.239  -4.508  1.00  0.00    -0.393 OA
ATOM     29  H   UNL     1     -20.884  16.942  -4.427  1.00  0.00     0.210 HD
ENDBRANCH   4  28
BRANCH   8  30
ATOM     30  C   UNL     1     -16.606  15.024  -7.539  1.00  0.00     0.255 C 
BRANCH  30  31
ATOM     31  O   UNL     1     -15.372  15.505  -7.010  1.00  0.00    -0.461 OA
BRANCH  31  32
ATOM     32  C   UNL     1     -15.024  16.859  -6.923  1.00  0.00     0.338 C 
ATOM     33  O   UNL     1     -14.165  17.347  -7.708  1.00  0.00    -0.246 OA
BRANCH  32  34
ATOM     34  C   UNL     1     -15.688  17.718  -5.921  1.00  0.00     0.060 A 
ATOM     35  C   UNL     1     -15.470  17.518  -4.544  1.00  0.00     0.015 A 
ATOM     36  C   UNL     1     -16.561  18.743  -6.330  1.00  0.00     0.015 A 
ATOM     37  C   UNL     1     -16.106  18.332  -3.603  1.00  0.00     0.001 A 
ATOM     38  C   UNL     1     -17.191  19.556  -5.384  1.00  0.00     0.001 A 
ATOM     39  C   UNL     1     -16.965  19.351  -4.022  1.00  0.00     0.000 A 
ENDBRANCH  32  34
ENDBRANCH  31  32
ENDBRANCH  30  31
ENDBRANCH   8  30
TORSDOF 12
ENDMDL
MODEL 7
REMARK VINA RESULT:    -5.371      2.257      4.976
REMARK INTER + INTRA:          -9.931
REMARK INTER:                  -8.132
REMARK INTRA:                  -1.799
REMARK UNBOUND:                -1.577
REMARK SMILES C[C@]12C[C@H](O)[C@@H]3C[C@@]1(O[C@H]1O[C@@H](CO)[C@@H](O)[C@@H](O)[C@H]1O)[C@]3(COC(=O)c1ccccc1)C(=O)O2
REMARK SMILES IDX 1 1 2 2 3 3 4 4 6 5 7 6 8 7 21 8 32 9 33 10 34 11 9 12 10 13
REMARK SMILES IDX 19 14 11 15 17 16 12 17 15 18 20 19 18 21 13 23 14 24 16 26
REMARK SMILES IDX 5 28 22 30 23 31 24 32 25 33 26 34 27 35 31 36 28 37 30 38
REMARK SMILES IDX 29 39
REMARK H PARENT 20 20 18 22 14 25 16 27 5 29
REMARK Flexibility Score: inf
ROOT
ATOM      1  C   UNL     1     -14.384  16.831  -9.059  1.00  0.00     0.060 C 
ATOM      2  C   UNL     1     -14.863  16.459  -7.647  1.00  0.00     0.142 C 
ATOM      3  C   UNL     1     -13.806  16.981  -6.598  1.00  0.00     0.083 C 
ATOM      4  C   UNL     1     -14.072  16.384  -5.172  1.00  0.00     0.123 C 
ATOM      5  C   UNL     1     -14.764  14.987  -5.282  1.00  0.00     0.045 C 
ATOM      6  C   UNL     1     -14.143  14.252  -6.476  1.00  0.00     0.049 C 
ATOM      7  C   UNL     1     -15.215  14.916  -7.345  1.00  0.00     0.131 C 
ATOM      8  C   UNL     1     -16.098  15.086  -6.090  1.00  0.00     0.140 C 
ATOM      9  C   UNL     1     -16.720  16.430  -6.326  1.00  0.00     0.319 C 
ATOM     10  O   UNL     1     -17.704  16.894  -5.694  1.00  0.00    -0.251 OA
ATOM     11  O   UNL     1     -16.066  17.135  -7.319  1.00  0.00    -0.456 OA
ENDROOT
BRANCH   7  12
ATOM     12  O   UNL     1     -15.725  13.998  -8.318  1.00  0.00    -0.338 OA
BRANCH  12  13
ATOM     13  C   UNL     1     -15.993  14.513  -9.611  1.00  0.00     0.282 C 
ATOM     14  C   UNL     1     -17.503  14.522  -9.940  1.00  0.00     0.202 C 
ATOM     15  O   UNL     1     -15.266  13.786 -10.595  1.00  0.00    -0.341 OA
ATOM     16  C   UNL     1     -18.087  13.111 -10.146  1.00  0.00     0.179 C 
ATOM     17  C   UNL     1     -15.678  12.430 -10.759  1.00  0.00     0.178 C 
ATOM     18  C   UNL     1     -17.191  12.285 -11.078  1.00  0.00     0.177 C 
BRANCH  14  19
ATOM     19  O   UNL     1     -18.221  15.205  -8.952  1.00  0.00    -0.385 OA
ATOM     20  H   UNL     1     -19.038  15.568  -9.385  1.00  0.00     0.211 HD
ENDBRANCH  14  19
BRANCH  16  21
ATOM     21  O   UNL     1     -18.374  12.438  -8.943  1.00  0.00    -0.387 OA
ATOM     22  H   UNL     1     -17.681  12.657  -8.274  1.00  0.00     0.211 HD
ENDBRANCH  16  21
BRANCH  17  23
ATOM     23  C   UNL     1     -15.151  11.485  -9.655  1.00  0.00     0.191 C 
BRANCH  23  24
ATOM     24  O   UNL     1     -15.175  10.162 -10.113  1.00  0.00    -0.394 OA
ATOM     25  H   UNL     1     -15.015   9.589  -9.318  1.00  0.00     0.210 HD
ENDBRANCH  23  24
ENDBRANCH  17  23
BRANCH  18  26
ATOM     26  O   UNL     1     -17.596  10.940 -11.061  1.00  0.00    -0.387 OA
ATOM     27  H   UNL     1     -16.995  10.466 -10.431  1.00  0.00     0.211 HD
ENDBRANCH  18  26
ENDBRANCH  12  13
ENDBRANCH   7  12
BRANCH   4  28
ATOM     28  O   UNL     1     -12.883  16.312  -4.425  1.00  0.00    -0.393 OA
ATOM     29  H   UNL     1     -12.522  17.233  -4.334  1.00  0.00     0.210 HD
ENDBRANCH   4  28
BRANCH   8  30
ATOM     30  C   UNL     1     -17.102  13.948  -5.775  1.00  0.00     0.255 C 
BRANCH  30  31
ATOM     31  O   UNL     1     -18.332  14.155  -6.469  1.00  0.00    -0.461 OA
BRANCH  31  32
ATOM     32  C   UNL     1     -19.598  13.933  -5.914  1.00  0.00     0.338 C 
ATOM     33  O   UNL     1     -20.451  14.863  -5.880  1.00  0.00    -0.246 OA
BRANCH  32  34
ATOM     34  C   UNL     1     -19.940  12.594  -5.389  1.00  0.00     0.060 A 
ATOM     35  C   UNL     1     -19.921  12.338  -4.004  1.00  0.00     0.015 A 
ATOM     36  C   UNL     1     -20.274  11.550  -6.270  1.00  0.00     0.015 A 
ATOM     37  C   UNL     1     -20.240  11.068  -3.517  1.00  0.00     0.001 A 
ATOM     38  C   UNL     1     -20.595  10.282  -5.776  1.00  0.00     0.001 A 
ATOM     39  C   UNL     1     -20.578  10.041  -4.401  1.00  0.00     0.000 A 
ENDBRANCH  32  34
ENDBRANCH  31  32
ENDBRANCH  30  31
ENDBRANCH   8  30
TORSDOF 12
ENDMDL
MODEL 8
REMARK VINA RESULT:    -5.309      2.121      6.845
REMARK INTER + INTRA:          -9.835
REMARK INTER:                  -8.049
REMARK INTRA:                  -1.785
REMARK UNBOUND:                -1.577
REMARK SMILES C[C@]12C[C@H](O)[C@@H]3C[C@@]1(O[C@H]1O[C@@H](CO)[C@@H](O)[C@@H](O)[C@H]1O)[C@]3(COC(=O)c1ccccc1)C(=O)O2
REMARK SMILES IDX 1 1 2 2 3 3 4 4 6 5 7 6 8 7 21 8 32 9 33 10 34 11 9 12 10 13
REMARK SMILES IDX 19 14 11 15 17 16 12 17 15 18 20 19 18 21 13 23 14 24 16 26
REMARK SMILES IDX 5 28 22 30 23 31 24 32 25 33 26 34 27 35 31 36 28 37 30 38
REMARK SMILES IDX 29 39
REMARK H PARENT 20 20 18 22 14 25 16 27 5 29
REMARK Flexibility Score: inf
ROOT
ATOM      1  C   UNL     1     -13.879  15.096  -4.679  1.00  0.00     0.060 C 
ATOM      2  C   UNL     1     -14.395  15.299  -6.112  1.00  0.00     0.142 C 
ATOM      3  C   UNL     1     -13.230  15.897  -6.992  1.00  0.00     0.083 C 
ATOM      4  C   UNL     1     -13.762  16.406  -8.377  1.00  0.00     0.123 C 
ATOM      5  C   UNL     1     -15.255  16.851  -8.262  1.00  0.00     0.045 C 
ATOM      6  C   UNL     1     -15.431  17.548  -6.907  1.00  0.00     0.049 C 
ATOM      7  C   UNL     1     -15.737  16.165  -6.322  1.00  0.00     0.131 C 
ATOM      8  C   UNL     1     -16.148  15.682  -7.730  1.00  0.00     0.140 C 
ATOM      9  C   UNL     1     -15.614  14.281  -7.746  1.00  0.00     0.319 C 
ATOM     10  O   UNL     1     -15.917  13.400  -8.593  1.00  0.00    -0.251 OA
ATOM     11  O   UNL     1     -14.713  14.059  -6.723  1.00  0.00    -0.456 OA
ENDROOT
BRANCH   7  12
ATOM     12  O   UNL     1     -16.809  16.237  -5.376  1.00  0.00    -0.338 OA
BRANCH  12  13
ATOM     13  C   UNL     1     -16.678  15.464  -4.195  1.00  0.00     0.282 C 
ATOM     14  C   UNL     1     -17.633  14.249  -4.178  1.00  0.00     0.202 C 
ATOM     15  O   UNL     1     -16.877  16.279  -3.045  1.00  0.00    -0.341 OA
ATOM     16  C   UNL     1     -19.113  14.643  -4.014  1.00  0.00     0.179 C 
ATOM     17  C   UNL     1     -18.205  16.777  -2.890  1.00  0.00     0.178 C 
ATOM     18  C   UNL     1     -19.281  15.657  -2.875  1.00  0.00     0.177 C 
BRANCH  14  19
ATOM     19  O   UNL     1     -17.462  13.470  -5.328  1.00  0.00    -0.385 OA
ATOM     20  H   UNL     1     -17.098  14.068  -6.033  1.00  0.00     0.211 HD
ENDBRANCH  14  19
BRANCH  16  21
ATOM     21  O   UNL     1     -19.719  15.075  -5.210  1.00  0.00    -0.387 OA
ATOM     22  H   UNL     1     -20.414  15.745  -4.998  1.00  0.00     0.211 HD
ENDBRANCH  16  21
BRANCH  17  23
ATOM     23  C   UNL     1     -18.527  17.977  -3.810  1.00  0.00     0.191 C 
BRANCH  23  24
ATOM     24  O   UNL     1     -19.344  17.559  -4.867  1.00  0.00    -0.394 OA
ATOM     25  H   UNL     1     -18.753  17.481  -5.661  1.00  0.00     0.210 HD
ENDBRANCH  23  24
ENDBRANCH  17  23
BRANCH  18  26
ATOM     26  O   UNL     1     -20.581  16.188  -2.897  1.00  0.00    -0.387 OA
ATOM     27  H   UNL     1     -20.509  17.111  -3.252  1.00  0.00     0.211 HD
ENDBRANCH  18  26
ENDBRANCH  12  13
ENDBRANCH   7  12
BRANCH   4  28
ATOM     28  O   UNL     1     -12.954  17.441  -8.879  1.00  0.00    -0.393 OA
ATOM     29  H   UNL     1     -12.764  18.070  -8.133  1.00  0.00     0.210 HD
ENDBRANCH   4  28
BRANCH   8  30
ATOM     30  C   UNL     1     -17.643  15.817  -8.114  1.00  0.00     0.255 C 
BRANCH  30  31
ATOM     31  O   UNL     1     -18.363  14.638  -7.757  1.00  0.00    -0.461 OA
BRANCH  31  32
ATOM     32  C   UNL     1     -19.525  14.197  -8.402  1.00  0.00     0.338 C 
ATOM     33  O   UNL     1     -20.659  14.424  -7.897  1.00  0.00    -0.246 OA
BRANCH  32  34
ATOM     34  C   UNL     1     -19.417  13.483  -9.691  1.00  0.00     0.060 A 
ATOM     35  C   UNL     1     -19.788  12.128  -9.797  1.00  0.00     0.015 A 
ATOM     36  C   UNL     1     -18.925  14.145 -10.831  1.00  0.00     0.015 A 
ATOM     37  C   UNL     1     -19.677  11.459 -11.019  1.00  0.00     0.001 A 
ATOM     38  C   UNL     1     -18.819  13.470 -12.051  1.00  0.00     0.001 A 
ATOM     39  C   UNL     1     -19.194  12.130 -12.145  1.00  0.00     0.000 A 
ENDBRANCH  32  34
ENDBRANCH  31  32
ENDBRANCH  30  31
ENDBRANCH   8  30
TORSDOF 12
ENDMDL
MODEL 9
REMARK VINA RESULT:    -5.265      2.190      4.994
REMARK INTER + INTRA:          -9.765
REMARK INTER:                  -8.057
REMARK INTRA:                  -1.708
REMARK UNBOUND:                -1.577
REMARK SMILES C[C@]12C[C@H](O)[C@@H]3C[C@@]1(O[C@H]1O[C@@H](CO)[C@@H](O)[C@@H](O)[C@H]1O)[C@]3(COC(=O)c1ccccc1)C(=O)O2
REMARK SMILES IDX 1 1 2 2 3 3 4 4 6 5 7 6 8 7 21 8 32 9 33 10 34 11 9 12 10 13
REMARK SMILES IDX 19 14 11 15 17 16 12 17 15 18 20 19 18 21 13 23 14 24 16 26
REMARK SMILES IDX 5 28 22 30 23 31 24 32 25 33 26 34 27 35 31 36 28 37 30 38
REMARK SMILES IDX 29 39
REMARK H PARENT 20 20 18 22 14 25 16 27 5 29
REMARK Flexibility Score: inf
ROOT
ATOM      1  C   UNL     1     -15.745  11.891 -10.150  1.00  0.00     0.060 C 
ATOM      2  C   UNL     1     -17.125  12.348  -9.652  1.00  0.00     0.142 C 
ATOM      3  C   UNL     1     -18.233  11.745 -10.601  1.00  0.00     0.083 C 
ATOM      4  C   UNL     1     -19.632  12.403 -10.338  1.00  0.00     0.123 C 
ATOM      5  C   UNL     1     -19.461  13.861  -9.803  1.00  0.00     0.045 C 
ATOM      6  C   UNL     1     -18.281  14.497 -10.550  1.00  0.00     0.049 C 
ATOM      7  C   UNL     1     -17.378  13.926  -9.452  1.00  0.00     0.131 C 
ATOM      8  C   UNL     1     -18.595  13.882  -8.502  1.00  0.00     0.140 C 
ATOM      9  C   UNL     1     -18.359  12.604  -7.753  1.00  0.00     0.319 C 
ATOM     10  O   UNL     1     -18.954  12.262  -6.698  1.00  0.00    -0.251 OA
ATOM     11  O   UNL     1     -17.412  11.810  -8.371  1.00  0.00    -0.456 OA
ENDROOT
BRANCH   7  12
ATOM     12  O   UNL     1     -16.364  14.867  -9.084  1.00  0.00    -0.338 OA
BRANCH  12  13
ATOM     13  C   UNL     1     -15.078  14.347  -8.794  1.00  0.00     0.282 C 
ATOM     14  C   UNL     1     -14.676  14.563  -7.317  1.00  0.00     0.202 C 
ATOM     15  O   UNL     1     -14.107  14.909  -9.670  1.00  0.00    -0.341 OA
ATOM     16  C   UNL     1     -14.392  16.038  -6.976  1.00  0.00     0.179 C 
ATOM     17  C   UNL     1     -13.876  16.304  -9.486  1.00  0.00     0.178 C 
ATOM     18  C   UNL     1     -13.478  16.672  -8.031  1.00  0.00     0.177 C 
BRANCH  14  19
ATOM     19  O   UNL     1     -15.650  14.043  -6.458  1.00  0.00    -0.385 OA
ATOM     20  H   UNL     1     -16.532  14.209  -6.885  1.00  0.00     0.211 HD
ENDBRANCH  14  19
BRANCH  16  21
ATOM     21  O   UNL     1     -15.556  16.798  -6.747  1.00  0.00    -0.387 OA
ATOM     22  H   UNL     1     -16.096  16.820  -7.575  1.00  0.00     0.211 HD
ENDBRANCH  16  21
BRANCH  17  23
ATOM     23  C   UNL     1     -14.971  17.200 -10.109  1.00  0.00     0.191 C 
BRANCH  23  24
ATOM     24  O   UNL     1     -14.422  18.435 -10.475  1.00  0.00    -0.394 OA
ATOM     25  H   UNL     1     -15.104  18.888 -11.036  1.00  0.00     0.210 HD
ENDBRANCH  23  24
ENDBRANCH  17  23
BRANCH  18  26
ATOM     26  O   UNL     1     -13.428  18.064  -7.845  1.00  0.00    -0.387 OA
ATOM     27  H   UNL     1     -14.201  18.306  -7.272  1.00  0.00     0.211 HD
ENDBRANCH  18  26
ENDBRANCH  12  13
ENDBRANCH   7  12
BRANCH   4  28
ATOM     28  O   UNL     1     -20.431  12.370 -11.494  1.00  0.00    -0.393 OA
ATOM     29  H   UNL     1     -20.090  13.061 -12.122  1.00  0.00     0.210 HD
ENDBRANCH   4  28
BRANCH   8  30
ATOM     30  C   UNL     1     -18.840  15.126  -7.611  1.00  0.00     0.255 C 
BRANCH  30  31
ATOM     31  O   UNL     1     -18.175  14.986  -6.356  1.00  0.00    -0.461 OA
BRANCH  31  32
ATOM     32  C   UNL     1     -18.630  15.543  -5.155  1.00  0.00     0.338 C 
ATOM     33  O   UNL     1     -19.747  15.202  -4.677  1.00  0.00    -0.246 OA
BRANCH  32  34
ATOM     34  C   UNL     1     -17.782  16.517  -4.436  1.00  0.00     0.060 A 
ATOM     35  C   UNL     1     -16.739  16.082  -3.597  1.00  0.00     0.015 A 
ATOM     36  C   UNL     1     -18.017  17.897  -4.570  1.00  0.00     0.015 A 
ATOM     37  C   UNL     1     -15.945  17.009  -2.917  1.00  0.00     0.001 A 
ATOM     38  C   UNL     1     -17.218  18.821  -3.890  1.00  0.00     0.001 A 
ATOM     39  C   UNL     1     -16.183  18.378  -3.064  1.00  0.00     0.000 A 
ENDBRANCH  32  34
ENDBRANCH  31  32
ENDBRANCH  30  31
ENDBRANCH   8  30
TORSDOF 12
ENDMDL
