MODEL 1
REMARK VINA RESULT:    -3.981      0.000      0.000
REMARK INTER + INTRA:          -5.100
REMARK INTER:                  -4.912
REMARK INTRA:                  -0.187
REMARK UNBOUND:                -0.187
REMARK SMILES CCCCCC(=O)[O-]
REMARK SMILES IDX 4 1 5 2 6 3 7 4 8 5 3 6 2 7 1 8
REMARK H PARENT
REMARK Flexibility Score: inf
ROOT
ATOM      1  C   UNL     1      63.007 -28.332  -1.996  1.00  0.00     0.006 C 
ENDROOT
BRANCH   1   2
ATOM      2  C   UNL     1      62.837 -28.828  -0.557  1.00  0.00     0.053 C 
BRANCH   2   3
ATOM      3  C   UNL     1      61.391 -29.063  -0.251  1.00  0.00     0.041 C 
ATOM      4  O   UNL     1      60.559 -29.198  -1.187  1.00  0.00    -0.550 OA
ATOM      5  O   UNL     1      60.970 -29.183   1.067  1.00  0.00    -0.550 OA
ENDBRANCH   2   3
ENDBRANCH   1   2
BRANCH   1   6
ATOM      6  C   UNL     1      63.687 -26.954  -2.025  1.00  0.00     0.000 C 
BRANCH   6   7
ATOM      7  C   UNL     1      62.903 -25.927  -2.856  1.00  0.00    -0.003 C 
ATOM      8  C   UNL     1      61.405 -26.226  -2.907  1.00  0.00     0.004 C 
ENDBRANCH   6   7
ENDBRANCH   1   6
TORSDOF 4
ENDMDL
MODEL 2
REMARK VINA RESULT:    -3.959      1.313      1.771
REMARK INTER + INTRA:          -5.072
REMARK INTER:                  -4.944
REMARK INTRA:                  -0.129
REMARK UNBOUND:                -0.187
REMARK SMILES CCCCCC(=O)[O-]
REMARK SMILES IDX 4 1 5 2 6 3 7 4 8 5 3 6 2 7 1 8
REMARK H PARENT
REMARK Flexibility Score: inf
ROOT
ATOM      1  C   UNL     1      63.385 -27.131  -2.175  1.00  0.00     0.006 C 
ENDROOT
BRANCH   1   2
ATOM      2  C   UNL     1      62.214 -28.078  -1.897  1.00  0.00     0.053 C 
BRANCH   2   3
ATOM      3  C   UNL     1      62.399 -28.771  -0.584  1.00  0.00     0.041 C 
ATOM      4  O   UNL     1      63.556 -28.954  -0.122  1.00  0.00    -0.550 OA
ATOM      5  O   UNL     1      61.293 -29.171   0.154  1.00  0.00    -0.550 OA
ENDBRANCH   2   3
ENDBRANCH   1   2
BRANCH   1   6
ATOM      6  C   UNL     1      62.917 -25.895  -2.957  1.00  0.00     0.000 C 
BRANCH   6   7
ATOM      7  C   UNL     1      61.390 -25.843  -3.120  1.00  0.00    -0.003 C 
ATOM      8  C   UNL     1      60.960 -25.428  -4.527  1.00  0.00     0.004 C 
ENDBRANCH   6   7
ENDBRANCH   1   6
TORSDOF 4
ENDMDL
MODEL 3
REMARK VINA RESULT:    -3.955      2.290      3.887
REMARK INTER + INTRA:          -5.068
REMARK INTER:                  -4.874
REMARK INTRA:                  -0.194
REMARK UNBOUND:                -0.187
REMARK SMILES CCCCCC(=O)[O-]
REMARK SMILES IDX 4 1 5 2 6 3 7 4 8 5 3 6 2 7 1 8
REMARK H PARENT
REMARK Flexibility Score: inf
ROOT
ATOM      1  C   UNL     1      63.242 -27.322  -2.749  1.00  0.00     0.006 C 
ENDROOT
BRANCH   1   2
ATOM      2  C   UNL     1      62.801 -25.855  -2.754  1.00  0.00     0.053 C 
BRANCH   2   3
ATOM      3  C   UNL     1      61.398 -25.732  -3.260  1.00  0.00     0.041 C 
ATOM      4  O   UNL     1      60.427 -25.817  -2.462  1.00  0.00    -0.550 OA
ATOM      5  O   UNL     1      61.163 -25.473  -4.604  1.00  0.00    -0.550 OA
ENDBRANCH   2   3
ENDBRANCH   1   2
BRANCH   1   6
ATOM      6  C   UNL     1      63.525 -27.805  -1.319  1.00  0.00     0.000 C 
BRANCH   6   7
ATOM      7  C   UNL     1      62.792 -29.113  -0.982  1.00  0.00    -0.003 C 
ATOM      8  C   UNL     1      61.278 -28.932  -0.877  1.00  0.00     0.004 C 
ENDBRANCH   6   7
ENDBRANCH   1   6
TORSDOF 4
ENDMDL
MODEL 4
REMARK VINA RESULT:    -3.878      3.140      4.425
REMARK INTER + INTRA:          -4.972
REMARK INTER:                  -4.858
REMARK INTRA:                  -0.114
REMARK UNBOUND:                -0.187
REMARK SMILES CCCCCC(=O)[O-]
REMARK SMILES IDX 4 1 5 2 6 3 7 4 8 5 3 6 2 7 1 8
REMARK H PARENT
REMARK Flexibility Score: inf
ROOT
ATOM      1  C   UNL     1      62.889 -25.875  -2.891  1.00  0.00     0.006 C 
ENDROOT
BRANCH   1   2
ATOM      2  C   UNL     1      61.383 -26.153  -2.942  1.00  0.00     0.053 C 
BRANCH   2   3
ATOM      3  C   UNL     1      60.726 -25.292  -3.974  1.00  0.00     0.041 C 
ATOM      4  O   UNL     1      59.885 -24.420  -3.631  1.00  0.00    -0.550 OA
ATOM      5  O   UNL     1      61.078 -25.418  -5.312  1.00  0.00    -0.550 OA
ENDBRANCH   2   3
ENDBRANCH   1   2
BRANCH   1   6
ATOM      6  C   UNL     1      63.641 -27.048  -2.246  1.00  0.00     0.000 C 
BRANCH   6   7
ATOM      7  C   UNL     1      62.700 -28.174  -1.790  1.00  0.00    -0.003 C 
ATOM      8  C   UNL     1      63.186 -28.873  -0.520  1.00  0.00     0.004 C 
ENDBRANCH   6   7
ENDBRANCH   1   6
TORSDOF 4
ENDMDL
MODEL 5
REMARK VINA RESULT:    -3.870      2.816      4.168
REMARK INTER + INTRA:          -4.963
REMARK INTER:                  -4.886
REMARK INTRA:                  -0.077
REMARK UNBOUND:                -0.187
REMARK SMILES CCCCCC(=O)[O-]
REMARK SMILES IDX 4 1 5 2 6 3 7 4 8 5 3 6 2 7 1 8
REMARK H PARENT
REMARK Flexibility Score: inf
ROOT
ATOM      1  C   UNL     1      62.188 -26.971  -2.350  1.00  0.00     0.006 C 
ENDROOT
BRANCH   1   2
ATOM      2  C   UNL     1      62.412 -25.833  -3.351  1.00  0.00     0.053 C 
BRANCH   2   3
ATOM      3  C   UNL     1      61.106 -25.369  -3.917  1.00  0.00     0.041 C 
ATOM      4  O   UNL     1      60.868 -25.495  -5.147  1.00  0.00    -0.550 OA
ATOM      5  O   UNL     1      60.132 -24.843  -3.078  1.00  0.00    -0.550 OA
ENDBRANCH   2   3
ENDBRANCH   1   2
BRANCH   1   6
ATOM      6  C   UNL     1      63.525 -27.597  -1.925  1.00  0.00     0.000 C 
BRANCH   6   7
ATOM      7  C   UNL     1      63.339 -28.858  -1.066  1.00  0.00    -0.003 C 
ATOM      8  C   UNL     1      61.902 -29.035  -0.579  1.00  0.00     0.004 C 
ENDBRANCH   6   7
ENDBRANCH   1   6
TORSDOF 4
ENDMDL
MODEL 6
REMARK VINA RESULT:    -3.738      1.116      1.835
REMARK INTER + INTRA:          -4.800
REMARK INTER:                  -4.689
REMARK INTRA:                  -0.111
REMARK UNBOUND:                -0.187
REMARK SMILES CCCCCC(=O)[O-]
REMARK SMILES IDX 4 1 5 2 6 3 7 4 8 5 3 6 2 7 1 8
REMARK H PARENT
REMARK Flexibility Score: inf
ROOT
ATOM      1  C   UNL     1      62.563 -29.007  -0.615  1.00  0.00     0.006 C 
ENDROOT
BRANCH   1   2
ATOM      2  C   UNL     1      61.064 -28.925  -0.922  1.00  0.00     0.053 C 
BRANCH   2   3
ATOM      3  C   UNL     1      60.263 -29.434   0.235  1.00  0.00     0.041 C 
ATOM      4  O   UNL     1      60.582 -29.123   1.413  1.00  0.00    -0.550 OA
ATOM      5  O   UNL     1      59.133 -30.210   0.011  1.00  0.00    -0.550 OA
ENDBRANCH   2   3
ENDBRANCH   1   2
BRANCH   1   6
ATOM      6  C   UNL     1      63.370 -28.126  -1.579  1.00  0.00     0.000 C 
BRANCH   6   7
ATOM      7  C   UNL     1      62.477 -27.194  -2.414  1.00  0.00    -0.003 C 
ATOM      8  C   UNL     1      63.253 -26.036  -3.041  1.00  0.00     0.004 C 
ENDBRANCH   6   7
ENDBRANCH   1   6
TORSDOF 4
ENDMDL
MODEL 7
REMARK VINA RESULT:    -3.624      1.486      2.322
REMARK INTER + INTRA:          -4.659
REMARK INTER:                  -4.563
REMARK INTRA:                  -0.096
REMARK UNBOUND:                -0.187
REMARK SMILES CCCCCC(=O)[O-]
REMARK SMILES IDX 4 1 5 2 6 3 7 4 8 5 3 6 2 7 1 8
REMARK H PARENT
REMARK Flexibility Score: inf
ROOT
ATOM      1  C   UNL     1      61.059 -28.358  -1.856  1.00  0.00     0.006 C 
ENDROOT
BRANCH   1   2
ATOM      2  C   UNL     1      59.722 -28.414  -1.110  1.00  0.00     0.053 C 
BRANCH   2   3
ATOM      3  C   UNL     1      59.790 -29.399   0.014  1.00  0.00     0.041 C 
ATOM      4  O   UNL     1      60.587 -29.214   0.972  1.00  0.00    -0.550 OA
ATOM      5  O   UNL     1      58.938 -30.496   0.031  1.00  0.00    -0.550 OA
ENDBRANCH   2   3
ENDBRANCH   1   2
BRANCH   1   6
ATOM      6  C   UNL     1      61.305 -26.956  -2.434  1.00  0.00     0.000 C 
BRANCH   6   7
ATOM      7  C   UNL     1      62.799 -26.608  -2.523  1.00  0.00    -0.003 C 
ATOM      8  C   UNL     1      63.687 -27.624  -1.803  1.00  0.00     0.004 C 
ENDBRANCH   6   7
ENDBRANCH   1   6
TORSDOF 4
ENDMDL
MODEL 8
REMARK VINA RESULT:    -3.542      2.120      3.015
REMARK INTER + INTRA:          -4.558
REMARK INTER:                  -4.477
REMARK INTRA:                  -0.080
REMARK UNBOUND:                -0.187
REMARK SMILES CCCCCC(=O)[O-]
REMARK SMILES IDX 4 1 5 2 6 3 7 4 8 5 3 6 2 7 1 8
REMARK H PARENT
REMARK Flexibility Score: inf
ROOT
ATOM      1  C   UNL     1      61.987 -26.163  -2.914  1.00  0.00     0.006 C 
ENDROOT
BRANCH   1   2
ATOM      2  C   UNL     1      61.460 -27.443  -2.258  1.00  0.00     0.053 C 
BRANCH   2   3
ATOM      3  C   UNL     1      62.576 -28.195  -1.604  1.00  0.00     0.041 C 
ATOM      4  O   UNL     1      62.346 -29.284  -1.015  1.00  0.00    -0.550 OA
ATOM      5  O   UNL     1      63.878 -27.720  -1.689  1.00  0.00    -0.550 OA
ENDBRANCH   2   3
ENDBRANCH   1   2
BRANCH   1   6
ATOM      6  C   UNL     1      60.830 -25.241  -3.327  1.00  0.00     0.000 C 
BRANCH   6   7
ATOM      7  C   UNL     1      60.126 -25.715  -4.608  1.00  0.00    -0.003 C 
ATOM      8  C   UNL     1      60.765 -25.152  -5.877  1.00  0.00     0.004 C 
ENDBRANCH   6   7
ENDBRANCH   1   6
TORSDOF 4
ENDMDL
MODEL 9
REMARK VINA RESULT:    -3.485      2.449      3.857
REMARK INTER + INTRA:          -4.487
REMARK INTER:                  -4.403
REMARK INTRA:                  -0.084
REMARK UNBOUND:                -0.187
REMARK SMILES CCCCCC(=O)[O-]
REMARK SMILES IDX 4 1 5 2 6 3 7 4 8 5 3 6 2 7 1 8
REMARK H PARENT
REMARK Flexibility Score: inf
ROOT
ATOM      1  C   UNL     1      61.277 -27.393  -2.286  1.00  0.00     0.006 C 
ENDROOT
BRANCH   1   2
ATOM      2  C   UNL     1      60.381 -26.191  -2.600  1.00  0.00     0.053 C 
BRANCH   2   3
ATOM      3  C   UNL     1      59.377 -26.546  -3.652  1.00  0.00     0.041 C 
ATOM      4  O   UNL     1      59.336 -25.901  -4.733  1.00  0.00    -0.550 OA
ATOM      5  O   UNL     1      58.519 -27.621  -3.459  1.00  0.00    -0.550 OA
ENDBRANCH   2   3
ENDBRANCH   1   2
BRANCH   1   6
ATOM      6  C   UNL     1      62.757 -26.983  -2.266  1.00  0.00     0.000 C 
BRANCH   6   7
ATOM      7  C   UNL     1      63.648 -28.023  -1.570  1.00  0.00    -0.003 C 
ATOM      8  C   UNL     1      62.851 -29.187  -0.982  1.00  0.00     0.004 C 
ENDBRANCH   6   7
ENDBRANCH   1   6
TORSDOF 4
ENDMDL
