MODEL 1
REMARK VINA RESULT:    -6.746      0.000      0.000
REMARK INTER + INTRA:         -11.700
REMARK INTER:                 -10.295
REMARK INTRA:                  -1.405
REMARK UNBOUND:                -1.405
REMARK SMILES OC[C@H]1O[C@H](O[C@]2(CO)O[C@H](CO)[C@H](O)[C@@H]2O)[C@@H](O)[C@@H](O)[C@H]1O
REMARK SMILES IDX 6 1 5 2 3 3 22 4 4 5 20 6 18 7 2 8 1 9 23 11 21 13 19 15
REMARK SMILES IDX 7 17 16 18 10 19 14 20 11 21 8 22 9 23 17 25 15 27 12 29
REMARK SMILES IDX 13 30
REMARK H PARENT 1 10 23 12 21 14 19 16 9 24 17 26 15 28 13 31
REMARK Flexibility Score: inf
ROOT
ATOM      1  O   UNL     1      36.562   7.218  43.792  1.00  0.00    -0.313 OA
ENDROOT
BRANCH   1   2
ATOM      2  C   UNL     1      37.461   7.998  44.575  1.00  0.00     0.285 C 
ATOM      3  C   UNL     1      37.381   9.801  43.063  1.00  0.00     0.178 C 
ATOM      4  C   UNL     1      36.663  10.741  44.059  1.00  0.00     0.177 C 
ATOM      5  O   UNL     1      38.213   8.880  43.752  1.00  0.00    -0.341 OA
ATOM      6  C   UNL     1      35.824   9.880  45.021  1.00  0.00     0.179 C 
ATOM      7  C   UNL     1      36.679   8.768  45.664  1.00  0.00     0.202 C 
BRANCH   3   8
ATOM      8  C   UNL     1      38.242  10.578  42.055  1.00  0.00     0.191 C 
BRANCH   8   9
ATOM      9  O   UNL     1      38.600   9.768  40.967  1.00  0.00    -0.394 OA
ATOM     10  H   UNL     1      39.583   9.856  40.859  1.00  0.00     0.210 HD
ENDBRANCH   8   9
ENDBRANCH   3   8
BRANCH   4  11
ATOM     11  O   UNL     1      37.603  11.499  44.781  1.00  0.00    -0.387 OA
ATOM     12  H   UNL     1      38.462  11.002  44.754  1.00  0.00     0.211 HD
ENDBRANCH   4  11
BRANCH   6  13
ATOM     13  O   UNL     1      35.170  10.662  45.990  1.00  0.00    -0.387 OA
ATOM     14  H   UNL     1      34.191  10.552  45.873  1.00  0.00     0.211 HD
ENDBRANCH   6  13
BRANCH   7  15
ATOM     15  O   UNL     1      37.580   9.325  46.589  1.00  0.00    -0.385 OA
ATOM     16  H   UNL     1      37.349   8.950  47.479  1.00  0.00     0.211 HD
ENDBRANCH   7  15
ENDBRANCH   1   2
BRANCH   1  17
ATOM     17  C   UNL     1      36.929   5.843  43.692  1.00  0.00     0.224 C 
ATOM     18  C   UNL     1      37.720   5.629  42.377  1.00  0.00     0.208 C 
ATOM     19  O   UNL     1      37.767   5.461  44.776  1.00  0.00    -0.337 OA
ATOM     20  C   UNL     1      39.150   5.471  42.843  1.00  0.00     0.180 C 
ATOM     21  C   UNL     1      38.953   4.913  44.250  1.00  0.00     0.179 C 
BRANCH  17  22
ATOM     22  C   UNL     1      35.655   4.962  43.697  1.00  0.00     0.225 C 
BRANCH  22  23
ATOM     23  O   UNL     1      35.233   4.687  42.387  1.00  0.00    -0.391 OA
ATOM     24  H   UNL     1      34.251   4.551  42.422  1.00  0.00     0.210 HD
ENDBRANCH  22  23
ENDBRANCH  17  22
BRANCH  18  25
ATOM     25  O   UNL     1      37.569   6.708  41.486  1.00  0.00    -0.385 OA
ATOM     26  H   UNL     1      38.482   6.963  41.194  1.00  0.00     0.211 HD
ENDBRANCH  18  25
BRANCH  20  27
ATOM     27  O   UNL     1      39.850   6.695  42.833  1.00  0.00    -0.387 OA
ATOM     28  H   UNL     1      40.781   6.516  42.541  1.00  0.00     0.211 HD
ENDBRANCH  20  27
BRANCH  21  29
ATOM     29  C   UNL     1      40.125   5.175  45.208  1.00  0.00     0.191 C 
BRANCH  29  30
ATOM     30  O   UNL     1      39.899   6.337  45.959  1.00  0.00    -0.394 OA
ATOM     31  H   UNL     1      40.709   6.483  46.515  1.00  0.00     0.210 HD
ENDBRANCH  29  30
ENDBRANCH  21  29
ENDBRANCH   1  17
TORSDOF 13
ENDMDL
MODEL 2
REMARK VINA RESULT:    -6.207     13.980     16.309
REMARK INTER + INTRA:         -10.877
REMARK INTER:                  -9.164
REMARK INTRA:                  -1.713
REMARK UNBOUND:                -1.405
REMARK SMILES OC[C@H]1O[C@H](O[C@]2(CO)O[C@H](CO)[C@H](O)[C@@H]2O)[C@@H](O)[C@@H](O)[C@H]1O
REMARK SMILES IDX 6 1 5 2 3 3 22 4 4 5 20 6 18 7 2 8 1 9 23 11 21 13 19 15
REMARK SMILES IDX 7 17 16 18 10 19 14 20 11 21 8 22 9 23 17 25 15 27 12 29
REMARK SMILES IDX 13 30
REMARK H PARENT 1 10 23 12 21 14 19 16 9 24 17 26 15 28 13 31
REMARK Flexibility Score: inf
ROOT
ATOM      1  O   UNL     1      24.357   4.058  38.435  1.00  0.00    -0.313 OA
ENDROOT
BRANCH   1   2
ATOM      2  C   UNL     1      23.868   5.181  39.162  1.00  0.00     0.285 C 
ATOM      3  C   UNL     1      21.745   4.205  39.450  1.00  0.00     0.178 C 
ATOM      4  C   UNL     1      21.906   4.057  40.981  1.00  0.00     0.177 C 
ATOM      5  O   UNL     1      22.467   5.332  38.976  1.00  0.00    -0.341 OA
ATOM      6  C   UNL     1      23.405   3.904  41.300  1.00  0.00     0.179 C 
ATOM      7  C   UNL     1      24.230   5.039  40.658  1.00  0.00     0.202 C 
BRANCH   3   8
ATOM      8  C   UNL     1      20.274   4.358  39.036  1.00  0.00     0.191 C 
BRANCH   8   9
ATOM      9  O   UNL     1      20.077   5.535  38.298  1.00  0.00    -0.394 OA
ATOM     10  H   UNL     1      20.649   6.231  38.715  1.00  0.00     0.210 HD
ENDBRANCH   8   9
ENDBRANCH   3   8
BRANCH   4  11
ATOM     11  O   UNL     1      21.382   5.185  41.639  1.00  0.00    -0.387 OA
ATOM     12  H   UNL     1      20.490   4.929  41.992  1.00  0.00     0.211 HD
ENDBRANCH   4  11
BRANCH   6  13
ATOM     13  O   UNL     1      23.639   3.806  42.684  1.00  0.00    -0.387 OA
ATOM     14  H   UNL     1      22.841   3.398  43.108  1.00  0.00     0.211 HD
ENDBRANCH   6  13
BRANCH   7  15
ATOM     15  O   UNL     1      23.982   6.253  41.323  1.00  0.00    -0.385 OA
ATOM     16  H   UNL     1      23.510   6.029  42.167  1.00  0.00     0.211 HD
ENDBRANCH   7  15
ENDBRANCH   1   2
BRANCH   1  17
ATOM     17  C   UNL     1      24.689   4.349  37.078  1.00  0.00     0.224 C 
ATOM     18  C   UNL     1      24.040   3.280  36.163  1.00  0.00     0.208 C 
ATOM     19  O   UNL     1      24.182   5.622  36.693  1.00  0.00    -0.337 OA
ATOM     20  C   UNL     1      22.881   4.013  35.525  1.00  0.00     0.180 C 
ATOM     21  C   UNL     1      23.382   5.455  35.547  1.00  0.00     0.179 C 
BRANCH  17  22
ATOM     22  C   UNL     1      26.227   4.338  36.902  1.00  0.00     0.225 C 
BRANCH  22  23
ATOM     23  O   UNL     1      26.651   3.151  36.286  1.00  0.00    -0.391 OA
ATOM     24  H   UNL     1      27.071   2.593  36.991  1.00  0.00     0.210 HD
ENDBRANCH  22  23
ENDBRANCH  17  22
BRANCH  18  25
ATOM     25  O   UNL     1      23.618   2.149  36.886  1.00  0.00    -0.385 OA
ATOM     26  H   UNL     1      24.178   2.110  37.703  1.00  0.00     0.211 HD
ENDBRANCH  18  25
BRANCH  20  27
ATOM     27  O   UNL     1      21.682   3.838  36.245  1.00  0.00    -0.387 OA
ATOM     28  H   UNL     1      21.898   3.382  37.099  1.00  0.00     0.211 HD
ENDBRANCH  20  27
BRANCH  21  29
ATOM     29  C   UNL     1      22.270   6.514  35.522  1.00  0.00     0.191 C 
BRANCH  29  30
ATOM     30  O   UNL     1      22.007   6.987  36.816  1.00  0.00    -0.394 OA
ATOM     31  H   UNL     1      21.172   6.546  37.120  1.00  0.00     0.210 HD
ENDBRANCH  29  30
ENDBRANCH  21  29
ENDBRANCH   1  17
TORSDOF 13
ENDMDL
MODEL 3
REMARK VINA RESULT:    -6.110      2.848      5.056
REMARK INTER + INTRA:         -10.730
REMARK INTER:                  -8.854
REMARK INTRA:                  -1.875
REMARK UNBOUND:                -1.405
REMARK SMILES OC[C@H]1O[C@H](O[C@]2(CO)O[C@H](CO)[C@H](O)[C@@H]2O)[C@@H](O)[C@@H](O)[C@H]1O
REMARK SMILES IDX 6 1 5 2 3 3 22 4 4 5 20 6 18 7 2 8 1 9 23 11 21 13 19 15
REMARK SMILES IDX 7 17 16 18 10 19 14 20 11 21 8 22 9 23 17 25 15 27 12 29
REMARK SMILES IDX 13 30
REMARK H PARENT 1 10 23 12 21 14 19 16 9 24 17 26 15 28 13 31
REMARK Flexibility Score: inf
ROOT
ATOM      1  O   UNL     1      38.774   3.864  45.265  1.00  0.00    -0.313 OA
ENDROOT
BRANCH   1   2
ATOM      2  C   UNL     1      38.972   4.479  43.995  1.00  0.00     0.285 C 
ATOM      3  C   UNL     1      36.841   5.480  44.030  1.00  0.00     0.178 C 
ATOM      4  C   UNL     1      37.403   6.917  44.129  1.00  0.00     0.177 C 
ATOM      5  O   UNL     1      37.735   4.639  43.314  1.00  0.00    -0.341 OA
ATOM      6  C   UNL     1      38.767   6.857  44.842  1.00  0.00     0.179 C 
ATOM      7  C   UNL     1      39.702   5.830  44.171  1.00  0.00     0.202 C 
BRANCH   3   8
ATOM      8  C   UNL     1      35.472   5.442  43.334  1.00  0.00     0.191 C 
BRANCH   8   9
ATOM      9  O   UNL     1      35.610   5.558  41.943  1.00  0.00    -0.394 OA
ATOM     10  H   UNL     1      35.039   4.852  41.541  1.00  0.00     0.210 HD
ENDBRANCH   8   9
ENDBRANCH   3   8
BRANCH   4  11
ATOM     11  O   UNL     1      37.550   7.475  42.846  1.00  0.00    -0.387 OA
ATOM     12  H   UNL     1      36.961   6.960  42.234  1.00  0.00     0.211 HD
ENDBRANCH   4  11
BRANCH   6  13
ATOM     13  O   UNL     1      39.367   8.127  44.934  1.00  0.00    -0.387 OA
ATOM     14  H   UNL     1      38.684   8.773  45.250  1.00  0.00     0.211 HD
ENDBRANCH   6  13
BRANCH   7  15
ATOM     15  O   UNL     1      40.125   6.307  42.918  1.00  0.00    -0.385 OA
ATOM     16  H   UNL     1      40.802   5.665  42.578  1.00  0.00     0.211 HD
ENDBRANCH   7  15
ENDBRANCH   1   2
BRANCH   1  17
ATOM     17  C   UNL     1      39.131   2.483  45.299  1.00  0.00     0.224 C 
ATOM     18  C   UNL     1      37.847   1.639  45.498  1.00  0.00     0.208 C 
ATOM     19  O   UNL     1      39.733   2.084  44.072  1.00  0.00    -0.337 OA
ATOM     20  C   UNL     1      37.599   1.038  44.132  1.00  0.00     0.180 C 
ATOM     21  C   UNL     1      39.013   0.987  43.560  1.00  0.00     0.179 C 
BRANCH  17  22
ATOM     22  C   UNL     1      40.122   2.228  46.460  1.00  0.00     0.225 C 
BRANCH  22  23
ATOM     23  O   UNL     1      39.436   1.896  47.638  1.00  0.00    -0.391 OA
ATOM     24  H   UNL     1      38.489   2.161  47.506  1.00  0.00     0.210 HD
ENDBRANCH  22  23
ENDBRANCH  17  22
BRANCH  18  25
ATOM     25  O   UNL     1      36.762   2.419  45.938  1.00  0.00    -0.385 OA
ATOM     26  H   UNL     1      36.089   2.404  45.210  1.00  0.00     0.211 HD
ENDBRANCH  18  25
BRANCH  20  27
ATOM     27  O   UNL     1      36.723   1.825  43.358  1.00  0.00    -0.387 OA
ATOM     28  H   UNL     1      36.027   2.196  43.960  1.00  0.00     0.211 HD
ENDBRANCH  20  27
BRANCH  21  29
ATOM     29  C   UNL     1      39.078   0.985  42.025  1.00  0.00     0.191 C 
BRANCH  29  30
ATOM     30  O   UNL     1      39.073   2.296  41.528  1.00  0.00    -0.394 OA
ATOM     31  H   UNL     1      39.464   2.261  40.617  1.00  0.00     0.210 HD
ENDBRANCH  29  30
ENDBRANCH  21  29
ENDBRANCH   1  17
TORSDOF 13
ENDMDL
MODEL 4
REMARK VINA RESULT:    -6.103      4.352      6.511
REMARK INTER + INTRA:         -10.718
REMARK INTER:                  -9.826
REMARK INTRA:                  -0.893
REMARK UNBOUND:                -1.405
REMARK SMILES OC[C@H]1O[C@H](O[C@]2(CO)O[C@H](CO)[C@H](O)[C@@H]2O)[C@@H](O)[C@@H](O)[C@H]1O
REMARK SMILES IDX 6 1 5 2 3 3 22 4 4 5 20 6 18 7 2 8 1 9 23 11 21 13 19 15
REMARK SMILES IDX 7 17 16 18 10 19 14 20 11 21 8 22 9 23 17 25 15 27 12 29
REMARK SMILES IDX 13 30
REMARK H PARENT 1 10 23 12 21 14 19 16 9 24 17 26 15 28 13 31
REMARK Flexibility Score: inf
ROOT
ATOM      1  O   UNL     1      35.384   1.775  43.775  1.00  0.00    -0.313 OA
ENDROOT
BRANCH   1   2
ATOM      2  C   UNL     1      34.244   2.442  44.311  1.00  0.00     0.285 C 
ATOM      3  C   UNL     1      34.199   4.003  42.549  1.00  0.00     0.178 C 
ATOM      4  C   UNL     1      32.860   3.478  41.979  1.00  0.00     0.177 C 
ATOM      5  O   UNL     1      34.252   3.818  43.957  1.00  0.00    -0.341 OA
ATOM      6  C   UNL     1      32.739   1.983  42.326  1.00  0.00     0.179 C 
ATOM      7  C   UNL     1      32.951   1.741  43.835  1.00  0.00     0.202 C 
BRANCH   3   8
ATOM      8  C   UNL     1      34.410   5.494  42.245  1.00  0.00     0.191 C 
BRANCH   8   9
ATOM      9  O   UNL     1      35.718   5.739  41.802  1.00  0.00    -0.394 OA
ATOM     10  H   UNL     1      35.874   6.715  41.902  1.00  0.00     0.210 HD
ENDBRANCH   8   9
ENDBRANCH   3   8
BRANCH   4  11
ATOM     11  O   UNL     1      31.781   4.193  42.528  1.00  0.00    -0.387 OA
ATOM     12  H   UNL     1      31.218   3.541  43.022  1.00  0.00     0.211 HD
ENDBRANCH   4  11
BRANCH   6  13
ATOM     13  O   UNL     1      31.522   1.438  41.876  1.00  0.00    -0.387 OA
ATOM     14  H   UNL     1      31.531   1.429  40.884  1.00  0.00     0.211 HD
ENDBRANCH   6  13
BRANCH   7  15
ATOM     15  O   UNL     1      31.852   2.230  44.562  1.00  0.00    -0.385 OA
ATOM     16  H   UNL     1      31.223   1.472  44.680  1.00  0.00     0.211 HD
ENDBRANCH   7  15
ENDBRANCH   1   2
BRANCH   1  17
ATOM     17  C   UNL     1      36.579   1.980  44.527  1.00  0.00     0.224 C 
ATOM     18  C   UNL     1      37.496   0.743  44.358  1.00  0.00     0.208 C 
ATOM     19  O   UNL     1      37.287   3.120  44.052  1.00  0.00    -0.337 OA
ATOM     20  C   UNL     1      38.582   1.229  43.423  1.00  0.00     0.180 C 
ATOM     21  C   UNL     1      38.599   2.725  43.726  1.00  0.00     0.179 C 
BRANCH  17  22
ATOM     22  C   UNL     1      36.228   2.184  46.021  1.00  0.00     0.225 C 
BRANCH  22  23
ATOM     23  O   UNL     1      37.377   2.091  46.821  1.00  0.00    -0.391 OA
ATOM     24  H   UNL     1      37.344   2.847  47.463  1.00  0.00     0.210 HD
ENDBRANCH  22  23
ENDBRANCH  17  22
BRANCH  18  25
ATOM     25  O   UNL     1      36.803  -0.363  43.835  1.00  0.00    -0.385 OA
ATOM     26  H   UNL     1      37.017  -0.400  42.867  1.00  0.00     0.211 HD
ENDBRANCH  18  25
BRANCH  20  27
ATOM     27  O   UNL     1      38.286   0.946  42.074  1.00  0.00    -0.387 OA
ATOM     28  H   UNL     1      37.300   0.976  41.961  1.00  0.00     0.211 HD
ENDBRANCH  20  27
BRANCH  21  29
ATOM     29  C   UNL     1      39.143   3.597  42.585  1.00  0.00     0.191 C 
BRANCH  29  30
ATOM     30  O   UNL     1      38.279   4.672  42.328  1.00  0.00    -0.394 OA
ATOM     31  H   UNL     1      37.355   4.314  42.368  1.00  0.00     0.210 HD
ENDBRANCH  29  30
ENDBRANCH  21  29
ENDBRANCH   1  17
TORSDOF 13
ENDMDL
MODEL 5
REMARK VINA RESULT:    -6.094     13.274     16.113
REMARK INTER + INTRA:         -10.705
REMARK INTER:                  -8.979
REMARK INTRA:                  -1.726
REMARK UNBOUND:                -1.405
REMARK SMILES OC[C@H]1O[C@H](O[C@]2(CO)O[C@H](CO)[C@H](O)[C@@H]2O)[C@@H](O)[C@@H](O)[C@H]1O
REMARK SMILES IDX 6 1 5 2 3 3 22 4 4 5 20 6 18 7 2 8 1 9 23 11 21 13 19 15
REMARK SMILES IDX 7 17 16 18 10 19 14 20 11 21 8 22 9 23 17 25 15 27 12 29
REMARK SMILES IDX 13 30
REMARK H PARENT 1 10 23 12 21 14 19 16 9 24 17 26 15 28 13 31
REMARK Flexibility Score: inf
ROOT
ATOM      1  O   UNL     1      23.919   4.705  39.056  1.00  0.00    -0.313 OA
ENDROOT
BRANCH   1   2
ATOM      2  C   UNL     1      24.930   3.735  38.799  1.00  0.00     0.285 C 
ATOM      3  C   UNL     1      23.979   3.140  36.728  1.00  0.00     0.178 C 
ATOM      4  C   UNL     1      25.165   3.697  35.906  1.00  0.00     0.177 C 
ATOM      5  O   UNL     1      24.421   2.677  37.997  1.00  0.00    -0.341 OA
ATOM      6  C   UNL     1      25.808   4.849  36.700  1.00  0.00     0.179 C 
ATOM      7  C   UNL     1      26.154   4.410  38.138  1.00  0.00     0.202 C 
BRANCH   3   8
ATOM      8  C   UNL     1      23.270   1.983  36.007  1.00  0.00     0.191 C 
BRANCH   8   9
ATOM      9  O   UNL     1      23.795   0.744  36.402  1.00  0.00    -0.394 OA
ATOM     10  H   UNL     1      23.107   0.313  36.974  1.00  0.00     0.210 HD
ENDBRANCH   8   9
ENDBRANCH   3   8
BRANCH   4  11
ATOM     11  O   UNL     1      26.112   2.685  35.665  1.00  0.00    -0.387 OA
ATOM     12  H   UNL     1      26.850   2.813  36.317  1.00  0.00     0.211 HD
ENDBRANCH   4  11
BRANCH   6  13
ATOM     13  O   UNL     1      26.926   5.384  36.034  1.00  0.00    -0.387 OA
ATOM     14  H   UNL     1      26.632   5.720  35.149  1.00  0.00     0.211 HD
ENDBRANCH   6  13
BRANCH   7  15
ATOM     15  O   UNL     1      27.238   3.515  38.123  1.00  0.00    -0.385 OA
ATOM     16  H   UNL     1      27.796   3.724  38.917  1.00  0.00     0.211 HD
ENDBRANCH   7  15
ENDBRANCH   1   2
BRANCH   1  17
ATOM     17  C   UNL     1      23.145   4.436  40.224  1.00  0.00     0.224 C 
ATOM     18  C   UNL     1      21.666   4.796  39.939  1.00  0.00     0.208 C 
ATOM     19  O   UNL     1      23.204   3.056  40.565  1.00  0.00    -0.337 OA
ATOM     20  C   UNL     1      20.996   3.449  39.780  1.00  0.00     0.180 C 
ATOM     21  C   UNL     1      21.888   2.560  40.642  1.00  0.00     0.179 C 
BRANCH  17  22
ATOM     22  C   UNL     1      23.679   5.277  41.410  1.00  0.00     0.225 C 
BRANCH  22  23
ATOM     23  O   UNL     1      22.637   5.630  42.281  1.00  0.00    -0.391 OA
ATOM     24  H   UNL     1      21.919   4.955  42.162  1.00  0.00     0.210 HD
ENDBRANCH  22  23
ENDBRANCH  17  22
BRANCH  18  25
ATOM     25  O   UNL     1      21.527   5.596  38.790  1.00  0.00    -0.385 OA
ATOM     26  H   UNL     1      20.834   6.274  39.000  1.00  0.00     0.211 HD
ENDBRANCH  18  25
BRANCH  20  27
ATOM     27  O   UNL     1      20.948   3.036  38.433  1.00  0.00    -0.387 OA
ATOM     28  H   UNL     1      20.911   2.045  38.415  1.00  0.00     0.211 HD
ENDBRANCH  20  27
BRANCH  21  29
ATOM     29  C   UNL     1      21.862   1.073  40.260  1.00  0.00     0.191 C 
BRANCH  29  30
ATOM     30  O   UNL     1      22.828   0.797  39.281  1.00  0.00    -0.394 OA
ATOM     31  H   UNL     1      23.396   0.064  39.635  1.00  0.00     0.210 HD
ENDBRANCH  29  30
ENDBRANCH  21  29
ENDBRANCH   1  17
TORSDOF 13
ENDMDL
MODEL 6
REMARK VINA RESULT:    -6.084      3.543      6.230
REMARK INTER + INTRA:         -10.689
REMARK INTER:                  -9.488
REMARK INTRA:                  -1.201
REMARK UNBOUND:                -1.405
REMARK SMILES OC[C@H]1O[C@H](O[C@]2(CO)O[C@H](CO)[C@H](O)[C@@H]2O)[C@@H](O)[C@@H](O)[C@H]1O
REMARK SMILES IDX 6 1 5 2 3 3 22 4 4 5 20 6 18 7 2 8 1 9 23 11 21 13 19 15
REMARK SMILES IDX 7 17 16 18 10 19 14 20 11 21 8 22 9 23 17 25 15 27 12 29
REMARK SMILES IDX 13 30
REMARK H PARENT 1 10 23 12 21 14 19 16 9 24 17 26 15 28 13 31
REMARK Flexibility Score: inf
ROOT
ATOM      1  O   UNL     1      35.770   1.876  44.017  1.00  0.00    -0.313 OA
ENDROOT
BRANCH   1   2
ATOM      2  C   UNL     1      34.557   2.459  44.483  1.00  0.00     0.285 C 
ATOM      3  C   UNL     1      34.425   3.919  42.641  1.00  0.00     0.178 C 
ATOM      4  C   UNL     1      33.161   3.241  42.062  1.00  0.00     0.177 C 
ATOM      5  O   UNL     1      34.449   3.810  44.057  1.00  0.00    -0.341 OA
ATOM      6  C   UNL     1      33.167   1.760  42.484  1.00  0.00     0.179 C 
ATOM      7  C   UNL     1      33.351   1.616  44.009  1.00  0.00     0.202 C 
BRANCH   3   8
ATOM      8  C   UNL     1      34.507   5.406  42.264  1.00  0.00     0.191 C 
BRANCH   8   9
ATOM      9  O   UNL     1      35.818   5.769  41.923  1.00  0.00    -0.394 OA
ATOM     10  H   UNL     1      36.117   5.130  41.223  1.00  0.00     0.210 HD
ENDBRANCH   8   9
ENDBRANCH   3   8
BRANCH   4  11
ATOM     11  O   UNL     1      32.002   3.878  42.540  1.00  0.00    -0.387 OA
ATOM     12  H   UNL     1      32.201   4.850  42.590  1.00  0.00     0.211 HD
ENDBRANCH   4  11
BRANCH   6  13
ATOM     13  O   UNL     1      32.022   1.081  42.029  1.00  0.00    -0.387 OA
ATOM     14  H   UNL     1      32.034   1.077  41.037  1.00  0.00     0.211 HD
ENDBRANCH   6  13
BRANCH   7  15
ATOM     15  O   UNL     1      32.187   2.035  44.678  1.00  0.00    -0.385 OA
ATOM     16  H   UNL     1      31.428   1.892  44.055  1.00  0.00     0.211 HD
ENDBRANCH   7  15
ENDBRANCH   1   2
BRANCH   1  17
ATOM     17  C   UNL     1      36.897   2.147  44.849  1.00  0.00     0.224 C 
ATOM     18  C   UNL     1      38.192   1.939  44.023  1.00  0.00     0.208 C 
ATOM     19  O   UNL     1      36.880   3.495  45.305  1.00  0.00    -0.337 OA
ATOM     20  C   UNL     1      38.671   3.347  43.751  1.00  0.00     0.180 C 
ATOM     21  C   UNL     1      38.099   4.102  44.948  1.00  0.00     0.179 C 
BRANCH  17  22
ATOM     22  C   UNL     1      36.885   1.195  46.070  1.00  0.00     0.225 C 
BRANCH  22  23
ATOM     23  O   UNL     1      37.002   1.918  47.267  1.00  0.00    -0.391 OA
ATOM     24  H   UNL     1      37.009   2.880  47.025  1.00  0.00     0.210 HD
ENDBRANCH  22  23
ENDBRANCH  17  22
BRANCH  18  25
ATOM     25  O   UNL     1      37.954   1.221  42.837  1.00  0.00    -0.385 OA
ATOM     26  H   UNL     1      38.833   1.112  42.391  1.00  0.00     0.211 HD
ENDBRANCH  18  25
BRANCH  20  27
ATOM     27  O   UNL     1      38.200   3.838  42.516  1.00  0.00    -0.387 OA
ATOM     28  H   UNL     1      38.754   3.443  41.795  1.00  0.00     0.211 HD
ENDBRANCH  20  27
BRANCH  21  29
ATOM     29  C   UNL     1      37.890   5.604  44.710  1.00  0.00     0.191 C 
BRANCH  29  30
ATOM     30  O   UNL     1      36.547   5.955  44.910  1.00  0.00    -0.394 OA
ATOM     31  H   UNL     1      36.513   6.509  45.733  1.00  0.00     0.210 HD
ENDBRANCH  29  30
ENDBRANCH  21  29
ENDBRANCH   1  17
TORSDOF 13
ENDMDL
MODEL 7
REMARK VINA RESULT:    -5.913      4.871      7.671
REMARK INTER + INTRA:         -10.428
REMARK INTER:                  -9.263
REMARK INTRA:                  -1.165
REMARK UNBOUND:                -1.405
REMARK SMILES OC[C@H]1O[C@H](O[C@]2(CO)O[C@H](CO)[C@H](O)[C@@H]2O)[C@@H](O)[C@@H](O)[C@H]1O
REMARK SMILES IDX 6 1 5 2 3 3 22 4 4 5 20 6 18 7 2 8 1 9 23 11 21 13 19 15
REMARK SMILES IDX 7 17 16 18 10 19 14 20 11 21 8 22 9 23 17 25 15 27 12 29
REMARK SMILES IDX 13 30
REMARK H PARENT 1 10 23 12 21 14 19 16 9 24 17 26 15 28 13 31
REMARK Flexibility Score: inf
ROOT
ATOM      1  O   UNL     1      37.431   1.452  46.039  1.00  0.00    -0.313 OA
ENDROOT
BRANCH   1   2
ATOM      2  C   UNL     1      37.387   1.871  44.678  1.00  0.00     0.285 C 
ATOM      3  C   UNL     1      35.042   2.079  44.707  1.00  0.00     0.178 C 
ATOM      4  C   UNL     1      35.072   3.616  44.539  1.00  0.00     0.177 C 
ATOM      5  O   UNL     1      36.163   1.483  44.070  1.00  0.00    -0.341 OA
ATOM      6  C   UNL     1      36.381   4.146  45.155  1.00  0.00     0.179 C 
ATOM      7  C   UNL     1      37.606   3.399  44.589  1.00  0.00     0.202 C 
BRANCH   3   8
ATOM      8  C   UNL     1      33.763   1.460  44.123  1.00  0.00     0.191 C 
BRANCH   8   9
ATOM      9  O   UNL     1      32.625   1.911  44.809  1.00  0.00    -0.394 OA
ATOM     10  H   UNL     1      31.839   1.627  44.272  1.00  0.00     0.210 HD
ENDBRANCH   8   9
ENDBRANCH   3   8
BRANCH   4  11
ATOM     11  O   UNL     1      35.001   3.962  43.178  1.00  0.00    -0.387 OA
ATOM     12  H   UNL     1      34.733   4.917  43.132  1.00  0.00     0.211 HD
ENDBRANCH   4  11
BRANCH   6  13
ATOM     13  O   UNL     1      36.504   5.540  45.005  1.00  0.00    -0.387 OA
ATOM     14  H   UNL     1      37.123   5.876  45.703  1.00  0.00     0.211 HD
ENDBRANCH   6  13
BRANCH   7  15
ATOM     15  O   UNL     1      37.822   3.769  43.250  1.00  0.00    -0.385 OA
ATOM     16  H   UNL     1      37.675   4.749  43.194  1.00  0.00     0.211 HD
ENDBRANCH   7  15
ENDBRANCH   1   2
BRANCH   1  17
ATOM     17  C   UNL     1      38.545   0.618  46.352  1.00  0.00     0.224 C 
ATOM     18  C   UNL     1      38.195  -0.243  47.591  1.00  0.00     0.208 C 
ATOM     19  O   UNL     1      38.836  -0.264  45.273  1.00  0.00    -0.337 OA
ATOM     20  C   UNL     1      37.950  -1.619  47.012  1.00  0.00     0.180 C 
ATOM     21  C   UNL     1      38.824  -1.585  45.761  1.00  0.00     0.179 C 
BRANCH  17  22
ATOM     22  C   UNL     1      39.788   1.494  46.644  1.00  0.00     0.225 C 
BRANCH  22  23
ATOM     23  O   UNL     1      39.867   1.806  48.010  1.00  0.00    -0.391 OA
ATOM     24  H   UNL     1      40.732   1.448  48.339  1.00  0.00     0.210 HD
ENDBRANCH  22  23
ENDBRANCH  17  22
BRANCH  18  25
ATOM     25  O   UNL     1      37.071   0.250  48.279  1.00  0.00    -0.385 OA
ATOM     26  H   UNL     1      36.594   0.849  47.648  1.00  0.00     0.211 HD
ENDBRANCH  18  25
BRANCH  20  27
ATOM     27  O   UNL     1      36.587  -1.838  46.723  1.00  0.00    -0.387 OA
ATOM     28  H   UNL     1      36.132  -2.102  47.563  1.00  0.00     0.211 HD
ENDBRANCH  20  27
BRANCH  21  29
ATOM     29  C   UNL     1      38.385  -2.553  44.653  1.00  0.00     0.191 C 
BRANCH  29  30
ATOM     30  O   UNL     1      37.372  -1.981  43.869  1.00  0.00    -0.394 OA
ATOM     31  H   UNL     1      37.490  -2.329  42.948  1.00  0.00     0.210 HD
ENDBRANCH  29  30
ENDBRANCH  21  29
ENDBRANCH   1  17
TORSDOF 13
ENDMDL
MODEL 8
REMARK VINA RESULT:    -5.840      4.153      6.620
REMARK INTER + INTRA:         -10.317
REMARK INTER:                  -9.388
REMARK INTRA:                  -0.930
REMARK UNBOUND:                -1.405
REMARK SMILES OC[C@H]1O[C@H](O[C@]2(CO)O[C@H](CO)[C@H](O)[C@@H]2O)[C@@H](O)[C@@H](O)[C@H]1O
REMARK SMILES IDX 6 1 5 2 3 3 22 4 4 5 20 6 18 7 2 8 1 9 23 11 21 13 19 15
REMARK SMILES IDX 7 17 16 18 10 19 14 20 11 21 8 22 9 23 17 25 15 27 12 29
REMARK SMILES IDX 13 30
REMARK H PARENT 1 10 23 12 21 14 19 16 9 24 17 26 15 28 13 31
REMARK Flexibility Score: inf
ROOT
ATOM      1  O   UNL     1      37.626   2.068  45.452  1.00  0.00    -0.313 OA
ENDROOT
BRANCH   1   2
ATOM      2  C   UNL     1      37.328   2.559  44.148  1.00  0.00     0.285 C 
ATOM      3  C   UNL     1      35.051   2.857  44.666  1.00  0.00     0.178 C 
ATOM      4  C   UNL     1      35.122   4.399  44.564  1.00  0.00     0.177 C 
ATOM      5  O   UNL     1      35.988   2.252  43.787  1.00  0.00    -0.341 OA
ATOM      6  C   UNL     1      36.553   4.844  44.921  1.00  0.00     0.179 C 
ATOM      7  C   UNL     1      37.599   4.080  44.083  1.00  0.00     0.202 C 
BRANCH   3   8
ATOM      8  C   UNL     1      33.651   2.321  44.330  1.00  0.00     0.191 C 
BRANCH   8   9
ATOM      9  O   UNL     1      33.469   2.216  42.943  1.00  0.00    -0.394 OA
ATOM     10  H   UNL     1      33.225   3.123  42.620  1.00  0.00     0.210 HD
ENDBRANCH   8   9
ENDBRANCH   3   8
BRANCH   4  11
ATOM     11  O   UNL     1      34.793   4.819  43.262  1.00  0.00    -0.387 OA
ATOM     12  H   UNL     1      35.647   5.003  42.790  1.00  0.00     0.211 HD
ENDBRANCH   4  11
BRANCH   6  13
ATOM     13  O   UNL     1      36.711   6.237  44.810  1.00  0.00    -0.387 OA
ATOM     14  H   UNL     1      35.838   6.632  44.556  1.00  0.00     0.211 HD
ENDBRANCH   6  13
BRANCH   7  15
ATOM     15  O   UNL     1      37.557   4.512  42.746  1.00  0.00    -0.385 OA
ATOM     16  H   UNL     1      37.775   3.724  42.182  1.00  0.00     0.211 HD
ENDBRANCH   7  15
ENDBRANCH   1   2
BRANCH   1  17
ATOM     17  C   UNL     1      38.374   0.853  45.454  1.00  0.00     0.224 C 
ATOM     18  C   UNL     1      39.828   1.160  45.892  1.00  0.00     0.208 C 
ATOM     19  O   UNL     1      37.824  -0.080  46.379  1.00  0.00    -0.337 OA
ATOM     20  C   UNL     1      39.894   0.631  47.307  1.00  0.00     0.180 C 
ATOM     21  C   UNL     1      38.841  -0.474  47.270  1.00  0.00     0.179 C 
BRANCH  17  22
ATOM     22  C   UNL     1      38.364   0.231  44.036  1.00  0.00     0.225 C 
BRANCH  22  23
ATOM     23  O   UNL     1      37.221  -0.562  43.847  1.00  0.00    -0.391 OA
ATOM     24  H   UNL     1      36.588  -0.336  44.577  1.00  0.00     0.210 HD
ENDBRANCH  22  23
ENDBRANCH  17  22
BRANCH  18  25
ATOM     25  O   UNL     1      40.123   2.534  45.826  1.00  0.00    -0.385 OA
ATOM     26  H   UNL     1      40.153   2.862  46.761  1.00  0.00     0.211 HD
ENDBRANCH  18  25
BRANCH  20  27
ATOM     27  O   UNL     1      39.606   1.629  48.261  1.00  0.00    -0.387 OA
ATOM     28  H   UNL     1      38.699   1.458  48.623  1.00  0.00     0.211 HD
ENDBRANCH  20  27
BRANCH  21  29
ATOM     29  C   UNL     1      38.236  -0.822  48.638  1.00  0.00     0.191 C 
BRANCH  29  30
ATOM     30  O   UNL     1      37.191   0.058  48.955  1.00  0.00    -0.394 OA
ATOM     31  H   UNL     1      36.530  -0.459  49.484  1.00  0.00     0.210 HD
ENDBRANCH  29  30
ENDBRANCH  21  29
ENDBRANCH   1  17
TORSDOF 13
ENDMDL
