MODEL 1
REMARK VINA RESULT:    -5.158      0.000      0.000
REMARK INTER + INTRA:         -11.721
REMARK INTER:                  -9.681
REMARK INTRA:                  -2.040
REMARK UNBOUND:                -2.040
REMARK SMILES O=C([O-])CCCCCCCCCCCCCCC(=O)[O-]
REMARK SMILES IDX 10 1 9 2 8 3 7 4 6 5 5 6 4 7 2 8 1 9 3 10 11 11 12 12 13 13
REMARK SMILES IDX 14 14 15 15 16 16 17 17 18 18 19 19 20 20
REMARK H PARENT
REMARK Flexibility Score: inf
ROOT
ATOM      1  C   UNL     1      40.582  -9.170 -41.552  1.00  0.00     0.000 C 
ENDROOT
BRANCH   1   2
ATOM      2  C   UNL     1      40.629 -10.494 -42.337  1.00  0.00     0.000 C 
BRANCH   2   3
ATOM      3  C   UNL     1      41.978 -10.806 -43.019  1.00  0.00     0.000 C 
BRANCH   3   4
ATOM      4  C   UNL     1      43.224 -10.603 -42.134  1.00  0.00     0.000 C 
BRANCH   4   5
ATOM      5  C   UNL     1      43.547 -11.776 -41.192  1.00  0.00     0.000 C 
BRANCH   5   6
ATOM      6  C   UNL     1      44.701 -11.466 -40.227  1.00  0.00     0.006 C 
BRANCH   6   7
ATOM      7  C   UNL     1      45.030 -12.682 -39.359  1.00  0.00     0.053 C 
BRANCH   7   8
ATOM      8  C   UNL     1      46.504 -12.766 -39.108  1.00  0.00     0.041 C 
ATOM      9  O   UNL     1      47.316 -12.275 -39.935  1.00  0.00    -0.550 OA
ATOM     10  O   UNL     1      46.980 -13.429 -37.984  1.00  0.00    -0.550 OA
ENDBRANCH   7   8
ENDBRANCH   6   7
ENDBRANCH   5   6
ENDBRANCH   4   5
ENDBRANCH   3   4
ENDBRANCH   2   3
ENDBRANCH   1   2
BRANCH   1  11
ATOM     11  C   UNL     1      40.525  -9.381 -40.031  1.00  0.00     0.000 C 
BRANCH  11  12
ATOM     12  C   UNL     1      41.834  -8.990 -39.319  1.00  0.00     0.000 C 
BRANCH  12  13
ATOM     13  C   UNL     1      42.116  -9.738 -38.003  1.00  0.00     0.000 C 
BRANCH  13  14
ATOM     14  C   UNL     1      41.688 -11.212 -38.043  1.00  0.00     0.000 C 
BRANCH  14  15
ATOM     15  C   UNL     1      42.258 -11.983 -36.844  1.00  0.00     0.000 C 
BRANCH  15  16
ATOM     16  C   UNL     1      43.534 -11.340 -36.270  1.00  0.00     0.006 C 
BRANCH  16  17
ATOM     17  C   UNL     1      44.501 -12.331 -35.602  1.00  0.00     0.053 C 
BRANCH  17  18
ATOM     18  C   UNL     1      44.163 -12.564 -34.162  1.00  0.00     0.041 C 
ATOM     19  O   UNL     1      44.663 -13.539 -33.543  1.00  0.00    -0.550 OA
ATOM     20  O   UNL     1      43.265 -11.724 -33.514  1.00  0.00    -0.550 OA
ENDBRANCH  17  18
ENDBRANCH  16  17
ENDBRANCH  15  16
ENDBRANCH  14  15
ENDBRANCH  13  14
ENDBRANCH  12  13
ENDBRANCH  11  12
ENDBRANCH   1  11
TORSDOF 15
ENDMDL
MODEL 2
REMARK VINA RESULT:    -5.061      1.844      4.270
REMARK INTER + INTRA:         -11.538
REMARK INTER:                  -9.773
REMARK INTRA:                  -1.765
REMARK UNBOUND:                -2.040
REMARK SMILES O=C([O-])CCCCCCCCCCCCCCC(=O)[O-]
REMARK SMILES IDX 10 1 9 2 8 3 7 4 6 5 5 6 4 7 2 8 1 9 3 10 11 11 12 12 13 13
REMARK SMILES IDX 14 14 15 15 16 16 17 17 18 18 19 19 20 20
REMARK H PARENT
REMARK Flexibility Score: inf
ROOT
ATOM      1  C   UNL     1      42.009 -10.452 -41.946  1.00  0.00     0.000 C 
ENDROOT
BRANCH   1   2
ATOM      2  C   UNL     1      41.017 -10.155 -40.806  1.00  0.00     0.000 C 
BRANCH   2   3
ATOM      3  C   UNL     1      41.654  -9.622 -39.505  1.00  0.00     0.000 C 
BRANCH   3   4
ATOM      4  C   UNL     1      41.666 -10.614 -38.325  1.00  0.00     0.000 C 
BRANCH   4   5
ATOM      5  C   UNL     1      42.852 -10.454 -37.356  1.00  0.00     0.000 C 
BRANCH   5   6
ATOM      6  C   UNL     1      43.328 -11.791 -36.770  1.00  0.00     0.006 C 
BRANCH   6   7
ATOM      7  C   UNL     1      44.050 -11.578 -35.437  1.00  0.00     0.053 C 
BRANCH   7   8
ATOM      8  C   UNL     1      43.235 -12.121 -34.305  1.00  0.00     0.041 C 
ATOM      9  O   UNL     1      43.269 -11.564 -33.176  1.00  0.00    -0.550 OA
ATOM     10  O   UNL     1      42.475 -13.270 -34.484  1.00  0.00    -0.550 OA
ENDBRANCH   7   8
ENDBRANCH   6   7
ENDBRANCH   5   6
ENDBRANCH   4   5
ENDBRANCH   3   4
ENDBRANCH   2   3
ENDBRANCH   1   2
BRANCH   1  11
ATOM     11  C   UNL     1      43.476 -10.374 -41.495  1.00  0.00     0.000 C 
BRANCH  11  12
ATOM     12  C   UNL     1      44.065 -11.748 -41.122  1.00  0.00     0.000 C 
BRANCH  12  13
ATOM     13  C   UNL     1      45.076 -11.737 -39.961  1.00  0.00     0.000 C 
BRANCH  13  14
ATOM     14  C   UNL     1      45.582 -13.138 -39.587  1.00  0.00     0.000 C 
BRANCH  14  15
ATOM     15  C   UNL     1      46.703 -13.057 -38.541  1.00  0.00     0.000 C 
BRANCH  15  16
ATOM     16  C   UNL     1      46.391 -13.863 -37.266  1.00  0.00     0.006 C 
BRANCH  16  17
ATOM     17  C   UNL     1      47.350 -13.593 -36.095  1.00  0.00     0.053 C 
BRANCH  17  18
ATOM     18  C   UNL     1      46.844 -14.170 -34.809  1.00  0.00     0.041 C 
ATOM     19  O   UNL     1      47.583 -14.195 -33.791  1.00  0.00    -0.550 OA
ATOM     20  O   UNL     1      45.567 -14.715 -34.746  1.00  0.00    -0.550 OA
ENDBRANCH  17  18
ENDBRANCH  16  17
ENDBRANCH  15  16
ENDBRANCH  14  15
ENDBRANCH  13  14
ENDBRANCH  12  13
ENDBRANCH  11  12
ENDBRANCH   1  11
TORSDOF 15
ENDMDL
MODEL 3
REMARK VINA RESULT:    -5.053      3.190      7.265
REMARK INTER + INTRA:         -11.525
REMARK INTER:                  -9.476
REMARK INTRA:                  -2.049
REMARK UNBOUND:                -2.040
REMARK SMILES O=C([O-])CCCCCCCCCCCCCCC(=O)[O-]
REMARK SMILES IDX 10 1 9 2 8 3 7 4 6 5 5 6 4 7 2 8 1 9 3 10 11 11 12 12 13 13
REMARK SMILES IDX 14 14 15 15 16 16 17 17 18 18 19 19 20 20
REMARK H PARENT
REMARK Flexibility Score: inf
ROOT
ATOM      1  C   UNL     1      44.288 -15.015 -32.874  1.00  0.00     0.000 C 
ENDROOT
BRANCH   1   2
ATOM      2  C   UNL     1      43.752 -15.600 -34.193  1.00  0.00     0.000 C 
BRANCH   2   3
ATOM      3  C   UNL     1      44.147 -14.821 -35.465  1.00  0.00     0.000 C 
BRANCH   3   4
ATOM      4  C   UNL     1      43.174 -13.699 -35.877  1.00  0.00     0.000 C 
BRANCH   4   5
ATOM      5  C   UNL     1      43.397 -12.354 -35.163  1.00  0.00     0.000 C 
BRANCH   5   6
ATOM      6  C   UNL     1      44.216 -11.361 -36.001  1.00  0.00     0.006 C 
BRANCH   6   7
ATOM      7  C   UNL     1      43.677 -11.278 -37.431  1.00  0.00     0.053 C 
BRANCH   7   8
ATOM      8  C   UNL     1      42.378 -10.533 -37.462  1.00  0.00     0.041 C 
ATOM      9  O   UNL     1      41.288 -11.162 -37.494  1.00  0.00    -0.550 OA
ATOM     10  O   UNL     1      42.375  -9.145 -37.503  1.00  0.00    -0.550 OA
ENDBRANCH   7   8
ENDBRANCH   6   7
ENDBRANCH   5   6
ENDBRANCH   4   5
ENDBRANCH   3   4
ENDBRANCH   2   3
ENDBRANCH   1   2
BRANCH   1  11
ATOM     11  C   UNL     1      45.767 -15.358 -32.627  1.00  0.00     0.000 C 
BRANCH  11  12
ATOM     12  C   UNL     1      46.656 -14.110 -32.470  1.00  0.00     0.000 C 
BRANCH  12  13
ATOM     13  C   UNL     1      47.848 -14.025 -33.441  1.00  0.00     0.000 C 
BRANCH  13  14
ATOM     14  C   UNL     1      47.555 -13.170 -34.682  1.00  0.00     0.000 C 
BRANCH  14  15
ATOM     15  C   UNL     1      47.494 -14.039 -35.946  1.00  0.00     0.000 C 
BRANCH  15  16
ATOM     16  C   UNL     1      47.230 -13.221 -37.224  1.00  0.00     0.006 C 
BRANCH  16  17
ATOM     17  C   UNL     1      46.303 -13.909 -38.239  1.00  0.00     0.053 C 
BRANCH  17  18
ATOM     18  C   UNL     1      46.136 -13.101 -39.488  1.00  0.00     0.041 C 
ATOM     19  O   UNL     1      45.038 -13.103 -40.103  1.00  0.00    -0.550 OA
ATOM     20  O   UNL     1      47.207 -12.374 -39.995  1.00  0.00    -0.550 OA
ENDBRANCH  17  18
ENDBRANCH  16  17
ENDBRANCH  15  16
ENDBRANCH  14  15
ENDBRANCH  13  14
ENDBRANCH  12  13
ENDBRANCH  11  12
ENDBRANCH   1  11
TORSDOF 15
ENDMDL
MODEL 4
REMARK VINA RESULT:    -5.036      3.058      5.392
REMARK INTER + INTRA:         -11.493
REMARK INTER:                  -9.545
REMARK INTRA:                  -1.948
REMARK UNBOUND:                -2.040
REMARK SMILES O=C([O-])CCCCCCCCCCCCCCC(=O)[O-]
REMARK SMILES IDX 10 1 9 2 8 3 7 4 6 5 5 6 4 7 2 8 1 9 3 10 11 11 12 12 13 13
REMARK SMILES IDX 14 14 15 15 16 16 17 17 18 18 19 19 20 20
REMARK H PARENT
REMARK Flexibility Score: inf
ROOT
ATOM      1  C   UNL     1      44.296 -11.866 -40.352  1.00  0.00     0.000 C 
ENDROOT
BRANCH   1   2
ATOM      2  C   UNL     1      43.300 -11.441 -39.257  1.00  0.00     0.000 C 
BRANCH   2   3
ATOM      3  C   UNL     1      43.884 -10.529 -38.157  1.00  0.00     0.000 C 
BRANCH   3   4
ATOM      4  C   UNL     1      44.056 -11.193 -36.776  1.00  0.00     0.000 C 
BRANCH   4   5
ATOM      5  C   UNL     1      43.437 -12.596 -36.650  1.00  0.00     0.000 C 
BRANCH   5   6
ATOM      6  C   UNL     1      42.424 -12.701 -35.501  1.00  0.00     0.006 C 
BRANCH   6   7
ATOM      7  C   UNL     1      42.980 -13.553 -34.357  1.00  0.00     0.053 C 
BRANCH   7   8
ATOM      8  C   UNL     1      43.600 -12.684 -33.307  1.00  0.00     0.041 C 
ATOM      9  O   UNL     1      43.222 -11.491 -33.169  1.00  0.00    -0.550 OA
ATOM     10  O   UNL     1      44.627 -13.178 -32.515  1.00  0.00    -0.550 OA
ENDBRANCH   7   8
ENDBRANCH   6   7
ENDBRANCH   5   6
ENDBRANCH   4   5
ENDBRANCH   3   4
ENDBRANCH   2   3
ENDBRANCH   1   2
BRANCH   1  11
ATOM     11  C   UNL     1      45.283 -12.942 -39.872  1.00  0.00     0.000 C 
BRANCH  11  12
ATOM     12  C   UNL     1      46.703 -12.393 -39.636  1.00  0.00     0.000 C 
BRANCH  12  13
ATOM     13  C   UNL     1      47.384 -12.868 -38.338  1.00  0.00     0.000 C 
BRANCH  13  14
ATOM     14  C   UNL     1      46.547 -13.891 -37.557  1.00  0.00     0.000 C 
BRANCH  14  15
ATOM     15  C   UNL     1      47.274 -14.335 -36.279  1.00  0.00     0.000 C 
BRANCH  15  16
ATOM     16  C   UNL     1      47.271 -13.254 -35.183  1.00  0.00     0.006 C 
BRANCH  16  17
ATOM     17  C   UNL     1      48.462 -13.329 -34.213  1.00  0.00     0.053 C 
BRANCH  17  18
ATOM     18  C   UNL     1      48.029 -13.624 -32.810  1.00  0.00     0.041 C 
ATOM     19  O   UNL     1      47.663 -14.785 -32.491  1.00  0.00    -0.550 OA
ATOM     20  O   UNL     1      47.994 -12.606 -31.865  1.00  0.00    -0.550 OA
ENDBRANCH  17  18
ENDBRANCH  16  17
ENDBRANCH  15  16
ENDBRANCH  14  15
ENDBRANCH  13  14
ENDBRANCH  12  13
ENDBRANCH  11  12
ENDBRANCH   1  11
TORSDOF 15
ENDMDL
MODEL 5
REMARK VINA RESULT:    -5.018      2.612      4.340
REMARK INTER + INTRA:         -11.459
REMARK INTER:                  -9.448
REMARK INTRA:                  -2.011
REMARK UNBOUND:                -2.040
REMARK SMILES O=C([O-])CCCCCCCCCCCCCCC(=O)[O-]
REMARK SMILES IDX 10 1 9 2 8 3 7 4 6 5 5 6 4 7 2 8 1 9 3 10 11 11 12 12 13 13
REMARK SMILES IDX 14 14 15 15 16 16 17 17 18 18 19 19 20 20
REMARK H PARENT
REMARK Flexibility Score: inf
ROOT
ATOM      1  C   UNL     1      44.053 -12.000 -40.755  1.00  0.00     0.000 C 
ENDROOT
BRANCH   1   2
ATOM      2  C   UNL     1      45.220 -11.942 -39.752  1.00  0.00     0.000 C 
BRANCH   2   3
ATOM      3  C   UNL     1      45.740 -13.312 -39.271  1.00  0.00     0.000 C 
BRANCH   3   4
ATOM      4  C   UNL     1      46.659 -13.269 -38.033  1.00  0.00     0.000 C 
BRANCH   4   5
ATOM      5  C   UNL     1      46.103 -13.983 -36.788  1.00  0.00     0.000 C 
BRANCH   5   6
ATOM      6  C   UNL     1      47.165 -14.199 -35.700  1.00  0.00     0.006 C 
BRANCH   6   7
ATOM      7  C   UNL     1      47.157 -13.049 -34.691  1.00  0.00     0.053 C 
BRANCH   7   8
ATOM      8  C   UNL     1      47.597 -13.529 -33.343  1.00  0.00     0.041 C 
ATOM      9  O   UNL     1      47.287 -14.684 -32.950  1.00  0.00    -0.550 OA
ATOM     10  O   UNL     1      48.309 -12.683 -32.503  1.00  0.00    -0.550 OA
ENDBRANCH   7   8
ENDBRANCH   6   7
ENDBRANCH   5   6
ENDBRANCH   4   5
ENDBRANCH   3   4
ENDBRANCH   2   3
ENDBRANCH   1   2
BRANCH   1  11
ATOM     11  C   UNL     1      42.946 -10.980 -40.440  1.00  0.00     0.000 C 
BRANCH  11  12
ATOM     12  C   UNL     1      42.892 -10.591 -38.951  1.00  0.00     0.000 C 
BRANCH  12  13
ATOM     13  C   UNL     1      41.586 -10.955 -38.222  1.00  0.00     0.000 C 
BRANCH  13  14
ATOM     14  C   UNL     1      41.821 -11.624 -36.860  1.00  0.00     0.000 C 
BRANCH  14  15
ATOM     15  C   UNL     1      43.300 -11.548 -36.457  1.00  0.00     0.000 C 
BRANCH  15  16
ATOM     16  C   UNL     1      43.556 -12.038 -35.020  1.00  0.00     0.006 C 
BRANCH  16  17
ATOM     17  C   UNL     1      42.984 -13.431 -34.713  1.00  0.00     0.053 C 
BRANCH  17  18
ATOM     18  C   UNL     1      43.790 -14.157 -33.680  1.00  0.00     0.041 C 
ATOM     19  O   UNL     1      44.104 -13.585 -32.604  1.00  0.00    -0.550 OA
ATOM     20  O   UNL     1      44.228 -15.453 -33.925  1.00  0.00    -0.550 OA
ENDBRANCH  17  18
ENDBRANCH  16  17
ENDBRANCH  15  16
ENDBRANCH  14  15
ENDBRANCH  13  14
ENDBRANCH  12  13
ENDBRANCH  11  12
ENDBRANCH   1  11
TORSDOF 15
ENDMDL
MODEL 6
REMARK VINA RESULT:    -4.990      2.798      6.809
REMARK INTER + INTRA:         -11.407
REMARK INTER:                  -9.525
REMARK INTRA:                  -1.881
REMARK UNBOUND:                -2.040
REMARK SMILES O=C([O-])CCCCCCCCCCCCCCC(=O)[O-]
REMARK SMILES IDX 10 1 9 2 8 3 7 4 6 5 5 6 4 7 2 8 1 9 3 10 11 11 12 12 13 13
REMARK SMILES IDX 14 14 15 15 16 16 17 17 18 18 19 19 20 20
REMARK H PARENT
REMARK Flexibility Score: inf
ROOT
ATOM      1  C   UNL     1      44.215 -14.896 -34.133  1.00  0.00     0.000 C 
ENDROOT
BRANCH   1   2
ATOM      2  C   UNL     1      43.614 -13.503 -33.867  1.00  0.00     0.000 C 
BRANCH   2   3
ATOM      3  C   UNL     1      42.583 -13.022 -34.910  1.00  0.00     0.000 C 
BRANCH   3   4
ATOM      4  C   UNL     1      43.165 -12.671 -36.294  1.00  0.00     0.000 C 
BRANCH   4   5
ATOM      5  C   UNL     1      43.883 -11.312 -36.369  1.00  0.00     0.000 C 
BRANCH   5   6
ATOM      6  C   UNL     1      43.331 -10.405 -37.478  1.00  0.00     0.006 C 
BRANCH   6   7
ATOM      7  C   UNL     1      44.211 -10.471 -38.728  1.00  0.00     0.053 C 
BRANCH   7   8
ATOM      8  C   UNL     1      43.370 -10.640 -39.955  1.00  0.00     0.041 C 
ATOM      9  O   UNL     1      42.283 -11.271 -39.895  1.00  0.00    -0.550 OA
ATOM     10  O   UNL     1      43.811 -10.141 -41.174  1.00  0.00    -0.550 OA
ENDBRANCH   7   8
ENDBRANCH   6   7
ENDBRANCH   5   6
ENDBRANCH   4   5
ENDBRANCH   3   4
ENDBRANCH   2   3
ENDBRANCH   1   2
BRANCH   1  11
ATOM     11  C   UNL     1      45.175 -15.352 -33.023  1.00  0.00     0.000 C 
BRANCH  11  12
ATOM     12  C   UNL     1      46.131 -14.237 -32.559  1.00  0.00     0.000 C 
BRANCH  12  13
ATOM     13  C   UNL     1      47.629 -14.592 -32.606  1.00  0.00     0.000 C 
BRANCH  13  14
ATOM     14  C   UNL     1      48.424 -13.724 -33.593  1.00  0.00     0.000 C 
BRANCH  14  15
ATOM     15  C   UNL     1      47.486 -13.004 -34.572  1.00  0.00     0.000 C 
BRANCH  15  16
ATOM     16  C   UNL     1      47.783 -13.341 -36.044  1.00  0.00     0.006 C 
BRANCH  16  17
ATOM     17  C   UNL     1      46.584 -13.909 -36.821  1.00  0.00     0.053 C 
BRANCH  17  18
ATOM     18  C   UNL     1      46.553 -13.430 -38.239  1.00  0.00     0.041 C 
ATOM     19  O   UNL     1      47.468 -12.686 -38.677  1.00  0.00    -0.550 OA
ATOM     20  O   UNL     1      45.491 -13.776 -39.067  1.00  0.00    -0.550 OA
ENDBRANCH  17  18
ENDBRANCH  16  17
ENDBRANCH  15  16
ENDBRANCH  14  15
ENDBRANCH  13  14
ENDBRANCH  12  13
ENDBRANCH  11  12
ENDBRANCH   1  11
TORSDOF 15
ENDMDL
MODEL 7
REMARK VINA RESULT:    -4.963      1.360      2.463
REMARK INTER + INTRA:         -11.356
REMARK INTER:                  -9.592
REMARK INTRA:                  -1.764
REMARK UNBOUND:                -2.040
REMARK SMILES O=C([O-])CCCCCCCCCCCCCCC(=O)[O-]
REMARK SMILES IDX 10 1 9 2 8 3 7 4 6 5 5 6 4 7 2 8 1 9 3 10 11 11 12 12 13 13
REMARK SMILES IDX 14 14 15 15 16 16 17 17 18 18 19 19 20 20
REMARK H PARENT
REMARK Flexibility Score: inf
ROOT
ATOM      1  C   UNL     1      41.890  -8.952 -38.678  1.00  0.00     0.000 C 
ENDROOT
BRANCH   1   2
ATOM      2  C   UNL     1      41.351  -9.647 -39.943  1.00  0.00     0.000 C 
BRANCH   2   3
ATOM      3  C   UNL     1      42.168  -9.397 -41.228  1.00  0.00     0.000 C 
BRANCH   3   4
ATOM      4  C   UNL     1      43.473 -10.208 -41.345  1.00  0.00     0.000 C 
BRANCH   4   5
ATOM      5  C   UNL     1      43.383 -11.659 -40.838  1.00  0.00     0.000 C 
BRANCH   5   6
ATOM      6  C   UNL     1      44.759 -12.286 -40.574  1.00  0.00     0.006 C 
BRANCH   6   7
ATOM      7  C   UNL     1      45.074 -12.305 -39.076  1.00  0.00     0.053 C 
BRANCH   7   8
ATOM      8  C   UNL     1      46.434 -12.879 -38.832  1.00  0.00     0.041 C 
ATOM      9  O   UNL     1      46.639 -13.620 -37.835  1.00  0.00    -0.550 OA
ATOM     10  O   UNL     1      47.487 -12.557 -39.678  1.00  0.00    -0.550 OA
ENDBRANCH   7   8
ENDBRANCH   6   7
ENDBRANCH   5   6
ENDBRANCH   4   5
ENDBRANCH   3   4
ENDBRANCH   2   3
ENDBRANCH   1   2
BRANCH   1  11
ATOM     11  C   UNL     1      42.570  -9.930 -37.706  1.00  0.00     0.000 C 
BRANCH  11  12
ATOM     12  C   UNL     1      41.744 -11.207 -37.461  1.00  0.00     0.000 C 
BRANCH  12  13
ATOM     13  C   UNL     1      42.359 -12.206 -36.463  1.00  0.00     0.000 C 
BRANCH  13  14
ATOM     14  C   UNL     1      43.538 -11.622 -35.672  1.00  0.00     0.000 C 
BRANCH  14  15
ATOM     15  C   UNL     1      43.480 -12.053 -34.200  1.00  0.00     0.000 C 
BRANCH  15  16
ATOM     16  C   UNL     1      43.699 -13.565 -34.009  1.00  0.00     0.006 C 
BRANCH  16  17
ATOM     17  C   UNL     1      45.014 -14.096 -34.604  1.00  0.00     0.053 C 
BRANCH  17  18
ATOM     18  C   UNL     1      46.212 -13.600 -33.856  1.00  0.00     0.041 C 
ATOM     19  O   UNL     1      46.262 -13.698 -32.602  1.00  0.00    -0.550 OA
ATOM     20  O   UNL     1      47.259 -12.995 -34.541  1.00  0.00    -0.550 OA
ENDBRANCH  17  18
ENDBRANCH  16  17
ENDBRANCH  15  16
ENDBRANCH  14  15
ENDBRANCH  13  14
ENDBRANCH  12  13
ENDBRANCH  11  12
ENDBRANCH   1  11
TORSDOF 15
ENDMDL
MODEL 8
REMARK VINA RESULT:    -4.928      2.703      5.811
REMARK INTER + INTRA:         -11.289
REMARK INTER:                  -9.636
REMARK INTRA:                  -1.653
REMARK UNBOUND:                -2.040
REMARK SMILES O=C([O-])CCCCCCCCCCCCCCC(=O)[O-]
REMARK SMILES IDX 10 1 9 2 8 3 7 4 6 5 5 6 4 7 2 8 1 9 3 10 11 11 12 12 13 13
REMARK SMILES IDX 14 14 15 15 16 16 17 17 18 18 19 19 20 20
REMARK H PARENT
REMARK Flexibility Score: inf
ROOT
ATOM      1  C   UNL     1      45.741 -14.223 -36.770  1.00  0.00     0.000 C 
ENDROOT
BRANCH   1   2
ATOM      2  C   UNL     1      45.795 -14.239 -38.309  1.00  0.00     0.000 C 
BRANCH   2   3
ATOM      3  C   UNL     1      46.521 -13.039 -38.953  1.00  0.00     0.000 C 
BRANCH   3   4
ATOM      4  C   UNL     1      45.634 -11.810 -39.238  1.00  0.00     0.000 C 
BRANCH   4   5
ATOM      5  C   UNL     1      44.677 -11.966 -40.433  1.00  0.00     0.000 C 
BRANCH   5   6
ATOM      6  C   UNL     1      43.364 -11.190 -40.252  1.00  0.00     0.006 C 
BRANCH   6   7
ATOM      7  C   UNL     1      43.177 -10.764 -38.794  1.00  0.00     0.053 C 
BRANCH   7   8
ATOM      8  C   UNL     1      41.725 -10.764 -38.428  1.00  0.00     0.041 C 
ATOM      9  O   UNL     1      41.337 -11.343 -37.380  1.00  0.00    -0.550 OA
ATOM     10  O   UNL     1      40.796 -10.167 -39.270  1.00  0.00    -0.550 OA
ENDBRANCH   7   8
ENDBRANCH   6   7
ENDBRANCH   5   6
ENDBRANCH   4   5
ENDBRANCH   3   4
ENDBRANCH   2   3
ENDBRANCH   1   2
BRANCH   1  11
ATOM     11  C   UNL     1      47.136 -14.209 -36.125  1.00  0.00     0.000 C 
BRANCH  11  12
ATOM     12  C   UNL     1      47.262 -13.182 -34.984  1.00  0.00     0.000 C 
BRANCH  12  13
ATOM     13  C   UNL     1      47.734 -13.753 -33.634  1.00  0.00     0.000 C 
BRANCH  13  14
ATOM     14  C   UNL     1      46.610 -13.843 -32.592  1.00  0.00     0.000 C 
BRANCH  14  15
ATOM     15  C   UNL     1      45.742 -15.088 -32.825  1.00  0.00     0.000 C 
BRANCH  15  16
ATOM     16  C   UNL     1      44.305 -14.744 -33.260  1.00  0.00     0.006 C 
BRANCH  16  17
ATOM     17  C   UNL     1      43.915 -13.270 -33.055  1.00  0.00     0.053 C 
BRANCH  17  18
ATOM     18  C   UNL     1      43.280 -12.680 -34.276  1.00  0.00     0.041 C 
ATOM     19  O   UNL     1      42.215 -13.168 -34.734  1.00  0.00    -0.550 OA
ATOM     20  O   UNL     1      43.887 -11.615 -34.929  1.00  0.00    -0.550 OA
ENDBRANCH  17  18
ENDBRANCH  16  17
ENDBRANCH  15  16
ENDBRANCH  14  15
ENDBRANCH  13  14
ENDBRANCH  12  13
ENDBRANCH  11  12
ENDBRANCH   1  11
TORSDOF 15
ENDMDL
MODEL 9
REMARK VINA RESULT:    -4.882      3.002      6.743
REMARK INTER + INTRA:         -11.203
REMARK INTER:                  -9.677
REMARK INTRA:                  -1.526
REMARK UNBOUND:                -2.040
REMARK SMILES O=C([O-])CCCCCCCCCCCCCCC(=O)[O-]
REMARK SMILES IDX 10 1 9 2 8 3 7 4 6 5 5 6 4 7 2 8 1 9 3 10 11 11 12 12 13 13
REMARK SMILES IDX 14 14 15 15 16 16 17 17 18 18 19 19 20 20
REMARK H PARENT
REMARK Flexibility Score: inf
ROOT
ATOM      1  C   UNL     1      45.540 -15.106 -32.929  1.00  0.00     0.000 C 
ENDROOT
BRANCH   1   2
ATOM      2  C   UNL     1      46.538 -13.973 -32.627  1.00  0.00     0.000 C 
BRANCH   2   3
ATOM      3  C   UNL     1      47.988 -14.235 -33.086  1.00  0.00     0.000 C 
BRANCH   3   4
ATOM      4  C   UNL     1      48.319 -13.766 -34.517  1.00  0.00     0.000 C 
BRANCH   4   5
ATOM      5  C   UNL     1      47.120 -13.225 -35.316  1.00  0.00     0.000 C 
BRANCH   5   6
ATOM      6  C   UNL     1      47.131 -13.672 -36.785  1.00  0.00     0.006 C 
BRANCH   6   7
ATOM      7  C   UNL     1      45.925 -13.105 -37.538  1.00  0.00     0.053 C 
BRANCH   7   8
ATOM      8  C   UNL     1      46.188 -13.085 -39.012  1.00  0.00     0.041 C 
ATOM      9  O   UNL     1      45.429 -13.709 -39.799  1.00  0.00    -0.550 OA
ATOM     10  O   UNL     1      47.299 -12.418 -39.511  1.00  0.00    -0.550 OA
ENDBRANCH   7   8
ENDBRANCH   6   7
ENDBRANCH   5   6
ENDBRANCH   4   5
ENDBRANCH   3   4
ENDBRANCH   2   3
ENDBRANCH   1   2
BRANCH   1  11
ATOM     11  C   UNL     1      44.193 -14.588 -33.457  1.00  0.00     0.000 C 
BRANCH  11  12
ATOM     12  C   UNL     1      43.854 -13.172 -32.954  1.00  0.00     0.000 C 
BRANCH  12  13
ATOM     13  C   UNL     1      43.381 -12.185 -34.037  1.00  0.00     0.000 C 
BRANCH  13  14
ATOM     14  C   UNL     1      43.047 -12.867 -35.371  1.00  0.00     0.000 C 
BRANCH  14  15
ATOM     15  C   UNL     1      41.630 -12.500 -35.837  1.00  0.00     0.000 C 
BRANCH  15  16
ATOM     16  C   UNL     1      41.622 -11.703 -37.155  1.00  0.00     0.006 C 
BRANCH  16  17
ATOM     17  C   UNL     1      42.951 -11.004 -37.484  1.00  0.00     0.053 C 
BRANCH  17  18
ATOM     18  C   UNL     1      42.825 -10.073 -38.650  1.00  0.00     0.041 C 
ATOM     19  O   UNL     1      43.532 -10.245 -39.677  1.00  0.00    -0.550 OA
ATOM     20  O   UNL     1      41.954  -8.992 -38.586  1.00  0.00    -0.550 OA
ENDBRANCH  17  18
ENDBRANCH  16  17
ENDBRANCH  15  16
ENDBRANCH  14  15
ENDBRANCH  13  14
ENDBRANCH  12  13
ENDBRANCH  11  12
ENDBRANCH   1  11
TORSDOF 15
ENDMDL
