MODEL 1
REMARK VINA RESULT:    -5.077      0.000      0.000
REMARK INTER + INTRA:          -6.447
REMARK INTER:                  -6.264
REMARK INTRA:                  -0.182
REMARK UNBOUND:                -0.182
REMARK SMILES CCCCC=CC(C)=O
REMARK SMILES IDX 4 1 3 2 2 3 1 4 5 5 6 6 7 7 9 8 8 9
REMARK H PARENT
REMARK Flexibility Score: inf
ROOT
ATOM      1  C   UNL     1      25.622 -14.202  28.441  1.00  0.00     0.027 C 
ENDROOT
BRANCH   1   2
ATOM      2  C   UNL     1      25.597 -14.736  29.882  1.00  0.00     0.004 C 
BRANCH   2   3
ATOM      3  C   UNL     1      26.657 -14.073  30.775  1.00  0.00    -0.003 C 
ATOM      4  C   UNL     1      26.601 -14.559  32.223  1.00  0.00     0.004 C 
ENDBRANCH   2   3
ENDBRANCH   1   2
BRANCH   1   5
ATOM      5  C   UNL     1      26.734 -13.211  28.250  1.00  0.00    -0.023 C 
ATOM      6  C   UNL     1      27.556 -13.277  27.196  1.00  0.00     0.042 C 
BRANCH   6   7
ATOM      7  C   UNL     1      28.670 -12.335  26.975  1.00  0.00     0.152 C 
ATOM      8  O   UNL     1      29.645 -12.354  27.773  1.00  0.00    -0.295 OA
ATOM      9  C   UNL     1      28.684 -11.359  25.836  1.00  0.00     0.093 C 
ENDBRANCH   6   7
ENDBRANCH   1   5
TORSDOF 4
ENDMDL
MODEL 2
REMARK VINA RESULT:    -4.668      2.258      3.167
REMARK INTER + INTRA:          -5.942
REMARK INTER:                  -5.791
REMARK INTRA:                  -0.152
REMARK UNBOUND:                -0.182
REMARK SMILES CCCCC=CC(C)=O
REMARK SMILES IDX 4 1 3 2 2 3 1 4 5 5 6 6 7 7 9 8 8 9
REMARK H PARENT
REMARK Flexibility Score: inf
ROOT
ATOM      1  C   UNL     1      27.143 -12.427  28.548  1.00  0.00     0.027 C 
ENDROOT
BRANCH   1   2
ATOM      2  C   UNL     1      26.387 -13.621  27.943  1.00  0.00     0.004 C 
BRANCH   2   3
ATOM      3  C   UNL     1      25.607 -14.420  28.998  1.00  0.00    -0.003 C 
ATOM      4  C   UNL     1      24.356 -15.088  28.428  1.00  0.00     0.004 C 
ENDBRANCH   2   3
ENDBRANCH   1   2
BRANCH   1   5
ATOM      5  C   UNL     1      28.467 -12.855  29.114  1.00  0.00    -0.023 C 
ATOM      6  C   UNL     1      29.534 -13.046  28.329  1.00  0.00     0.042 C 
BRANCH   6   7
ATOM      7  C   UNL     1      30.850 -13.480  28.838  1.00  0.00     0.152 C 
ATOM      8  O   UNL     1      31.580 -14.191  28.096  1.00  0.00    -0.295 OA
ATOM      9  C   UNL     1      31.348 -13.106  30.202  1.00  0.00     0.093 C 
ENDBRANCH   6   7
ENDBRANCH   1   5
TORSDOF 4
ENDMDL
MODEL 3
REMARK VINA RESULT:    -4.659      1.397      2.157
REMARK INTER + INTRA:          -5.931
REMARK INTER:                  -5.772
REMARK INTRA:                  -0.159
REMARK UNBOUND:                -0.182
REMARK SMILES CCCCC=CC(C)=O
REMARK SMILES IDX 4 1 3 2 2 3 1 4 5 5 6 6 7 7 9 8 8 9
REMARK H PARENT
REMARK Flexibility Score: inf
ROOT
ATOM      1  C   UNL     1      26.191 -13.979  29.354  1.00  0.00     0.027 C 
ENDROOT
BRANCH   1   2
ATOM      2  C   UNL     1      25.356 -14.406  28.136  1.00  0.00     0.004 C 
BRANCH   2   3
ATOM      3  C   UNL     1      24.169 -15.302  28.521  1.00  0.00    -0.003 C 
ATOM      4  C   UNL     1      24.599 -16.713  28.926  1.00  0.00     0.004 C 
ENDBRANCH   2   3
ENDBRANCH   1   2
BRANCH   1   5
ATOM      5  C   UNL     1      27.183 -12.914  28.984  1.00  0.00    -0.023 C 
ATOM      6  C   UNL     1      27.428 -12.601  27.706  1.00  0.00     0.042 C 
BRANCH   6   7
ATOM      7  C   UNL     1      28.403 -11.572  27.294  1.00  0.00     0.152 C 
ATOM      8  O   UNL     1      28.953 -10.871  28.185  1.00  0.00    -0.295 OA
ATOM      9  C   UNL     1      28.764 -11.334  25.858  1.00  0.00     0.093 C 
ENDBRANCH   6   7
ENDBRANCH   1   5
TORSDOF 4
ENDMDL
MODEL 4
REMARK VINA RESULT:    -4.578      2.365      3.324
REMARK INTER + INTRA:          -5.830
REMARK INTER:                  -5.609
REMARK INTRA:                  -0.221
REMARK UNBOUND:                -0.182
REMARK SMILES CCCCC=CC(C)=O
REMARK SMILES IDX 4 1 3 2 2 3 1 4 5 5 6 6 7 7 9 8 8 9
REMARK H PARENT
REMARK Flexibility Score: inf
ROOT
ATOM      1  C   UNL     1      26.789 -13.581  29.879  1.00  0.00     0.027 C 
ENDROOT
BRANCH   1   2
ATOM      2  C   UNL     1      26.510 -13.236  28.407  1.00  0.00     0.004 C 
BRANCH   2   3
ATOM      3  C   UNL     1      25.675 -14.312  27.698  1.00  0.00    -0.003 C 
ATOM      4  C   UNL     1      24.796 -15.111  28.661  1.00  0.00     0.004 C 
ENDBRANCH   2   3
ENDBRANCH   1   2
BRANCH   1   5
ATOM      5  C   UNL     1      28.193 -13.215  30.265  1.00  0.00    -0.023 C 
ATOM      6  C   UNL     1      29.178 -13.173  29.360  1.00  0.00     0.042 C 
BRANCH   6   7
ATOM      7  C   UNL     1      30.575 -12.832  29.695  1.00  0.00     0.152 C 
ATOM      8  O   UNL     1      31.424 -12.784  28.765  1.00  0.00    -0.295 OA
ATOM      9  C   UNL     1      31.017 -12.539  31.097  1.00  0.00     0.093 C 
ENDBRANCH   6   7
ENDBRANCH   1   5
TORSDOF 4
ENDMDL
MODEL 5
REMARK VINA RESULT:    -4.561      1.606      4.841
REMARK INTER + INTRA:          -5.810
REMARK INTER:                  -5.641
REMARK INTRA:                  -0.169
REMARK UNBOUND:                -0.182
REMARK SMILES CCCCC=CC(C)=O
REMARK SMILES IDX 4 1 3 2 2 3 1 4 5 5 6 6 7 7 9 8 8 9
REMARK H PARENT
REMARK Flexibility Score: inf
ROOT
ATOM      1  C   UNL     1      26.402 -13.624  27.836  1.00  0.00     0.027 C 
ENDROOT
BRANCH   1   2
ATOM      2  C   UNL     1      27.483 -13.514  26.749  1.00  0.00     0.004 C 
BRANCH   2   3
ATOM      3  C   UNL     1      28.504 -12.405  27.043  1.00  0.00    -0.003 C 
ATOM      4  C   UNL     1      28.659 -11.420  25.885  1.00  0.00     0.004 C 
ENDBRANCH   2   3
ENDBRANCH   1   2
BRANCH   1   5
ATOM      5  C   UNL     1      26.971 -13.340  29.196  1.00  0.00    -0.023 C 
ATOM      6  C   UNL     1      26.557 -14.006  30.280  1.00  0.00     0.042 C 
BRANCH   6   7
ATOM      7  C   UNL     1      27.078 -13.751  31.638  1.00  0.00     0.152 C 
ATOM      8  O   UNL     1      28.104 -13.031  31.766  1.00  0.00    -0.295 OA
ATOM      9  C   UNL     1      26.430 -14.315  32.867  1.00  0.00     0.093 C 
ENDBRANCH   6   7
ENDBRANCH   1   5
TORSDOF 4
ENDMDL
MODEL 6
REMARK VINA RESULT:    -4.556      2.675      3.896
REMARK INTER + INTRA:          -5.804
REMARK INTER:                  -5.611
REMARK INTRA:                  -0.193
REMARK UNBOUND:                -0.182
REMARK SMILES CCCCC=CC(C)=O
REMARK SMILES IDX 4 1 3 2 2 3 1 4 5 5 6 6 7 7 9 8 8 9
REMARK H PARENT
REMARK Flexibility Score: inf
ROOT
ATOM      1  C   UNL     1      27.867 -13.015  31.628  1.00  0.00     0.027 C 
ENDROOT
BRANCH   1   2
ATOM      2  C   UNL     1      29.159 -12.327  31.159  1.00  0.00     0.004 C 
BRANCH   2   3
ATOM      3  C   UNL     1      30.403 -13.204  31.368  1.00  0.00    -0.003 C 
ATOM      4  C   UNL     1      31.700 -12.496  30.978  1.00  0.00     0.004 C 
ENDBRANCH   2   3
ENDBRANCH   1   2
BRANCH   1   5
ATOM      5  C   UNL     1      27.131 -13.630  30.473  1.00  0.00    -0.023 C 
ATOM      6  C   UNL     1      27.258 -13.151  29.229  1.00  0.00     0.042 C 
BRANCH   6   7
ATOM      7  C   UNL     1      26.545 -13.714  28.066  1.00  0.00     0.152 C 
ATOM      8  O   UNL     1      27.064 -13.597  26.924  1.00  0.00    -0.295 OA
ATOM      9  C   UNL     1      25.228 -14.420  28.194  1.00  0.00     0.093 C 
ENDBRANCH   6   7
ENDBRANCH   1   5
TORSDOF 4
ENDMDL
MODEL 7
REMARK VINA RESULT:    -4.517      2.358      4.484
REMARK INTER + INTRA:          -5.756
REMARK INTER:                  -5.564
REMARK INTRA:                  -0.192
REMARK UNBOUND:                -0.182
REMARK SMILES CCCCC=CC(C)=O
REMARK SMILES IDX 4 1 3 2 2 3 1 4 5 5 6 6 7 7 9 8 8 9
REMARK H PARENT
REMARK Flexibility Score: inf
ROOT
ATOM      1  C   UNL     1      28.113 -11.600  28.055  1.00  0.00     0.027 C 
ENDROOT
BRANCH   1   2
ATOM      2  C   UNL     1      29.354 -12.335  27.524  1.00  0.00     0.004 C 
BRANCH   2   3
ATOM      3  C   UNL     1      30.367 -12.657  28.633  1.00  0.00    -0.003 C 
ATOM      4  C   UNL     1      31.237 -13.871  28.306  1.00  0.00     0.004 C 
ENDBRANCH   2   3
ENDBRANCH   1   2
BRANCH   1   5
ATOM      5  C   UNL     1      27.236 -12.524  28.850  1.00  0.00    -0.023 C 
ATOM      6  C   UNL     1      26.483 -13.457  28.255  1.00  0.00     0.042 C 
BRANCH   6   7
ATOM      7  C   UNL     1      25.596 -14.378  28.995  1.00  0.00     0.152 C 
ATOM      8  O   UNL     1      25.838 -14.603  30.210  1.00  0.00    -0.295 OA
ATOM      9  C   UNL     1      24.421 -15.051  28.352  1.00  0.00     0.093 C 
ENDBRANCH   6   7
ENDBRANCH   1   5
TORSDOF 4
ENDMDL
MODEL 8
REMARK VINA RESULT:    -4.452      1.576      1.983
REMARK INTER + INTRA:          -5.675
REMARK INTER:                  -5.533
REMARK INTRA:                  -0.142
REMARK UNBOUND:                -0.182
REMARK SMILES CCCCC=CC(C)=O
REMARK SMILES IDX 4 1 3 2 2 3 1 4 5 5 6 6 7 7 9 8 8 9
REMARK H PARENT
REMARK Flexibility Score: inf
ROOT
ATOM      1  C   UNL     1      27.614 -11.798  30.379  1.00  0.00     0.027 C 
ENDROOT
BRANCH   1   2
ATOM      2  C   UNL     1      27.917 -13.199  30.933  1.00  0.00     0.004 C 
BRANCH   2   3
ATOM      3  C   UNL     1      26.680 -14.110  30.940  1.00  0.00    -0.003 C 
ATOM      4  C   UNL     1      26.329 -14.622  32.336  1.00  0.00     0.004 C 
ENDBRANCH   2   3
ENDBRANCH   1   2
BRANCH   1   5
ATOM      5  C   UNL     1      27.509 -11.818  28.882  1.00  0.00    -0.023 C 
ATOM      6  C   UNL     1      28.333 -12.561  28.133  1.00  0.00     0.042 C 
BRANCH   6   7
ATOM      7  C   UNL     1      28.275 -12.602  26.658  1.00  0.00     0.152 C 
ATOM      8  O   UNL     1      27.871 -13.656  26.099  1.00  0.00    -0.295 OA
ATOM      9  C   UNL     1      28.678 -11.437  25.805  1.00  0.00     0.093 C 
ENDBRANCH   6   7
ENDBRANCH   1   5
TORSDOF 4
ENDMDL
MODEL 9
REMARK VINA RESULT:    -4.356      2.477      3.026
REMARK INTER + INTRA:          -5.557
REMARK INTER:                  -5.296
REMARK INTRA:                  -0.261
REMARK UNBOUND:                -0.182
REMARK SMILES CCCCC=CC(C)=O
REMARK SMILES IDX 4 1 3 2 2 3 1 4 5 5 6 6 7 7 9 8 8 9
REMARK H PARENT
REMARK Flexibility Score: inf
ROOT
ATOM      1  C   UNL     1      27.725 -13.013  30.533  1.00  0.00     0.027 C 
ENDROOT
BRANCH   1   2
ATOM      2  C   UNL     1      29.005 -12.230  30.870  1.00  0.00     0.004 C 
BRANCH   2   3
ATOM      3  C   UNL     1      30.153 -13.145  31.322  1.00  0.00    -0.003 C 
ATOM      4  C   UNL     1      31.353 -13.101  30.377  1.00  0.00     0.004 C 
ENDBRANCH   2   3
ENDBRANCH   1   2
BRANCH   1   5
ATOM      5  C   UNL     1      27.545 -13.141  29.047  1.00  0.00    -0.023 C 
ATOM      6  C   UNL     1      28.321 -12.469  28.188  1.00  0.00     0.042 C 
BRANCH   6   7
ATOM      7  C   UNL     1      28.171 -12.553  26.722  1.00  0.00     0.152 C 
ATOM      8  O   UNL     1      27.633 -13.580  26.228  1.00  0.00    -0.295 OA
ATOM      9  C   UNL     1      28.634 -11.463  25.802  1.00  0.00     0.093 C 
ENDBRANCH   6   7
ENDBRANCH   1   5
TORSDOF 4
ENDMDL
