MODEL 1
REMARK VINA RESULT:    -3.206      0.000      0.000
REMARK INTER + INTRA:          -4.779
REMARK INTER:                  -4.330
REMARK INTRA:                  -0.449
REMARK UNBOUND:                -0.449
REMARK SMILES [NH3+]CCCC[C@@H]([NH3+])C(=O)[O-]
REMARK SMILES IDX 4 1 3 2 2 3 1 4 5 8 6 9 7 10 8 14 9 15 10 16
REMARK H PARENT 1 5 1 6 1 7 7 11 7 12 7 13
REMARK Flexibility Score: inf
ROOT
ATOM      1  C   UNL     1      49.123  35.514  86.897  1.00  0.00     0.012 C 
ENDROOT
BRANCH   1   2
ATOM      2  C   UNL     1      50.447  35.977  87.529  1.00  0.00     0.061 C 
BRANCH   2   3
ATOM      3  C   UNL     1      51.640  35.033  87.289  1.00  0.00     0.258 C 
BRANCH   3   4
ATOM      4  N   UNL     1      52.677  35.645  86.456  1.00  0.00    -0.358 N 
ATOM      5  H   UNL     1      52.347  35.731  85.467  1.00  0.00     0.344 HD
ATOM      6  H   UNL     1      52.933  36.587  86.831  1.00  0.00     0.344 HD
ATOM      7  H   UNL     1      53.529  35.041  86.474  1.00  0.00     0.344 HD
ENDBRANCH   3   4
ENDBRANCH   2   3
ENDBRANCH   1   2
BRANCH   1   8
ATOM      8  C   UNL     1      49.296  34.298  85.969  1.00  0.00     0.072 C 
BRANCH   8   9
ATOM      9  C   UNL     1      48.735  34.558  84.554  1.00  0.00     0.227 C 
BRANCH   9  10
ATOM     10  N   UNL     1      47.906  35.769  84.545  1.00  0.00    -0.350 N 
ATOM     11  H   UNL     1      46.989  35.569  84.082  1.00  0.00     0.345 HD
ATOM     12  H   UNL     1      47.715  36.076  85.527  1.00  0.00     0.345 HD
ATOM     13  H   UNL     1      48.388  36.544  84.032  1.00  0.00     0.345 HD
ENDBRANCH   9  10
BRANCH   9  14
ATOM     14  C   UNL     1      49.847  34.682  83.543  1.00  0.00     0.099 C 
ATOM     15  O   UNL     1      49.590  34.960  82.342  1.00  0.00    -0.544 OA
ATOM     16  O   UNL     1      51.166  34.499  83.938  1.00  0.00    -0.544 OA
ENDBRANCH   9  14
ENDBRANCH   8   9
ENDBRANCH   1   8
TORSDOF 7
ENDMDL
MODEL 2
REMARK VINA RESULT:    -3.199     17.535     18.511
REMARK INTER + INTRA:          -4.770
REMARK INTER:                  -4.307
REMARK INTRA:                  -0.463
REMARK UNBOUND:                -0.449
REMARK SMILES [NH3+]CCCC[C@@H]([NH3+])C(=O)[O-]
REMARK SMILES IDX 4 1 3 2 2 3 1 4 5 8 6 9 7 10 8 14 9 15 10 16
REMARK H PARENT 1 5 1 6 1 7 7 11 7 12 7 13
REMARK Flexibility Score: inf
ROOT
ATOM      1  C   UNL     1      47.746  20.661  76.139  1.00  0.00     0.012 C 
ENDROOT
BRANCH   1   2
ATOM      2  C   UNL     1      48.503  20.686  77.478  1.00  0.00     0.061 C 
BRANCH   2   3
ATOM      3  C   UNL     1      47.656  20.301  78.704  1.00  0.00     0.258 C 
BRANCH   3   4
ATOM      4  N   UNL     1      47.864  18.909  79.111  1.00  0.00    -0.358 N 
ATOM      5  H   UNL     1      46.979  18.362  79.005  1.00  0.00     0.344 HD
ATOM      6  H   UNL     1      48.624  18.475  78.539  1.00  0.00     0.344 HD
ATOM      7  H   UNL     1      48.155  18.887  80.114  1.00  0.00     0.344 HD
ENDBRANCH   3   4
ENDBRANCH   2   3
ENDBRANCH   1   2
BRANCH   1   8
ATOM      8  C   UNL     1      46.233  20.439  76.312  1.00  0.00     0.072 C 
BRANCH   8   9
ATOM      9  C   UNL     1      45.712  19.271  75.446  1.00  0.00     0.227 C 
BRANCH   9  10
ATOM     10  N   UNL     1      46.554  19.097  74.257  1.00  0.00    -0.350 N 
ATOM     11  H   UNL     1      47.420  19.679  74.346  1.00  0.00     0.345 HD
ATOM     12  H   UNL     1      46.842  18.096  74.170  1.00  0.00     0.345 HD
ATOM     13  H   UNL     1      46.037  19.381  73.392  1.00  0.00     0.345 HD
ENDBRANCH   9  10
BRANCH   9  14
ATOM     14  C   UNL     1      45.659  17.989  76.237  1.00  0.00     0.099 C 
ATOM     15  O   UNL     1      45.854  16.880  75.672  1.00  0.00    -0.544 OA
ATOM     16  O   UNL     1      45.403  18.027  77.602  1.00  0.00    -0.544 OA
ENDBRANCH   9  14
ENDBRANCH   8   9
ENDBRANCH   1   8
TORSDOF 7
ENDMDL
MODEL 3
REMARK VINA RESULT:    -3.101     17.120     17.848
REMARK INTER + INTRA:          -4.638
REMARK INTER:                  -4.491
REMARK INTRA:                  -0.147
REMARK UNBOUND:                -0.449
REMARK SMILES [NH3+]CCCC[C@@H]([NH3+])C(=O)[O-]
REMARK SMILES IDX 4 1 3 2 2 3 1 4 5 8 6 9 7 10 8 14 9 15 10 16
REMARK H PARENT 1 5 1 6 1 7 7 11 7 12 7 13
REMARK Flexibility Score: inf
ROOT
ATOM      1  C   UNL     1      52.832  19.272  84.493  1.00  0.00     0.012 C 
ENDROOT
BRANCH   1   2
ATOM      2  C   UNL     1      51.821  18.663  85.480  1.00  0.00     0.061 C 
BRANCH   2   3
ATOM      3  C   UNL     1      50.367  19.131  85.282  1.00  0.00     0.258 C 
BRANCH   3   4
ATOM      4  N   UNL     1      49.394  18.109  85.672  1.00  0.00    -0.358 N 
ATOM      5  H   UNL     1      49.814  17.155  85.591  1.00  0.00     0.344 HD
ATOM      6  H   UNL     1      49.068  18.275  86.652  1.00  0.00     0.344 HD
ATOM      7  H   UNL     1      48.566  18.166  85.037  1.00  0.00     0.344 HD
ENDBRANCH   3   4
ENDBRANCH   2   3
ENDBRANCH   1   2
BRANCH   1   8
ATOM      8  C   UNL     1      54.283  19.196  85.001  1.00  0.00     0.072 C 
BRANCH   8   9
ATOM      9  C   UNL     1      54.882  17.781  84.850  1.00  0.00     0.227 C 
BRANCH   9  10
ATOM     10  N   UNL     1      56.125  17.829  84.072  1.00  0.00    -0.350 N 
ATOM     11  H   UNL     1      55.904  17.949  83.055  1.00  0.00     0.345 HD
ATOM     12  H   UNL     1      56.703  18.645  84.378  1.00  0.00     0.345 HD
ATOM     13  H   UNL     1      56.678  16.950  84.202  1.00  0.00     0.345 HD
ENDBRANCH   9  10
BRANCH   9  14
ATOM     14  C   UNL     1      55.136  17.151  86.196  1.00  0.00     0.099 C 
ATOM     15  O   UNL     1      55.588  15.978  86.278  1.00  0.00    -0.544 OA
ATOM     16  O   UNL     1      54.879  17.870  87.357  1.00  0.00    -0.544 OA
ENDBRANCH   9  14
ENDBRANCH   8   9
ENDBRANCH   1   8
TORSDOF 7
ENDMDL
MODEL 4
REMARK VINA RESULT:    -3.098     18.430     19.194
REMARK INTER + INTRA:          -4.633
REMARK INTER:                  -4.484
REMARK INTRA:                  -0.149
REMARK UNBOUND:                -0.449
REMARK SMILES [NH3+]CCCC[C@@H]([NH3+])C(=O)[O-]
REMARK SMILES IDX 4 1 3 2 2 3 1 4 5 8 6 9 7 10 8 14 9 15 10 16
REMARK H PARENT 1 5 1 6 1 7 7 11 7 12 7 13
REMARK Flexibility Score: inf
ROOT
ATOM      1  C   UNL     1      45.799  19.479  76.663  1.00  0.00     0.012 C 
ENDROOT
BRANCH   1   2
ATOM      2  C   UNL     1      45.605  18.235  77.546  1.00  0.00     0.061 C 
BRANCH   2   3
ATOM      3  C   UNL     1      45.757  16.892  76.809  1.00  0.00     0.258 C 
BRANCH   3   4
ATOM      4  N   UNL     1      46.416  15.875  77.632  1.00  0.00    -0.358 N 
ATOM      5  H   UNL     1      45.933  14.954  77.531  1.00  0.00     0.344 HD
ATOM      6  H   UNL     1      47.421  15.785  77.360  1.00  0.00     0.344 HD
ATOM      7  H   UNL     1      46.373  16.168  78.635  1.00  0.00     0.344 HD
ENDBRANCH   3   4
ENDBRANCH   2   3
ENDBRANCH   1   2
BRANCH   1   8
ATOM      8  C   UNL     1      45.888  19.141  75.165  1.00  0.00     0.072 C 
BRANCH   8   9
ATOM      9  C   UNL     1      46.939  20.005  74.433  1.00  0.00     0.227 C 
BRANCH   9  10
ATOM     10  N   UNL     1      47.372  19.347  73.195  1.00  0.00    -0.350 N 
ATOM     11  H   UNL     1      47.722  18.384  73.407  1.00  0.00     0.345 HD
ATOM     12  H   UNL     1      46.564  19.262  72.537  1.00  0.00     0.345 HD
ATOM     13  H   UNL     1      48.134  19.895  72.731  1.00  0.00     0.345 HD
ENDBRANCH   9  10
BRANCH   9  14
ATOM     14  C   UNL     1      46.397  21.379  74.129  1.00  0.00     0.099 C 
ATOM     15  O   UNL     1      47.073  22.407  74.401  1.00  0.00    -0.544 OA
ATOM     16  O   UNL     1      45.148  21.516  73.538  1.00  0.00    -0.544 OA
ENDBRANCH   9  14
ENDBRANCH   8   9
ENDBRANCH   1   8
TORSDOF 7
ENDMDL
MODEL 5
REMARK VINA RESULT:    -3.063     17.793     19.125
REMARK INTER + INTRA:          -4.586
REMARK INTER:                  -4.452
REMARK INTRA:                  -0.134
REMARK UNBOUND:                -0.449
REMARK SMILES [NH3+]CCCC[C@@H]([NH3+])C(=O)[O-]
REMARK SMILES IDX 4 1 3 2 2 3 1 4 5 8 6 9 7 10 8 14 9 15 10 16
REMARK H PARENT 1 5 1 6 1 7 7 11 7 12 7 13
REMARK Flexibility Score: inf
ROOT
ATOM      1  C   UNL     1      39.633  19.660  79.455  1.00  0.00     0.012 C 
ENDROOT
BRANCH   1   2
ATOM      2  C   UNL     1      38.434  19.435  80.391  1.00  0.00     0.061 C 
BRANCH   2   3
ATOM      3  C   UNL     1      37.546  18.232  80.022  1.00  0.00     0.258 C 
BRANCH   3   4
ATOM      4  N   UNL     1      38.271  17.221  79.248  1.00  0.00    -0.358 N 
ATOM      5  H   UNL     1      39.302  17.336  79.373  1.00  0.00     0.344 HD
ATOM      6  H   UNL     1      37.978  16.262  79.543  1.00  0.00     0.344 HD
ATOM      7  H   UNL     1      38.039  17.338  78.236  1.00  0.00     0.344 HD
ENDBRANCH   3   4
ENDBRANCH   2   3
ENDBRANCH   1   2
BRANCH   1   8
ATOM      8  C   UNL     1      40.969  19.776  80.212  1.00  0.00     0.072 C 
BRANCH   8   9
ATOM      9  C   UNL     1      41.794  20.999  79.756  1.00  0.00     0.227 C 
BRANCH   9  10
ATOM     10  N   UNL     1      42.614  21.507  80.861  1.00  0.00    -0.350 N 
ATOM     11  H   UNL     1      42.709  20.772  81.600  1.00  0.00     0.345 HD
ATOM     12  H   UNL     1      43.571  21.744  80.513  1.00  0.00     0.345 HD
ATOM     13  H   UNL     1      42.182  22.362  81.281  1.00  0.00     0.345 HD
ENDBRANCH   9  10
BRANCH   9  14
ATOM     14  C   UNL     1      42.667  20.656  78.576  1.00  0.00     0.099 C 
ATOM     15  O   UNL     1      43.556  19.769  78.675  1.00  0.00    -0.544 OA
ATOM     16  O   UNL     1      42.487  21.315  77.366  1.00  0.00    -0.544 OA
ENDBRANCH   9  14
ENDBRANCH   8   9
ENDBRANCH   1   8
TORSDOF 7
ENDMDL
MODEL 6
REMARK VINA RESULT:    -2.984      2.302      4.420
REMARK INTER + INTRA:          -4.479
REMARK INTER:                  -4.068
REMARK INTRA:                  -0.411
REMARK UNBOUND:                -0.449
REMARK SMILES [NH3+]CCCC[C@@H]([NH3+])C(=O)[O-]
REMARK SMILES IDX 4 1 3 2 2 3 1 4 5 8 6 9 7 10 8 14 9 15 10 16
REMARK H PARENT 1 5 1 6 1 7 7 11 7 12 7 13
REMARK Flexibility Score: inf
ROOT
ATOM      1  C   UNL     1      51.087  33.888  84.774  1.00  0.00     0.012 C 
ENDROOT
BRANCH   1   2
ATOM      2  C   UNL     1      50.146  34.519  83.734  1.00  0.00     0.061 C 
BRANCH   2   3
ATOM      3  C   UNL     1      48.649  34.442  84.089  1.00  0.00     0.258 C 
BRANCH   3   4
ATOM      4  N   UNL     1      48.247  35.483  85.038  1.00  0.00    -0.358 N 
ATOM      5  H   UNL     1      47.315  35.877  84.775  1.00  0.00     0.344 HD
ATOM      6  H   UNL     1      48.211  35.094  86.008  1.00  0.00     0.344 HD
ATOM      7  H   UNL     1      48.954  36.252  85.020  1.00  0.00     0.344 HD
ENDBRANCH   3   4
ENDBRANCH   2   3
ENDBRANCH   1   2
BRANCH   1   8
ATOM      8  C   UNL     1      52.202  34.846  85.230  1.00  0.00     0.072 C 
BRANCH   8   9
ATOM      9  C   UNL     1      52.316  34.920  86.768  1.00  0.00     0.227 C 
BRANCH   9  10
ATOM     10  N   UNL     1      53.080  36.106  87.171  1.00  0.00    -0.350 N 
ATOM     11  H   UNL     1      54.003  35.815  87.571  1.00  0.00     0.345 HD
ATOM     12  H   UNL     1      53.262  36.710  86.337  1.00  0.00     0.345 HD
ATOM     13  H   UNL     1      52.555  36.660  87.886  1.00  0.00     0.345 HD
ENDBRANCH   9  10
BRANCH   9  14
ATOM     14  C   UNL     1      50.953  34.936  87.413  1.00  0.00     0.099 C 
ATOM     15  O   UNL     1      50.528  33.926  88.035  1.00  0.00    -0.544 OA
ATOM     16  O   UNL     1      50.162  36.075  87.333  1.00  0.00    -0.544 OA
ENDBRANCH   9  14
ENDBRANCH   8   9
ENDBRANCH   1   8
TORSDOF 7
ENDMDL
MODEL 7
REMARK VINA RESULT:    -2.981     17.634     18.605
REMARK INTER + INTRA:          -4.475
REMARK INTER:                  -4.375
REMARK INTRA:                  -0.100
REMARK UNBOUND:                -0.449
REMARK SMILES [NH3+]CCCC[C@@H]([NH3+])C(=O)[O-]
REMARK SMILES IDX 4 1 3 2 2 3 1 4 5 8 6 9 7 10 8 14 9 15 10 16
REMARK H PARENT 1 5 1 6 1 7 7 11 7 12 7 13
REMARK Flexibility Score: inf
ROOT
ATOM      1  C   UNL     1      44.416  20.814  78.795  1.00  0.00     0.012 C 
ENDROOT
BRANCH   1   2
ATOM      2  C   UNL     1      43.104  21.054  79.562  1.00  0.00     0.061 C 
BRANCH   2   3
ATOM      3  C   UNL     1      41.853  20.443  78.904  1.00  0.00     0.258 C 
BRANCH   3   4
ATOM      4  N   UNL     1      41.085  19.610  79.833  1.00  0.00    -0.358 N 
ATOM      5  H   UNL     1      41.072  18.617  79.507  1.00  0.00     0.344 HD
ATOM      6  H   UNL     1      41.495  19.667  80.793  1.00  0.00     0.344 HD
ATOM      7  H   UNL     1      40.102  19.964  79.875  1.00  0.00     0.344 HD
ENDBRANCH   3   4
ENDBRANCH   2   3
ENDBRANCH   1   2
BRANCH   1   8
ATOM      8  C   UNL     1      44.494  19.410  78.170  1.00  0.00     0.072 C 
BRANCH   8   9
ATOM      9  C   UNL     1      45.884  19.118  77.562  1.00  0.00     0.227 C 
BRANCH   9  10
ATOM     10  N   UNL     1      46.775  18.537  78.573  1.00  0.00    -0.350 N 
ATOM     11  H   UNL     1      46.954  19.235  79.332  1.00  0.00     0.345 HD
ATOM     12  H   UNL     1      46.324  17.697  79.002  1.00  0.00     0.345 HD
ATOM     13  H   UNL     1      47.687  18.254  78.144  1.00  0.00     0.345 HD
ENDBRANCH   9  10
BRANCH   9  14
ATOM     14  C   UNL     1      45.774  18.196  76.374  1.00  0.00     0.099 C 
ATOM     15  O   UNL     1      45.899  18.645  75.203  1.00  0.00    -0.544 OA
ATOM     16  O   UNL     1      45.545  16.840  76.568  1.00  0.00    -0.544 OA
ENDBRANCH   9  14
ENDBRANCH   8   9
ENDBRANCH   1   8
TORSDOF 7
ENDMDL
MODEL 8
REMARK VINA RESULT:    -2.923     18.377     19.529
REMARK INTER + INTRA:          -4.398
REMARK INTER:                  -4.142
REMARK INTRA:                  -0.255
REMARK UNBOUND:                -0.449
REMARK SMILES [NH3+]CCCC[C@@H]([NH3+])C(=O)[O-]
REMARK SMILES IDX 4 1 3 2 2 3 1 4 5 8 6 9 7 10 8 14 9 15 10 16
REMARK H PARENT 1 5 1 6 1 7 7 11 7 12 7 13
REMARK Flexibility Score: inf
ROOT
ATOM      1  C   UNL     1      55.161  19.856  73.051  1.00  0.00     0.012 C 
ENDROOT
BRANCH   1   2
ATOM      2  C   UNL     1      54.310  18.575  73.021  1.00  0.00     0.061 C 
BRANCH   2   3
ATOM      3  C   UNL     1      55.118  17.266  72.954  1.00  0.00     0.258 C 
BRANCH   3   4
ATOM      4  N   UNL     1      55.329  16.673  74.277  1.00  0.00    -0.358 N 
ATOM      5  H   UNL     1      55.875  15.786  74.196  1.00  0.00     0.344 HD
ATOM      6  H   UNL     1      55.829  17.347  74.899  1.00  0.00     0.344 HD
ATOM      7  H   UNL     1      54.400  16.458  74.705  1.00  0.00     0.344 HD
ENDBRANCH   3   4
ENDBRANCH   2   3
ENDBRANCH   1   2
BRANCH   1   8
ATOM      8  C   UNL     1      55.537  20.291  74.478  1.00  0.00     0.072 C 
BRANCH   8   9
ATOM      9  C   UNL     1      54.313  20.324  75.420  1.00  0.00     0.227 C 
BRANCH   9  10
ATOM     10  N   UNL     1      54.744  20.308  76.823  1.00  0.00    -0.350 N 
ATOM     11  H   UNL     1      55.776  20.141  76.876  1.00  0.00     0.345 HD
ATOM     12  H   UNL     1      54.540  21.233  77.267  1.00  0.00     0.345 HD
ATOM     13  H   UNL     1      54.246  19.556  77.354  1.00  0.00     0.345 HD
ENDBRANCH   9  10
BRANCH   9  14
ATOM     14  C   UNL     1      53.456  21.535  75.154  1.00  0.00     0.099 C 
ATOM     15  O   UNL     1      53.811  22.673  75.563  1.00  0.00    -0.544 OA
ATOM     16  O   UNL     1      52.269  21.402  74.444  1.00  0.00    -0.544 OA
ENDBRANCH   9  14
ENDBRANCH   8   9
ENDBRANCH   1   8
TORSDOF 7
ENDMDL
MODEL 9
REMARK VINA RESULT:    -2.873     16.083     16.599
REMARK INTER + INTRA:          -4.330
REMARK INTER:                  -4.133
REMARK INTRA:                  -0.197
REMARK UNBOUND:                -0.449
REMARK SMILES [NH3+]CCCC[C@@H]([NH3+])C(=O)[O-]
REMARK SMILES IDX 4 1 3 2 2 3 1 4 5 8 6 9 7 10 8 14 9 15 10 16
REMARK H PARENT 1 5 1 6 1 7 7 11 7 12 7 13
REMARK Flexibility Score: inf
ROOT
ATOM      1  C   UNL     1      51.972  18.478  84.871  1.00  0.00     0.012 C 
ENDROOT
BRANCH   1   2
ATOM      2  C   UNL     1      53.460  18.569  85.250  1.00  0.00     0.061 C 
BRANCH   2   3
ATOM      3  C   UNL     1      53.768  18.267  86.728  1.00  0.00     0.258 C 
BRANCH   3   4
ATOM      4  N   UNL     1      54.692  17.141  86.886  1.00  0.00    -0.358 N 
ATOM      5  H   UNL     1      54.205  16.329  87.330  1.00  0.00     0.344 HD
ATOM      6  H   UNL     1      55.083  16.861  85.958  1.00  0.00     0.344 HD
ATOM      7  H   UNL     1      55.484  17.434  87.501  1.00  0.00     0.344 HD
ENDBRANCH   3   4
ENDBRANCH   2   3
ENDBRANCH   1   2
BRANCH   1   8
ATOM      8  C   UNL     1      51.191  19.761  85.206  1.00  0.00     0.072 C 
BRANCH   8   9
ATOM      9  C   UNL     1      49.819  19.459  85.847  1.00  0.00     0.227 C 
BRANCH   9  10
ATOM     10  N   UNL     1      49.415  18.076  85.570  1.00  0.00    -0.350 N 
ATOM     11  H   UNL     1      48.426  18.055  85.228  1.00  0.00     0.345 HD
ATOM     12  H   UNL     1      50.026  17.671  84.824  1.00  0.00     0.345 HD
ATOM     13  H   UNL     1      49.494  17.488  86.432  1.00  0.00     0.345 HD
ENDBRANCH   9  10
BRANCH   9  14
ATOM     14  C   UNL     1      49.849  19.704  87.334  1.00  0.00     0.099 C 
ATOM     15  O   UNL     1      50.924  20.026  87.908  1.00  0.00    -0.544 OA
ATOM     16  O   UNL     1      48.683  19.584  88.080  1.00  0.00    -0.544 OA
ENDBRANCH   9  14
ENDBRANCH   8   9
ENDBRANCH   1   8
TORSDOF 7
ENDMDL
