MODEL 1
REMARK VINA RESULT:    -3.792      0.000      0.000
REMARK INTER + INTRA:          -4.144
REMARK INTER:                  -4.014
REMARK INTRA:                  -0.130
REMARK UNBOUND:                -0.130
REMARK SMILES C=C(C)[C@H]1CC=C(C)CC1
REMARK SMILES IDX 8 1 7 2 6 3 5 4 4 5 10 6 9 7 2 8 1 9 3 10
REMARK H PARENT
REMARK Flexibility Score: inf
ROOT
ATOM      1  C   UNL     1      10.876   7.835  16.031  1.00  0.00     0.039 C 
ATOM      2  C   UNL     1      11.681   6.784  16.744  1.00  0.00    -0.077 C 
ATOM      3  C   UNL     1      11.292   6.384  17.975  1.00  0.00    -0.027 C 
ATOM      4  C   UNL     1      12.061   5.375  18.792  1.00  0.00     0.035 C 
ATOM      5  C   UNL     1      12.956   4.478  17.919  1.00  0.00     0.018 C 
ATOM      6  C   UNL     1      13.767   5.343  16.942  1.00  0.00     0.013 C 
ATOM      7  C   UNL     1      12.825   6.112  16.009  1.00  0.00     0.031 C 
ENDROOT
BRANCH   5   8
ATOM      8  C   UNL     1      13.859   3.597  18.770  1.00  0.00    -0.077 C 
ATOM      9  C   UNL     1      14.925   2.995  18.221  1.00  0.00     0.008 C 
ATOM     10  C   UNL     1      13.580   3.368  20.235  1.00  0.00     0.039 C 
ENDBRANCH   5   8
TORSDOF 1
ENDMDL
MODEL 2
REMARK VINA RESULT:    -3.735      1.117      4.631
REMARK INTER + INTRA:          -4.083
REMARK INTER:                  -3.954
REMARK INTRA:                  -0.129
REMARK UNBOUND:                -0.130
REMARK SMILES C=C(C)[C@H]1CC=C(C)CC1
REMARK SMILES IDX 8 1 7 2 6 3 5 4 4 5 10 6 9 7 2 8 1 9 3 10
REMARK H PARENT
REMARK Flexibility Score: inf
ROOT
ATOM      1  C   UNL     1      16.115   2.195  18.513  1.00  0.00     0.039 C 
ATOM      2  C   UNL     1      14.960   3.135  18.309  1.00  0.00    -0.077 C 
ATOM      3  C   UNL     1      14.842   3.782  17.129  1.00  0.00    -0.027 C 
ATOM      4  C   UNL     1      13.749   4.783  16.846  1.00  0.00     0.035 C 
ATOM      5  C   UNL     1      12.528   4.587  17.761  1.00  0.00     0.018 C 
ATOM      6  C   UNL     1      12.986   4.454  19.222  1.00  0.00     0.013 C 
ATOM      7  C   UNL     1      13.892   3.228  19.382  1.00  0.00     0.031 C 
ENDROOT
BRANCH   5   8
ATOM      8  C   UNL     1      11.519   5.714  17.591  1.00  0.00    -0.077 C 
ATOM      9  C   UNL     1      11.170   6.470  18.643  1.00  0.00     0.008 C 
ATOM     10  C   UNL     1      10.881   6.003  16.254  1.00  0.00     0.039 C 
ENDBRANCH   5   8
TORSDOF 1
ENDMDL
MODEL 3
REMARK VINA RESULT:    -3.613      1.038      1.863
REMARK INTER + INTRA:          -3.955
REMARK INTER:                  -3.833
REMARK INTRA:                  -0.121
REMARK UNBOUND:                -0.130
REMARK SMILES C=C(C)[C@H]1CC=C(C)CC1
REMARK SMILES IDX 8 1 7 2 6 3 5 4 4 5 10 6 9 7 2 8 1 9 3 10
REMARK H PARENT
REMARK Flexibility Score: inf
ROOT
ATOM      1  C   UNL     1      10.875   8.246  16.934  1.00  0.00     0.039 C 
ATOM      2  C   UNL     1      11.636   7.059  17.455  1.00  0.00    -0.077 C 
ATOM      3  C   UNL     1      12.955   7.190  17.718  1.00  0.00    -0.027 C 
ATOM      4  C   UNL     1      13.816   6.046  18.194  1.00  0.00     0.035 C 
ATOM      5  C   UNL     1      12.988   4.931  18.858  1.00  0.00     0.018 C 
ATOM      6  C   UNL     1      11.788   4.573  17.969  1.00  0.00     0.013 C 
ATOM      7  C   UNL     1      10.875   5.792  17.796  1.00  0.00     0.031 C 
ENDROOT
BRANCH   5   8
ATOM      8  C   UNL     1      13.845   3.710  19.162  1.00  0.00    -0.077 C 
ATOM      9  C   UNL     1      13.831   3.166  20.389  1.00  0.00     0.008 C 
ATOM     10  C   UNL     1      14.732   3.090  18.110  1.00  0.00     0.039 C 
ENDBRANCH   5   8
TORSDOF 1
ENDMDL
MODEL 4
REMARK VINA RESULT:    -3.567      0.977      4.249
REMARK INTER + INTRA:          -3.905
REMARK INTER:                  -3.776
REMARK INTRA:                  -0.129
REMARK UNBOUND:                -0.130
REMARK SMILES C=C(C)[C@H]1CC=C(C)CC1
REMARK SMILES IDX 8 1 7 2 6 3 5 4 4 5 10 6 9 7 2 8 1 9 3 10
REMARK H PARENT
REMARK Flexibility Score: inf
ROOT
ATOM      1  C   UNL     1      14.927   2.830  18.354  1.00  0.00     0.039 C 
ATOM      2  C   UNL     1      14.013   3.968  17.991  1.00  0.00    -0.077 C 
ATOM      3  C   UNL     1      13.081   4.370  18.883  1.00  0.00    -0.027 C 
ATOM      4  C   UNL     1      12.085   5.466  18.593  1.00  0.00     0.035 C 
ATOM      5  C   UNL     1      12.566   6.410  17.477  1.00  0.00     0.018 C 
ATOM      6  C   UNL     1      13.063   5.589  16.277  1.00  0.00     0.013 C 
ATOM      7  C   UNL     1      14.251   4.713  16.692  1.00  0.00     0.031 C 
ENDROOT
BRANCH   5   8
ATOM      8  C   UNL     1      11.475   7.391  17.072  1.00  0.00    -0.077 C 
ATOM      9  C   UNL     1      10.876   7.275  15.876  1.00  0.00     0.008 C 
ATOM     10  C   UNL     1      11.049   8.515  17.984  1.00  0.00     0.039 C 
ENDBRANCH   5   8
TORSDOF 1
ENDMDL
MODEL 5
REMARK VINA RESULT:    -3.551      1.070      4.559
REMARK INTER + INTRA:          -3.888
REMARK INTER:                  -3.761
REMARK INTRA:                  -0.127
REMARK UNBOUND:                -0.130
REMARK SMILES C=C(C)[C@H]1CC=C(C)CC1
REMARK SMILES IDX 8 1 7 2 6 3 5 4 4 5 10 6 9 7 2 8 1 9 3 10
REMARK H PARENT
REMARK Flexibility Score: inf
ROOT
ATOM      1  C   UNL     1      14.762   2.699  20.008  1.00  0.00     0.039 C 
ATOM      2  C   UNL     1      13.883   3.719  19.337  1.00  0.00    -0.077 C 
ATOM      3  C   UNL     1      13.894   3.807  17.989  1.00  0.00    -0.027 C 
ATOM      4  C   UNL     1      13.088   4.829  17.225  1.00  0.00     0.035 C 
ATOM      5  C   UNL     1      11.891   5.353  18.039  1.00  0.00     0.018 C 
ATOM      6  C   UNL     1      12.352   5.746  19.450  1.00  0.00     0.013 C 
ATOM      7  C   UNL     1      12.914   4.522  20.183  1.00  0.00     0.031 C 
ENDROOT
BRANCH   5   8
ATOM      8  C   UNL     1      11.204   6.512  17.331  1.00  0.00    -0.077 C 
ATOM      9  C   UNL     1      10.885   6.414  16.031  1.00  0.00     0.008 C 
ATOM     10  C   UNL     1      10.875   7.793  18.057  1.00  0.00     0.039 C 
ENDBRANCH   5   8
TORSDOF 1
ENDMDL
MODEL 6
REMARK VINA RESULT:    -3.539     12.414     14.886
REMARK INTER + INTRA:          -3.876
REMARK INTER:                  -3.746
REMARK INTRA:                  -0.130
REMARK UNBOUND:                -0.130
REMARK SMILES C=C(C)[C@H]1CC=C(C)CC1
REMARK SMILES IDX 8 1 7 2 6 3 5 4 4 5 10 6 9 7 2 8 1 9 3 10
REMARK H PARENT
REMARK Flexibility Score: inf
ROOT
ATOM      1  C   UNL     1      23.636   1.037  17.754  1.00  0.00     0.039 C 
ATOM      2  C   UNL     1      25.022   1.550  17.474  1.00  0.00    -0.077 C 
ATOM      3  C   UNL     1      26.023   1.226  18.321  1.00  0.00    -0.027 C 
ATOM      4  C   UNL     1      27.435   1.733  18.157  1.00  0.00     0.035 C 
ATOM      5  C   UNL     1      27.735   2.161  16.709  1.00  0.00     0.018 C 
ATOM      6  C   UNL     1      26.608   3.066  16.188  1.00  0.00     0.013 C 
ATOM      7  C   UNL     1      25.278   2.303  16.183  1.00  0.00     0.031 C 
ENDROOT
BRANCH   5   8
ATOM      8  C   UNL     1      29.093   2.840  16.602  1.00  0.00    -0.077 C 
ATOM      9  C   UNL     1      29.217   3.995  15.931  1.00  0.00     0.008 C 
ATOM     10  C   UNL     1      30.326   2.235  17.226  1.00  0.00     0.039 C 
ENDBRANCH   5   8
TORSDOF 1
ENDMDL
MODEL 7
REMARK VINA RESULT:    -3.427     21.049     22.446
REMARK INTER + INTRA:          -3.758
REMARK INTER:                  -3.630
REMARK INTRA:                  -0.128
REMARK UNBOUND:                -0.130
REMARK SMILES C=C(C)[C@H]1CC=C(C)CC1
REMARK SMILES IDX 8 1 7 2 6 3 5 4 4 5 10 6 9 7 2 8 1 9 3 10
REMARK H PARENT
REMARK Flexibility Score: inf
ROOT
ATOM      1  C   UNL     1      29.602   5.843  34.976  1.00  0.00     0.039 C 
ATOM      2  C   UNL     1      28.938   4.560  34.557  1.00  0.00    -0.077 C 
ATOM      3  C   UNL     1      27.686   4.298  34.994  1.00  0.00    -0.027 C 
ATOM      4  C   UNL     1      26.955   3.017  34.673  1.00  0.00     0.035 C 
ATOM      5  C   UNL     1      27.508   2.332  33.411  1.00  0.00     0.018 C 
ATOM      6  C   UNL     1      29.041   2.255  33.488  1.00  0.00     0.013 C 
ATOM      7  C   UNL     1      29.638   3.666  33.553  1.00  0.00     0.031 C 
ENDROOT
BRANCH   5   8
ATOM      8  C   UNL     1      26.888   0.957  33.209  1.00  0.00    -0.077 C 
ATOM      9  C   UNL     1      27.172   0.245  32.107  1.00  0.00     0.008 C 
ATOM     10  C   UNL     1      25.938   0.367  34.221  1.00  0.00     0.039 C 
ENDBRANCH   5   8
TORSDOF 1
ENDMDL
MODEL 8
REMARK VINA RESULT:    -1.771      1.633      4.465
REMARK INTER + INTRA:          -2.005
REMARK INTER:                  -1.876
REMARK INTRA:                  -0.129
REMARK UNBOUND:                -0.130
REMARK SMILES C=C(C)[C@H]1CC=C(C)CC1
REMARK SMILES IDX 8 1 7 2 6 3 5 4 4 5 10 6 9 7 2 8 1 9 3 10
REMARK H PARENT
REMARK Flexibility Score: inf
ROOT
ATOM      1  C   UNL     1      17.275   4.542  16.601  1.00  0.00     0.039 C 
ATOM      2  C   UNL     1      15.832   4.959  16.666  1.00  0.00    -0.077 C 
ATOM      3  C   UNL     1      15.509   6.244  16.398  1.00  0.00    -0.027 C 
ATOM      4  C   UNL     1      14.098   6.772  16.487  1.00  0.00     0.035 C 
ATOM      5  C   UNL     1      13.049   5.654  16.361  1.00  0.00     0.018 C 
ATOM      6  C   UNL     1      13.412   4.489  17.294  1.00  0.00     0.013 C 
ATOM      7  C   UNL     1      14.772   3.900  16.898  1.00  0.00     0.031 C 
ENDROOT
BRANCH   5   8
ATOM      8  C   UNL     1      11.646   6.176  16.638  1.00  0.00    -0.077 C 
ATOM      9  C   UNL     1      10.879   5.587  17.569  1.00  0.00     0.008 C 
ATOM     10  C   UNL     1      11.078   7.347  15.875  1.00  0.00     0.039 C 
ENDBRANCH   5   8
TORSDOF 1
ENDMDL
