MODEL 1
REMARK VINA RESULT:    -7.103      0.000      0.000
REMARK INTER + INTRA:         -13.194
REMARK INTER:                 -11.256
REMARK INTRA:                  -1.939
REMARK UNBOUND:                -1.939
REMARK SMILES C[C@@H]1O[C@@H](O[C@@H]2[C@H](Oc3cc(O)c4c(c3)O[C@@H](c3ccc(O)cc3)CC4=O)O[C@H](CO)[C@@H](O)[C@H]2O)[C@H](O)[C@@H](O)[C@@H]1O
REMARK SMILES IDX 6 1 34 2 32 3 29 4 28 5 7 6 5 7 4 8 1 9 2 10 40 11 3 12
REMARK SMILES IDX 38 13 36 14 41 15 39 17 37 19 35 21 8 23 9 24 10 25 15 26
REMARK SMILES IDX 11 27 14 28 13 29 16 30 26 31 17 32 27 33 25 34 12 35 18 37
REMARK SMILES IDX 19 38 24 39 20 40 23 41 21 42 22 43 33 45 30 47 31 48
REMARK H PARENT 41 16 39 18 37 20 35 22 12 36 22 44 33 46 31 49
REMARK Flexibility Score: inf
ROOT
ATOM      1  C   UNL     1       6.839   2.060  -6.250  1.00  0.00     0.221 C 
ATOM      2  C   UNL     1       6.872   3.179  -5.196  1.00  0.00     0.181 C 
ATOM      3  C   UNL     1       8.322   3.710  -5.100  1.00  0.00     0.177 C 
ATOM      4  C   UNL     1       9.312   2.530  -4.840  1.00  0.00     0.179 C 
ATOM      5  O   UNL     1       9.138   1.433  -5.720  1.00  0.00    -0.332 OA
ATOM      6  C   UNL     1       7.805   0.937  -5.803  1.00  0.00     0.339 C 
ENDROOT
BRANCH   1   7
ATOM      7  O   UNL     1       5.538   1.518  -6.424  1.00  0.00    -0.337 OA
BRANCH   7   8
ATOM      8  C   UNL     1       5.237   1.286  -7.800  1.00  0.00     0.282 C 
ATOM      9  C   UNL     1       2.837   4.004  -8.447  1.00  0.00     0.041 C 
ATOM     10  C   UNL     1       3.369   2.728  -7.750  1.00  0.00     0.150 C 
ATOM     11  C   UNL     1       2.339   1.551  -7.843  1.00  0.00     0.174 C 
ATOM     12  O   UNL     1       4.588   2.410  -8.389  1.00  0.00    -0.344 OA
ATOM     13  C   UNL     1       3.011   0.247  -7.339  1.00  0.00     0.179 C 
ATOM     14  C   UNL     1       4.360   0.046  -8.050  1.00  0.00     0.202 C 
BRANCH  11  15
ATOM     15  O   UNL     1       1.859   1.408  -9.171  1.00  0.00    -0.388 OA
ATOM     16  H   UNL     1       1.272   0.594  -9.148  1.00  0.00     0.211 HD
ENDBRANCH  11  15
BRANCH  13  17
ATOM     17  O   UNL     1       3.200   0.288  -5.944  1.00  0.00    -0.387 OA
ATOM     18  H   UNL     1       2.384   0.697  -5.529  1.00  0.00     0.211 HD
ENDBRANCH  13  17
BRANCH  14  19
ATOM     19  O   UNL     1       4.195   0.028  -9.461  1.00  0.00    -0.385 OA
ATOM     20  H   UNL     1       3.282   0.344  -9.705  1.00  0.00     0.211 HD
ENDBRANCH  14  19
ENDBRANCH   7   8
ENDBRANCH   1   7
BRANCH   2  21
ATOM     21  O   UNL     1       5.950   4.216  -5.462  1.00  0.00    -0.387 OA
ATOM     22  H   UNL     1       5.305   4.304  -4.710  1.00  0.00     0.211 HD
ENDBRANCH   2  21
BRANCH   6  23
ATOM     23  O   UNL     1       7.393   0.353  -4.560  1.00  0.00    -0.462 OA
BRANCH  23  24
ATOM     24  C   UNL     1       7.012  -0.989  -4.421  1.00  0.00     0.130 A 
ATOM     25  C   UNL     1       5.736  -1.451  -4.735  1.00  0.00     0.093 A 
ATOM     26  C   UNL     1       7.974  -1.895  -3.971  1.00  0.00     0.094 A 
ATOM     27  C   UNL     1       5.437  -2.828  -4.684  1.00  0.00     0.133 A 
ATOM     28  C   UNL     1       7.703  -3.269  -3.947  1.00  0.00     0.138 A 
ATOM     29  C   UNL     1       6.442  -3.754  -4.337  1.00  0.00     0.102 A 
ATOM     30  O   UNL     1       8.694  -4.154  -3.504  1.00  0.00    -0.484 OA
ATOM     31  C   UNL     1       6.210  -5.215  -4.259  1.00  0.00     0.174 C 
ATOM     32  C   UNL     1       8.407  -5.497  -3.072  1.00  0.00     0.211 C 
ATOM     33  O   UNL     1       5.051  -5.696  -4.419  1.00  0.00    -0.294 OA
ATOM     34  C   UNL     1       7.364  -6.141  -4.009  1.00  0.00     0.131 C 
BRANCH  27  35
ATOM     35  O   UNL     1       4.142  -3.265  -4.954  1.00  0.00    -0.507 OA
ATOM     36  H   UNL     1       3.331  -2.791  -4.536  1.00  0.00     0.293 HD
ENDBRANCH  27  35
BRANCH  32  37
ATOM     37  C   UNL     1       7.971  -5.561  -1.620  1.00  0.00    -0.007 A 
ATOM     38  C   UNL     1       8.306  -4.561  -0.696  1.00  0.00     0.011 A 
ATOM     39  C   UNL     1       7.165  -6.636  -1.194  1.00  0.00     0.011 A 
ATOM     40  C   UNL     1       7.881  -4.650   0.630  1.00  0.00     0.046 A 
ATOM     41  C   UNL     1       6.742  -6.723   0.136  1.00  0.00     0.046 A 
ATOM     42  C   UNL     1       7.103  -5.738   1.055  1.00  0.00     0.115 A 
BRANCH  42  43
ATOM     43  O   UNL     1       6.697  -5.796   2.383  1.00  0.00    -0.508 OA
ATOM     44  H   UNL     1       6.192  -6.597   2.735  1.00  0.00     0.293 HD
ENDBRANCH  42  43
ENDBRANCH  32  37
ENDBRANCH  23  24
ENDBRANCH   6  23
BRANCH   3  45
ATOM     45  O   UNL     1       8.664   4.449  -6.260  1.00  0.00    -0.387 OA
ATOM     46  H   UNL     1       9.546   4.929  -6.103  1.00  0.00     0.211 HD
ENDBRANCH   3  45
BRANCH   4  47
ATOM     47  C   UNL     1       9.379   2.132  -3.350  1.00  0.00     0.191 C 
BRANCH  47  48
ATOM     48  O   UNL     1       9.284   3.282  -2.547  1.00  0.00    -0.394 OA
ATOM     49  H   UNL     1       8.302   3.453  -2.455  1.00  0.00     0.210 HD
ENDBRANCH  47  48
ENDBRANCH   4  47
TORSDOF 14
ENDMDL
MODEL 2
REMARK VINA RESULT:    -7.055      2.705      5.525
REMARK INTER + INTRA:         -13.117
REMARK INTER:                 -11.529
REMARK INTRA:                  -1.588
REMARK UNBOUND:                -1.939
REMARK SMILES C[C@@H]1O[C@@H](O[C@@H]2[C@H](Oc3cc(O)c4c(c3)O[C@@H](c3ccc(O)cc3)CC4=O)O[C@H](CO)[C@@H](O)[C@H]2O)[C@H](O)[C@@H](O)[C@@H]1O
REMARK SMILES IDX 6 1 34 2 32 3 29 4 28 5 7 6 5 7 4 8 1 9 2 10 40 11 3 12
REMARK SMILES IDX 38 13 36 14 41 15 39 17 37 19 35 21 8 23 9 24 10 25 15 26
REMARK SMILES IDX 11 27 14 28 13 29 16 30 26 31 17 32 27 33 25 34 12 35 18 37
REMARK SMILES IDX 19 38 24 39 20 40 23 41 21 42 22 43 33 45 30 47 31 48
REMARK H PARENT 41 16 39 18 37 20 35 22 12 36 22 44 33 46 31 49
REMARK Flexibility Score: inf
ROOT
ATOM      1  C   UNL     1       3.616  -2.489  -6.796  1.00  0.00     0.221 C 
ATOM      2  C   UNL     1       2.910  -1.325  -6.080  1.00  0.00     0.181 C 
ATOM      3  C   UNL     1       3.091  -0.049  -6.937  1.00  0.00     0.177 C 
ATOM      4  C   UNL     1       4.605   0.186  -7.241  1.00  0.00     0.179 C 
ATOM      5  O   UNL     1       5.274  -0.962  -7.735  1.00  0.00    -0.332 OA
ATOM      6  C   UNL     1       5.115  -2.136  -6.943  1.00  0.00     0.339 C 
ENDROOT
BRANCH   1   7
ATOM      7  O   UNL     1       3.490  -3.714  -6.091  1.00  0.00    -0.337 OA
BRANCH   7   8
ATOM      8  C   UNL     1       3.635  -4.843  -6.954  1.00  0.00     0.282 C 
ATOM      9  C   UNL     1       0.431  -6.565  -6.382  1.00  0.00     0.041 C 
ATOM     10  C   UNL     1       1.800  -5.965  -5.982  1.00  0.00     0.150 C 
ATOM     11  C   UNL     1       2.706  -7.024  -5.267  1.00  0.00     0.174 C 
ATOM     12  O   UNL     1       2.388  -5.494  -7.177  1.00  0.00    -0.344 OA
ATOM     13  C   UNL     1       4.134  -6.442  -5.100  1.00  0.00     0.179 C 
ATOM     14  C   UNL     1       4.637  -5.896  -6.446  1.00  0.00     0.202 C 
BRANCH  11  15
ATOM     15  O   UNL     1       2.724  -8.242  -5.997  1.00  0.00    -0.388 OA
ATOM     16  H   UNL     1       1.816  -8.303  -6.421  1.00  0.00     0.211 HD
ENDBRANCH  11  15
BRANCH  13  17
ATOM     17  O   UNL     1       4.148  -5.424  -4.127  1.00  0.00    -0.387 OA
ATOM     18  H   UNL     1       3.616  -4.650  -4.477  1.00  0.00     0.211 HD
ENDBRANCH  13  17
BRANCH  14  19
ATOM     19  O   UNL     1       4.606  -6.902  -7.449  1.00  0.00    -0.385 OA
ATOM     20  H   UNL     1       5.209  -6.655  -8.203  1.00  0.00     0.211 HD
ENDBRANCH  14  19
ENDBRANCH   7   8
ENDBRANCH   1   7
BRANCH   2  21
ATOM     21  O   UNL     1       1.548  -1.588  -5.810  1.00  0.00    -0.387 OA
ATOM     22  H   UNL     1       1.102  -0.768  -5.468  1.00  0.00     0.211 HD
ENDBRANCH   2  21
BRANCH   6  23
ATOM     23  O   UNL     1       5.748  -1.985  -5.665  1.00  0.00    -0.462 OA
BRANCH  23  24
ATOM     24  C   UNL     1       6.634  -2.925  -5.122  1.00  0.00     0.130 A 
ATOM     25  C   UNL     1       7.271  -3.899  -5.888  1.00  0.00     0.093 A 
ATOM     26  C   UNL     1       6.900  -2.853  -3.753  1.00  0.00     0.094 A 
ATOM     27  C   UNL     1       8.238  -4.749  -5.313  1.00  0.00     0.133 A 
ATOM     28  C   UNL     1       7.883  -3.667  -3.174  1.00  0.00     0.138 A 
ATOM     29  C   UNL     1       8.587  -4.600  -3.955  1.00  0.00     0.102 A 
ATOM     30  O   UNL     1       8.137  -3.561  -1.801  1.00  0.00    -0.484 OA
ATOM     31  C   UNL     1       9.590  -5.452  -3.276  1.00  0.00     0.174 C 
ATOM     32  C   UNL     1       8.813  -4.584  -1.048  1.00  0.00     0.211 C 
ATOM     33  O   UNL     1      10.125  -6.429  -3.877  1.00  0.00    -0.294 OA
ATOM     34  C   UNL     1       9.997  -5.143  -1.864  1.00  0.00     0.131 C 
BRANCH  27  35
ATOM     35  O   UNL     1       8.827  -5.748  -6.084  1.00  0.00    -0.507 OA
ATOM     36  H   UNL     1       9.327  -5.515  -6.952  1.00  0.00     0.293 HD
ENDBRANCH  27  35
BRANCH  32  37
ATOM     37  C   UNL     1       7.876  -5.688  -0.595  1.00  0.00    -0.007 A 
ATOM     38  C   UNL     1       7.656  -6.842  -1.359  1.00  0.00     0.011 A 
ATOM     39  C   UNL     1       7.237  -5.572   0.658  1.00  0.00     0.011 A 
ATOM     40  C   UNL     1       6.791  -7.839  -0.906  1.00  0.00     0.046 A 
ATOM     41  C   UNL     1       6.370  -6.571   1.108  1.00  0.00     0.046 A 
ATOM     42  C   UNL     1       6.136  -7.704   0.328  1.00  0.00     0.115 A 
BRANCH  42  43
ATOM     43  O   UNL     1       5.281  -8.715   0.749  1.00  0.00    -0.508 OA
ATOM     44  H   UNL     1       4.832  -9.325   0.081  1.00  0.00     0.293 HD
ENDBRANCH  42  43
ENDBRANCH  32  37
ENDBRANCH  23  24
ENDBRANCH   6  23
BRANCH   3  45
ATOM     45  O   UNL     1       2.313  -0.124  -8.119  1.00  0.00    -0.387 OA
ATOM     46  H   UNL     1       2.926  -0.290  -8.913  1.00  0.00     0.211 HD
ENDBRANCH   3  45
BRANCH   4  47
ATOM     47  C   UNL     1       5.340   0.884  -6.077  1.00  0.00     0.191 C 
BRANCH  47  48
ATOM     48  O   UNL     1       4.505   0.928  -4.947  1.00  0.00    -0.394 OA
ATOM     49  H   UNL     1       4.307   1.899  -4.809  1.00  0.00     0.210 HD
ENDBRANCH  47  48
ENDBRANCH   4  47
TORSDOF 14
ENDMDL
MODEL 3
REMARK VINA RESULT:    -6.615      3.633      9.484
REMARK INTER + INTRA:         -12.420
REMARK INTER:                  -9.879
REMARK INTRA:                  -2.541
REMARK UNBOUND:                -1.939
REMARK SMILES C[C@@H]1O[C@@H](O[C@@H]2[C@H](Oc3cc(O)c4c(c3)O[C@@H](c3ccc(O)cc3)CC4=O)O[C@H](CO)[C@@H](O)[C@H]2O)[C@H](O)[C@@H](O)[C@@H]1O
REMARK SMILES IDX 6 1 34 2 32 3 29 4 28 5 7 6 5 7 4 8 1 9 2 10 40 11 3 12
REMARK SMILES IDX 38 13 36 14 41 15 39 17 37 19 35 21 8 23 9 24 10 25 15 26
REMARK SMILES IDX 11 27 14 28 13 29 16 30 26 31 17 32 27 33 25 34 12 35 18 37
REMARK SMILES IDX 19 38 24 39 20 40 23 41 21 42 22 43 33 45 30 47 31 48
REMARK H PARENT 41 16 39 18 37 20 35 22 12 36 22 44 33 46 31 49
REMARK Flexibility Score: inf
ROOT
ATOM      1  C   UNL     1       4.820   1.107  -7.285  1.00  0.00     0.221 C 
ATOM      2  C   UNL     1       3.394   0.876  -6.758  1.00  0.00     0.181 C 
ATOM      3  C   UNL     1       2.514   0.400  -7.939  1.00  0.00     0.177 C 
ATOM      4  C   UNL     1       2.622   1.404  -9.131  1.00  0.00     0.179 C 
ATOM      5  O   UNL     1       3.954   1.738  -9.479  1.00  0.00    -0.332 OA
ATOM      6  C   UNL     1       4.764   2.184  -8.394  1.00  0.00     0.339 C 
ENDROOT
BRANCH   1   7
ATOM      7  O   UNL     1       5.711   1.532  -6.264  1.00  0.00    -0.337 OA
BRANCH   7   8
ATOM      8  C   UNL     1       7.075   1.305  -6.621  1.00  0.00     0.282 C 
ATOM      9  C   UNL     1       8.064  -1.135  -4.045  1.00  0.00     0.041 C 
ATOM     10  C   UNL     1       7.547   0.224  -4.576  1.00  0.00     0.150 C 
ATOM     11  C   UNL     1       8.407   1.417  -4.036  1.00  0.00     0.174 C 
ATOM     12  O   UNL     1       7.595   0.140  -5.985  1.00  0.00    -0.344 OA
ATOM     13  C   UNL     1       7.995   2.716  -4.774  1.00  0.00     0.179 C 
ATOM     14  C   UNL     1       8.013   2.482  -6.294  1.00  0.00     0.202 C 
BRANCH  11  15
ATOM     15  O   UNL     1       9.792   1.148  -4.192  1.00  0.00    -0.388 OA
ATOM     16  H   UNL     1       9.900   0.898  -5.158  1.00  0.00     0.211 HD
ENDBRANCH  11  15
BRANCH  13  17
ATOM     17  O   UNL     1       6.717   3.141  -4.364  1.00  0.00    -0.387 OA
ATOM     18  H   UNL     1       6.744   3.312  -3.377  1.00  0.00     0.211 HD
ENDBRANCH  13  17
BRANCH  14  19
ATOM     19  O   UNL     1       9.287   2.027  -6.725  1.00  0.00    -0.385 OA
ATOM     20  H   UNL     1       9.681   1.411  -6.048  1.00  0.00     0.211 HD
ENDBRANCH  14  19
ENDBRANCH   7   8
ENDBRANCH   1   7
BRANCH   2  21
ATOM     21  O   UNL     1       3.346  -0.025  -5.671  1.00  0.00    -0.387 OA
ATOM     22  H   UNL     1       2.530  -0.590  -5.729  1.00  0.00     0.211 HD
ENDBRANCH   2  21
BRANCH   6  23
ATOM     23  O   UNL     1       4.297   3.440  -7.885  1.00  0.00    -0.462 OA
BRANCH  23  24
ATOM     24  C   UNL     1       5.135   4.534  -7.628  1.00  0.00     0.130 A 
ATOM     25  C   UNL     1       6.199   4.886  -8.455  1.00  0.00     0.093 A 
ATOM     26  C   UNL     1       4.862   5.311  -6.500  1.00  0.00     0.094 A 
ATOM     27  C   UNL     1       6.941   6.060  -8.213  1.00  0.00     0.133 A 
ATOM     28  C   UNL     1       5.568   6.498  -6.265  1.00  0.00     0.138 A 
ATOM     29  C   UNL     1       6.593   6.903  -7.138  1.00  0.00     0.102 A 
ATOM     30  O   UNL     1       5.262   7.264  -5.133  1.00  0.00    -0.484 OA
ATOM     31  C   UNL     1       7.323   8.151  -6.815  1.00  0.00     0.174 C 
ATOM     32  C   UNL     1       6.155   8.253  -4.591  1.00  0.00     0.211 C 
ATOM     33  O   UNL     1       8.367   8.475  -7.452  1.00  0.00    -0.294 OA
ATOM     34  C   UNL     1       6.807   9.057  -5.735  1.00  0.00     0.131 C 
BRANCH  27  35
ATOM     35  O   UNL     1       8.032   6.367  -9.022  1.00  0.00    -0.507 OA
ATOM     36  H   UNL     1       7.896   6.816  -9.938  1.00  0.00     0.293 HD
ENDBRANCH  27  35
BRANCH  32  37
ATOM     37  C   UNL     1       7.196   7.652  -3.666  1.00  0.00    -0.007 A 
ATOM     38  C   UNL     1       8.393   8.314  -3.357  1.00  0.00     0.011 A 
ATOM     39  C   UNL     1       6.935   6.406  -3.059  1.00  0.00     0.011 A 
ATOM     40  C   UNL     1       9.324   7.732  -2.495  1.00  0.00     0.046 A 
ATOM     41  C   UNL     1       7.870   5.824  -2.198  1.00  0.00     0.046 A 
ATOM     42  C   UNL     1       9.071   6.478  -1.918  1.00  0.00     0.115 A 
BRANCH  42  43
ATOM     43  O   UNL     1      10.019   5.927  -1.065  1.00  0.00    -0.508 OA
ATOM     44  H   UNL     1       9.875   5.018  -0.649  1.00  0.00     0.293 HD
ENDBRANCH  42  43
ENDBRANCH  32  37
ENDBRANCH  23  24
ENDBRANCH   6  23
BRANCH   3  45
ATOM     45  O   UNL     1       2.857  -0.921  -8.320  1.00  0.00    -0.387 OA
ATOM     46  H   UNL     1       2.502  -1.572  -7.625  1.00  0.00     0.211 HD
ENDBRANCH   3  45
BRANCH   4  47
ATOM     47  C   UNL     1       1.697   2.628  -8.958  1.00  0.00     0.191 C 
BRANCH  47  48
ATOM     48  O   UNL     1       0.524   2.244  -8.283  1.00  0.00    -0.394 OA
ATOM     49  H   UNL     1      -0.096   1.929  -9.003  1.00  0.00     0.210 HD
ENDBRANCH  47  48
ENDBRANCH   4  47
TORSDOF 14
ENDMDL
MODEL 4
REMARK VINA RESULT:    -6.611     13.336     15.681
REMARK INTER + INTRA:         -12.414
REMARK INTER:                 -10.994
REMARK INTRA:                  -1.420
REMARK UNBOUND:                -1.939
REMARK SMILES C[C@@H]1O[C@@H](O[C@@H]2[C@H](Oc3cc(O)c4c(c3)O[C@@H](c3ccc(O)cc3)CC4=O)O[C@H](CO)[C@@H](O)[C@H]2O)[C@H](O)[C@@H](O)[C@@H]1O
REMARK SMILES IDX 6 1 34 2 32 3 29 4 28 5 7 6 5 7 4 8 1 9 2 10 40 11 3 12
REMARK SMILES IDX 38 13 36 14 41 15 39 17 37 19 35 21 8 23 9 24 10 25 15 26
REMARK SMILES IDX 11 27 14 28 13 29 16 30 26 31 17 32 27 33 25 34 12 35 18 37
REMARK SMILES IDX 19 38 24 39 20 40 23 41 21 42 22 43 33 45 30 47 31 48
REMARK H PARENT 41 16 39 18 37 20 35 22 12 36 22 44 33 46 31 49
REMARK Flexibility Score: inf
ROOT
ATOM      1  C   UNL     1      -2.415   4.004   7.905  1.00  0.00     0.221 C 
ATOM      2  C   UNL     1      -2.575   2.510   7.577  1.00  0.00     0.181 C 
ATOM      3  C   UNL     1      -2.480   1.713   8.901  1.00  0.00     0.177 C 
ATOM      4  C   UNL     1      -1.167   2.084   9.660  1.00  0.00     0.179 C 
ATOM      5  O   UNL     1      -0.956   3.479   9.791  1.00  0.00    -0.332 OA
ATOM      6  C   UNL     1      -1.035   4.214   8.572  1.00  0.00     0.339 C 
ENDROOT
BRANCH   1   7
ATOM      7  O   UNL     1      -2.505   4.824   6.749  1.00  0.00    -0.337 OA
BRANCH   7   8
ATOM      8  C   UNL     1      -1.993   6.136   6.986  1.00  0.00     0.282 C 
ATOM      9  C   UNL     1      -5.085   7.936   7.859  1.00  0.00     0.041 C 
ATOM     10  C   UNL     1      -4.145   7.104   6.952  1.00  0.00     0.150 C 
ATOM     11  C   UNL     1      -3.912   7.804   5.570  1.00  0.00     0.174 C 
ATOM     12  O   UNL     1      -2.939   6.950   7.672  1.00  0.00    -0.344 OA
ATOM     13  C   UNL     1      -2.794   7.053   4.803  1.00  0.00     0.179 C 
ATOM     14  C   UNL     1      -1.563   6.880   5.709  1.00  0.00     0.202 C 
BRANCH  11  15
ATOM     15  O   UNL     1      -3.588   9.174   5.750  1.00  0.00    -0.388 OA
ATOM     16  H   UNL     1      -2.633   9.176   6.060  1.00  0.00     0.211 HD
ENDBRANCH  11  15
BRANCH  13  17
ATOM     17  O   UNL     1      -3.248   5.796   4.359  1.00  0.00    -0.387 OA
ATOM     18  H   UNL     1      -4.108   5.589   4.831  1.00  0.00     0.211 HD
ENDBRANCH  13  17
BRANCH  14  19
ATOM     19  O   UNL     1      -1.103   8.136   6.189  1.00  0.00    -0.385 OA
ATOM     20  H   UNL     1      -0.614   8.621   5.469  1.00  0.00     0.211 HD
ENDBRANCH  14  19
ENDBRANCH   7   8
ENDBRANCH   1   7
BRANCH   2  21
ATOM     21  O   UNL     1      -3.767   2.223   6.876  1.00  0.00    -0.387 OA
ATOM     22  H   UNL     1      -3.557   1.846   5.981  1.00  0.00     0.211 HD
ENDBRANCH   2  21
BRANCH   6  23
ATOM     23  O   UNL     1       0.037   3.862   7.688  1.00  0.00    -0.462 OA
BRANCH  23  24
ATOM     24  C   UNL     1       1.327   4.403   7.777  1.00  0.00     0.130 A 
ATOM     25  C   UNL     1       1.631   5.707   7.394  1.00  0.00     0.093 A 
ATOM     26  C   UNL     1       2.337   3.593   8.301  1.00  0.00     0.094 A 
ATOM     27  C   UNL     1       2.920   6.238   7.609  1.00  0.00     0.133 A 
ATOM     28  C   UNL     1       3.612   4.116   8.552  1.00  0.00     0.138 A 
ATOM     29  C   UNL     1       3.907   5.456   8.240  1.00  0.00     0.102 A 
ATOM     30  O   UNL     1       4.600   3.283   9.091  1.00  0.00    -0.484 OA
ATOM     31  C   UNL     1       5.283   5.938   8.500  1.00  0.00     0.174 C 
ATOM     32  C   UNL     1       6.005   3.587   9.021  1.00  0.00     0.211 C 
ATOM     33  O   UNL     1       5.664   7.068   8.078  1.00  0.00    -0.294 OA
ATOM     34  C   UNL     1       6.234   5.088   9.293  1.00  0.00     0.131 C 
BRANCH  27  35
ATOM     35  O   UNL     1       3.217   7.527   7.173  1.00  0.00    -0.507 OA
ATOM     36  H   UNL     1       2.504   8.268   7.199  1.00  0.00     0.293 HD
ENDBRANCH  27  35
BRANCH  32  37
ATOM     37  C   UNL     1       6.628   3.155   7.707  1.00  0.00    -0.007 A 
ATOM     38  C   UNL     1       5.854   2.761   6.606  1.00  0.00     0.011 A 
ATOM     39  C   UNL     1       8.032   3.193   7.570  1.00  0.00     0.011 A 
ATOM     40  C   UNL     1       6.463   2.377   5.411  1.00  0.00     0.046 A 
ATOM     41  C   UNL     1       8.639   2.805   6.371  1.00  0.00     0.046 A 
ATOM     42  C   UNL     1       7.861   2.388   5.291  1.00  0.00     0.115 A 
BRANCH  42  43
ATOM     43  O   UNL     1       8.435   1.999   4.087  1.00  0.00    -0.508 OA
ATOM     44  H   UNL     1       7.861   1.801   3.280  1.00  0.00     0.293 HD
ENDBRANCH  42  43
ENDBRANCH  32  37
ENDBRANCH  23  24
ENDBRANCH   6  23
BRANCH   3  45
ATOM     45  O   UNL     1      -3.634   1.920   9.695  1.00  0.00    -0.387 OA
ATOM     46  H   UNL     1      -3.810   2.917   9.776  1.00  0.00     0.211 HD
ENDBRANCH   3  45
BRANCH   4  47
ATOM     47  C   UNL     1       0.062   1.314   9.129  1.00  0.00     0.191 C 
BRANCH  47  48
ATOM     48  O   UNL     1      -0.329   0.029   8.711  1.00  0.00    -0.394 OA
ATOM     49  H   UNL     1      -0.013  -0.042   7.763  1.00  0.00     0.210 HD
ENDBRANCH  47  48
ENDBRANCH   4  47
TORSDOF 14
ENDMDL
MODEL 5
REMARK VINA RESULT:    -6.602     13.823     16.165
REMARK INTER + INTRA:         -12.400
REMARK INTER:                 -10.880
REMARK INTRA:                  -1.520
REMARK UNBOUND:                -1.939
REMARK SMILES C[C@@H]1O[C@@H](O[C@@H]2[C@H](Oc3cc(O)c4c(c3)O[C@@H](c3ccc(O)cc3)CC4=O)O[C@H](CO)[C@@H](O)[C@H]2O)[C@H](O)[C@@H](O)[C@@H]1O
REMARK SMILES IDX 6 1 34 2 32 3 29 4 28 5 7 6 5 7 4 8 1 9 2 10 40 11 3 12
REMARK SMILES IDX 38 13 36 14 41 15 39 17 37 19 35 21 8 23 9 24 10 25 15 26
REMARK SMILES IDX 11 27 14 28 13 29 16 30 26 31 17 32 27 33 25 34 12 35 18 37
REMARK SMILES IDX 19 38 24 39 20 40 23 41 21 42 22 43 33 45 30 47 31 48
REMARK H PARENT 41 16 39 18 37 20 35 22 12 36 22 44 33 46 31 49
REMARK Flexibility Score: inf
ROOT
ATOM      1  C   UNL     1      -2.896   6.362   6.084  1.00  0.00     0.221 C 
ATOM      2  C   UNL     1      -3.831   7.410   6.711  1.00  0.00     0.181 C 
ATOM      3  C   UNL     1      -4.042   8.546   5.682  1.00  0.00     0.177 C 
ATOM      4  C   UNL     1      -2.663   9.099   5.197  1.00  0.00     0.179 C 
ATOM      5  O   UNL     1      -1.754   8.091   4.791  1.00  0.00    -0.332 OA
ATOM      6  C   UNL     1      -1.552   7.047   5.741  1.00  0.00     0.339 C 
ENDROOT
BRANCH   1   7
ATOM      7  O   UNL     1      -2.654   5.264   6.951  1.00  0.00    -0.337 OA
BRANCH   7   8
ATOM      8  C   UNL     1      -1.658   4.384   6.429  1.00  0.00     0.282 C 
ATOM      9  C   UNL     1      -3.495   1.191   6.425  1.00  0.00     0.041 C 
ATOM     10  C   UNL     1      -2.871   2.459   7.059  1.00  0.00     0.150 C 
ATOM     11  C   UNL     1      -1.876   2.094   8.213  1.00  0.00     0.174 C 
ATOM     12  O   UNL     1      -2.224   3.146   6.007  1.00  0.00    -0.344 OA
ATOM     13  C   UNL     1      -1.115   3.372   8.649  1.00  0.00     0.179 C 
ATOM     14  C   UNL     1      -0.519   4.072   7.417  1.00  0.00     0.202 C 
BRANCH  11  15
ATOM     15  O   UNL     1      -0.982   1.072   7.800  1.00  0.00    -0.388 OA
ATOM     16  H   UNL     1      -0.467   1.471   7.037  1.00  0.00     0.211 HD
ENDBRANCH  11  15
BRANCH  13  17
ATOM     17  O   UNL     1      -1.968   4.252   9.341  1.00  0.00    -0.387 OA
ATOM     18  H   UNL     1      -2.513   4.755   8.667  1.00  0.00     0.211 HD
ENDBRANCH  13  17
BRANCH  14  19
ATOM     19  O   UNL     1       0.327   3.193   6.689  1.00  0.00    -0.385 OA
ATOM     20  H   UNL     1      -0.179   2.769   5.942  1.00  0.00     0.211 HD
ENDBRANCH  14  19
ENDBRANCH   7   8
ENDBRANCH   1   7
BRANCH   2  21
ATOM     21  O   UNL     1      -5.058   6.864   7.149  1.00  0.00    -0.387 OA
ATOM     22  H   UNL     1      -5.751   7.575   7.202  1.00  0.00     0.211 HD
ENDBRANCH   2  21
BRANCH   6  23
ATOM     23  O   UNL     1      -0.898   7.541   6.917  1.00  0.00    -0.462 OA
BRANCH  23  24
ATOM     24  C   UNL     1       0.482   7.779   6.997  1.00  0.00     0.130 A 
ATOM     25  C   UNL     1       1.130   8.745   6.232  1.00  0.00     0.093 A 
ATOM     26  C   UNL     1       1.220   7.021   7.908  1.00  0.00     0.094 A 
ATOM     27  C   UNL     1       2.499   9.022   6.431  1.00  0.00     0.133 A 
ATOM     28  C   UNL     1       2.572   7.306   8.141  1.00  0.00     0.138 A 
ATOM     29  C   UNL     1       3.217   8.333   7.429  1.00  0.00     0.102 A 
ATOM     30  O   UNL     1       3.283   6.538   9.071  1.00  0.00    -0.484 OA
ATOM     31  C   UNL     1       4.655   8.563   7.700  1.00  0.00     0.174 C 
ATOM     32  C   UNL     1       4.721   6.478   9.102  1.00  0.00     0.211 C 
ATOM     33  O   UNL     1       5.336   9.341   6.971  1.00  0.00    -0.294 OA
ATOM     34  C   UNL     1       5.312   7.882   8.865  1.00  0.00     0.131 C 
BRANCH  27  35
ATOM     35  O   UNL     1       3.140   9.957   5.622  1.00  0.00    -0.507 OA
ATOM     36  H   UNL     1       3.150   9.846   4.599  1.00  0.00     0.293 HD
ENDBRANCH  27  35
BRANCH  32  37
ATOM     37  C   UNL     1       5.280   5.462   8.123  1.00  0.00    -0.007 A 
ATOM     38  C   UNL     1       6.391   5.739   7.314  1.00  0.00     0.011 A 
ATOM     39  C   UNL     1       4.695   4.181   8.057  1.00  0.00     0.011 A 
ATOM     40  C   UNL     1       6.882   4.777   6.430  1.00  0.00     0.046 A 
ATOM     41  C   UNL     1       5.188   3.220   7.169  1.00  0.00     0.046 A 
ATOM     42  C   UNL     1       6.276   3.514   6.347  1.00  0.00     0.115 A 
BRANCH  42  43
ATOM     43  O   UNL     1       6.790   2.579   5.456  1.00  0.00    -0.508 OA
ATOM     44  H   UNL     1       6.479   2.554   4.496  1.00  0.00     0.293 HD
ENDBRANCH  42  43
ENDBRANCH  32  37
ENDBRANCH  23  24
ENDBRANCH   6  23
BRANCH   3  45
ATOM     45  O   UNL     1      -4.849   8.105   4.605  1.00  0.00    -0.387 OA
ATOM     46  H   UNL     1      -5.677   8.692   4.545  1.00  0.00     0.211 HD
ENDBRANCH   3  45
BRANCH   4  47
ATOM     47  C   UNL     1      -2.059  10.125   6.180  1.00  0.00     0.191 C 
BRANCH  47  48
ATOM     48  O   UNL     1      -2.622   9.946   7.457  1.00  0.00    -0.394 OA
ATOM     49  H   UNL     1      -3.226   9.153   7.365  1.00  0.00     0.210 HD
ENDBRANCH  47  48
ENDBRANCH   4  47
TORSDOF 14
ENDMDL
MODEL 6
REMARK VINA RESULT:    -6.576      3.307      9.824
REMARK INTER + INTRA:         -12.359
REMARK INTER:                 -10.434
REMARK INTRA:                  -1.925
REMARK UNBOUND:                -1.939
REMARK SMILES C[C@@H]1O[C@@H](O[C@@H]2[C@H](Oc3cc(O)c4c(c3)O[C@@H](c3ccc(O)cc3)CC4=O)O[C@H](CO)[C@@H](O)[C@H]2O)[C@H](O)[C@@H](O)[C@@H]1O
REMARK SMILES IDX 6 1 34 2 32 3 29 4 28 5 7 6 5 7 4 8 1 9 2 10 40 11 3 12
REMARK SMILES IDX 38 13 36 14 41 15 39 17 37 19 35 21 8 23 9 24 10 25 15 26
REMARK SMILES IDX 11 27 14 28 13 29 16 30 26 31 17 32 27 33 25 34 12 35 18 37
REMARK SMILES IDX 19 38 24 39 20 40 23 41 21 42 22 43 33 45 30 47 31 48
REMARK H PARENT 41 16 39 18 37 20 35 22 12 36 22 44 33 46 31 49
REMARK Flexibility Score: inf
ROOT
ATOM      1  C   UNL     1       5.081   0.243  -7.223  1.00  0.00     0.221 C 
ATOM      2  C   UNL     1       3.750  -0.089  -6.528  1.00  0.00     0.181 C 
ATOM      3  C   UNL     1       2.700  -0.402  -7.621  1.00  0.00     0.177 C 
ATOM      4  C   UNL     1       2.631   0.768  -8.654  1.00  0.00     0.179 C 
ATOM      5  O   UNL     1       3.897   1.173  -9.145  1.00  0.00    -0.332 OA
ATOM      6  C   UNL     1       4.863   1.470  -8.140  1.00  0.00     0.339 C 
ENDROOT
BRANCH   1   7
ATOM      7  O   UNL     1       6.119   0.529  -6.296  1.00  0.00    -0.337 OA
BRANCH   7   8
ATOM      8  C   UNL     1       7.265  -0.296  -6.510  1.00  0.00     0.282 C 
ATOM      9  C   UNL     1       6.807  -2.810  -3.858  1.00  0.00     0.041 C 
ATOM     10  C   UNL     1       7.005  -1.386  -4.432  1.00  0.00     0.150 C 
ATOM     11  C   UNL     1       8.251  -0.679  -3.798  1.00  0.00     0.174 C 
ATOM     12  O   UNL     1       7.146  -1.542  -5.829  1.00  0.00    -0.344 OA
ATOM     13  C   UNL     1       8.536   0.636  -4.569  1.00  0.00     0.179 C 
ATOM     14  C   UNL     1       8.593   0.354  -6.080  1.00  0.00     0.202 C 
BRANCH  11  15
ATOM     15  O   UNL     1       9.378  -1.543  -3.810  1.00  0.00    -0.388 OA
ATOM     16  H   UNL     1       9.365  -1.973  -4.718  1.00  0.00     0.211 HD
ENDBRANCH  11  15
BRANCH  13  17
ATOM     17  O   UNL     1       7.549   1.601  -4.293  1.00  0.00    -0.387 OA
ATOM     18  H   UNL     1       6.800   1.480  -4.947  1.00  0.00     0.211 HD
ENDBRANCH  13  17
BRANCH  14  19
ATOM     19  O   UNL     1       9.565  -0.637  -6.378  1.00  0.00    -0.385 OA
ATOM     20  H   UNL     1       9.999  -0.442  -7.253  1.00  0.00     0.211 HD
ENDBRANCH  14  19
ENDBRANCH   7   8
ENDBRANCH   1   7
BRANCH   2  21
ATOM     21  O   UNL     1       3.863  -1.140  -5.592  1.00  0.00    -0.387 OA
ATOM     22  H   UNL     1       3.404  -1.954  -5.932  1.00  0.00     0.211 HD
ENDBRANCH   2  21
BRANCH   6  23
ATOM     23  O   UNL     1       4.484   2.629  -7.386  1.00  0.00    -0.462 OA
BRANCH  23  24
ATOM     24  C   UNL     1       5.311   3.748  -7.214  1.00  0.00     0.130 A 
ATOM     25  C   UNL     1       6.698   3.689  -7.314  1.00  0.00     0.093 A 
ATOM     26  C   UNL     1       4.697   4.976  -6.958  1.00  0.00     0.094 A 
ATOM     27  C   UNL     1       7.476   4.863  -7.245  1.00  0.00     0.133 A 
ATOM     28  C   UNL     1       5.452   6.156  -6.919  1.00  0.00     0.138 A 
ATOM     29  C   UNL     1       6.847   6.115  -7.097  1.00  0.00     0.102 A 
ATOM     30  O   UNL     1       4.807   7.374  -6.674  1.00  0.00    -0.484 OA
ATOM     31  C   UNL     1       7.591   7.394  -7.013  1.00  0.00     0.174 C 
ATOM     32  C   UNL     1       5.503   8.553  -6.230  1.00  0.00     0.211 C 
ATOM     33  O   UNL     1       8.856   7.407  -6.982  1.00  0.00    -0.294 OA
ATOM     34  C   UNL     1       6.839   8.693  -6.987  1.00  0.00     0.131 C 
BRANCH  27  35
ATOM     35  O   UNL     1       8.865   4.776  -7.297  1.00  0.00    -0.507 OA
ATOM     36  H   UNL     1       9.337   4.409  -8.134  1.00  0.00     0.293 HD
ENDBRANCH  27  35
BRANCH  32  37
ATOM     37  C   UNL     1       5.705   8.577  -4.727  1.00  0.00    -0.007 A 
ATOM     38  C   UNL     1       5.218   7.562  -3.891  1.00  0.00     0.011 A 
ATOM     39  C   UNL     1       6.446   9.631  -4.153  1.00  0.00     0.011 A 
ATOM     40  C   UNL     1       5.430   7.615  -2.513  1.00  0.00     0.046 A 
ATOM     41  C   UNL     1       6.656   9.683  -2.771  1.00  0.00     0.046 A 
ATOM     42  C   UNL     1       6.143   8.682  -1.945  1.00  0.00     0.115 A 
BRANCH  42  43
ATOM     43  O   UNL     1       6.336   8.704  -0.569  1.00  0.00    -0.508 OA
ATOM     44  H   UNL     1       7.117   9.200  -0.164  1.00  0.00     0.293 HD
ENDBRANCH  42  43
ENDBRANCH  32  37
ENDBRANCH  23  24
ENDBRANCH   6  23
BRANCH   3  45
ATOM     45  O   UNL     1       2.975  -1.646  -8.240  1.00  0.00    -0.387 OA
ATOM     46  H   UNL     1       3.227  -2.326  -7.527  1.00  0.00     0.211 HD
ENDBRANCH   3  45
BRANCH   4  47
ATOM     47  C   UNL     1       1.748   1.937  -8.165  1.00  0.00     0.191 C 
BRANCH  47  48
ATOM     48  O   UNL     1       0.506   1.442  -7.729  1.00  0.00    -0.394 OA
ATOM     49  H   UNL     1       0.730   0.755  -7.037  1.00  0.00     0.210 HD
ENDBRANCH  47  48
ENDBRANCH   4  47
TORSDOF 14
ENDMDL
MODEL 7
REMARK VINA RESULT:    -6.543      2.388      9.211
REMARK INTER + INTRA:         -12.307
REMARK INTER:                 -10.823
REMARK INTRA:                  -1.485
REMARK UNBOUND:                -1.939
REMARK SMILES C[C@@H]1O[C@@H](O[C@@H]2[C@H](Oc3cc(O)c4c(c3)O[C@@H](c3ccc(O)cc3)CC4=O)O[C@H](CO)[C@@H](O)[C@H]2O)[C@H](O)[C@@H](O)[C@@H]1O
REMARK SMILES IDX 6 1 34 2 32 3 29 4 28 5 7 6 5 7 4 8 1 9 2 10 40 11 3 12
REMARK SMILES IDX 38 13 36 14 41 15 39 17 37 19 35 21 8 23 9 24 10 25 15 26
REMARK SMILES IDX 11 27 14 28 13 29 16 30 26 31 17 32 27 33 25 34 12 35 18 37
REMARK SMILES IDX 19 38 24 39 20 40 23 41 21 42 22 43 33 45 30 47 31 48
REMARK H PARENT 41 16 39 18 37 20 35 22 12 36 22 44 33 46 31 49
REMARK Flexibility Score: inf
ROOT
ATOM      1  C   UNL     1       5.824  -3.020  -5.451  1.00  0.00     0.221 C 
ATOM      2  C   UNL     1       4.401  -3.221  -4.904  1.00  0.00     0.181 C 
ATOM      3  C   UNL     1       3.418  -3.203  -6.099  1.00  0.00     0.177 C 
ATOM      4  C   UNL     1       3.621  -1.906  -6.945  1.00  0.00     0.179 C 
ATOM      5  O   UNL     1       4.973  -1.650  -7.284  1.00  0.00    -0.332 OA
ATOM      6  C   UNL     1       5.879  -1.659  -6.185  1.00  0.00     0.339 C 
ENDROOT
BRANCH   1   7
ATOM      7  O   UNL     1       6.806  -3.040  -4.426  1.00  0.00    -0.337 OA
BRANCH   7   8
ATOM      8  C   UNL     1       7.743  -4.102  -4.607  1.00  0.00     0.282 C 
ATOM      9  C   UNL     1       6.489  -6.550  -2.158  1.00  0.00     0.041 C 
ATOM     10  C   UNL     1       7.062  -5.190  -2.626  1.00  0.00     0.150 C 
ATOM     11  C   UNL     1       8.379  -4.827  -1.861  1.00  0.00     0.174 C 
ATOM     12  O   UNL     1       7.280  -5.313  -4.016  1.00  0.00    -0.344 OA
ATOM     13  C   UNL     1       9.026  -3.584  -2.525  1.00  0.00     0.179 C 
ATOM     14  C   UNL     1       9.145  -3.805  -4.042  1.00  0.00     0.202 C 
BRANCH  11  15
ATOM     15  O   UNL     1       9.271  -5.931  -1.845  1.00  0.00    -0.388 OA
ATOM     16  H   UNL     1       9.571  -6.034  -2.797  1.00  0.00     0.211 HD
ENDBRANCH  11  15
BRANCH  13  17
ATOM     17  O   UNL     1       8.271  -2.425  -2.261  1.00  0.00    -0.387 OA
ATOM     18  H   UNL     1       7.312  -2.694  -2.155  1.00  0.00     0.211 HD
ENDBRANCH  13  17
BRANCH  14  19
ATOM     19  O   UNL     1       9.882  -4.984  -4.330  1.00  0.00    -0.385 OA
ATOM     20  H   UNL     1      10.633  -4.778  -4.951  1.00  0.00     0.211 HD
ENDBRANCH  14  19
ENDBRANCH   7   8
ENDBRANCH   1   7
BRANCH   2  21
ATOM     21  O   UNL     1       4.268  -4.397  -4.132  1.00  0.00    -0.387 OA
ATOM     22  H   UNL     1       3.526  -4.296  -3.478  1.00  0.00     0.211 HD
ENDBRANCH   2  21
BRANCH   6  23
ATOM     23  O   UNL     1       5.616  -0.569  -5.291  1.00  0.00    -0.462 OA
BRANCH  23  24
ATOM     24  C   UNL     1       6.464   0.538  -5.146  1.00  0.00     0.130 A 
ATOM     25  C   UNL     1       7.703   0.466  -4.514  1.00  0.00     0.093 A 
ATOM     26  C   UNL     1       6.044   1.754  -5.687  1.00  0.00     0.094 A 
ATOM     27  C   UNL     1       8.567   1.581  -4.493  1.00  0.00     0.133 A 
ATOM     28  C   UNL     1       6.904   2.861  -5.704  1.00  0.00     0.138 A 
ATOM     29  C   UNL     1       8.188   2.776  -5.138  1.00  0.00     0.102 A 
ATOM     30  O   UNL     1       6.459   4.064  -6.267  1.00  0.00    -0.484 OA
ATOM     31  C   UNL     1       9.035   3.991  -5.160  1.00  0.00     0.174 C 
ATOM     32  C   UNL     1       7.080   5.333  -5.994  1.00  0.00     0.211 C 
ATOM     33  O   UNL     1      10.120   4.036  -4.512  1.00  0.00    -0.294 OA
ATOM     34  C   UNL     1       8.615   5.177  -5.978  1.00  0.00     0.131 C 
BRANCH  27  35
ATOM     35  O   UNL     1       9.780   1.503  -3.813  1.00  0.00    -0.507 OA
ATOM     36  H   UNL     1      10.198   2.342  -3.389  1.00  0.00     0.293 HD
ENDBRANCH  27  35
BRANCH  32  37
ATOM     37  C   UNL     1       6.568   5.966  -4.713  1.00  0.00    -0.007 A 
ATOM     38  C   UNL     1       7.145   5.695  -3.464  1.00  0.00     0.011 A 
ATOM     39  C   UNL     1       5.507   6.892  -4.784  1.00  0.00     0.011 A 
ATOM     40  C   UNL     1       6.652   6.302  -2.308  1.00  0.00     0.046 A 
ATOM     41  C   UNL     1       5.014   7.497  -3.624  1.00  0.00     0.046 A 
ATOM     42  C   UNL     1       5.576   7.200  -2.382  1.00  0.00     0.115 A 
BRANCH  42  43
ATOM     43  O   UNL     1       5.109   7.787  -1.211  1.00  0.00    -0.508 OA
ATOM     44  H   UNL     1       5.729   8.313  -0.613  1.00  0.00     0.293 HD
ENDBRANCH  42  43
ENDBRANCH  32  37
ENDBRANCH  23  24
ENDBRANCH   6  23
BRANCH   3  45
ATOM     45  O   UNL     1       3.553  -4.377  -6.879  1.00  0.00    -0.387 OA
ATOM     46  H   UNL     1       2.755  -4.459  -7.502  1.00  0.00     0.211 HD
ENDBRANCH   3  45
BRANCH   4  47
ATOM     47  C   UNL     1       2.887  -0.687  -6.344  1.00  0.00     0.191 C 
BRANCH  47  48
ATOM     48  O   UNL     1       1.878  -1.126  -5.469  1.00  0.00    -0.394 OA
ATOM     49  H   UNL     1       1.046  -1.152  -6.026  1.00  0.00     0.210 HD
ENDBRANCH  47  48
ENDBRANCH   4  47
TORSDOF 14
ENDMDL
MODEL 8
REMARK VINA RESULT:    -6.414      4.413      8.119
REMARK INTER + INTRA:         -12.103
REMARK INTER:                  -9.949
REMARK INTRA:                  -2.154
REMARK UNBOUND:                -1.939
REMARK SMILES C[C@@H]1O[C@@H](O[C@@H]2[C@H](Oc3cc(O)c4c(c3)O[C@@H](c3ccc(O)cc3)CC4=O)O[C@H](CO)[C@@H](O)[C@H]2O)[C@H](O)[C@@H](O)[C@@H]1O
REMARK SMILES IDX 6 1 34 2 32 3 29 4 28 5 7 6 5 7 4 8 1 9 2 10 40 11 3 12
REMARK SMILES IDX 38 13 36 14 41 15 39 17 37 19 35 21 8 23 9 24 10 25 15 26
REMARK SMILES IDX 11 27 14 28 13 29 16 30 26 31 17 32 27 33 25 34 12 35 18 37
REMARK SMILES IDX 19 38 24 39 20 40 23 41 21 42 22 43 33 45 30 47 31 48
REMARK H PARENT 41 16 39 18 37 20 35 22 12 36 22 44 33 46 31 49
REMARK Flexibility Score: inf
ROOT
ATOM      1  C   UNL     1       5.305   7.975  -6.486  1.00  0.00     0.221 C 
ATOM      2  C   UNL     1       5.897   8.767  -7.664  1.00  0.00     0.181 C 
ATOM      3  C   UNL     1       4.948   8.610  -8.876  1.00  0.00     0.177 C 
ATOM      4  C   UNL     1       4.687   7.097  -9.165  1.00  0.00     0.179 C 
ATOM      5  O   UNL     1       4.314   6.353  -8.018  1.00  0.00    -0.332 OA
ATOM      6  C   UNL     1       5.190   6.489  -6.903  1.00  0.00     0.339 C 
ENDROOT
BRANCH   1   7
ATOM      7  O   UNL     1       6.100   8.072  -5.314  1.00  0.00    -0.337 OA
BRANCH   7   8
ATOM      8  C   UNL     1       5.614   7.229  -4.269  1.00  0.00     0.282 C 
ATOM      9  C   UNL     1       3.700   9.652  -2.262  1.00  0.00     0.041 C 
ATOM     10  C   UNL     1       4.964   9.065  -2.936  1.00  0.00     0.150 C 
ATOM     11  C   UNL     1       6.118   8.842  -1.900  1.00  0.00     0.174 C 
ATOM     12  O   UNL     1       4.561   7.854  -3.540  1.00  0.00    -0.344 OA
ATOM     13  C   UNL     1       7.263   8.047  -2.578  1.00  0.00     0.179 C 
ATOM     14  C   UNL     1       6.694   6.792  -3.262  1.00  0.00     0.202 C 
BRANCH  11  15
ATOM     15  O   UNL     1       5.633   8.173  -0.746  1.00  0.00    -0.388 OA
ATOM     16  H   UNL     1       5.832   7.202  -0.907  1.00  0.00     0.211 HD
ENDBRANCH  11  15
BRANCH  13  17
ATOM     17  O   UNL     1       7.940   8.847  -3.518  1.00  0.00    -0.387 OA
ATOM     18  H   UNL     1       8.459   9.545  -3.020  1.00  0.00     0.211 HD
ENDBRANCH  13  17
BRANCH  14  19
ATOM     19  O   UNL     1       5.984   5.983  -2.336  1.00  0.00    -0.385 OA
ATOM     20  H   UNL     1       6.163   6.288  -1.404  1.00  0.00     0.211 HD
ENDBRANCH  14  19
ENDBRANCH   7   8
ENDBRANCH   1   7
BRANCH   2  21
ATOM     21  O   UNL     1       6.132  10.125  -7.353  1.00  0.00    -0.387 OA
ATOM     22  H   UNL     1       6.499  10.600  -8.145  1.00  0.00     0.211 HD
ENDBRANCH   2  21
BRANCH   6  23
ATOM     23  O   UNL     1       6.476   5.922  -7.186  1.00  0.00    -0.462 OA
BRANCH  23  24
ATOM     24  C   UNL     1       6.792   4.571  -6.978  1.00  0.00     0.130 A 
ATOM     25  C   UNL     1       8.008   4.009  -7.358  1.00  0.00     0.093 A 
ATOM     26  C   UNL     1       5.843   3.774  -6.335  1.00  0.00     0.094 A 
ATOM     27  C   UNL     1       8.319   2.675  -7.025  1.00  0.00     0.133 A 
ATOM     28  C   UNL     1       6.150   2.457  -5.967  1.00  0.00     0.138 A 
ATOM     29  C   UNL     1       7.405   1.904  -6.278  1.00  0.00     0.102 A 
ATOM     30  O   UNL     1       5.182   1.687  -5.311  1.00  0.00    -0.484 OA
ATOM     31  C   UNL     1       7.655   0.497  -5.890  1.00  0.00     0.174 C 
ATOM     32  C   UNL     1       5.239   0.250  -5.244  1.00  0.00     0.211 C 
ATOM     33  O   UNL     1       8.685  -0.115  -6.297  1.00  0.00    -0.294 OA
ATOM     34  C   UNL     1       6.688  -0.210  -4.985  1.00  0.00     0.131 C 
BRANCH  27  35
ATOM     35  O   UNL     1       9.519   2.116  -7.458  1.00  0.00    -0.507 OA
ATOM     36  H   UNL     1      10.329   2.057  -6.827  1.00  0.00     0.293 HD
ENDBRANCH  27  35
BRANCH  32  37
ATOM     37  C   UNL     1       4.653  -0.412  -6.477  1.00  0.00    -0.007 A 
ATOM     38  C   UNL     1       5.122  -1.643  -6.957  1.00  0.00     0.011 A 
ATOM     39  C   UNL     1       3.571   0.206  -7.137  1.00  0.00     0.011 A 
ATOM     40  C   UNL     1       4.553  -2.226  -8.091  1.00  0.00     0.046 A 
ATOM     41  C   UNL     1       3.005  -0.379  -8.274  1.00  0.00     0.046 A 
ATOM     42  C   UNL     1       3.497  -1.591  -8.761  1.00  0.00     0.115 A 
BRANCH  42  43
ATOM     43  O   UNL     1       2.954  -2.198  -9.887  1.00  0.00    -0.508 OA
ATOM     44  H   UNL     1       3.519  -2.788 -10.480  1.00  0.00     0.293 HD
ENDBRANCH  42  43
ENDBRANCH  32  37
ENDBRANCH  23  24
ENDBRANCH   6  23
BRANCH   3  45
ATOM     45  O   UNL     1       3.746   9.331  -8.670  1.00  0.00    -0.387 OA
ATOM     46  H   UNL     1       3.967  10.304  -8.481  1.00  0.00     0.211 HD
ENDBRANCH   3  45
BRANCH   4  47
ATOM     47  C   UNL     1       5.820   6.449  -9.989  1.00  0.00     0.191 C 
BRANCH  47  48
ATOM     48  O   UNL     1       5.578   5.070 -10.124  1.00  0.00    -0.394 OA
ATOM     49  H   UNL     1       5.043   4.983 -10.966  1.00  0.00     0.210 HD
ENDBRANCH  47  48
ENDBRANCH   4  47
TORSDOF 14
ENDMDL
MODEL 9
REMARK VINA RESULT:    -6.271      1.901      5.263
REMARK INTER + INTRA:         -11.875
REMARK INTER:                  -9.478
REMARK INTRA:                  -2.397
REMARK UNBOUND:                -1.939
REMARK SMILES C[C@@H]1O[C@@H](O[C@@H]2[C@H](Oc3cc(O)c4c(c3)O[C@@H](c3ccc(O)cc3)CC4=O)O[C@H](CO)[C@@H](O)[C@H]2O)[C@H](O)[C@@H](O)[C@@H]1O
REMARK SMILES IDX 6 1 34 2 32 3 29 4 28 5 7 6 5 7 4 8 1 9 2 10 40 11 3 12
REMARK SMILES IDX 38 13 36 14 41 15 39 17 37 19 35 21 8 23 9 24 10 25 15 26
REMARK SMILES IDX 11 27 14 28 13 29 16 30 26 31 17 32 27 33 25 34 12 35 18 37
REMARK SMILES IDX 19 38 24 39 20 40 23 41 21 42 22 43 33 45 30 47 31 48
REMARK H PARENT 41 16 39 18 37 20 35 22 12 36 22 44 33 46 31 49
REMARK Flexibility Score: inf
ROOT
ATOM      1  C   UNL     1       5.381   3.640  -7.361  1.00  0.00     0.221 C 
ATOM      2  C   UNL     1       5.397   4.059  -8.840  1.00  0.00     0.181 C 
ATOM      3  C   UNL     1       4.012   4.654  -9.189  1.00  0.00     0.177 C 
ATOM      4  C   UNL     1       2.880   3.649  -8.801  1.00  0.00     0.179 C 
ATOM      5  O   UNL     1       2.994   3.141  -7.484  1.00  0.00    -0.332 OA
ATOM      6  C   UNL     1       4.266   2.585  -7.163  1.00  0.00     0.339 C 
ENDROOT
BRANCH   1   7
ATOM      7  O   UNL     1       6.622   3.095  -6.939  1.00  0.00    -0.337 OA
BRANCH   7   8
ATOM      8  C   UNL     1       6.513   2.437  -5.676  1.00  0.00     0.282 C 
ATOM      9  C   UNL     1       7.710   5.086  -3.414  1.00  0.00     0.041 C 
ATOM     10  C   UNL     1       7.813   4.077  -4.583  1.00  0.00     0.150 C 
ATOM     11  C   UNL     1       9.043   3.122  -4.412  1.00  0.00     0.174 C 
ATOM     12  O   UNL     1       6.594   3.363  -4.596  1.00  0.00    -0.344 OA
ATOM     13  C   UNL     1       8.965   1.996  -5.475  1.00  0.00     0.179 C 
ATOM     14  C   UNL     1       7.572   1.345  -5.445  1.00  0.00     0.202 C 
BRANCH  11  15
ATOM     15  O   UNL     1       9.086   2.591  -3.096  1.00  0.00    -0.388 OA
ATOM     16  H   UNL     1       9.326   1.624  -3.215  1.00  0.00     0.211 HD
ENDBRANCH  11  15
BRANCH  13  17
ATOM     17  O   UNL     1       9.235   2.502  -6.761  1.00  0.00    -0.387 OA
ATOM     18  H   UNL     1       9.552   3.448  -6.665  1.00  0.00     0.211 HD
ENDBRANCH  13  17
BRANCH  14  19
ATOM     19  O   UNL     1       7.269   0.850  -4.148  1.00  0.00    -0.385 OA
ATOM     20  H   UNL     1       8.036   1.005  -3.532  1.00  0.00     0.211 HD
ENDBRANCH  14  19
ENDBRANCH   7   8
ENDBRANCH   1   7
BRANCH   2  21
ATOM     21  O   UNL     1       6.446   4.955  -9.149  1.00  0.00    -0.387 OA
ATOM     22  H   UNL     1       6.443   5.718  -8.513  1.00  0.00     0.211 HD
ENDBRANCH   2  21
BRANCH   6  23
ATOM     23  O   UNL     1       4.520   1.401  -7.931  1.00  0.00    -0.462 OA
BRANCH  23  24
ATOM     24  C   UNL     1       4.389   0.102  -7.421  1.00  0.00     0.130 A 
ATOM     25  C   UNL     1       3.195  -0.392  -6.902  1.00  0.00     0.093 A 
ATOM     26  C   UNL     1       5.510  -0.730  -7.466  1.00  0.00     0.094 A 
ATOM     27  C   UNL     1       3.087  -1.741  -6.505  1.00  0.00     0.133 A 
ATOM     28  C   UNL     1       5.409  -2.081  -7.108  1.00  0.00     0.138 A 
ATOM     29  C   UNL     1       4.187  -2.610  -6.656  1.00  0.00     0.102 A 
ATOM     30  O   UNL     1       6.547  -2.894  -7.178  1.00  0.00    -0.484 OA
ATOM     31  C   UNL     1       4.155  -4.037  -6.263  1.00  0.00     0.174 C 
ATOM     32  C   UNL     1       6.657  -4.149  -6.481  1.00  0.00     0.211 C 
ATOM     33  O   UNL     1       3.144  -4.527  -5.680  1.00  0.00    -0.294 OA
ATOM     34  C   UNL     1       5.326  -4.923  -6.576  1.00  0.00     0.131 C 
BRANCH  27  35
ATOM     35  O   UNL     1       1.899  -2.203  -5.943  1.00  0.00    -0.507 OA
ATOM     36  H   UNL     1       1.912  -2.917  -5.203  1.00  0.00     0.293 HD
ENDBRANCH  27  35
BRANCH  32  37
ATOM     37  C   UNL     1       7.103  -3.977  -5.041  1.00  0.00    -0.007 A 
ATOM     38  C   UNL     1       6.954  -4.993  -4.087  1.00  0.00     0.011 A 
ATOM     39  C   UNL     1       7.730  -2.773  -4.658  1.00  0.00     0.011 A 
ATOM     40  C   UNL     1       7.382  -4.801  -2.773  1.00  0.00     0.046 A 
ATOM     41  C   UNL     1       8.157  -2.583  -3.340  1.00  0.00     0.046 A 
ATOM     42  C   UNL     1       7.979  -3.590  -2.390  1.00  0.00     0.115 A 
BRANCH  42  43
ATOM     43  O   UNL     1       8.394  -3.432  -1.074  1.00  0.00    -0.508 OA
ATOM     44  H   UNL     1       7.781  -3.666  -0.306  1.00  0.00     0.293 HD
ENDBRANCH  42  43
ENDBRANCH  32  37
ENDBRANCH  23  24
ENDBRANCH   6  23
BRANCH   3  45
ATOM     45  O   UNL     1       3.839   5.918  -8.573  1.00  0.00    -0.387 OA
ATOM     46  H   UNL     1       3.537   6.592  -9.272  1.00  0.00     0.211 HD
ENDBRANCH   3  45
BRANCH   4  47
ATOM     47  C   UNL     1       2.664   2.561  -9.874  1.00  0.00     0.191 C 
BRANCH  47  48
ATOM     48  O   UNL     1       1.802   1.568  -9.375  1.00  0.00    -0.394 OA
ATOM     49  H   UNL     1       0.879   1.906  -9.568  1.00  0.00     0.210 HD
ENDBRANCH  47  48
ENDBRANCH   4  47
TORSDOF 14
ENDMDL
