MODEL 1
REMARK VINA RESULT:    -3.596      0.000      0.000
REMARK INTER + INTRA:          -3.685
REMARK INTER:                  -4.437
REMARK INTRA:                   0.752
REMARK UNBOUND:                 0.752
REMARK SMILES CC1=CC=CC(C)(C)CC1=O
REMARK SMILES IDX 1 1 2 2 3 3 10 4 11 5 9 6 4 8 5 9 6 10 7 11 8 12
REMARK H PARENT
REMARK Flexibility Score: 80.00
ROOT
ATOM      1  C   UNL     1       6.893 -15.191  20.157  1.00  0.00     0.048 C 
ATOM      2  C   UNL     1       7.248 -15.624  21.559  1.00  0.00    -0.008 C 
ATOM      3  C   UNL     1       8.021 -16.723  21.698  1.00  0.00     0.007 C 
ENDROOT
BRANCH   2   4
ATOM      4  C   UNL     1       6.780 -14.761  22.672  1.00  0.00     0.159 C 
ATOM      5  O   UNL     1       6.324 -13.615  22.403  1.00  0.00    -0.295 OA
BRANCH   4   6
ATOM      6  C   UNL     1       6.804 -15.180  24.110  1.00  0.00     0.091 CG0
ATOM      7  G   UNL     1       8.226 -15.491  24.630  1.00  0.00     0.000 G0
ENDBRANCH   4   6
ENDBRANCH   2   4
BRANCH   3   8
ATOM      8  C   UNL     1       8.548 -17.367  22.925  1.00  0.00    -0.003 C 
ATOM      9  C   UNL     1       8.657 -16.865  24.161  1.00  0.00    -0.020 C 
BRANCH   9  10
ATOM     10  C   UNL     1       8.227 -15.489  24.613  1.00  0.00    -0.010 CG0
ATOM     11  C   UNL     1       8.187 -15.476  26.158  1.00  0.00     0.016 C 
ATOM     12  C   UNL     1       9.263 -14.436  24.154  1.00  0.00     0.016 C 
ATOM     13  G   UNL     1       6.803 -15.191  24.091  1.00  0.00     0.000 G0
ENDBRANCH   9  10
ENDBRANCH   3   8
TORSDOF 0
ENDMDL
MODEL 2
REMARK VINA RESULT:    -3.442      2.888      3.939
REMARK INTER + INTRA:          -3.494
REMARK INTER:                  -4.252
REMARK INTRA:                   0.758
REMARK UNBOUND:                 0.752
REMARK SMILES CC1=CC=CC(C)(C)CC1=O
REMARK SMILES IDX 1 1 2 2 3 3 10 4 11 5 9 6 4 8 5 9 6 10 7 11 8 12
REMARK H PARENT
REMARK Flexibility Score: 80.00
ROOT
ATOM      1  C   UNL     1      11.634 -14.714  23.484  1.00  0.00     0.048 C 
ATOM      2  C   UNL     1      10.413 -15.187  24.237  1.00  0.00    -0.008 C 
ATOM      3  C   UNL     1       9.257 -14.520  24.036  1.00  0.00     0.007 C 
ENDROOT
BRANCH   2   4
ATOM      4  C   UNL     1      10.567 -16.398  25.081  1.00  0.00     0.159 C 
ATOM      5  O   UNL     1      11.630 -17.074  24.988  1.00  0.00    -0.295 OA
BRANCH   4   6
ATOM      6  C   UNL     1       9.530 -16.863  26.057  1.00  0.00     0.091 CG0
ATOM      7  G   UNL     1       8.164 -17.161  25.398  1.00  0.00     0.000 G0
ENDBRANCH   4   6
ENDBRANCH   2   4
BRANCH   3   8
ATOM      8  C   UNL     1       7.908 -14.761  24.602  1.00  0.00    -0.003 C 
ATOM      9  C   UNL     1       7.419 -15.868  25.176  1.00  0.00    -0.020 C 
BRANCH   9  10
ATOM     10  C   UNL     1       8.164 -17.160  25.412  1.00  0.00    -0.010 CG0
ATOM     11  C   UNL     1       7.346 -18.017  26.405  1.00  0.00     0.016 C 
ATOM     12  C   UNL     1       8.285 -17.950  24.088  1.00  0.00     0.016 C 
ATOM     13  G   UNL     1       9.537 -16.860  26.054  1.00  0.00     0.000 G0
ENDBRANCH   9  10
ENDBRANCH   3   8
TORSDOF 0
ENDMDL
MODEL 3
REMARK VINA RESULT:    -3.398      1.665      2.723
REMARK INTER + INTRA:          -3.440
REMARK INTER:                  -4.199
REMARK INTRA:                   0.758
REMARK UNBOUND:                 0.752
REMARK SMILES CC1=CC=CC(C)(C)CC1=O
REMARK SMILES IDX 1 1 2 2 3 3 10 4 11 5 9 6 4 8 5 9 6 10 7 11 8 12
REMARK H PARENT
REMARK Flexibility Score: 80.00
ROOT
ATOM      1  C   UNL     1       5.668 -14.208  20.494  1.00  0.00     0.048 C 
ATOM      2  C   UNL     1       6.610 -14.730  21.552  1.00  0.00    -0.008 C 
ATOM      3  C   UNL     1       6.545 -14.169  22.779  1.00  0.00     0.007 C 
ENDROOT
BRANCH   2   4
ATOM      4  C   UNL     1       7.481 -15.872  21.178  1.00  0.00     0.159 C 
ATOM      5  O   UNL     1       7.267 -16.468  20.086  1.00  0.00    -0.295 OA
BRANCH   4   6
ATOM      6  C   UNL     1       8.619 -16.355  22.023  1.00  0.00     0.091 CG0
ATOM      7  G   UNL     1       8.183 -16.796  23.439  1.00  0.00     0.000 G0
ENDBRANCH   4   6
ENDBRANCH   2   4
BRANCH   3   8
ATOM      8  C   UNL     1       7.311 -14.483  24.010  1.00  0.00    -0.003 C 
ATOM      9  C   UNL     1       8.002 -15.587  24.316  1.00  0.00    -0.020 C 
BRANCH   9  10
ATOM     10  C   UNL     1       8.193 -16.800  23.435  1.00  0.00    -0.010 CG0
ATOM     11  C   UNL     1       9.331 -17.659  24.032  1.00  0.00     0.016 C 
ATOM     12  C   UNL     1       6.904 -17.654  23.428  1.00  0.00     0.016 C 
ATOM     13  G   UNL     1       8.619 -16.353  22.019  1.00  0.00     0.000 G0
ENDBRANCH   9  10
ENDBRANCH   3   8
TORSDOF 0
ENDMDL
MODEL 4
REMARK VINA RESULT:    -3.326      1.678      2.566
REMARK INTER + INTRA:          -3.351
REMARK INTER:                  -4.097
REMARK INTRA:                   0.747
REMARK UNBOUND:                 0.752
REMARK SMILES CC1=CC=CC(C)(C)CC1=O
REMARK SMILES IDX 1 1 2 2 3 3 10 4 11 5 9 6 4 8 5 9 6 10 7 11 8 12
REMARK H PARENT
REMARK Flexibility Score: 80.00
ROOT
ATOM      1  C   UNL     1       7.502 -16.688  19.937  1.00  0.00     0.048 C 
ATOM      2  C   UNL     1       7.597 -16.013  21.284  1.00  0.00    -0.008 C 
ATOM      3  C   UNL     1       6.789 -14.956  21.513  1.00  0.00     0.007 C 
ENDROOT
BRANCH   2   4
ATOM      4  C   UNL     1       8.521 -16.615  22.277  1.00  0.00     0.159 C 
ATOM      5  O   UNL     1       9.022 -17.748  22.035  1.00  0.00    -0.295 OA
BRANCH   4   6
ATOM      6  C   UNL     1       8.908 -15.944  23.559  1.00  0.00     0.091 CG0
ATOM      7  G   UNL     1       7.699 -15.614  24.464  1.00  0.00     0.000 G0
ENDBRANCH   4   6
ENDBRANCH   2   4
BRANCH   3   8
ATOM      8  C   UNL     1       6.637 -14.120  22.728  1.00  0.00    -0.003 C 
ATOM      9  C   UNL     1       7.005 -14.386  23.987  1.00  0.00    -0.020 C 
BRANCH   9  10
ATOM     10  C   UNL     1       7.709 -15.630  24.473  1.00  0.00    -0.010 CG0
ATOM     11  C   UNL     1       8.265 -15.352  25.888  1.00  0.00     0.016 C 
ATOM     12  C   UNL     1       6.703 -16.799  24.578  1.00  0.00     0.016 C 
ATOM     13  G   UNL     1       8.901 -15.951  23.542  1.00  0.00     0.000 G0
ENDBRANCH   9  10
ENDBRANCH   3   8
TORSDOF 0
ENDMDL
MODEL 5
REMARK VINA RESULT:    -3.318      5.631      6.918
REMARK INTER + INTRA:          -3.341
REMARK INTER:                  -4.108
REMARK INTRA:                   0.767
REMARK UNBOUND:                 0.752
REMARK SMILES CC1=CC=CC(C)(C)CC1=O
REMARK SMILES IDX 1 1 2 2 3 3 10 4 11 5 9 6 4 8 5 9 6 10 7 11 8 12
REMARK H PARENT
REMARK Flexibility Score: 80.00
ROOT
ATOM      1  C   UNL     1       8.466 -21.151  25.704  1.00  0.00     0.048 C 
ATOM      2  C   UNL     1       8.128 -21.119  24.233  1.00  0.00    -0.008 C 
ATOM      3  C   UNL     1       7.117 -20.314  23.840  1.00  0.00     0.007 C 
ENDROOT
BRANCH   2   4
ATOM      4  C   UNL     1       8.985 -21.921  23.325  1.00  0.00     0.159 C 
ATOM      5  O   UNL     1      10.053 -22.418  23.779  1.00  0.00    -0.295 OA
BRANCH   4   6
ATOM      6  C   UNL     1       8.649 -22.187  21.890  1.00  0.00     0.091 CG0
ATOM      7  G   UNL     1       8.515 -20.900  21.046  1.00  0.00     0.000 G0
ENDBRANCH   4   6
ENDBRANCH   2   4
BRANCH   3   8
ATOM      8  C   UNL     1       6.580 -20.055  22.483  1.00  0.00    -0.003 C 
ATOM      9  C   UNL     1       7.150 -20.278  21.292  1.00  0.00    -0.020 C 
BRANCH   9  10
ATOM     10  C   UNL     1       8.507 -20.894  21.048  1.00  0.00    -0.010 CG0
ATOM     11  C   UNL     1       8.605 -21.277  19.554  1.00  0.00     0.016 C 
ATOM     12  C   UNL     1       9.617 -19.861  21.350  1.00  0.00     0.016 C 
ATOM     13  G   UNL     1       8.652 -22.185  21.886  1.00  0.00     0.000 G0
ENDBRANCH   9  10
ENDBRANCH   3   8
TORSDOF 0
ENDMDL
MODEL 6
REMARK VINA RESULT:    -3.185      2.054      3.126
REMARK INTER + INTRA:          -3.178
REMARK INTER:                  -3.939
REMARK INTRA:                   0.761
REMARK UNBOUND:                 0.752
REMARK SMILES CC1=CC=CC(C)(C)CC1=O
REMARK SMILES IDX 1 1 2 2 3 3 10 4 11 5 9 6 4 8 5 9 6 10 7 11 8 12
REMARK H PARENT
REMARK Flexibility Score: 80.00
ROOT
ATOM      1  C   UNL     1       6.178 -16.447  24.841  1.00  0.00     0.048 C 
ATOM      2  C   UNL     1       7.650 -16.110  24.791  1.00  0.00    -0.008 C 
ATOM      3  C   UNL     1       8.500 -16.919  25.458  1.00  0.00     0.007 C 
ENDROOT
BRANCH   2   4
ATOM      4  C   UNL     1       8.049 -14.956  23.947  1.00  0.00     0.159 C 
ATOM      5  O   UNL     1       7.197 -14.448  23.167  1.00  0.00    -0.295 OA
BRANCH   4   6
ATOM      6  C   UNL     1       9.416 -14.344  23.977  1.00  0.00     0.091 CG0
ATOM      7  G   UNL     1      10.536 -15.337  23.589  1.00  0.00     0.000 G0
ENDBRANCH   4   6
ENDBRANCH   2   4
BRANCH   3   8
ATOM      8  C   UNL     1       9.978 -16.861  25.570  1.00  0.00    -0.003 C 
ATOM      9  C   UNL     1      10.858 -16.215  24.795  1.00  0.00    -0.020 C 
BRANCH   9  10
ATOM     10  C   UNL     1      10.537 -15.344  23.604  1.00  0.00    -0.010 CG0
ATOM     11  C   UNL     1      11.800 -14.528  23.245  1.00  0.00     0.016 C 
ATOM     12  C   UNL     1      10.176 -16.226  22.387  1.00  0.00     0.016 C 
ATOM     13  G   UNL     1       9.412 -14.350  23.975  1.00  0.00     0.000 G0
ENDBRANCH   9  10
ENDBRANCH   3   8
TORSDOF 0
ENDMDL
MODEL 7
REMARK VINA RESULT:    -3.151      2.610      3.680
REMARK INTER + INTRA:          -3.135
REMARK INTER:                  -3.893
REMARK INTRA:                   0.757
REMARK UNBOUND:                 0.752
REMARK SMILES CC1=CC=CC(C)(C)CC1=O
REMARK SMILES IDX 1 1 2 2 3 3 10 4 11 5 9 6 4 8 5 9 6 10 7 11 8 12
REMARK H PARENT
REMARK Flexibility Score: 80.00
ROOT
ATOM      1  C   UNL     1       7.066 -15.081  23.729  1.00  0.00     0.048 C 
ATOM      2  C   UNL     1       7.670 -16.023  24.743  1.00  0.00    -0.008 C 
ATOM      3  C   UNL     1       6.904 -17.046  25.180  1.00  0.00     0.007 C 
ENDROOT
BRANCH   2   4
ATOM      4  C   UNL     1       9.085 -15.790  25.123  1.00  0.00     0.159 C 
ATOM      5  O   UNL     1       9.763 -14.953  24.464  1.00  0.00    -0.295 OA
BRANCH   4   6
ATOM      6  C   UNL     1       9.761 -16.487  26.264  1.00  0.00     0.091 CG0
ATOM      7  G   UNL     1       9.772 -18.026  26.116  1.00  0.00     0.000 G0
ENDBRANCH   4   6
ENDBRANCH   2   4
BRANCH   3   8
ATOM      8  C   UNL     1       7.224 -18.132  26.137  1.00  0.00    -0.003 C 
ATOM      9  C   UNL     1       8.420 -18.576  26.542  1.00  0.00    -0.020 C 
BRANCH   9  10
ATOM     10  C   UNL     1       9.767 -18.035  26.123  1.00  0.00    -0.010 CG0
ATOM     11  C   UNL     1      10.838 -18.606  27.081  1.00  0.00     0.016 C 
ATOM     12  C   UNL     1      10.105 -18.511  24.692  1.00  0.00     0.016 C 
ATOM     13  G   UNL     1       9.774 -16.495  26.256  1.00  0.00     0.000 G0
ENDBRANCH   9  10
ENDBRANCH   3   8
TORSDOF 0
ENDMDL
MODEL 8
REMARK VINA RESULT:    -3.123      2.981      3.818
REMARK INTER + INTRA:          -3.101
REMARK INTER:                  -3.857
REMARK INTRA:                   0.756
REMARK UNBOUND:                 0.752
REMARK SMILES CC1=CC=CC(C)(C)CC1=O
REMARK SMILES IDX 1 1 2 2 3 3 10 4 11 5 9 6 4 8 5 9 6 10 7 11 8 12
REMARK H PARENT
REMARK Flexibility Score: 80.00
ROOT
ATOM      1  C   UNL     1       7.447 -14.999  24.029  1.00  0.00     0.048 C 
ATOM      2  C   UNL     1       7.377 -16.459  24.408  1.00  0.00    -0.008 C 
ATOM      3  C   UNL     1       7.223 -17.358  23.411  1.00  0.00     0.007 C 
ENDROOT
BRANCH   2   4
ATOM      4  C   UNL     1       7.560 -16.795  25.842  1.00  0.00     0.159 C 
ATOM      5  O   UNL     1       7.959 -15.895  26.632  1.00  0.00    -0.295 OA
BRANCH   4   6
ATOM      6  C   UNL     1       7.282 -18.150  26.416  1.00  0.00     0.091 CG0
ATOM      7  G   UNL     1       8.127 -19.271  25.767  1.00  0.00     0.000 G0
ENDBRANCH   4   6
ENDBRANCH   2   4
BRANCH   3   8
ATOM      8  C   UNL     1       7.149 -18.837  23.467  1.00  0.00    -0.003 C 
ATOM      9  C   UNL     1       7.535 -19.666  24.446  1.00  0.00    -0.020 C 
BRANCH   9  10
ATOM     10  C   UNL     1       8.129 -19.268  25.776  1.00  0.00    -0.010 CG0
ATOM     11  C   UNL     1       8.079 -20.494  26.716  1.00  0.00     0.016 C 
ATOM     12  C   UNL     1       9.611 -18.867  25.594  1.00  0.00     0.016 C 
ATOM     13  G   UNL     1       7.281 -18.142  26.409  1.00  0.00     0.000 G0
ENDBRANCH   9  10
ENDBRANCH   3   8
TORSDOF 0
ENDMDL
MODEL 9
REMARK VINA RESULT:    -3.117      3.945      5.118
REMARK INTER + INTRA:          -3.093
REMARK INTER:                  -3.852
REMARK INTRA:                   0.759
REMARK UNBOUND:                 0.752
REMARK SMILES CC1=CC=CC(C)(C)CC1=O
REMARK SMILES IDX 1 1 2 2 3 3 10 4 11 5 9 6 4 8 5 9 6 10 7 11 8 12
REMARK H PARENT
REMARK Flexibility Score: 80.00
ROOT
ATOM      1  C   UNL     1       9.440 -22.658  22.710  1.00  0.00     0.048 C 
ATOM      2  C   UNL     1       8.650 -21.550  23.366  1.00  0.00    -0.008 C 
ATOM      3  C   UNL     1       8.588 -21.539  24.715  1.00  0.00     0.007 C 
ENDROOT
BRANCH   2   4
ATOM      4  C   UNL     1       8.067 -20.518  22.474  1.00  0.00     0.159 C 
ATOM      5  O   UNL     1       8.412 -20.496  21.260  1.00  0.00    -0.295 OA
BRANCH   4   6
ATOM      6  C   UNL     1       7.071 -19.496  22.932  1.00  0.00     0.091 CG0
ATOM      7  G   UNL     1       7.607 -18.588  24.062  1.00  0.00     0.000 G0
ENDBRANCH   4   6
ENDBRANCH   2   4
BRANCH   3   8
ATOM      8  C   UNL     1       7.922 -20.581  25.629  1.00  0.00    -0.003 C 
ATOM      9  C   UNL     1       7.509 -19.331  25.386  1.00  0.00    -0.020 C 
BRANCH   9  10
ATOM     10  C   UNL     1       7.603 -18.593  24.071  1.00  0.00    -0.010 CG0
ATOM     11  C   UNL     1       6.699 -17.343  24.150  1.00  0.00     0.016 C 
ATOM     12  C   UNL     1       9.055 -18.118  23.836  1.00  0.00     0.016 C 
ATOM     13  G   UNL     1       7.079 -19.495  22.930  1.00  0.00     0.000 G0
ENDBRANCH   9  10
ENDBRANCH   3   8
TORSDOF 0
ENDMDL
