MODEL 1
REMARK VINA RESULT:    -8.678      0.000      0.000
REMARK INTER + INTRA:          -9.439
REMARK INTER:                  -9.439
REMARK INTRA:                   0.000
REMARK UNBOUND:                 0.000
REMARK SMILES C[C@@H]1CC[C@H]2[N@H+](C1)C[C@H]1[C@H]3C[C@H]4[C@@H](C[C@H](O)[C@H]5C[C@H](O)CC[C@]54C)[C@@H]3CC[C@@H]1[C@@]2(C)O
REMARK SMILES IDX 5 1 6 2 8 3 7 4 4 5 29 6 3 7 28 8 30 9 2 10 27 11 9 12 1 13
REMARK SMILES IDX 26 14 10 15 25 16 11 17 13 18 12 19 14 20 23 21 15 22 17 23
REMARK SMILES IDX 22 24 24 25 18 26 21 27 19 28 31 30 16 32 20 34
REMARK H PARENT 6 29 31 31 16 33 20 35
REMARK Flexibility Score: inf
ROOT
ATOM      1  C   UNL     1     182.712 -14.841  29.832  1.00  0.00     0.216 C 
ATOM      2  N   UNL     1     182.723 -16.286  30.228  1.00  0.00    -0.330 N 
ATOM      3  C   UNL     1     182.822 -17.220  29.060  1.00  0.00     0.266 C 
ATOM      4  C   UNL     1     183.838 -16.599  31.161  1.00  0.00     0.265 C 
ATOM      5  C   UNL     1     182.728 -13.905  31.074  1.00  0.00     0.069 C 
ATOM      6  C   UNL     1     181.492 -14.489  28.874  1.00  0.00     0.117 C 
ATOM      7  C   UNL     1     183.875 -14.239  32.023  1.00  0.00     0.015 C 
ATOM      8  C   UNL     1     181.040 -15.761  28.088  1.00  0.00     0.036 C 
ATOM      9  C   UNL     1     181.924 -13.359  27.911  1.00  0.00     0.049 C 
ATOM     10  C   UNL     1     183.854 -15.717  32.421  1.00  0.00     0.041 C 
ATOM     11  C   UNL     1     180.128 -15.519  26.853  1.00  0.00     0.007 C 
ATOM     12  C   UNL     1     182.272 -16.633  27.742  1.00  0.00     0.054 C 
ATOM     13  C   UNL     1     182.711 -16.056  33.392  1.00  0.00     0.013 C 
ATOM     14  C   UNL     1     179.572 -16.851  26.272  1.00  0.00     0.004 C 
ATOM     15  C   UNL     1     181.935 -17.665  26.624  1.00  0.00     0.002 C 
ATOM     16  C   UNL     1     180.458 -18.061  26.650  1.00  0.00    -0.004 C 
ATOM     17  C   UNL     1     182.726 -18.985  26.517  1.00  0.00     0.009 C 
ATOM     18  C   UNL     1     180.427 -19.250  25.705  1.00  0.00    -0.001 C 
ATOM     19  C   UNL     1     181.662 -20.038  26.132  1.00  0.00    -0.001 C 
ATOM     20  C   UNL     1     179.201 -20.153  25.796  1.00  0.00     0.036 C 
ATOM     21  C   UNL     1     182.021 -21.143  25.096  1.00  0.00    -0.024 C 
ATOM     22  C   UNL     1     179.359 -21.325  24.802  1.00  0.00     0.118 C 
ATOM     23  C   UNL     1     180.743 -22.063  24.916  1.00  0.00     0.026 C 
ATOM     24  C   UNL     1     182.541 -20.544  23.736  1.00  0.00     0.010 C 
ATOM     25  C   UNL     1     183.164 -21.995  25.714  1.00  0.00     0.012 C 
ATOM     26  C   UNL     1     180.930 -23.058  23.750  1.00  0.00     0.038 C 
ATOM     27  C   UNL     1     181.717 -20.909  22.497  1.00  0.00     0.032 C 
ATOM     28  C   UNL     1     181.358 -22.407  22.409  1.00  0.00     0.114 C 
ATOM     29  H   UNL     1     181.823 -16.494  30.722  1.00  0.00     0.348 HD
ENDROOT
BRANCH   6  30
ATOM     30  O   UNL     1     180.388 -13.999  29.606  1.00  0.00    -0.384 OA
ATOM     31  H   UNL     1     179.606 -14.580  29.417  1.00  0.00     0.211 HD
ENDBRANCH   6  30
BRANCH  22  32
ATOM     32  O   UNL     1     178.329 -22.254  25.031  1.00  0.00    -0.393 OA
ATOM     33  H   UNL     1     177.481 -21.739  25.098  1.00  0.00     0.210 HD
ENDBRANCH  22  32
BRANCH  28  34
ATOM     34  O   UNL     1     182.410 -23.133  21.823  1.00  0.00    -0.393 OA
ATOM     35  H   UNL     1     182.580 -22.741  20.926  1.00  0.00     0.210 HD
ENDBRANCH  28  34
TORSDOF 3
ENDMDL
MODEL 2
REMARK VINA RESULT:    -8.593      4.035      5.176
REMARK INTER + INTRA:          -9.346
REMARK INTER:                  -9.346
REMARK INTRA:                   0.000
REMARK UNBOUND:                 0.000
REMARK SMILES C[C@@H]1CC[C@H]2[N@H+](C1)C[C@H]1[C@H]3C[C@H]4[C@@H](C[C@H](O)[C@H]5C[C@H](O)CC[C@]54C)[C@@H]3CC[C@@H]1[C@@]2(C)O
REMARK SMILES IDX 5 1 6 2 8 3 7 4 4 5 29 6 3 7 28 8 30 9 2 10 27 11 9 12 1 13
REMARK SMILES IDX 26 14 10 15 25 16 11 17 13 18 12 19 14 20 23 21 15 22 17 23
REMARK SMILES IDX 22 24 24 25 18 26 21 27 19 28 31 30 16 32 20 34
REMARK H PARENT 6 29 31 31 16 33 20 35
REMARK Flexibility Score: inf
ROOT
ATOM      1  C   UNL     1     184.824 -21.031  33.156  1.00  0.00     0.216 C 
ATOM      2  N   UNL     1     183.807 -21.971  32.585  1.00  0.00    -0.330 N 
ATOM      3  C   UNL     1     183.673 -21.865  31.095  1.00  0.00     0.266 C 
ATOM      4  C   UNL     1     184.109 -23.389  32.918  1.00  0.00     0.265 C 
ATOM      5  C   UNL     1     185.017 -21.254  34.683  1.00  0.00     0.069 C 
ATOM      6  C   UNL     1     184.479 -19.510  32.846  1.00  0.00     0.117 C 
ATOM      7  C   UNL     1     185.325 -22.713  35.010  1.00  0.00     0.015 C 
ATOM      8  C   UNL     1     183.618 -19.407  31.547  1.00  0.00     0.036 C 
ATOM      9  C   UNL     1     185.799 -18.718  32.709  1.00  0.00     0.049 C 
ATOM     10  C   UNL     1     184.263 -23.648  34.426  1.00  0.00     0.041 C 
ATOM     11  C   UNL     1     183.514 -17.998  30.900  1.00  0.00     0.007 C 
ATOM     12  C   UNL     1     184.068 -20.484  30.529  1.00  0.00     0.054 C 
ATOM     13  C   UNL     1     182.924 -23.573  35.177  1.00  0.00     0.013 C 
ATOM     14  C   UNL     1     182.475 -17.965  29.742  1.00  0.00     0.004 C 
ATOM     15  C   UNL     1     183.545 -20.159  29.098  1.00  0.00     0.002 C 
ATOM     16  C   UNL     1     182.236 -19.371  29.142  1.00  0.00    -0.004 C 
ATOM     17  C   UNL     1     183.324 -21.290  28.072  1.00  0.00     0.009 C 
ATOM     18  C   UNL     1     181.779 -19.424  27.694  1.00  0.00    -0.001 C 
ATOM     19  C   UNL     1     182.034 -20.883  27.326  1.00  0.00    -0.001 C 
ATOM     20  C   UNL     1     180.313 -19.093  27.436  1.00  0.00     0.036 C 
ATOM     21  C   UNL     1     181.937 -21.110  25.788  1.00  0.00    -0.024 C 
ATOM     22  C   UNL     1     180.016 -19.240  25.927  1.00  0.00     0.118 C 
ATOM     23  C   UNL     1     180.510 -20.604  25.320  1.00  0.00     0.026 C 
ATOM     24  C   UNL     1     183.118 -20.424  25.006  1.00  0.00     0.010 C 
ATOM     25  C   UNL     1     182.026 -22.642  25.546  1.00  0.00     0.012 C 
ATOM     26  C   UNL     1     180.401 -20.589  23.779  1.00  0.00     0.038 C 
ATOM     27  C   UNL     1     182.702 -19.373  23.972  1.00  0.00     0.032 C 
ATOM     28  C   UNL     1     181.542 -19.825  23.059  1.00  0.00     0.114 C 
ATOM     29  H   UNL     1     182.876 -21.735  33.002  1.00  0.00     0.348 HD
ENDROOT
BRANCH   6  30
ATOM     30  O   UNL     1     183.760 -18.919  33.908  1.00  0.00    -0.384 OA
ATOM     31  H   UNL     1     184.365 -18.292  34.384  1.00  0.00     0.211 HD
ENDBRANCH   6  30
BRANCH  22  32
ATOM     32  O   UNL     1     178.630 -19.129  25.725  1.00  0.00    -0.393 OA
ATOM     33  H   UNL     1     178.186 -19.575  26.495  1.00  0.00     0.210 HD
ENDBRANCH  22  32
BRANCH  28  34
ATOM     34  O   UNL     1     182.032 -20.577  21.977  1.00  0.00    -0.393 OA
ATOM     35  H   UNL     1     182.925 -20.925  22.234  1.00  0.00     0.210 HD
ENDBRANCH  28  34
TORSDOF 3
ENDMDL
MODEL 3
REMARK VINA RESULT:    -8.448      5.234      6.701
REMARK INTER + INTRA:          -9.189
REMARK INTER:                  -9.189
REMARK INTRA:                   0.000
REMARK UNBOUND:                 0.000
REMARK SMILES C[C@@H]1CC[C@H]2[N@H+](C1)C[C@H]1[C@H]3C[C@H]4[C@@H](C[C@H](O)[C@H]5C[C@H](O)CC[C@]54C)[C@@H]3CC[C@@H]1[C@@]2(C)O
REMARK SMILES IDX 5 1 6 2 8 3 7 4 4 5 29 6 3 7 28 8 30 9 2 10 27 11 9 12 1 13
REMARK SMILES IDX 26 14 10 15 25 16 11 17 13 18 12 19 14 20 23 21 15 22 17 23
REMARK SMILES IDX 22 24 24 25 18 26 21 27 19 28 31 30 16 32 20 34
REMARK H PARENT 6 29 31 31 16 33 20 35
REMARK Flexibility Score: inf
ROOT
ATOM      1  C   UNL     1     184.159 -23.848  32.889  1.00  0.00     0.216 C 
ATOM      2  N   UNL     1     182.952 -24.353  32.161  1.00  0.00    -0.330 N 
ATOM      3  C   UNL     1     182.900 -23.918  30.726  1.00  0.00     0.266 C 
ATOM      4  C   UNL     1     182.863 -25.837  32.192  1.00  0.00     0.265 C 
ATOM      5  C   UNL     1     184.237 -24.416  34.335  1.00  0.00     0.069 C 
ATOM      6  C   UNL     1     184.233 -22.258  32.902  1.00  0.00     0.117 C 
ATOM      7  C   UNL     1     184.143 -25.939  34.352  1.00  0.00     0.015 C 
ATOM      8  C   UNL     1     183.472 -21.675  31.669  1.00  0.00     0.036 C 
ATOM      9  C   UNL     1     185.718 -21.829  32.901  1.00  0.00     0.049 C 
ATOM     10  C   UNL     1     182.894 -26.427  33.612  1.00  0.00     0.041 C 
ATOM     11  C   UNL     1     183.760 -20.187  31.324  1.00  0.00     0.007 C 
ATOM     12  C   UNL     1     183.660 -22.604  30.445  1.00  0.00     0.054 C 
ATOM     13  C   UNL     1     181.597 -26.156  34.391  1.00  0.00     0.013 C 
ATOM     14  C   UNL     1     182.805 -19.651  30.219  1.00  0.00     0.004 C 
ATOM     15  C   UNL     1     183.288 -21.872  29.120  1.00  0.00     0.002 C 
ATOM     16  C   UNL     1     182.228 -20.795  29.352  1.00  0.00    -0.004 C 
ATOM     17  C   UNL     1     182.814 -22.675  27.891  1.00  0.00     0.009 C 
ATOM     18  C   UNL     1     181.821 -20.433  27.933  1.00  0.00    -0.001 C 
ATOM     19  C   UNL     1     181.700 -21.803  27.271  1.00  0.00    -0.001 C 
ATOM     20  C   UNL     1     180.502 -19.685  27.778  1.00  0.00     0.036 C 
ATOM     21  C   UNL     1     181.599 -21.681  25.721  1.00  0.00    -0.024 C 
ATOM     22  C   UNL     1     180.228 -19.442  26.278  1.00  0.00     0.118 C 
ATOM     23  C   UNL     1     180.369 -20.736  25.396  1.00  0.00     0.026 C 
ATOM     24  C   UNL     1     182.943 -21.186  25.070  1.00  0.00     0.010 C 
ATOM     25  C   UNL     1     181.294 -23.102  25.171  1.00  0.00     0.012 C 
ATOM     26  C   UNL     1     180.319 -20.383  23.893  1.00  0.00     0.038 C 
ATOM     27  C   UNL     1     182.849 -19.876  24.280  1.00  0.00     0.032 C 
ATOM     28  C   UNL     1     181.643 -19.815  23.319  1.00  0.00     0.114 C 
ATOM     29  H   UNL     1     182.101 -23.971  32.636  1.00  0.00     0.348 HD
ENDROOT
BRANCH   6  30
ATOM     30  O   UNL     1     183.657 -21.727  34.077  1.00  0.00    -0.384 OA
ATOM     31  H   UNL     1     184.352 -21.200  34.553  1.00  0.00     0.211 HD
ENDBRANCH   6  30
BRANCH  22  32
ATOM     32  O   UNL     1     178.925 -18.933  26.132  1.00  0.00    -0.393 OA
ATOM     33  H   UNL     1     178.299 -19.698  26.240  1.00  0.00     0.210 HD
ENDBRANCH  22  32
BRANCH  28  34
ATOM     34  O   UNL     1     181.956 -20.435  22.096  1.00  0.00    -0.393 OA
ATOM     35  H   UNL     1     182.517 -19.804  21.576  1.00  0.00     0.210 HD
ENDBRANCH  28  34
TORSDOF 3
ENDMDL
MODEL 4
REMARK VINA RESULT:    -8.329      4.180      5.559
REMARK INTER + INTRA:          -9.059
REMARK INTER:                  -9.059
REMARK INTRA:                   0.000
REMARK UNBOUND:                 0.000
REMARK SMILES C[C@@H]1CC[C@H]2[N@H+](C1)C[C@H]1[C@H]3C[C@H]4[C@@H](C[C@H](O)[C@H]5C[C@H](O)CC[C@]54C)[C@@H]3CC[C@@H]1[C@@]2(C)O
REMARK SMILES IDX 5 1 6 2 8 3 7 4 4 5 29 6 3 7 28 8 30 9 2 10 27 11 9 12 1 13
REMARK SMILES IDX 26 14 10 15 25 16 11 17 13 18 12 19 14 20 23 21 15 22 17 23
REMARK SMILES IDX 22 24 24 25 18 26 21 27 19 28 31 30 16 32 20 34
REMARK H PARENT 6 29 31 31 16 33 20 35
REMARK Flexibility Score: inf
ROOT
ATOM      1  C   UNL     1     186.252 -14.589  24.257  1.00  0.00     0.216 C 
ATOM      2  N   UNL     1     186.557 -15.998  23.851  1.00  0.00    -0.330 N 
ATOM      3  C   UNL     1     185.340 -16.871  23.776  1.00  0.00     0.266 C 
ATOM      4  C   UNL     1     187.247 -16.062  22.535  1.00  0.00     0.265 C 
ATOM      5  C   UNL     1     187.519 -13.690  24.208  1.00  0.00     0.069 C 
ATOM      6  C   UNL     1     185.558 -14.511  25.687  1.00  0.00     0.117 C 
ATOM      7  C   UNL     1     188.218 -13.766  22.853  1.00  0.00     0.015 C 
ATOM      8  C   UNL     1     184.800 -15.843  25.990  1.00  0.00     0.036 C 
ATOM      9  C   UNL     1     184.597 -13.301  25.709  1.00  0.00     0.049 C 
ATOM     10  C   UNL     1     188.530 -15.215  22.470  1.00  0.00     0.041 C 
ATOM     11  C   UNL     1     183.771 -15.799  27.155  1.00  0.00     0.007 C 
ATOM     12  C   UNL     1     184.182 -16.408  24.688  1.00  0.00     0.054 C 
ATOM     13  C   UNL     1     189.676 -15.817  23.299  1.00  0.00     0.013 C 
ATOM     14  C   UNL     1     183.230 -17.215  27.505  1.00  0.00     0.004 C 
ATOM     15  C   UNL     1     183.090 -17.475  24.998  1.00  0.00     0.002 C 
ATOM     16  C   UNL     1     183.368 -18.196  26.317  1.00  0.00    -0.004 C 
ATOM     17  C   UNL     1     182.764 -18.579  23.972  1.00  0.00     0.009 C 
ATOM     18  C   UNL     1     182.380 -19.349  26.268  1.00  0.00    -0.001 C 
ATOM     19  C   UNL     1     182.525 -19.841  24.831  1.00  0.00    -0.001 C 
ATOM     20  C   UNL     1     182.646 -20.508  27.223  1.00  0.00     0.036 C 
ATOM     21  C   UNL     1     181.379 -20.822  24.445  1.00  0.00    -0.024 C 
ATOM     22  C   UNL     1     181.576 -21.601  27.006  1.00  0.00     0.118 C 
ATOM     23  C   UNL     1     181.389 -22.006  25.498  1.00  0.00     0.026 C 
ATOM     24  C   UNL     1     179.983 -20.103  24.343  1.00  0.00     0.010 C 
ATOM     25  C   UNL     1     181.725 -21.399  23.044  1.00  0.00     0.012 C 
ATOM     26  C   UNL     1     180.154 -22.918  25.325  1.00  0.00     0.038 C 
ATOM     27  C   UNL     1     178.899 -20.630  25.290  1.00  0.00     0.032 C 
ATOM     28  C   UNL     1     178.796 -22.169  25.320  1.00  0.00     0.114 C 
ATOM     29  H   UNL     1     187.197 -16.412  24.569  1.00  0.00     0.348 HD
ENDROOT
BRANCH   6  30
ATOM     30  O   UNL     1     186.509 -14.294  26.708  1.00  0.00    -0.384 OA
ATOM     31  H   UNL     1     186.385 -14.993  27.403  1.00  0.00     0.211 HD
ENDBRANCH   6  30
BRANCH  22  32
ATOM     32  O   UNL     1     181.940 -22.743  27.741  1.00  0.00    -0.393 OA
ATOM     33  H   UNL     1     181.912 -23.515  27.115  1.00  0.00     0.210 HD
ENDBRANCH  22  32
BRANCH  28  34
ATOM     34  O   UNL     1     177.984 -22.629  24.267  1.00  0.00    -0.393 OA
ATOM     35  H   UNL     1     178.482 -23.348  23.798  1.00  0.00     0.210 HD
ENDBRANCH  28  34
TORSDOF 3
ENDMDL
MODEL 5
REMARK VINA RESULT:    -8.304      6.223      9.746
REMARK INTER + INTRA:          -9.032
REMARK INTER:                  -9.032
REMARK INTRA:                   0.000
REMARK UNBOUND:                 0.000
REMARK SMILES C[C@@H]1CC[C@H]2[N@H+](C1)C[C@H]1[C@H]3C[C@H]4[C@@H](C[C@H](O)[C@H]5C[C@H](O)CC[C@]54C)[C@@H]3CC[C@@H]1[C@@]2(C)O
REMARK SMILES IDX 5 1 6 2 8 3 7 4 4 5 29 6 3 7 28 8 30 9 2 10 27 11 9 12 1 13
REMARK SMILES IDX 26 14 10 15 25 16 11 17 13 18 12 19 14 20 23 21 15 22 17 23
REMARK SMILES IDX 22 24 24 25 18 26 21 27 19 28 31 30 16 32 20 34
REMARK H PARENT 6 29 31 31 16 33 20 35
REMARK Flexibility Score: inf
ROOT
ATOM      1  C   UNL     1     182.782 -22.930  37.324  1.00  0.00     0.216 C 
ATOM      2  N   UNL     1     183.282 -21.530  37.511  1.00  0.00    -0.330 N 
ATOM      3  C   UNL     1     183.050 -20.653  36.317  1.00  0.00     0.266 C 
ATOM      4  C   UNL     1     182.663 -20.870  38.690  1.00  0.00     0.265 C 
ATOM      5  C   UNL     1     182.933 -23.771  38.623  1.00  0.00     0.069 C 
ATOM      6  C   UNL     1     183.478 -23.659  36.093  1.00  0.00     0.117 C 
ATOM      7  C   UNL     1     182.294 -23.082  39.825  1.00  0.00     0.015 C 
ATOM      8  C   UNL     1     183.961 -22.605  35.047  1.00  0.00     0.036 C 
ATOM      9  C   UNL     1     182.471 -24.650  35.467  1.00  0.00     0.049 C 
ATOM     10  C   UNL     1     182.834 -21.659  40.000  1.00  0.00     0.041 C 
ATOM     11  C   UNL     1     184.315 -23.149  33.635  1.00  0.00     0.007 C 
ATOM     12  C   UNL     1     182.959 -21.426  34.983  1.00  0.00     0.054 C 
ATOM     13  C   UNL     1     184.280 -21.630  40.521  1.00  0.00     0.013 C 
ATOM     14  C   UNL     1     184.977 -22.060  32.741  1.00  0.00     0.004 C 
ATOM     15  C   UNL     1     183.165 -20.581  33.690  1.00  0.00     0.002 C 
ATOM     16  C   UNL     1     184.616 -20.631  33.211  1.00  0.00    -0.004 C 
ATOM     17  C   UNL     1     182.759 -19.093  33.658  1.00  0.00     0.009 C 
ATOM     18  C   UNL     1     184.643 -19.541  32.153  1.00  0.00    -0.001 C 
ATOM     19  C   UNL     1     183.873 -18.411  32.831  1.00  0.00    -0.001 C 
ATOM     20  C   UNL     1     186.021 -19.031  31.744  1.00  0.00     0.036 C 
ATOM     21  C   UNL     1     183.494 -17.291  31.818  1.00  0.00    -0.024 C 
ATOM     22  C   UNL     1     185.857 -17.903  30.702  1.00  0.00     0.118 C 
ATOM     23  C   UNL     1     184.834 -16.791  31.136  1.00  0.00     0.026 C 
ATOM     24  C   UNL     1     182.415 -17.765  30.774  1.00  0.00     0.010 C 
ATOM     25  C   UNL     1     182.885 -16.120  32.639  1.00  0.00     0.012 C 
ATOM     26  C   UNL     1     184.539 -15.830  29.963  1.00  0.00     0.038 C 
ATOM     27  C   UNL     1     182.847 -17.704  29.305  1.00  0.00     0.032 C 
ATOM     28  C   UNL     1     183.536 -16.380  28.915  1.00  0.00     0.114 C 
ATOM     29  H   UNL     1     184.315 -21.574  37.674  1.00  0.00     0.348 HD
ENDROOT
BRANCH   6  30
ATOM     30  O   UNL     1     184.592 -24.420  36.510  1.00  0.00    -0.384 OA
ATOM     31  H   UNL     1     184.259 -25.264  36.914  1.00  0.00     0.211 HD
ENDBRANCH   6  30
BRANCH  22  32
ATOM     32  O   UNL     1     187.110 -17.305  30.480  1.00  0.00    -0.393 OA
ATOM     33  H   UNL     1     187.061 -16.380  30.841  1.00  0.00     0.210 HD
ENDBRANCH  22  32
BRANCH  28  34
ATOM     34  O   UNL     1     182.579 -15.403  28.589  1.00  0.00    -0.393 OA
ATOM     35  H   UNL     1     181.789 -15.872  28.214  1.00  0.00     0.210 HD
ENDBRANCH  28  34
TORSDOF 3
ENDMDL
MODEL 6
REMARK VINA RESULT:    -8.165     10.736     12.301
REMARK INTER + INTRA:          -8.882
REMARK INTER:                  -8.882
REMARK INTRA:                   0.000
REMARK UNBOUND:                 0.000
REMARK SMILES C[C@@H]1CC[C@H]2[N@H+](C1)C[C@H]1[C@H]3C[C@H]4[C@@H](C[C@H](O)[C@H]5C[C@H](O)CC[C@]54C)[C@@H]3CC[C@@H]1[C@@]2(C)O
REMARK SMILES IDX 5 1 6 2 8 3 7 4 4 5 29 6 3 7 28 8 30 9 2 10 27 11 9 12 1 13
REMARK SMILES IDX 26 14 10 15 25 16 11 17 13 18 12 19 14 20 23 21 15 22 17 23
REMARK SMILES IDX 22 24 24 25 18 26 21 27 19 28 31 30 16 32 20 34
REMARK H PARENT 6 29 31 31 16 33 20 35
REMARK Flexibility Score: inf
ROOT
ATOM      1  C   UNL     1     183.365 -23.493  37.697  1.00  0.00     0.216 C 
ATOM      2  N   UNL     1     181.919 -23.484  38.088  1.00  0.00    -0.330 N 
ATOM      3  C   UNL     1     181.197 -24.744  37.716  1.00  0.00     0.266 C 
ATOM      4  C   UNL     1     181.738 -23.266  39.548  1.00  0.00     0.265 C 
ATOM      5  C   UNL     1     184.105 -22.223  38.204  1.00  0.00     0.069 C 
ATOM      6  C   UNL     1     183.564 -23.676  36.129  1.00  0.00     0.117 C 
ATOM      7  C   UNL     1     183.910 -22.010  39.702  1.00  0.00     0.015 C 
ATOM      8  C   UNL     1     182.341 -24.430  35.516  1.00  0.00     0.036 C 
ATOM      9  C   UNL     1     184.881 -24.446  35.881  1.00  0.00     0.049 C 
ATOM     10  C   UNL     1     182.424 -21.992  40.071  1.00  0.00     0.041 C 
ATOM     11  C   UNL     1     182.539 -25.017  34.091  1.00  0.00     0.007 C 
ATOM     12  C   UNL     1     181.819 -25.491  36.516  1.00  0.00     0.054 C 
ATOM     13  C   UNL     1     181.712 -20.709  39.611  1.00  0.00     0.013 C 
ATOM     14  C   UNL     1     181.208 -25.561  33.496  1.00  0.00     0.004 C 
ATOM     15  C   UNL     1     180.899 -26.529  35.807  1.00  0.00     0.002 C 
ATOM     16  C   UNL     1     180.186 -25.917  34.602  1.00  0.00    -0.004 C 
ATOM     17  C   UNL     1     179.814 -27.282  36.604  1.00  0.00     0.009 C 
ATOM     18  C   UNL     1     179.158 -26.983  34.260  1.00  0.00    -0.001 C 
ATOM     19  C   UNL     1     178.613 -27.361  35.634  1.00  0.00    -0.001 C 
ATOM     20  C   UNL     1     178.002 -26.545  33.367  1.00  0.00     0.036 C 
ATOM     21  C   UNL     1     177.766 -28.666  35.573  1.00  0.00    -0.024 C 
ATOM     22  C   UNL     1     177.039 -27.735  33.163  1.00  0.00     0.118 C 
ATOM     23  C   UNL     1     176.618 -28.440  34.504  1.00  0.00     0.026 C 
ATOM     24  C   UNL     1     178.643 -29.937  35.272  1.00  0.00     0.010 C 
ATOM     25  C   UNL     1     177.113 -28.853  36.972  1.00  0.00     0.012 C 
ATOM     26  C   UNL     1     175.856 -29.753  34.217  1.00  0.00     0.038 C 
ATOM     27  C   UNL     1     178.275 -30.706  33.998  1.00  0.00     0.032 C 
ATOM     28  C   UNL     1     176.761 -30.955  33.839  1.00  0.00     0.114 C 
ATOM     29  H   UNL     1     181.452 -22.693  37.585  1.00  0.00     0.348 HD
ENDROOT
BRANCH   6  30
ATOM     30  O   UNL     1     183.694 -22.429  35.479  1.00  0.00    -0.384 OA
ATOM     31  H   UNL     1     184.402 -21.909  35.941  1.00  0.00     0.211 HD
ENDBRANCH   6  30
BRANCH  22  32
ATOM     32  O   UNL     1     175.883 -27.275  32.510  1.00  0.00    -0.393 OA
ATOM     33  H   UNL     1     175.842 -26.291  32.646  1.00  0.00     0.210 HD
ENDBRANCH  22  32
BRANCH  28  34
ATOM     34  O   UNL     1     176.373 -32.105  34.547  1.00  0.00    -0.393 OA
ATOM     35  H   UNL     1     175.514 -31.902  35.001  1.00  0.00     0.210 HD
ENDBRANCH  28  34
TORSDOF 3
ENDMDL
MODEL 7
REMARK VINA RESULT:    -8.058      7.852      9.848
REMARK INTER + INTRA:          -8.765
REMARK INTER:                  -8.765
REMARK INTRA:                   0.000
REMARK UNBOUND:                 0.000
REMARK SMILES C[C@@H]1CC[C@H]2[N@H+](C1)C[C@H]1[C@H]3C[C@H]4[C@@H](C[C@H](O)[C@H]5C[C@H](O)CC[C@]54C)[C@@H]3CC[C@@H]1[C@@]2(C)O
REMARK SMILES IDX 5 1 6 2 8 3 7 4 4 5 29 6 3 7 28 8 30 9 2 10 27 11 9 12 1 13
REMARK SMILES IDX 26 14 10 15 25 16 11 17 13 18 12 19 14 20 23 21 15 22 17 23
REMARK SMILES IDX 22 24 24 25 18 26 21 27 19 28 31 30 16 32 20 34
REMARK H PARENT 6 29 31 31 16 33 20 35
REMARK Flexibility Score: inf
ROOT
ATOM      1  C   UNL     1     182.223 -24.459  38.017  1.00  0.00     0.216 C 
ATOM      2  N   UNL     1     182.702 -23.147  37.476  1.00  0.00    -0.330 N 
ATOM      3  C   UNL     1     182.246 -22.883  36.071  1.00  0.00     0.266 C 
ATOM      4  C   UNL     1     182.266 -22.003  38.320  1.00  0.00     0.265 C 
ATOM      5  C   UNL     1     182.616 -24.641  39.510  1.00  0.00     0.069 C 
ATOM      6  C   UNL     1     182.729 -25.690  37.145  1.00  0.00     0.117 C 
ATOM      7  C   UNL     1     182.164 -23.461  40.365  1.00  0.00     0.015 C 
ATOM      8  C   UNL     1     182.997 -25.234  35.675  1.00  0.00     0.036 C 
ATOM      9  C   UNL     1     181.664 -26.810  37.200  1.00  0.00     0.049 C 
ATOM     10  C   UNL     1     182.678 -22.135  39.797  1.00  0.00     0.041 C 
ATOM     11  C   UNL     1     183.128 -26.365  34.617  1.00  0.00     0.007 C 
ATOM     12  C   UNL     1     181.960 -24.163  35.257  1.00  0.00     0.054 C 
ATOM     13  C   UNL     1     184.189 -21.943  40.006  1.00  0.00     0.013 C 
ATOM     14  C   UNL     1     183.597 -25.819  33.237  1.00  0.00     0.004 C 
ATOM     15  C   UNL     1     181.921 -23.991  33.708  1.00  0.00     0.002 C 
ATOM     16  C   UNL     1     183.272 -24.315  33.072  1.00  0.00    -0.004 C 
ATOM     17  C   UNL     1     181.467 -22.656  33.083  1.00  0.00     0.009 C 
ATOM     18  C   UNL     1     183.088 -23.811  31.651  1.00  0.00    -0.001 C 
ATOM     19  C   UNL     1     182.404 -22.464  31.870  1.00  0.00    -0.001 C 
ATOM     20  C   UNL     1     184.362 -23.599  30.839  1.00  0.00     0.036 C 
ATOM     21  C   UNL     1     181.826 -21.895  30.540  1.00  0.00    -0.024 C 
ATOM     22  C   UNL     1     183.990 -23.046  29.445  1.00  0.00     0.118 C 
ATOM     23  C   UNL     1     183.017 -21.811  29.499  1.00  0.00     0.026 C 
ATOM     24  C   UNL     1     180.605 -22.734  30.010  1.00  0.00     0.010 C 
ATOM     25  C   UNL     1     181.325 -20.455  30.840  1.00  0.00     0.012 C 
ATOM     26  C   UNL     1     182.500 -21.460  28.086  1.00  0.00     0.038 C 
ATOM     27  C   UNL     1     180.784 -23.352  28.619  1.00  0.00     0.032 C 
ATOM     28  C   UNL     1     181.356 -22.373  27.573  1.00  0.00     0.114 C 
ATOM     29  H   UNL     1     183.749 -23.160  37.470  1.00  0.00     0.348 HD
ENDROOT
BRANCH   6  30
ATOM     30  O   UNL     1     183.920 -26.236  37.669  1.00  0.00    -0.384 OA
ATOM     31  H   UNL     1     184.007 -25.946  38.615  1.00  0.00     0.211 HD
ENDBRANCH   6  30
BRANCH  22  32
ATOM     32  O   UNL     1     185.168 -22.667  28.780  1.00  0.00    -0.393 OA
ATOM     33  H   UNL     1     185.521 -21.862  29.244  1.00  0.00     0.210 HD
ENDBRANCH  22  32
BRANCH  28  34
ATOM     34  O   UNL     1     180.327 -21.600  27.007  1.00  0.00    -0.393 OA
ATOM     35  H   UNL     1     180.558 -20.645  27.148  1.00  0.00     0.210 HD
ENDBRANCH  28  34
TORSDOF 3
ENDMDL
MODEL 8
REMARK VINA RESULT:    -8.032     11.976     13.874
REMARK INTER + INTRA:          -8.737
REMARK INTER:                  -8.737
REMARK INTRA:                   0.000
REMARK UNBOUND:                 0.000
REMARK SMILES C[C@@H]1CC[C@H]2[N@H+](C1)C[C@H]1[C@H]3C[C@H]4[C@@H](C[C@H](O)[C@H]5C[C@H](O)CC[C@]54C)[C@@H]3CC[C@@H]1[C@@]2(C)O
REMARK SMILES IDX 5 1 6 2 8 3 7 4 4 5 29 6 3 7 28 8 30 9 2 10 27 11 9 12 1 13
REMARK SMILES IDX 26 14 10 15 25 16 11 17 13 18 12 19 14 20 23 21 15 22 17 23
REMARK SMILES IDX 22 24 24 25 18 26 21 27 19 28 31 30 16 32 20 34
REMARK H PARENT 6 29 31 31 16 33 20 35
REMARK Flexibility Score: inf
ROOT
ATOM      1  C   UNL     1     182.188 -24.051  39.025  1.00  0.00     0.216 C 
ATOM      2  N   UNL     1     182.031 -24.131  37.537  1.00  0.00    -0.330 N 
ATOM      3  C   UNL     1     180.725 -24.731  37.110  1.00  0.00     0.266 C 
ATOM      4  C   UNL     1     182.154 -22.797  36.892  1.00  0.00     0.265 C 
ATOM      5  C   UNL     1     183.499 -23.317  39.425  1.00  0.00     0.069 C 
ATOM      6  C   UNL     1     182.107 -25.482  39.716  1.00  0.00     0.117 C 
ATOM      7  C   UNL     1     183.613 -21.951  38.755  1.00  0.00     0.015 C 
ATOM      8  C   UNL     1     181.266 -26.459  38.834  1.00  0.00     0.036 C 
ATOM      9  C   UNL     1     181.487 -25.321  41.123  1.00  0.00     0.049 C 
ATOM     10  C   UNL     1     183.462 -22.064  37.236  1.00  0.00     0.041 C 
ATOM     11  C   UNL     1     180.776 -27.761  39.526  1.00  0.00     0.007 C 
ATOM     12  C   UNL     1     180.108 -25.690  38.151  1.00  0.00     0.054 C 
ATOM     13  C   UNL     1     184.689 -22.700  36.561  1.00  0.00     0.013 C 
ATOM     14  C   UNL     1     180.132 -28.751  38.512  1.00  0.00     0.004 C 
ATOM     15  C   UNL     1     179.020 -26.669  37.617  1.00  0.00     0.002 C 
ATOM     16  C   UNL     1     179.619 -28.026  37.246  1.00  0.00    -0.004 C 
ATOM     17  C   UNL     1     178.121 -26.264  36.430  1.00  0.00     0.009 C 
ATOM     18  C   UNL     1     178.474 -28.690  36.500  1.00  0.00    -0.001 C 
ATOM     19  C   UNL     1     177.972 -27.561  35.603  1.00  0.00    -0.001 C 
ATOM     20  C   UNL     1     178.838 -29.891  35.633  1.00  0.00     0.036 C 
ATOM     21  C   UNL     1     176.593 -27.906  34.968  1.00  0.00    -0.024 C 
ATOM     22  C   UNL     1     177.568 -30.406  34.919  1.00  0.00     0.118 C 
ATOM     23  C   UNL     1     176.756 -29.276  34.188  1.00  0.00     0.026 C 
ATOM     24  C   UNL     1     175.434 -27.941  36.032  1.00  0.00     0.010 C 
ATOM     25  C   UNL     1     176.269 -26.785  33.942  1.00  0.00     0.012 C 
ATOM     26  C   UNL     1     175.390 -29.809  33.703  1.00  0.00     0.038 C 
ATOM     27  C   UNL     1     174.698 -29.279  36.163  1.00  0.00     0.032 C 
ATOM     28  C   UNL     1     174.307 -29.908  34.809  1.00  0.00     0.114 C 
ATOM     29  H   UNL     1     182.795 -24.740  37.162  1.00  0.00     0.348 HD
ENDROOT
BRANCH   6  30
ATOM     30  O   UNL     1     183.392 -26.037  39.900  1.00  0.00    -0.384 OA
ATOM     31  H   UNL     1     183.286 -26.986  40.172  1.00  0.00     0.211 HD
ENDBRANCH   6  30
BRANCH  22  32
ATOM     32  O   UNL     1     177.943 -31.379  33.977  1.00  0.00    -0.393 OA
ATOM     33  H   UNL     1     178.359 -30.900  33.211  1.00  0.00     0.210 HD
ENDBRANCH  22  32
BRANCH  28  34
ATOM     34  O   UNL     1     173.088 -29.376  34.353  1.00  0.00    -0.393 OA
ATOM     35  H   UNL     1     173.189 -29.186  33.384  1.00  0.00     0.210 HD
ENDBRANCH  28  34
TORSDOF 3
ENDMDL
MODEL 9
REMARK VINA RESULT:    -7.931      3.383      3.911
REMARK INTER + INTRA:          -8.627
REMARK INTER:                  -8.627
REMARK INTRA:                   0.000
REMARK UNBOUND:                 0.000
REMARK SMILES C[C@@H]1CC[C@H]2[N@H+](C1)C[C@H]1[C@H]3C[C@H]4[C@@H](C[C@H](O)[C@H]5C[C@H](O)CC[C@]54C)[C@@H]3CC[C@@H]1[C@@]2(C)O
REMARK SMILES IDX 5 1 6 2 8 3 7 4 4 5 29 6 3 7 28 8 30 9 2 10 27 11 9 12 1 13
REMARK SMILES IDX 26 14 10 15 25 16 11 17 13 18 12 19 14 20 23 21 15 22 17 23
REMARK SMILES IDX 22 24 24 25 18 26 21 27 19 28 31 30 16 32 20 34
REMARK H PARENT 6 29 31 31 16 33 20 35
REMARK Flexibility Score: inf
ROOT
ATOM      1  C   UNL     1     177.946 -15.717  31.041  1.00  0.00     0.216 C 
ATOM      2  N   UNL     1     177.848 -17.206  30.914  1.00  0.00    -0.330 N 
ATOM      3  C   UNL     1     178.997 -17.814  30.166  1.00  0.00     0.266 C 
ATOM      4  C   UNL     1     177.760 -17.874  32.240  1.00  0.00     0.265 C 
ATOM      5  C   UNL     1     176.801 -15.139  31.921  1.00  0.00     0.069 C 
ATOM      6  C   UNL     1     177.989 -14.993  29.624  1.00  0.00     0.117 C 
ATOM      7  C   UNL     1     176.722 -15.834  33.277  1.00  0.00     0.015 C 
ATOM      8  C   UNL     1     178.569 -15.961  28.544  1.00  0.00     0.036 C 
ATOM      9  C   UNL     1     178.845 -13.711  29.746  1.00  0.00     0.049 C 
ATOM     10  C   UNL     1     176.609 -17.353  33.117  1.00  0.00     0.041 C 
ATOM     11  C   UNL     1     179.028 -15.308  27.210  1.00  0.00     0.007 C 
ATOM     12  C   UNL     1     179.673 -16.850  29.168  1.00  0.00     0.054 C 
ATOM     13  C   UNL     1     175.230 -17.797  32.605  1.00  0.00     0.013 C 
ATOM     14  C   UNL     1     179.391 -16.373  26.136  1.00  0.00     0.004 C 
ATOM     15  C   UNL     1     180.551 -17.514  28.066  1.00  0.00     0.002 C 
ATOM     16  C   UNL     1     179.763 -17.732  26.774  1.00  0.00    -0.004 C 
ATOM     17  C   UNL     1     181.281 -18.844  28.347  1.00  0.00     0.009 C 
ATOM     18  C   UNL     1     180.695 -18.627  25.975  1.00  0.00    -0.001 C 
ATOM     19  C   UNL     1     181.158 -19.634  27.024  1.00  0.00    -0.001 C 
ATOM     20  C   UNL     1     180.072 -19.377  24.803  1.00  0.00     0.036 C 
ATOM     21  C   UNL     1     182.371 -20.470  26.518  1.00  0.00    -0.024 C 
ATOM     22  C   UNL     1     181.147 -20.265  24.138  1.00  0.00     0.118 C 
ATOM     23  C   UNL     1     181.941 -21.160  25.159  1.00  0.00     0.026 C 
ATOM     24  C   UNL     1     183.679 -19.605  26.380  1.00  0.00     0.010 C 
ATOM     25  C   UNL     1     182.637 -21.576  27.577  1.00  0.00     0.012 C 
ATOM     26  C   UNL     1     183.147 -21.837  24.470  1.00  0.00     0.038 C 
ATOM     27  C   UNL     1     184.283 -19.543  24.973  1.00  0.00     0.032 C 
ATOM     28  C   UNL     1     184.380 -20.917  24.278  1.00  0.00     0.114 C 
ATOM     29  H   UNL     1     176.974 -17.430  30.383  1.00  0.00     0.348 HD
ENDROOT
BRANCH   6  30
ATOM     30  O   UNL     1     176.701 -14.585  29.216  1.00  0.00    -0.384 OA
ATOM     31  H   UNL     1     176.182 -15.395  28.966  1.00  0.00     0.211 HD
ENDBRANCH   6  30
BRANCH  22  32
ATOM     32  O   UNL     1     180.524 -21.098  23.192  1.00  0.00    -0.393 OA
ATOM     33  H   UNL     1     181.032 -21.953  23.177  1.00  0.00     0.210 HD
ENDBRANCH  22  32
BRANCH  28  34
ATOM     34  O   UNL     1     185.557 -21.582  24.664  1.00  0.00    -0.393 OA
ATOM     35  H   UNL     1     186.110 -20.938  25.178  1.00  0.00     0.210 HD
ENDBRANCH  28  34
TORSDOF 3
ENDMDL
