MODEL 1
REMARK VINA RESULT:    -5.265      0.000      0.000
REMARK INTER + INTRA:          -7.962
REMARK INTER:                  -7.112
REMARK INTRA:                  -0.850
REMARK UNBOUND:                -0.850
REMARK SMILES CC(=O)CCC=C(C)CCC=C(C)C
REMARK SMILES IDX 7 1 6 2 8 3 9 4 10 5 11 6 13 7 12 8 14 9 5 10 4 11 2 12 3 13
REMARK SMILES IDX 1 14
REMARK H PARENT
REMARK Flexibility Score: inf
ROOT
ATOM      1  C   UNL     1      15.729 -33.871  22.495  1.00  0.00    -0.077 C 
ATOM      2  C   UNL     1      15.011 -33.810  21.351  1.00  0.00    -0.028 C 
ATOM      3  C   UNL     1      16.855 -34.862  22.679  1.00  0.00     0.039 C 
ENDROOT
BRANCH   1   4
ATOM      4  C   UNL     1      15.409 -32.905  23.618  1.00  0.00     0.034 C 
BRANCH   4   5
ATOM      5  C   UNL     1      13.902 -32.630  23.725  1.00  0.00     0.032 C 
BRANCH   5   6
ATOM      6  C   UNL     1      13.609 -31.151  23.829  1.00  0.00    -0.028 C 
ATOM      7  C   UNL     1      12.808 -28.945  23.107  1.00  0.00     0.039 C 
ATOM      8  C   UNL     1      13.092 -30.400  22.833  1.00  0.00    -0.080 C 
ATOM      9  C   UNL     1      12.812 -30.968  21.462  1.00  0.00     0.039 C 
ENDBRANCH   5   6
ENDBRANCH   4   5
ENDBRANCH   1   4
BRANCH   2  10
ATOM     10  C   UNL     1      15.204 -34.730  20.172  1.00  0.00     0.035 C 
BRANCH  10  11
ATOM     11  C   UNL     1      16.175 -34.118  19.157  1.00  0.00     0.079 C 
BRANCH  11  12
ATOM     12  C   UNL     1      17.425 -34.951  19.047  1.00  0.00     0.130 C 
ATOM     13  O   UNL     1      18.501 -34.399  18.869  1.00  0.00    -0.300 OA
ATOM     14  C   UNL     1      17.378 -36.447  19.142  1.00  0.00     0.087 C 
ENDBRANCH  11  12
ENDBRANCH  10  11
ENDBRANCH   2  10
TORSDOF 6
ENDMDL
MODEL 2
REMARK VINA RESULT:    -5.246      2.735      5.640
REMARK INTER + INTRA:          -7.937
REMARK INTER:                  -6.754
REMARK INTRA:                  -1.183
REMARK UNBOUND:                -0.850
REMARK SMILES CC(=O)CCC=C(C)CCC=C(C)C
REMARK SMILES IDX 7 1 6 2 8 3 9 4 10 5 11 6 13 7 12 8 14 9 5 10 4 11 2 12 3 13
REMARK SMILES IDX 1 14
REMARK H PARENT
REMARK Flexibility Score: inf
ROOT
ATOM      1  C   UNL     1      15.008 -33.806  20.711  1.00  0.00    -0.077 C 
ATOM      2  C   UNL     1      14.203 -32.876  20.149  1.00  0.00    -0.028 C 
ATOM      3  C   UNL     1      15.134 -33.951  22.210  1.00  0.00     0.039 C 
ENDROOT
BRANCH   1   4
ATOM      4  C   UNL     1      15.790 -34.743  19.813  1.00  0.00     0.034 C 
BRANCH   4   5
ATOM      5  C   UNL     1      16.840 -33.994  18.979  1.00  0.00     0.032 C 
BRANCH   5   6
ATOM      6  C   UNL     1      18.152 -33.864  19.717  1.00  0.00    -0.028 C 
ATOM      7  C   UNL     1      19.852 -32.815  21.146  1.00  0.00     0.039 C 
ATOM      8  C   UNL     1      18.532 -32.775  20.420  1.00  0.00    -0.080 C 
ATOM      9  C   UNL     1      17.687 -31.525  20.481  1.00  0.00     0.039 C 
ENDBRANCH   5   6
ENDBRANCH   4   5
ENDBRANCH   1   4
BRANCH   2  10
ATOM     10  C   UNL     1      13.397 -31.863  20.923  1.00  0.00     0.035 C 
BRANCH  10  11
ATOM     11  C   UNL     1      14.122 -30.515  20.974  1.00  0.00     0.079 C 
BRANCH  11  12
ATOM     12  C   UNL     1      14.151 -29.978  22.380  1.00  0.00     0.130 C 
ATOM     13  O   UNL     1      14.667 -28.892  22.599  1.00  0.00    -0.300 OA
ATOM     14  C   UNL     1      13.566 -30.752  23.525  1.00  0.00     0.087 C 
ENDBRANCH  11  12
ENDBRANCH  10  11
ENDBRANCH   2  10
TORSDOF 6
ENDMDL
MODEL 3
REMARK VINA RESULT:    -5.240      3.508      7.425
REMARK INTER + INTRA:          -7.928
REMARK INTER:                  -7.319
REMARK INTRA:                  -0.610
REMARK UNBOUND:                -0.850
REMARK SMILES CC(=O)CCC=C(C)CCC=C(C)C
REMARK SMILES IDX 7 1 6 2 8 3 9 4 10 5 11 6 13 7 12 8 14 9 5 10 4 11 2 12 3 13
REMARK SMILES IDX 1 14
REMARK H PARENT
REMARK Flexibility Score: inf
ROOT
ATOM      1  C   UNL     1      13.044 -29.967  22.211  1.00  0.00    -0.077 C 
ATOM      2  C   UNL     1      13.423 -29.040  23.119  1.00  0.00    -0.028 C 
ATOM      3  C   UNL     1      11.597 -30.364  22.031  1.00  0.00     0.039 C 
ENDROOT
BRANCH   1   4
ATOM      4  C   UNL     1      14.098 -30.614  21.334  1.00  0.00     0.034 C 
BRANCH   4   5
ATOM      5  C   UNL     1      13.683 -32.022  20.883  1.00  0.00     0.032 C 
BRANCH   5   6
ATOM      6  C   UNL     1      14.851 -32.980  20.897  1.00  0.00    -0.028 C 
ATOM      7  C   UNL     1      16.428 -34.615  21.832  1.00  0.00     0.039 C 
ATOM      8  C   UNL     1      15.278 -33.653  21.988  1.00  0.00    -0.080 C 
ATOM      9  C   UNL     1      14.654 -33.453  23.349  1.00  0.00     0.039 C 
ENDBRANCH   5   6
ENDBRANCH   4   5
ENDBRANCH   1   4
BRANCH   2  10
ATOM     10  C   UNL     1      12.484 -28.345  24.073  1.00  0.00     0.035 C 
BRANCH  10  11
ATOM     11  C   UNL     1      12.111 -26.954  23.553  1.00  0.00     0.079 C 
BRANCH  11  12
ATOM     12  C   UNL     1      13.170 -25.948  23.918  1.00  0.00     0.130 C 
ATOM     13  O   UNL     1      13.453 -25.058  23.128  1.00  0.00    -0.300 OA
ATOM     14  C   UNL     1      13.895 -26.016  25.230  1.00  0.00     0.087 C 
ENDBRANCH  11  12
ENDBRANCH  10  11
ENDBRANCH   2  10
TORSDOF 6
ENDMDL
MODEL 4
REMARK VINA RESULT:    -5.222      3.222      7.176
REMARK INTER + INTRA:          -7.904
REMARK INTER:                  -7.497
REMARK INTRA:                  -0.407
REMARK UNBOUND:                -0.850
REMARK SMILES CC(=O)CCC=C(C)CCC=C(C)C
REMARK SMILES IDX 7 1 6 2 8 3 9 4 10 5 11 6 13 7 12 8 14 9 5 10 4 11 2 12 3 13
REMARK SMILES IDX 1 14
REMARK H PARENT
REMARK Flexibility Score: inf
ROOT
ATOM      1  C   UNL     1      14.055 -31.701  21.596  1.00  0.00    -0.077 C 
ATOM      2  C   UNL     1      14.471 -30.883  22.589  1.00  0.00    -0.028 C 
ATOM      3  C   UNL     1      13.064 -31.245  20.549  1.00  0.00     0.039 C 
ENDROOT
BRANCH   1   4
ATOM      4  C   UNL     1      14.614 -33.107  21.516  1.00  0.00     0.034 C 
BRANCH   4   5
ATOM      5  C   UNL     1      14.658 -33.626  20.072  1.00  0.00     0.032 C 
BRANCH   5   6
ATOM      6  C   UNL     1      15.390 -34.944  19.972  1.00  0.00    -0.028 C 
ATOM      7  C   UNL     1      17.226 -36.478  19.421  1.00  0.00     0.039 C 
ATOM      8  C   UNL     1      16.601 -35.107  19.397  1.00  0.00    -0.080 C 
ATOM      9  C   UNL     1      17.328 -33.969  18.721  1.00  0.00     0.039 C 
ENDBRANCH   5   6
ENDBRANCH   4   5
ENDBRANCH   1   4
BRANCH   2  10
ATOM     10  C   UNL     1      13.973 -29.475  22.802  1.00  0.00     0.035 C 
BRANCH  10  11
ATOM     11  C   UNL     1      12.811 -29.455  23.800  1.00  0.00     0.079 C 
BRANCH  11  12
ATOM     12  C   UNL     1      12.165 -28.095  23.838  1.00  0.00     0.130 C 
ATOM     13  O   UNL     1      11.167 -27.885  23.165  1.00  0.00    -0.300 OA
ATOM     14  C   UNL     1      12.725 -26.987  24.679  1.00  0.00     0.087 C 
ENDBRANCH  11  12
ENDBRANCH  10  11
ENDBRANCH   2  10
TORSDOF 6
ENDMDL
MODEL 5
REMARK VINA RESULT:    -5.187      1.270      2.079
REMARK INTER + INTRA:          -7.857
REMARK INTER:                  -7.037
REMARK INTRA:                  -0.820
REMARK UNBOUND:                -0.850
REMARK SMILES CC(=O)CCC=C(C)CCC=C(C)C
REMARK SMILES IDX 7 1 6 2 8 3 9 4 10 5 11 6 13 7 12 8 14 9 5 10 4 11 2 12 3 13
REMARK SMILES IDX 1 14
REMARK H PARENT
REMARK Flexibility Score: inf
ROOT
ATOM      1  C   UNL     1      15.142 -31.950  22.845  1.00  0.00    -0.077 C 
ATOM      2  C   UNL     1      15.565 -32.633  21.757  1.00  0.00    -0.028 C 
ATOM      3  C   UNL     1      14.178 -32.553  23.841  1.00  0.00     0.039 C 
ENDROOT
BRANCH   1   4
ATOM      4  C   UNL     1      15.666 -30.549  23.084  1.00  0.00     0.034 C 
BRANCH   4   5
ATOM      5  C   UNL     1      14.940 -29.510  22.216  1.00  0.00     0.032 C 
BRANCH   5   6
ATOM      6  C   UNL     1      13.926 -28.724  23.014  1.00  0.00    -0.028 C 
ATOM      7  C   UNL     1      11.726 -28.155  23.944  1.00  0.00     0.039 C 
ATOM      8  C   UNL     1      12.605 -29.002  23.060  1.00  0.00    -0.080 C 
ATOM      9  C   UNL     1      11.990 -30.114  22.244  1.00  0.00     0.039 C 
ENDBRANCH   5   6
ENDBRANCH   4   5
ENDBRANCH   1   4
BRANCH   2  10
ATOM     10  C   UNL     1      15.100 -34.019  21.385  1.00  0.00     0.035 C 
BRANCH  10  11
ATOM     11  C   UNL     1      14.999 -34.168  19.864  1.00  0.00     0.079 C 
BRANCH  11  12
ATOM     12  C   UNL     1      16.302 -34.660  19.290  1.00  0.00     0.130 C 
ATOM     13  O   UNL     1      17.078 -33.860  18.787  1.00  0.00    -0.300 OA
ATOM     14  C   UNL     1      16.667 -36.115  19.315  1.00  0.00     0.087 C 
ENDBRANCH  11  12
ENDBRANCH  10  11
ENDBRANCH   2  10
TORSDOF 6
ENDMDL
MODEL 6
REMARK VINA RESULT:    -5.159      3.438      6.860
REMARK INTER + INTRA:          -7.819
REMARK INTER:                  -7.142
REMARK INTRA:                  -0.677
REMARK UNBOUND:                -0.850
REMARK SMILES CC(=O)CCC=C(C)CCC=C(C)C
REMARK SMILES IDX 7 1 6 2 8 3 9 4 10 5 11 6 13 7 12 8 14 9 5 10 4 11 2 12 3 13
REMARK SMILES IDX 1 14
REMARK H PARENT
REMARK Flexibility Score: inf
ROOT
ATOM      1  C   UNL     1      15.290 -30.888  23.055  1.00  0.00    -0.077 C 
ATOM      2  C   UNL     1      13.995 -30.547  23.242  1.00  0.00    -0.028 C 
ATOM      3  C   UNL     1      16.286 -29.935  22.435  1.00  0.00     0.039 C 
ENDROOT
BRANCH   1   4
ATOM      4  C   UNL     1      15.762 -32.258  23.498  1.00  0.00     0.034 C 
BRANCH   4   5
ATOM      5  C   UNL     1      14.849 -33.376  22.974  1.00  0.00     0.032 C 
BRANCH   5   6
ATOM      6  C   UNL     1      15.579 -34.295  22.023  1.00  0.00    -0.028 C 
ATOM      7  C   UNL     1      16.251 -35.245  19.860  1.00  0.00     0.039 C 
ATOM      8  C   UNL     1      15.411 -34.302  20.682  1.00  0.00    -0.080 C 
ATOM      9  C   UNL     1      14.401 -33.413  19.996  1.00  0.00     0.039 C 
ENDBRANCH   5   6
ENDBRANCH   4   5
ENDBRANCH   1   4
BRANCH   2  10
ATOM     10  C   UNL     1      13.389 -29.232  22.819  1.00  0.00     0.035 C 
BRANCH  10  11
ATOM     11  C   UNL     1      12.416 -28.715  23.882  1.00  0.00     0.079 C 
BRANCH  11  12
ATOM     12  C   UNL     1      12.181 -27.237  23.717  1.00  0.00     0.130 C 
ATOM     13  O   UNL     1      11.121 -26.844  23.253  1.00  0.00    -0.300 OA
ATOM     14  C   UNL     1      13.226 -26.232  24.102  1.00  0.00     0.087 C 
ENDBRANCH  11  12
ENDBRANCH  10  11
ENDBRANCH   2  10
TORSDOF 6
ENDMDL
MODEL 7
REMARK VINA RESULT:    -5.094      3.054      6.100
REMARK INTER + INTRA:          -7.730
REMARK INTER:                  -6.738
REMARK INTRA:                  -0.993
REMARK UNBOUND:                -0.850
REMARK SMILES CC(=O)CCC=C(C)CCC=C(C)C
REMARK SMILES IDX 7 1 6 2 8 3 9 4 10 5 11 6 13 7 12 8 14 9 5 10 4 11 2 12 3 13
REMARK SMILES IDX 1 14
REMARK H PARENT
REMARK Flexibility Score: inf
ROOT
ATOM      1  C   UNL     1      14.970 -33.315  22.527  1.00  0.00    -0.077 C 
ATOM      2  C   UNL     1      14.183 -32.221  22.421  1.00  0.00    -0.028 C 
ATOM      3  C   UNL     1      15.640 -33.694  23.828  1.00  0.00     0.039 C 
ENDROOT
BRANCH   1   4
ATOM      4  C   UNL     1      15.172 -34.199  21.313  1.00  0.00     0.034 C 
BRANCH   4   5
ATOM      5  C   UNL     1      15.738 -33.414  20.120  1.00  0.00     0.032 C 
BRANCH   5   6
ATOM      6  C   UNL     1      17.246 -33.334  20.168  1.00  0.00    -0.028 C 
ATOM      7  C   UNL     1      19.449 -32.324  20.566  1.00  0.00     0.039 C 
ATOM      8  C   UNL     1      17.945 -32.232  20.516  1.00  0.00    -0.080 C 
ATOM      9  C   UNL     1      17.269 -30.920  20.834  1.00  0.00     0.039 C 
ENDBRANCH   5   6
ENDBRANCH   4   5
ENDBRANCH   1   4
BRANCH   2  10
ATOM     10  C   UNL     1      13.925 -31.243  23.540  1.00  0.00     0.035 C 
BRANCH  10  11
ATOM     11  C   UNL     1      13.962 -29.802  23.022  1.00  0.00     0.079 C 
BRANCH  11  12
ATOM     12  C   UNL     1      12.614 -29.148  23.170  1.00  0.00     0.130 C 
ATOM     13  O   UNL     1      11.669 -29.561  22.513  1.00  0.00    -0.300 OA
ATOM     14  C   UNL     1      12.404 -27.993  24.104  1.00  0.00     0.087 C 
ENDBRANCH  11  12
ENDBRANCH  10  11
ENDBRANCH   2  10
TORSDOF 6
ENDMDL
MODEL 8
REMARK VINA RESULT:    -5.088      2.247      2.969
REMARK INTER + INTRA:          -7.723
REMARK INTER:                  -6.449
REMARK INTRA:                  -1.275
REMARK UNBOUND:                -0.850
REMARK SMILES CC(=O)CCC=C(C)CCC=C(C)C
REMARK SMILES IDX 7 1 6 2 8 3 9 4 10 5 11 6 13 7 12 8 14 9 5 10 4 11 2 12 3 13
REMARK SMILES IDX 1 14
REMARK H PARENT
REMARK Flexibility Score: inf
ROOT
ATOM      1  C   UNL     1      17.341 -31.189  21.590  1.00  0.00    -0.077 C 
ATOM      2  C   UNL     1      17.677 -31.708  20.387  1.00  0.00    -0.028 C 
ATOM      3  C   UNL     1      17.276 -32.040  22.837  1.00  0.00     0.039 C 
ENDROOT
BRANCH   1   4
ATOM      4  C   UNL     1      17.039 -29.707  21.695  1.00  0.00     0.034 C 
BRANCH   4   5
ATOM      5  C   UNL     1      15.639 -29.447  22.270  1.00  0.00     0.032 C 
BRANCH   5   6
ATOM      6  C   UNL     1      14.554 -29.976  21.362  1.00  0.00    -0.028 C 
ATOM      7  C   UNL     1      12.551 -31.249  20.731  1.00  0.00     0.039 C 
ATOM      8  C   UNL     1      13.598 -30.853  21.740  1.00  0.00    -0.080 C 
ATOM      9  C   UNL     1      13.563 -31.453  23.125  1.00  0.00     0.039 C 
ENDBRANCH   5   6
ENDBRANCH   4   5
ENDBRANCH   1   4
BRANCH   2  10
ATOM     10  C   UNL     1      17.969 -33.166  20.138  1.00  0.00     0.035 C 
BRANCH  10  11
ATOM     11  C   UNL     1      17.023 -33.736  19.077  1.00  0.00     0.079 C 
BRANCH  11  12
ATOM     12  C   UNL     1      15.999 -34.642  19.707  1.00  0.00     0.130 C 
ATOM     13  O   UNL     1      16.023 -35.840  19.461  1.00  0.00    -0.300 OA
ATOM     14  C   UNL     1      14.942 -34.107  20.627  1.00  0.00     0.087 C 
ENDBRANCH  11  12
ENDBRANCH  10  11
ENDBRANCH   2  10
TORSDOF 6
ENDMDL
MODEL 9
REMARK VINA RESULT:    -5.047      1.551      2.623
REMARK INTER + INTRA:          -7.668
REMARK INTER:                  -7.100
REMARK INTRA:                  -0.568
REMARK UNBOUND:                -0.850
REMARK SMILES CC(=O)CCC=C(C)CCC=C(C)C
REMARK SMILES IDX 7 1 6 2 8 3 9 4 10 5 11 6 13 7 12 8 14 9 5 10 4 11 2 12 3 13
REMARK SMILES IDX 1 14
REMARK H PARENT
REMARK Flexibility Score: inf
ROOT
ATOM      1  C   UNL     1      14.212 -32.439  22.157  1.00  0.00    -0.077 C 
ATOM      2  C   UNL     1      15.018 -33.454  22.543  1.00  0.00    -0.028 C 
ATOM      3  C   UNL     1      13.824 -32.234  20.710  1.00  0.00     0.039 C 
ENDROOT
BRANCH   1   4
ATOM      4  C   UNL     1      13.666 -31.492  23.206  1.00  0.00     0.034 C 
BRANCH   4   5
ATOM      5  C   UNL     1      13.041 -30.238  22.576  1.00  0.00     0.032 C 
BRANCH   5   6
ATOM      6  C   UNL     1      13.273 -29.010  23.426  1.00  0.00    -0.028 C 
ATOM      7  C   UNL     1      12.706 -26.931  24.602  1.00  0.00     0.039 C 
ATOM      8  C   UNL     1      12.336 -28.075  23.694  1.00  0.00    -0.080 C 
ATOM      9  C   UNL     1      10.949 -28.136  23.100  1.00  0.00     0.039 C 
ENDBRANCH   5   6
ENDBRANCH   4   5
ENDBRANCH   1   4
BRANCH   2  10
ATOM     10  C   UNL     1      15.654 -34.446  21.601  1.00  0.00     0.035 C 
BRANCH  10  11
ATOM     11  C   UNL     1      17.157 -34.184  21.469  1.00  0.00     0.079 C 
BRANCH  11  12
ATOM     12  C   UNL     1      17.459 -33.448  20.190  1.00  0.00     0.130 C 
ATOM     13  O   UNL     1      17.365 -32.230  20.161  1.00  0.00    -0.300 OA
ATOM     14  C   UNL     1      17.868 -34.179  18.946  1.00  0.00     0.087 C 
ENDBRANCH  11  12
ENDBRANCH  10  11
ENDBRANCH   2  10
TORSDOF 6
ENDMDL
