MODEL 1
REMARK VINA RESULT:    -3.874      0.000      0.000
REMARK INTER + INTRA:          -9.753
REMARK INTER:                  -7.045
REMARK INTRA:                  -2.708
REMARK UNBOUND:                -2.708
REMARK SMILES CCCCCC=CCC=CCCCCCCCC(=O)[O-]
REMARK SMILES IDX 11 1 12 2 13 3 14 4 15 5 16 6 17 7 18 8 19 9 20 10 10 11
REMARK SMILES IDX 9 12 8 13 7 14 6 15 5 16 4 17 3 18 2 19 1 20
REMARK H PARENT
REMARK Flexibility Score: inf
ROOT
ATOM      1  C   UNL     1       1.231 -57.189 -29.155  1.00  0.00     0.027 C 
ENDROOT
BRANCH   1   2
ATOM      2  C   UNL     1      -0.090 -56.537 -28.719  1.00  0.00     0.004 C 
BRANCH   2   3
ATOM      3  C   UNL     1      -0.272 -56.534 -27.194  1.00  0.00     0.000 C 
BRANCH   3   4
ATOM      4  C   UNL     1      -1.561 -57.245 -26.752  1.00  0.00     0.000 C 
BRANCH   4   5
ATOM      5  C   UNL     1      -1.236 -58.537 -25.987  1.00  0.00     0.000 C 
BRANCH   5   6
ATOM      6  C   UNL     1      -0.312 -58.294 -24.781  1.00  0.00     0.006 C 
BRANCH   6   7
ATOM      7  C   UNL     1       0.296 -59.594 -24.237  1.00  0.00     0.053 C 
BRANCH   7   8
ATOM      8  C   UNL     1       1.582 -59.311 -23.526  1.00  0.00     0.041 C 
ATOM      9  O   UNL     1       2.555 -60.102 -23.638  1.00  0.00    -0.550 OA
ATOM     10  O   UNL     1       1.696 -58.192 -22.711  1.00  0.00    -0.550 OA
ENDBRANCH   7   8
ENDBRANCH   6   7
ENDBRANCH   5   6
ENDBRANCH   4   5
ENDBRANCH   3   4
ENDBRANCH   2   3
ENDBRANCH   1   2
BRANCH   1  11
ATOM     11  C   UNL     1       1.036 -58.631 -29.552  1.00  0.00    -0.031 C 
ATOM     12  C   UNL     1       1.376 -59.695 -28.800  1.00  0.00    -0.027 C 
BRANCH  12  13
ATOM     13  C   UNL     1       2.057 -59.626 -27.457  1.00  0.00     0.054 C 
BRANCH  13  14
ATOM     14  C   UNL     1       2.800 -60.907 -27.172  1.00  0.00    -0.027 C 
ATOM     15  C   UNL     1       4.120 -61.059 -27.371  1.00  0.00    -0.031 C 
BRANCH  15  16
ATOM     16  C   UNL     1       5.044 -59.958 -27.828  1.00  0.00     0.027 C 
BRANCH  16  17
ATOM     17  C   UNL     1       5.117 -59.916 -29.363  1.00  0.00     0.004 C 
BRANCH  17  18
ATOM     18  C   UNL     1       4.900 -58.504 -29.929  1.00  0.00     0.000 C 
BRANCH  18  19
ATOM     19  C   UNL     1       4.826 -57.431 -28.831  1.00  0.00    -0.003 C 
ATOM     20  C   UNL     1       5.175 -56.053 -29.387  1.00  0.00     0.004 C 
ENDBRANCH  18  19
ENDBRANCH  17  18
ENDBRANCH  16  17
ENDBRANCH  15  16
ENDBRANCH  13  14
ENDBRANCH  12  13
ENDBRANCH   1  11
TORSDOF 14
ENDMDL
MODEL 2
REMARK VINA RESULT:    -3.863      2.260      4.143
REMARK INTER + INTRA:          -9.732
REMARK INTER:                  -6.948
REMARK INTRA:                  -2.784
REMARK UNBOUND:                -2.708
REMARK SMILES CCCCCC=CCC=CCCCCCCCC(=O)[O-]
REMARK SMILES IDX 11 1 12 2 13 3 14 4 15 5 16 6 17 7 18 8 19 9 20 10 10 11
REMARK SMILES IDX 9 12 8 13 7 14 6 15 5 16 4 17 3 18 2 19 1 20
REMARK H PARENT
REMARK Flexibility Score: inf
ROOT
ATOM      1  C   UNL     1       2.782 -60.859 -31.692  1.00  0.00     0.027 C 
ENDROOT
BRANCH   1   2
ATOM      2  C   UNL     1       2.339 -61.722 -30.500  1.00  0.00     0.004 C 
BRANCH   2   3
ATOM      3  C   UNL     1       1.139 -61.124 -29.752  1.00  0.00     0.000 C 
BRANCH   3   4
ATOM      4  C   UNL     1       1.374 -61.036 -28.235  1.00  0.00     0.000 C 
BRANCH   4   5
ATOM      5  C   UNL     1       1.139 -59.604 -27.730  1.00  0.00     0.000 C 
BRANCH   5   6
ATOM      6  C   UNL     1       0.555 -59.566 -26.308  1.00  0.00     0.006 C 
BRANCH   6   7
ATOM      7  C   UNL     1      -0.798 -58.844 -26.248  1.00  0.00     0.053 C 
BRANCH   7   8
ATOM      8  C   UNL     1      -0.597 -57.367 -26.120  1.00  0.00     0.041 C 
ATOM      9  O   UNL     1      -0.534 -56.832 -24.983  1.00  0.00    -0.550 OA
ATOM     10  O   UNL     1      -0.512 -56.575 -27.258  1.00  0.00    -0.550 OA
ENDBRANCH   7   8
ENDBRANCH   6   7
ENDBRANCH   5   6
ENDBRANCH   4   5
ENDBRANCH   3   4
ENDBRANCH   2   3
ENDBRANCH   1   2
BRANCH   1  11
ATOM     11  C   UNL     1       1.932 -59.621 -31.828  1.00  0.00    -0.031 C 
ATOM     12  C   UNL     1       2.361 -58.360 -31.630  1.00  0.00    -0.027 C 
BRANCH  12  13
ATOM     13  C   UNL     1       3.751 -57.977 -31.188  1.00  0.00     0.054 C 
BRANCH  13  14
ATOM     14  C   UNL     1       3.757 -57.597 -29.728  1.00  0.00    -0.027 C 
ATOM     15  C   UNL     1       4.300 -58.362 -28.765  1.00  0.00    -0.031 C 
BRANCH  15  16
ATOM     16  C   UNL     1       5.038 -59.653 -29.019  1.00  0.00     0.027 C 
BRANCH  16  17
ATOM     17  C   UNL     1       5.387 -60.346 -27.692  1.00  0.00     0.004 C 
BRANCH  17  18
ATOM     18  C   UNL     1       5.354 -59.384 -26.494  1.00  0.00     0.000 C 
BRANCH  18  19
ATOM     19  C   UNL     1       4.669 -59.997 -25.262  1.00  0.00    -0.003 C 
ATOM     20  C   UNL     1       3.916 -61.272 -25.633  1.00  0.00     0.004 C 
ENDBRANCH  18  19
ENDBRANCH  17  18
ENDBRANCH  16  17
ENDBRANCH  15  16
ENDBRANCH  13  14
ENDBRANCH  12  13
ENDBRANCH   1  11
TORSDOF 14
ENDMDL
MODEL 3
REMARK VINA RESULT:    -3.835     11.079     12.509
REMARK INTER + INTRA:          -9.681
REMARK INTER:                  -8.417
REMARK INTRA:                  -1.264
REMARK UNBOUND:                -2.708
REMARK SMILES CCCCCC=CCC=CCCCCCCCC(=O)[O-]
REMARK SMILES IDX 11 1 12 2 13 3 14 4 15 5 16 6 17 7 18 8 19 9 20 10 10 11
REMARK SMILES IDX 9 12 8 13 7 14 6 15 5 16 4 17 3 18 2 19 1 20
REMARK H PARENT
REMARK Flexibility Score: inf
ROOT
ATOM      1  C   UNL     1      -0.088 -52.264 -35.781  1.00  0.00     0.027 C 
ENDROOT
BRANCH   1   2
ATOM      2  C   UNL     1      -1.587 -51.937 -35.690  1.00  0.00     0.004 C 
BRANCH   2   3
ATOM      3  C   UNL     1      -1.998 -51.444 -34.295  1.00  0.00     0.000 C 
BRANCH   3   4
ATOM      4  C   UNL     1      -3.119 -50.393 -34.348  1.00  0.00     0.000 C 
BRANCH   4   5
ATOM      5  C   UNL     1      -2.783 -49.289 -35.363  1.00  0.00     0.000 C 
BRANCH   5   6
ATOM      6  C   UNL     1      -1.579 -48.435 -34.931  1.00  0.00     0.006 C 
BRANCH   6   7
ATOM      7  C   UNL     1      -1.137 -47.451 -36.023  1.00  0.00     0.053 C 
BRANCH   7   8
ATOM      8  C   UNL     1      -0.772 -46.131 -35.421  1.00  0.00     0.041 C 
ATOM      9  O   UNL     1       0.295 -45.555 -35.756  1.00  0.00    -0.550 OA
ATOM     10  O   UNL     1      -1.595 -45.551 -34.463  1.00  0.00    -0.550 OA
ENDBRANCH   7   8
ENDBRANCH   6   7
ENDBRANCH   5   6
ENDBRANCH   4   5
ENDBRANCH   3   4
ENDBRANCH   2   3
ENDBRANCH   1   2
BRANCH   1  11
ATOM     11  C   UNL     1       0.739 -51.025 -36.016  1.00  0.00    -0.031 C 
ATOM     12  C   UNL     1       2.081 -50.998 -36.125  1.00  0.00    -0.027 C 
BRANCH  12  13
ATOM     13  C   UNL     1       2.988 -52.194 -35.978  1.00  0.00     0.054 C 
BRANCH  13  14
ATOM     14  C   UNL     1       3.590 -52.236 -34.596  1.00  0.00    -0.027 C 
ATOM     15  C   UNL     1       4.772 -51.676 -34.285  1.00  0.00    -0.031 C 
BRANCH  15  16
ATOM     16  C   UNL     1       5.610 -50.869 -35.246  1.00  0.00     0.027 C 
BRANCH  16  17
ATOM     17  C   UNL     1       6.298 -49.705 -34.516  1.00  0.00     0.004 C 
BRANCH  17  18
ATOM     18  C   UNL     1       7.830 -49.758 -34.626  1.00  0.00     0.000 C 
BRANCH  18  19
ATOM     19  C   UNL     1       8.431 -50.989 -33.928  1.00  0.00    -0.003 C 
ATOM     20  C   UNL     1       9.339 -50.575 -32.773  1.00  0.00     0.004 C 
ENDBRANCH  18  19
ENDBRANCH  17  18
ENDBRANCH  16  17
ENDBRANCH  15  16
ENDBRANCH  13  14
ENDBRANCH  12  13
ENDBRANCH   1  11
TORSDOF 14
ENDMDL
MODEL 4
REMARK VINA RESULT:    -3.768      2.256      3.992
REMARK INTER + INTRA:          -9.560
REMARK INTER:                  -7.035
REMARK INTRA:                  -2.526
REMARK UNBOUND:                -2.708
REMARK SMILES CCCCCC=CCC=CCCCCCCCC(=O)[O-]
REMARK SMILES IDX 11 1 12 2 13 3 14 4 15 5 16 6 17 7 18 8 19 9 20 10 10 11
REMARK SMILES IDX 9 12 8 13 7 14 6 15 5 16 4 17 3 18 2 19 1 20
REMARK H PARENT
REMARK Flexibility Score: inf
ROOT
ATOM      1  C   UNL     1       2.663 -57.211 -30.211  1.00  0.00     0.027 C 
ENDROOT
BRANCH   1   2
ATOM      2  C   UNL     1       2.317 -58.374 -31.153  1.00  0.00     0.004 C 
BRANCH   2   3
ATOM      3  C   UNL     1       1.055 -59.132 -30.715  1.00  0.00     0.000 C 
BRANCH   3   4
ATOM      4  C   UNL     1       1.377 -60.367 -29.858  1.00  0.00     0.000 C 
BRANCH   4   5
ATOM      5  C   UNL     1       0.608 -60.323 -28.529  1.00  0.00     0.000 C 
BRANCH   5   6
ATOM      6  C   UNL     1       0.947 -59.080 -27.689  1.00  0.00     0.006 C 
BRANCH   6   7
ATOM      7  C   UNL     1      -0.080 -58.825 -26.578  1.00  0.00     0.053 C 
BRANCH   7   8
ATOM      8  C   UNL     1      -0.433 -57.372 -26.516  1.00  0.00     0.041 C 
ATOM      9  O   UNL     1      -0.345 -56.654 -27.546  1.00  0.00    -0.550 OA
ATOM     10  O   UNL     1      -0.829 -56.802 -25.313  1.00  0.00    -0.550 OA
ENDBRANCH   7   8
ENDBRANCH   6   7
ENDBRANCH   5   6
ENDBRANCH   4   5
ENDBRANCH   3   4
ENDBRANCH   2   3
ENDBRANCH   1   2
BRANCH   1  11
ATOM     11  C   UNL     1       4.154 -57.020 -30.087  1.00  0.00    -0.031 C 
ATOM     12  C   UNL     1       4.957 -57.709 -29.254  1.00  0.00    -0.027 C 
BRANCH  12  13
ATOM     13  C   UNL     1       4.494 -58.750 -28.267  1.00  0.00     0.054 C 
BRANCH  13  14
ATOM     14  C   UNL     1       5.151 -60.078 -28.550  1.00  0.00    -0.027 C 
ATOM     15  C   UNL     1       4.780 -61.229 -27.962  1.00  0.00    -0.031 C 
BRANCH  15  16
ATOM     16  C   UNL     1       3.617 -61.362 -27.010  1.00  0.00     0.027 C 
BRANCH  16  17
ATOM     17  C   UNL     1       4.115 -61.442 -25.558  1.00  0.00     0.004 C 
BRANCH  17  18
ATOM     18  C   UNL     1       3.855 -60.148 -24.769  1.00  0.00     0.000 C 
BRANCH  18  19
ATOM     19  C   UNL     1       5.108 -59.640 -24.039  1.00  0.00    -0.003 C 
ATOM     20  C   UNL     1       5.924 -58.709 -24.933  1.00  0.00     0.004 C 
ENDBRANCH  18  19
ENDBRANCH  17  18
ENDBRANCH  16  17
ENDBRANCH  15  16
ENDBRANCH  13  14
ENDBRANCH  12  13
ENDBRANCH   1  11
TORSDOF 14
ENDMDL
MODEL 5
REMARK VINA RESULT:    -3.706      2.231      3.941
REMARK INTER + INTRA:          -9.448
REMARK INTER:                  -6.740
REMARK INTRA:                  -2.708
REMARK UNBOUND:                -2.708
REMARK SMILES CCCCCC=CCC=CCCCCCCCC(=O)[O-]
REMARK SMILES IDX 11 1 12 2 13 3 14 4 15 5 16 6 17 7 18 8 19 9 20 10 10 11
REMARK SMILES IDX 9 12 8 13 7 14 6 15 5 16 4 17 3 18 2 19 1 20
REMARK H PARENT
REMARK Flexibility Score: inf
ROOT
ATOM      1  C   UNL     1       1.365 -59.792 -30.880  1.00  0.00     0.027 C 
ENDROOT
BRANCH   1   2
ATOM      2  C   UNL     1       1.472 -61.063 -30.023  1.00  0.00     0.004 C 
BRANCH   2   3
ATOM      3  C   UNL     1       1.383 -60.769 -28.518  1.00  0.00     0.000 C 
BRANCH   3   4
ATOM      4  C   UNL     1       0.232 -61.526 -27.837  1.00  0.00     0.000 C 
BRANCH   4   5
ATOM      5  C   UNL     1      -0.526 -60.606 -26.868  1.00  0.00     0.000 C 
BRANCH   5   6
ATOM      6  C   UNL     1       0.262 -59.331 -26.522  1.00  0.00     0.006 C 
BRANCH   6   7
ATOM      7  C   UNL     1      -0.556 -58.347 -25.676  1.00  0.00     0.053 C 
BRANCH   7   8
ATOM      8  C   UNL     1      -1.131 -57.268 -26.539  1.00  0.00     0.041 C 
ATOM      9  O   UNL     1      -0.375 -56.420 -27.080  1.00  0.00    -0.550 OA
ATOM     10  O   UNL     1      -2.505 -57.179 -26.721  1.00  0.00    -0.550 OA
ENDBRANCH   7   8
ENDBRANCH   6   7
ENDBRANCH   5   6
ENDBRANCH   4   5
ENDBRANCH   3   4
ENDBRANCH   2   3
ENDBRANCH   1   2
BRANCH   1  11
ATOM     11  C   UNL     1       1.011 -58.586 -30.045  1.00  0.00    -0.031 C 
ATOM     12  C   UNL     1       1.785 -57.495 -29.891  1.00  0.00    -0.027 C 
BRANCH  12  13
ATOM     13  C   UNL     1       3.160 -57.316 -30.484  1.00  0.00     0.054 C 
BRANCH  13  14
ATOM     14  C   UNL     1       4.203 -57.257 -29.397  1.00  0.00    -0.027 C 
ATOM     15  C   UNL     1       4.950 -58.312 -29.028  1.00  0.00    -0.031 C 
BRANCH  15  16
ATOM     16  C   UNL     1       4.903 -59.664 -29.697  1.00  0.00     0.027 C 
BRANCH  16  17
ATOM     17  C   UNL     1       5.005 -60.787 -28.653  1.00  0.00     0.004 C 
BRANCH  17  18
ATOM     18  C   UNL     1       5.079 -60.254 -27.213  1.00  0.00     0.000 C 
BRANCH  18  19
ATOM     19  C   UNL     1       4.315 -61.139 -26.215  1.00  0.00    -0.003 C 
ATOM     20  C   UNL     1       3.464 -60.292 -25.273  1.00  0.00     0.004 C 
ENDBRANCH  18  19
ENDBRANCH  17  18
ENDBRANCH  16  17
ENDBRANCH  15  16
ENDBRANCH  13  14
ENDBRANCH  12  13
ENDBRANCH   1  11
TORSDOF 14
ENDMDL
MODEL 6
REMARK VINA RESULT:    -3.688      2.196      4.180
REMARK INTER + INTRA:          -9.415
REMARK INTER:                  -6.396
REMARK INTRA:                  -3.018
REMARK UNBOUND:                -2.708
REMARK SMILES CCCCCC=CCC=CCCCCCCCC(=O)[O-]
REMARK SMILES IDX 11 1 12 2 13 3 14 4 15 5 16 6 17 7 18 8 19 9 20 10 10 11
REMARK SMILES IDX 9 12 8 13 7 14 6 15 5 16 4 17 3 18 2 19 1 20
REMARK H PARENT
REMARK Flexibility Score: inf
ROOT
ATOM      1  C   UNL     1       4.768 -59.438 -27.118  1.00  0.00     0.027 C 
ENDROOT
BRANCH   1   2
ATOM      2  C   UNL     1       5.177 -59.788 -25.679  1.00  0.00     0.004 C 
BRANCH   2   3
ATOM      3  C   UNL     1       3.984 -60.228 -24.817  1.00  0.00     0.000 C 
BRANCH   3   4
ATOM      4  C   UNL     1       3.554 -61.677 -25.101  1.00  0.00     0.000 C 
BRANCH   4   5
ATOM      5  C   UNL     1       2.026 -61.776 -25.228  1.00  0.00     0.000 C 
BRANCH   5   6
ATOM      6  C   UNL     1       1.380 -60.446 -25.651  1.00  0.00     0.006 C 
BRANCH   6   7
ATOM      7  C   UNL     1       0.052 -60.649 -26.394  1.00  0.00     0.053 C 
BRANCH   7   8
ATOM      8  C   UNL     1      -0.965 -59.655 -25.929  1.00  0.00     0.041 C 
ATOM      9  O   UNL     1      -0.622 -58.698 -25.188  1.00  0.00    -0.550 OA
ATOM     10  O   UNL     1      -2.299 -59.804 -26.287  1.00  0.00    -0.550 OA
ENDBRANCH   7   8
ENDBRANCH   6   7
ENDBRANCH   5   6
ENDBRANCH   4   5
ENDBRANCH   3   4
ENDBRANCH   2   3
ENDBRANCH   1   2
BRANCH   1  11
ATOM     11  C   UNL     1       5.343 -60.415 -28.113  1.00  0.00    -0.031 C 
ATOM     12  C   UNL     1       4.624 -61.277 -28.858  1.00  0.00    -0.027 C 
BRANCH  12  13
ATOM     13  C   UNL     1       3.128 -61.447 -28.785  1.00  0.00     0.054 C 
BRANCH  13  14
ATOM     14  C   UNL     1       2.478 -60.977 -30.063  1.00  0.00    -0.027 C 
ATOM     15  C   UNL     1       1.797 -59.824 -30.168  1.00  0.00    -0.031 C 
BRANCH  15  16
ATOM     16  C   UNL     1       1.657 -58.814 -29.057  1.00  0.00     0.027 C 
BRANCH  16  17
ATOM     17  C   UNL     1       2.395 -57.513 -29.412  1.00  0.00     0.004 C 
BRANCH  17  18
ATOM     18  C   UNL     1       3.263 -57.649 -30.673  1.00  0.00     0.000 C 
BRANCH  18  19
ATOM     19  C   UNL     1       4.767 -57.564 -30.368  1.00  0.00    -0.003 C 
ATOM     20  C   UNL     1       5.057 -56.469 -29.345  1.00  0.00     0.004 C 
ENDBRANCH  18  19
ENDBRANCH  17  18
ENDBRANCH  16  17
ENDBRANCH  15  16
ENDBRANCH  13  14
ENDBRANCH  12  13
ENDBRANCH   1  11
TORSDOF 14
ENDMDL
MODEL 7
REMARK VINA RESULT:    -3.687      2.250      5.276
REMARK INTER + INTRA:          -9.413
REMARK INTER:                  -7.491
REMARK INTRA:                  -1.922
REMARK UNBOUND:                -2.708
REMARK SMILES CCCCCC=CCC=CCCCCCCCC(=O)[O-]
REMARK SMILES IDX 11 1 12 2 13 3 14 4 15 5 16 6 17 7 18 8 19 9 20 10 10 11
REMARK SMILES IDX 9 12 8 13 7 14 6 15 5 16 4 17 3 18 2 19 1 20
REMARK H PARENT
REMARK Flexibility Score: inf
ROOT
ATOM      1  C   UNL     1       4.742 -58.278 -28.846  1.00  0.00     0.027 C 
ENDROOT
BRANCH   1   2
ATOM      2  C   UNL     1       5.065 -59.757 -29.106  1.00  0.00     0.004 C 
BRANCH   2   3
ATOM      3  C   UNL     1       5.070 -60.595 -27.819  1.00  0.00     0.000 C 
BRANCH   3   4
ATOM      4  C   UNL     1       4.366 -59.886 -26.651  1.00  0.00     0.000 C 
BRANCH   4   5
ATOM      5  C   UNL     1       4.552 -60.673 -25.345  1.00  0.00     0.000 C 
BRANCH   5   6
ATOM      6  C   UNL     1       4.514 -59.770 -24.100  1.00  0.00     0.006 C 
BRANCH   6   7
ATOM      7  C   UNL     1       5.814 -58.977 -23.911  1.00  0.00     0.053 C 
BRANCH   7   8
ATOM      8  C   UNL     1       5.521 -57.618 -23.358  1.00  0.00     0.041 C 
ATOM      9  O   UNL     1       5.795 -56.588 -24.028  1.00  0.00    -0.550 OA
ATOM     10  O   UNL     1       4.976 -57.486 -22.087  1.00  0.00    -0.550 OA
ENDBRANCH   7   8
ENDBRANCH   6   7
ENDBRANCH   5   6
ENDBRANCH   4   5
ENDBRANCH   3   4
ENDBRANCH   2   3
ENDBRANCH   1   2
BRANCH   1  11
ATOM     11  C   UNL     1       4.587 -57.507 -30.134  1.00  0.00    -0.031 C 
ATOM     12  C   UNL     1       3.447 -57.409 -30.845  1.00  0.00    -0.027 C 
BRANCH  12  13
ATOM     13  C   UNL     1       2.149 -58.094 -30.502  1.00  0.00     0.054 C 
BRANCH  13  14
ATOM     14  C   UNL     1       1.373 -57.285 -29.492  1.00  0.00    -0.027 C 
ATOM     15  C   UNL     1       0.902 -57.793 -28.340  1.00  0.00    -0.031 C 
BRANCH  15  16
ATOM     16  C   UNL     1       1.148 -59.205 -27.869  1.00  0.00     0.027 C 
BRANCH  16  17
ATOM     17  C   UNL     1       0.122 -59.603 -26.796  1.00  0.00     0.004 C 
BRANCH  17  18
ATOM     18  C   UNL     1       0.713 -59.595 -25.377  1.00  0.00     0.000 C 
BRANCH  18  19
ATOM     19  C   UNL     1      -0.179 -58.852 -24.369  1.00  0.00    -0.003 C 
ATOM     20  C   UNL     1      -0.435 -57.416 -24.819  1.00  0.00     0.004 C 
ENDBRANCH  18  19
ENDBRANCH  17  18
ENDBRANCH  16  17
ENDBRANCH  15  16
ENDBRANCH  13  14
ENDBRANCH  12  13
ENDBRANCH   1  11
TORSDOF 14
ENDMDL
MODEL 8
REMARK VINA RESULT:    -3.625      1.880      4.520
REMARK INTER + INTRA:          -9.300
REMARK INTER:                  -6.427
REMARK INTRA:                  -2.874
REMARK UNBOUND:                -2.708
REMARK SMILES CCCCCC=CCC=CCCCCCCCC(=O)[O-]
REMARK SMILES IDX 11 1 12 2 13 3 14 4 15 5 16 6 17 7 18 8 19 9 20 10 10 11
REMARK SMILES IDX 9 12 8 13 7 14 6 15 5 16 4 17 3 18 2 19 1 20
REMARK H PARENT
REMARK Flexibility Score: inf
ROOT
ATOM      1  C   UNL     1       5.033 -59.193 -27.774  1.00  0.00     0.027 C 
ENDROOT
BRANCH   1   2
ATOM      2  C   UNL     1       4.777 -60.632 -27.298  1.00  0.00     0.004 C 
BRANCH   2   3
ATOM      3  C   UNL     1       4.321 -60.696 -25.833  1.00  0.00     0.000 C 
BRANCH   3   4
ATOM      4  C   UNL     1       3.461 -61.935 -25.537  1.00  0.00     0.000 C 
BRANCH   4   5
ATOM      5  C   UNL     1       2.369 -61.608 -24.507  1.00  0.00     0.000 C 
BRANCH   5   6
ATOM      6  C   UNL     1       2.082 -60.100 -24.408  1.00  0.00     0.006 C 
BRANCH   6   7
ATOM      7  C   UNL     1       1.677 -59.673 -22.990  1.00  0.00     0.053 C 
BRANCH   7   8
ATOM      8  C   UNL     1       2.623 -58.640 -22.465  1.00  0.00     0.041 C 
ATOM      9  O   UNL     1       2.251 -57.835 -21.572  1.00  0.00    -0.550 OA
ATOM     10  O   UNL     1       3.908 -58.543 -22.986  1.00  0.00    -0.550 OA
ENDBRANCH   7   8
ENDBRANCH   6   7
ENDBRANCH   5   6
ENDBRANCH   4   5
ENDBRANCH   3   4
ENDBRANCH   2   3
ENDBRANCH   1   2
BRANCH   1  11
ATOM     11  C   UNL     1       5.241 -59.129 -29.267  1.00  0.00    -0.031 C 
ATOM     12  C   UNL     1       4.643 -58.252 -30.096  1.00  0.00    -0.027 C 
BRANCH  12  13
ATOM     13  C   UNL     1       3.626 -57.219 -29.679  1.00  0.00     0.054 C 
BRANCH  13  14
ATOM     14  C   UNL     1       2.303 -57.474 -30.357  1.00  0.00    -0.027 C 
ATOM     15  C   UNL     1       1.265 -58.077 -29.753  1.00  0.00    -0.031 C 
BRANCH  15  16
ATOM     16  C   UNL     1       1.254 -58.506 -28.307  1.00  0.00     0.027 C 
BRANCH  16  17
ATOM     17  C   UNL     1       1.388 -60.033 -28.195  1.00  0.00     0.004 C 
BRANCH  17  18
ATOM     18  C   UNL     1       1.165 -60.748 -29.538  1.00  0.00     0.000 C 
BRANCH  18  19
ATOM     19  C   UNL     1       2.362 -61.620 -29.949  1.00  0.00    -0.003 C 
ATOM     20  C   UNL     1       2.880 -61.222 -31.330  1.00  0.00     0.004 C 
ENDBRANCH  18  19
ENDBRANCH  17  18
ENDBRANCH  16  17
ENDBRANCH  15  16
ENDBRANCH  13  14
ENDBRANCH  12  13
ENDBRANCH   1  11
TORSDOF 14
ENDMDL
MODEL 9
REMARK VINA RESULT:    -3.590      2.276      4.683
REMARK INTER + INTRA:          -9.237
REMARK INTER:                  -6.887
REMARK INTRA:                  -2.350
REMARK UNBOUND:                -2.708
REMARK SMILES CCCCCC=CCC=CCCCCCCCC(=O)[O-]
REMARK SMILES IDX 11 1 12 2 13 3 14 4 15 5 16 6 17 7 18 8 19 9 20 10 10 11
REMARK SMILES IDX 9 12 8 13 7 14 6 15 5 16 4 17 3 18 2 19 1 20
REMARK H PARENT
REMARK Flexibility Score: inf
ROOT
ATOM      1  C   UNL     1       5.120 -59.634 -26.416  1.00  0.00     0.027 C 
ENDROOT
BRANCH   1   2
ATOM      2  C   UNL     1       3.994 -60.401 -25.705  1.00  0.00     0.004 C 
BRANCH   2   3
ATOM      3  C   UNL     1       3.227 -61.333 -26.653  1.00  0.00     0.000 C 
BRANCH   3   4
ATOM      4  C   UNL     1       1.704 -61.146 -26.560  1.00  0.00     0.000 C 
BRANCH   4   5
ATOM      5  C   UNL     1       1.330 -60.346 -25.302  1.00  0.00     0.000 C 
BRANCH   5   6
ATOM      6  C   UNL     1       0.130 -59.411 -25.530  1.00  0.00     0.006 C 
BRANCH   6   7
ATOM      7  C   UNL     1       0.215 -58.666 -26.869  1.00  0.00     0.053 C 
BRANCH   7   8
ATOM      8  C   UNL     1      -0.549 -57.381 -26.801  1.00  0.00     0.041 C 
ATOM      9  O   UNL     1      -0.203 -56.401 -27.511  1.00  0.00    -0.550 OA
ATOM     10  O   UNL     1      -1.623 -57.254 -25.930  1.00  0.00    -0.550 OA
ENDBRANCH   7   8
ENDBRANCH   6   7
ENDBRANCH   5   6
ENDBRANCH   4   5
ENDBRANCH   3   4
ENDBRANCH   2   3
ENDBRANCH   1   2
BRANCH   1  11
ATOM     11  C   UNL     1       5.242 -60.039 -27.864  1.00  0.00    -0.031 C 
ATOM     12  C   UNL     1       5.091 -59.211 -28.916  1.00  0.00    -0.027 C 
BRANCH  12  13
ATOM     13  C   UNL     1       4.724 -57.752 -28.826  1.00  0.00     0.054 C 
BRANCH  13  14
ATOM     14  C   UNL     1       4.439 -57.191 -30.196  1.00  0.00    -0.027 C 
ATOM     15  C   UNL     1       3.210 -57.143 -30.737  1.00  0.00    -0.031 C 
BRANCH  15  16
ATOM     16  C   UNL     1       1.950 -57.567 -30.024  1.00  0.00     0.027 C 
BRANCH  16  17
ATOM     17  C   UNL     1       1.452 -58.917 -30.563  1.00  0.00     0.004 C 
BRANCH  17  18
ATOM     18  C   UNL     1       2.228 -59.383 -31.806  1.00  0.00     0.000 C 
BRANCH  18  19
ATOM     19  C   UNL     1       2.760 -60.818 -31.667  1.00  0.00    -0.003 C 
ATOM     20  C   UNL     1       2.446 -61.387 -30.286  1.00  0.00     0.004 C 
ENDBRANCH  18  19
ENDBRANCH  17  18
ENDBRANCH  16  17
ENDBRANCH  15  16
ENDBRANCH  13  14
ENDBRANCH  12  13
ENDBRANCH   1  11
TORSDOF 14
ENDMDL
