MODEL 1
REMARK VINA RESULT:    -5.613      0.000      0.000
REMARK INTER + INTRA:          -6.888
REMARK INTER:                  -6.597
REMARK INTRA:                  -0.290
REMARK UNBOUND:                -0.290
REMARK SMILES O=c1c(O)c(-c2ccc(O)cc2)oc2cc(O)cc(O)c12
REMARK SMILES IDX 5 1 3 2 2 3 1 4 21 5 19 6 18 7 16 8 15 9 14 10 13 11 6 12
REMARK SMILES IDX 7 13 8 14 9 15 12 16 11 17 10 18 4 20 20 22 17 24
REMARK H PARENT 10 19 4 21 20 23 17 25
REMARK Flexibility Score: inf
ROOT
ATOM      1  C   UNL     1     160.869 156.635 150.411  1.00  0.00     0.180 A 
ATOM      2  C   UNL     1     161.255 157.049 149.121  1.00  0.00     0.208 A 
ATOM      3  C   UNL     1     160.321 156.968 148.076  1.00  0.00     0.238 A 
ATOM      4  O   UNL     1     160.652 157.346 146.919  1.00  0.00    -0.285 OA
ATOM      5  C   UNL     1     159.032 156.457 148.330  1.00  0.00     0.111 A 
ATOM      6  C   UNL     1     158.035 156.339 147.331  1.00  0.00     0.134 A 
ATOM      7  C   UNL     1     156.778 155.811 147.662  1.00  0.00     0.093 A 
ATOM      8  C   UNL     1     156.500 155.401 148.971  1.00  0.00     0.123 A 
ATOM      9  C   UNL     1     157.479 155.516 149.958  1.00  0.00     0.094 A 
ATOM     10  C   UNL     1     158.738 156.041 149.649  1.00  0.00     0.146 A 
ATOM     11  O   UNL     1     159.649 156.144 150.610  1.00  0.00    -0.452 OA
ENDROOT
BRANCH   1  12
ATOM     12  C   UNL     1     161.789 156.707 151.569  1.00  0.00     0.021 A 
ATOM     13  C   UNL     1     162.623 155.628 151.911  1.00  0.00     0.016 A 
ATOM     14  C   UNL     1     163.500 155.729 152.996  1.00  0.00     0.047 A 
ATOM     15  C   UNL     1     163.564 156.912 153.742  1.00  0.00     0.115 A 
ATOM     16  C   UNL     1     161.874 157.897 152.310  1.00  0.00     0.016 A 
ATOM     17  C   UNL     1     162.751 157.995 153.394  1.00  0.00     0.047 A 
BRANCH  15  18
ATOM     18  O   UNL     1     164.432 157.024 154.825  1.00  0.00    -0.508 OA
ATOM     19  H   UNL     1     164.094 157.007 155.780  1.00  0.00     0.293 HD
ENDBRANCH  15  18
ENDBRANCH   1  12
BRANCH   2  20
ATOM     20  O   UNL     1     162.554 157.505 148.885  1.00  0.00    -0.502 OA
ATOM     21  H   UNL     1     163.272 157.490 149.600  1.00  0.00     0.293 HD
ENDBRANCH   2  20
BRANCH   6  22
ATOM     22  O   UNL     1     158.283 156.739 146.017  1.00  0.00    -0.507 OA
ATOM     23  H   UNL     1     158.224 157.711 145.735  1.00  0.00     0.293 HD
ENDBRANCH   6  22
BRANCH   8  24
ATOM     24  O   UNL     1     155.251 154.876 149.300  1.00  0.00    -0.508 OA
ATOM     25  H   UNL     1     154.437 155.041 148.718  1.00  0.00     0.293 HD
ENDBRANCH   8  24
TORSDOF 5
ENDMDL
MODEL 2
REMARK VINA RESULT:    -5.580      1.846      7.268
REMARK INTER + INTRA:          -6.849
REMARK INTER:                  -6.672
REMARK INTRA:                  -0.178
REMARK UNBOUND:                -0.290
REMARK SMILES O=c1c(O)c(-c2ccc(O)cc2)oc2cc(O)cc(O)c12
REMARK SMILES IDX 5 1 3 2 2 3 1 4 21 5 19 6 18 7 16 8 15 9 14 10 13 11 6 12
REMARK SMILES IDX 7 13 8 14 9 15 12 16 11 17 10 18 4 20 20 22 17 24
REMARK H PARENT 10 19 4 21 20 23 17 25
REMARK Flexibility Score: inf
ROOT
ATOM      1  C   UNL     1     161.280 156.789 151.524  1.00  0.00     0.180 A 
ATOM      2  C   UNL     1     160.817 157.767 152.426  1.00  0.00     0.208 A 
ATOM      3  C   UNL     1     161.549 158.005 153.600  1.00  0.00     0.238 A 
ATOM      4  O   UNL     1     161.150 158.886 154.411  1.00  0.00    -0.285 OA
ATOM      5  C   UNL     1     162.711 157.252 153.863  1.00  0.00     0.111 A 
ATOM      6  C   UNL     1     163.502 157.429 155.025  1.00  0.00     0.134 A 
ATOM      7  C   UNL     1     164.641 156.632 155.218  1.00  0.00     0.093 A 
ATOM      8  C   UNL     1     165.003 155.666 154.274  1.00  0.00     0.123 A 
ATOM      9  C   UNL     1     164.228 155.489 153.127  1.00  0.00     0.094 A 
ATOM     10  C   UNL     1     163.090 156.273 152.915  1.00  0.00     0.146 A 
ATOM     11  O   UNL     1     162.373 156.088 151.812  1.00  0.00    -0.452 OA
ENDROOT
BRANCH   1  12
ATOM     12  C   UNL     1     160.576 156.492 150.255  1.00  0.00     0.021 A 
ATOM     13  C   UNL     1     159.314 155.873 150.245  1.00  0.00     0.016 A 
ATOM     14  C   UNL     1     158.659 155.624 149.035  1.00  0.00     0.047 A 
ATOM     15  C   UNL     1     159.249 156.004 147.823  1.00  0.00     0.115 A 
ATOM     16  C   UNL     1     161.152 156.888 149.037  1.00  0.00     0.016 A 
ATOM     17  C   UNL     1     160.496 156.637 147.829  1.00  0.00     0.047 A 
BRANCH  15  18
ATOM     18  O   UNL     1     158.607 155.760 146.612  1.00  0.00    -0.508 OA
ATOM     19  H   UNL     1     158.952 156.146 145.742  1.00  0.00     0.293 HD
ENDBRANCH  15  18
ENDBRANCH   1  12
BRANCH   2  20
ATOM     20  O   UNL     1     159.635 158.463 152.167  1.00  0.00    -0.502 OA
ATOM     21  H   UNL     1     159.629 159.442 151.904  1.00  0.00     0.293 HD
ENDBRANCH   2  20
BRANCH   6  22
ATOM     22  O   UNL     1     163.165 158.383 155.985  1.00  0.00    -0.507 OA
ATOM     23  H   UNL     1     163.871 158.853 156.542  1.00  0.00     0.293 HD
ENDBRANCH   6  22
BRANCH   8  24
ATOM     24  O   UNL     1     166.135 154.875 154.465  1.00  0.00    -0.508 OA
ATOM     25  H   UNL     1     166.761 155.026 155.248  1.00  0.00     0.293 HD
ENDBRANCH   8  24
TORSDOF 5
ENDMDL
MODEL 3
REMARK VINA RESULT:    -5.263      1.286      1.315
REMARK INTER + INTRA:          -6.476
REMARK INTER:                  -6.186
REMARK INTRA:                  -0.290
REMARK UNBOUND:                -0.290
REMARK SMILES O=c1c(O)c(-c2ccc(O)cc2)oc2cc(O)cc(O)c12
REMARK SMILES IDX 5 1 3 2 2 3 1 4 21 5 19 6 18 7 16 8 15 9 14 10 13 11 6 12
REMARK SMILES IDX 7 13 8 14 9 15 12 16 11 17 10 18 4 20 20 22 17 24
REMARK H PARENT 10 19 4 21 20 23 17 25
REMARK Flexibility Score: inf
ROOT
ATOM      1  C   UNL     1     160.340 156.817 151.187  1.00  0.00     0.180 A 
ATOM      2  C   UNL     1     161.120 156.697 150.021  1.00  0.00     0.208 A 
ATOM      3  C   UNL     1     160.475 156.475 148.794  1.00  0.00     0.238 A 
ATOM      4  O   UNL     1     161.162 156.375 147.741  1.00  0.00    -0.285 OA
ATOM      5  C   UNL     1     159.070 156.357 148.756  1.00  0.00     0.111 A 
ATOM      6  C   UNL     1     158.344 156.129 147.562  1.00  0.00     0.134 A 
ATOM      7  C   UNL     1     156.947 156.014 147.608  1.00  0.00     0.093 A 
ATOM      8  C   UNL     1     156.263 156.123 148.824  1.00  0.00     0.123 A 
ATOM      9  C   UNL     1     156.974 156.348 150.004  1.00  0.00     0.094 A 
ATOM     10  C   UNL     1     158.367 156.467 149.979  1.00  0.00     0.146 A 
ATOM     11  O   UNL     1     159.018 156.686 151.115  1.00  0.00    -0.452 OA
ENDROOT
BRANCH   1  12
ATOM     12  C   UNL     1     160.944 157.072 152.515  1.00  0.00     0.021 A 
ATOM     13  C   UNL     1     161.380 156.016 153.336  1.00  0.00     0.016 A 
ATOM     14  C   UNL     1     161.968 156.282 154.576  1.00  0.00     0.047 A 
ATOM     15  C   UNL     1     162.140 157.604 155.005  1.00  0.00     0.115 A 
ATOM     16  C   UNL     1     161.139 158.395 152.944  1.00  0.00     0.016 A 
ATOM     17  C   UNL     1     161.726 158.658 154.185  1.00  0.00     0.047 A 
BRANCH  15  18
ATOM     18  O   UNL     1     162.723 157.881 156.239  1.00  0.00    -0.508 OA
ATOM     19  H   UNL     1     163.201 157.163 156.772  1.00  0.00     0.293 HD
ENDBRANCH  15  18
ENDBRANCH   1  12
BRANCH   2  20
ATOM     20  O   UNL     1     162.513 156.767 150.093  1.00  0.00    -0.502 OA
ATOM     21  H   UNL     1     163.052 157.422 149.538  1.00  0.00     0.293 HD
ENDBRANCH   2  20
BRANCH   6  22
ATOM     22  O   UNL     1     158.998 156.015 146.334  1.00  0.00    -0.507 OA
ATOM     23  H   UNL     1     159.338 155.123 145.991  1.00  0.00     0.293 HD
ENDBRANCH   6  22
BRANCH   8  24
ATOM     24  O   UNL     1     154.875 156.008 148.871  1.00  0.00    -0.508 OA
ATOM     25  H   UNL     1     154.315 156.004 148.026  1.00  0.00     0.293 HD
ENDBRANCH   8  24
TORSDOF 5
ENDMDL
MODEL 4
REMARK VINA RESULT:    -5.222      2.123      6.798
REMARK INTER + INTRA:          -6.428
REMARK INTER:                  -6.133
REMARK INTRA:                  -0.295
REMARK UNBOUND:                -0.290
REMARK SMILES O=c1c(O)c(-c2ccc(O)cc2)oc2cc(O)cc(O)c12
REMARK SMILES IDX 5 1 3 2 2 3 1 4 21 5 19 6 18 7 16 8 15 9 14 10 13 11 6 12
REMARK SMILES IDX 7 13 8 14 9 15 12 16 11 17 10 18 4 20 20 22 17 24
REMARK H PARENT 10 19 4 21 20 23 17 25
REMARK Flexibility Score: inf
ROOT
ATOM      1  C   UNL     1     160.063 157.228 151.526  1.00  0.00     0.180 A 
ATOM      2  C   UNL     1     161.003 158.261 151.352  1.00  0.00     0.208 A 
ATOM      3  C   UNL     1     161.948 158.495 152.363  1.00  0.00     0.238 A 
ATOM      4  O   UNL     1     162.803 159.411 152.214  1.00  0.00    -0.285 OA
ATOM      5  C   UNL     1     161.924 157.711 153.535  1.00  0.00     0.111 A 
ATOM      6  C   UNL     1     162.838 157.886 154.602  1.00  0.00     0.134 A 
ATOM      7  C   UNL     1     162.743 157.070 155.740  1.00  0.00     0.093 A 
ATOM      8  C   UNL     1     161.753 156.086 155.830  1.00  0.00     0.123 A 
ATOM      9  C   UNL     1     160.850 155.910 154.780  1.00  0.00     0.094 A 
ATOM     10  C   UNL     1     160.929 156.711 153.637  1.00  0.00     0.146 A 
ATOM     11  O   UNL     1     160.061 156.518 152.651  1.00  0.00    -0.452 OA
ENDROOT
BRANCH   1  12
ATOM     12  C   UNL     1     159.047 156.906 150.497  1.00  0.00     0.021 A 
ATOM     13  C   UNL     1     159.285 155.930 149.513  1.00  0.00     0.016 A 
ATOM     14  C   UNL     1     158.301 155.627 148.566  1.00  0.00     0.047 A 
ATOM     15  C   UNL     1     157.065 156.285 148.600  1.00  0.00     0.115 A 
ATOM     16  C   UNL     1     157.798 157.546 150.536  1.00  0.00     0.016 A 
ATOM     17  C   UNL     1     156.816 157.242 149.588  1.00  0.00     0.047 A 
BRANCH  15  18
ATOM     18  O   UNL     1     156.079 155.992 147.661  1.00  0.00    -0.508 OA
ATOM     19  H   UNL     1     155.977 155.061 147.272  1.00  0.00     0.293 HD
ENDBRANCH  15  18
ENDBRANCH   1  12
BRANCH   2  20
ATOM     20  O   UNL     1     160.974 159.057 150.204  1.00  0.00    -0.502 OA
ATOM     21  H   UNL     1     161.148 158.681 149.279  1.00  0.00     0.293 HD
ENDBRANCH   2  20
BRANCH   6  22
ATOM     22  O   UNL     1     163.836 158.860 154.542  1.00  0.00    -0.507 OA
ATOM     23  H   UNL     1     164.738 158.729 154.987  1.00  0.00     0.293 HD
ENDBRANCH   6  22
BRANCH   8  24
ATOM     24  O   UNL     1     161.657 155.276 156.960  1.00  0.00    -0.508 OA
ATOM     25  H   UNL     1     160.759 154.992 157.334  1.00  0.00     0.293 HD
ENDBRANCH   8  24
TORSDOF 5
ENDMDL
MODEL 5
REMARK VINA RESULT:    -5.206      2.223      7.004
REMARK INTER + INTRA:          -6.409
REMARK INTER:                  -6.136
REMARK INTRA:                  -0.273
REMARK UNBOUND:                -0.290
REMARK SMILES O=c1c(O)c(-c2ccc(O)cc2)oc2cc(O)cc(O)c12
REMARK SMILES IDX 5 1 3 2 2 3 1 4 21 5 19 6 18 7 16 8 15 9 14 10 13 11 6 12
REMARK SMILES IDX 7 13 8 14 9 15 12 16 11 17 10 18 4 20 20 22 17 24
REMARK H PARENT 10 19 4 21 20 23 17 25
REMARK Flexibility Score: inf
ROOT
ATOM      1  C   UNL     1     161.243 157.367 151.452  1.00  0.00     0.180 A 
ATOM      2  C   UNL     1     162.324 156.686 152.044  1.00  0.00     0.208 A 
ATOM      3  C   UNL     1     162.912 157.222 153.200  1.00  0.00     0.238 A 
ATOM      4  O   UNL     1     163.875 156.615 153.745  1.00  0.00    -0.285 OA
ATOM      5  C   UNL     1     162.427 158.434 153.732  1.00  0.00     0.111 A 
ATOM      6  C   UNL     1     162.966 159.043 154.891  1.00  0.00     0.134 A 
ATOM      7  C   UNL     1     162.432 160.256 155.352  1.00  0.00     0.093 A 
ATOM      8  C   UNL     1     161.372 160.870 154.677  1.00  0.00     0.123 A 
ATOM      9  C   UNL     1     160.836 160.274 153.535  1.00  0.00     0.094 A 
ATOM     10  C   UNL     1     161.353 159.064 153.060  1.00  0.00     0.146 A 
ATOM     11  O   UNL     1     160.821 158.516 151.973  1.00  0.00    -0.452 OA
ENDROOT
BRANCH   1  12
ATOM     12  C   UNL     1     160.556 156.856 150.244  1.00  0.00     0.021 A 
ATOM     13  C   UNL     1     159.346 156.145 150.334  1.00  0.00     0.016 A 
ATOM     14  C   UNL     1     158.705 155.693 149.176  1.00  0.00     0.047 A 
ATOM     15  C   UNL     1     159.257 155.956 147.917  1.00  0.00     0.115 A 
ATOM     16  C   UNL     1     161.092 157.133 148.976  1.00  0.00     0.016 A 
ATOM     17  C   UNL     1     160.450 156.679 147.820  1.00  0.00     0.047 A 
BRANCH  15  18
ATOM     18  O   UNL     1     158.627 155.509 146.758  1.00  0.00    -0.508 OA
ATOM     19  H   UNL     1     158.936 155.806 145.839  1.00  0.00     0.293 HD
ENDBRANCH  15  18
ENDBRANCH   1  12
BRANCH   2  20
ATOM     20  O   UNL     1     162.819 155.513 151.469  1.00  0.00    -0.502 OA
ATOM     21  H   UNL     1     163.791 155.238 151.549  1.00  0.00     0.293 HD
ENDBRANCH   2  20
BRANCH   6  22
ATOM     22  O   UNL     1     164.025 158.455 155.584  1.00  0.00    -0.507 OA
ATOM     23  H   UNL     1     164.500 158.936 156.340  1.00  0.00     0.293 HD
ENDBRANCH   6  22
BRANCH   8  24
ATOM     24  O   UNL     1     160.841 162.075 155.134  1.00  0.00    -0.508 OA
ATOM     25  H   UNL     1     160.682 162.856 154.507  1.00  0.00     0.293 HD
ENDBRANCH   8  24
TORSDOF 5
ENDMDL
MODEL 6
REMARK VINA RESULT:    -5.205     17.830     20.427
REMARK INTER + INTRA:          -6.408
REMARK INTER:                  -6.116
REMARK INTRA:                  -0.292
REMARK UNBOUND:                -0.290
REMARK SMILES O=c1c(O)c(-c2ccc(O)cc2)oc2cc(O)cc(O)c12
REMARK SMILES IDX 5 1 3 2 2 3 1 4 21 5 19 6 18 7 16 8 15 9 14 10 13 11 6 12
REMARK SMILES IDX 7 13 8 14 9 15 12 16 11 17 10 18 4 20 20 22 17 24
REMARK H PARENT 10 19 4 21 20 23 17 25
REMARK Flexibility Score: inf
ROOT
ATOM      1  C   UNL     1     170.554 173.373 151.336  1.00  0.00     0.180 A 
ATOM      2  C   UNL     1     169.603 172.354 151.135  1.00  0.00     0.208 A 
ATOM      3  C   UNL     1     168.671 172.088 152.151  1.00  0.00     0.238 A 
ATOM      4  O   UNL     1     167.808 171.184 151.979  1.00  0.00    -0.285 OA
ATOM      5  C   UNL     1     168.718 172.826 153.352  1.00  0.00     0.111 A 
ATOM      6  C   UNL     1     167.818 172.617 154.425  1.00  0.00     0.134 A 
ATOM      7  C   UNL     1     167.937 173.387 155.592  1.00  0.00     0.093 A 
ATOM      8  C   UNL     1     168.935 174.360 155.705  1.00  0.00     0.123 A 
ATOM      9  C   UNL     1     169.824 174.570 154.650  1.00  0.00     0.094 A 
ATOM     10  C   UNL     1     169.722 173.814 153.478  1.00  0.00     0.146 A 
ATOM     11  O   UNL     1     170.578 174.039 152.487  1.00  0.00    -0.452 OA
ENDROOT
BRANCH   1  12
ATOM     12  C   UNL     1     171.557 173.728 150.305  1.00  0.00     0.021 A 
ATOM     13  C   UNL     1     171.246 174.606 149.252  1.00  0.00     0.016 A 
ATOM     14  C   UNL     1     172.218 174.944 148.304  1.00  0.00     0.047 A 
ATOM     15  C   UNL     1     173.512 174.420 148.404  1.00  0.00     0.115 A 
ATOM     16  C   UNL     1     172.863 173.223 150.410  1.00  0.00     0.016 A 
ATOM     17  C   UNL     1     173.832 173.561 149.460  1.00  0.00     0.047 A 
BRANCH  15  18
ATOM     18  O   UNL     1     174.486 174.749 147.465  1.00  0.00    -0.508 OA
ATOM     19  H   UNL     1     174.265 175.294 146.640  1.00  0.00     0.293 HD
ENDBRANCH  15  18
ENDBRANCH   1  12
BRANCH   2  20
ATOM     20  O   UNL     1     169.609 171.604 149.957  1.00  0.00    -0.502 OA
ATOM     21  H   UNL     1     169.340 170.628 149.935  1.00  0.00     0.293 HD
ENDBRANCH   2  20
BRANCH   6  22
ATOM     22  O   UNL     1     166.813 171.653 154.342  1.00  0.00    -0.507 OA
ATOM     23  H   UNL     1     166.883 170.765 154.828  1.00  0.00     0.293 HD
ENDBRANCH   6  22
BRANCH   8  24
ATOM     24  O   UNL     1     169.053 175.125 156.864  1.00  0.00    -0.508 OA
ATOM     25  H   UNL     1     169.249 174.699 157.763  1.00  0.00     0.293 HD
ENDBRANCH   8  24
TORSDOF 5
ENDMDL
MODEL 7
REMARK VINA RESULT:    -5.195     17.248     19.571
REMARK INTER + INTRA:          -6.397
REMARK INTER:                  -6.141
REMARK INTRA:                  -0.256
REMARK UNBOUND:                -0.290
REMARK SMILES O=c1c(O)c(-c2ccc(O)cc2)oc2cc(O)cc(O)c12
REMARK SMILES IDX 5 1 3 2 2 3 1 4 21 5 19 6 18 7 16 8 15 9 14 10 13 11 6 12
REMARK SMILES IDX 7 13 8 14 9 15 12 16 11 17 10 18 4 20 20 22 17 24
REMARK H PARENT 10 19 4 21 20 23 17 25
REMARK Flexibility Score: inf
ROOT
ATOM      1  C   UNL     1     168.465 172.732 156.501  1.00  0.00     0.180 A 
ATOM      2  C   UNL     1     167.618 171.713 156.024  1.00  0.00     0.208 A 
ATOM      3  C   UNL     1     167.585 171.449 154.646  1.00  0.00     0.238 A 
ATOM      4  O   UNL     1     166.838 170.532 154.208  1.00  0.00    -0.285 OA
ATOM      5  C   UNL     1     168.378 172.218 153.769  1.00  0.00     0.111 A 
ATOM      6  C   UNL     1     168.399 172.018 152.368  1.00  0.00     0.134 A 
ATOM      7  C   UNL     1     169.209 172.832 151.561  1.00  0.00     0.093 A 
ATOM      8  C   UNL     1     169.997 173.839 152.130  1.00  0.00     0.123 A 
ATOM      9  C   UNL     1     169.980 174.039 153.510  1.00  0.00     0.094 A 
ATOM     10  C   UNL     1     169.180 173.238 154.332  1.00  0.00     0.146 A 
ATOM     11  O   UNL     1     169.188 173.447 155.643  1.00  0.00    -0.452 OA
ENDROOT
BRANCH   1  12
ATOM     12  C   UNL     1     168.571 173.057 157.942  1.00  0.00     0.021 A 
ATOM     13  C   UNL     1     169.305 172.245 158.824  1.00  0.00     0.016 A 
ATOM     14  C   UNL     1     169.410 172.586 160.177  1.00  0.00     0.047 A 
ATOM     15  C   UNL     1     168.796 173.747 160.660  1.00  0.00     0.115 A 
ATOM     16  C   UNL     1     167.975 174.231 158.431  1.00  0.00     0.016 A 
ATOM     17  C   UNL     1     168.081 174.569 159.784  1.00  0.00     0.047 A 
BRANCH  15  18
ATOM     18  O   UNL     1     168.893 174.095 162.005  1.00  0.00    -0.508 OA
ATOM     19  H   UNL     1     168.989 173.392 162.729  1.00  0.00     0.293 HD
ENDBRANCH  15  18
ENDBRANCH   1  12
BRANCH   2  20
ATOM     20  O   UNL     1     166.804 171.000 156.907  1.00  0.00    -0.502 OA
ATOM     21  H   UNL     1     166.054 171.438 157.428  1.00  0.00     0.293 HD
ENDBRANCH   2  20
BRANCH   6  22
ATOM     22  O   UNL     1     167.623 171.023 151.772  1.00  0.00    -0.507 OA
ATOM     23  H   UNL     1     167.948 170.507 150.962  1.00  0.00     0.293 HD
ENDBRANCH   6  22
BRANCH   8  24
ATOM     24  O   UNL     1     170.802 174.648 151.329  1.00  0.00    -0.508 OA
ATOM     25  H   UNL     1     170.632 174.745 150.334  1.00  0.00     0.293 HD
ENDBRANCH   8  24
TORSDOF 5
ENDMDL
MODEL 8
REMARK VINA RESULT:    -5.191      4.214      5.538
REMARK INTER + INTRA:          -6.392
REMARK INTER:                  -6.161
REMARK INTRA:                  -0.231
REMARK UNBOUND:                -0.290
REMARK SMILES O=c1c(O)c(-c2ccc(O)cc2)oc2cc(O)cc(O)c12
REMARK SMILES IDX 5 1 3 2 2 3 1 4 21 5 19 6 18 7 16 8 15 9 14 10 13 11 6 12
REMARK SMILES IDX 7 13 8 14 9 15 12 16 11 17 10 18 4 20 20 22 17 24
REMARK H PARENT 10 19 4 21 20 23 17 25
REMARK Flexibility Score: inf
ROOT
ATOM      1  C   UNL     1     158.067 159.785 150.811  1.00  0.00     0.180 A 
ATOM      2  C   UNL     1     156.829 159.162 150.562  1.00  0.00     0.208 A 
ATOM      3  C   UNL     1     156.795 158.027 149.736  1.00  0.00     0.238 A 
ATOM      4  O   UNL     1     155.694 157.454 149.514  1.00  0.00    -0.285 OA
ATOM      5  C   UNL     1     157.990 157.551 149.157  1.00  0.00     0.111 A 
ATOM      6  C   UNL     1     158.041 156.417 148.310  1.00  0.00     0.134 A 
ATOM      7  C   UNL     1     159.269 156.011 147.766  1.00  0.00     0.093 A 
ATOM      8  C   UNL     1     160.443 156.715 148.053  1.00  0.00     0.123 A 
ATOM      9  C   UNL     1     160.398 157.832 148.888  1.00  0.00     0.094 A 
ATOM     10  C   UNL     1     159.184 158.253 149.441  1.00  0.00     0.146 A 
ATOM     11  O   UNL     1     159.171 159.316 150.237  1.00  0.00    -0.452 OA
ENDROOT
BRANCH   1  12
ATOM     12  C   UNL     1     158.188 160.973 151.687  1.00  0.00     0.021 A 
ATOM     13  C   UNL     1     158.058 160.869 153.084  1.00  0.00     0.016 A 
ATOM     14  C   UNL     1     158.200 162.002 153.893  1.00  0.00     0.047 A 
ATOM     15  C   UNL     1     158.485 163.246 153.318  1.00  0.00     0.115 A 
ATOM     16  C   UNL     1     158.494 162.221 151.121  1.00  0.00     0.016 A 
ATOM     17  C   UNL     1     158.634 163.351 151.932  1.00  0.00     0.047 A 
BRANCH  15  18
ATOM     18  O   UNL     1     158.627 164.380 154.113  1.00  0.00    -0.508 OA
ATOM     19  H   UNL     1     158.334 165.295 153.790  1.00  0.00     0.293 HD
ENDBRANCH  15  18
ENDBRANCH   1  12
BRANCH   2  20
ATOM     20  O   UNL     1     155.653 159.683 151.107  1.00  0.00    -0.502 OA
ATOM     21  H   UNL     1     155.105 159.182 151.795  1.00  0.00     0.293 HD
ENDBRANCH   2  20
BRANCH   6  22
ATOM     22  O   UNL     1     156.887 155.695 148.005  1.00  0.00    -0.507 OA
ATOM     23  H   UNL     1     156.508 155.001 148.640  1.00  0.00     0.293 HD
ENDBRANCH   6  22
BRANCH   8  24
ATOM     24  O   UNL     1     161.663 156.312 147.512  1.00  0.00    -0.508 OA
ATOM     25  H   UNL     1     161.800 156.239 146.510  1.00  0.00     0.293 HD
ENDBRANCH   8  24
TORSDOF 5
ENDMDL
MODEL 9
REMARK VINA RESULT:    -5.125     18.715     19.991
REMARK INTER + INTRA:          -6.314
REMARK INTER:                  -6.074
REMARK INTRA:                  -0.240
REMARK UNBOUND:                -0.290
REMARK SMILES O=c1c(O)c(-c2ccc(O)cc2)oc2cc(O)cc(O)c12
REMARK SMILES IDX 5 1 3 2 2 3 1 4 21 5 19 6 18 7 16 8 15 9 14 10 13 11 6 12
REMARK SMILES IDX 7 13 8 14 9 15 12 16 11 17 10 18 4 20 20 22 17 24
REMARK H PARENT 10 19 4 21 20 23 17 25
REMARK Flexibility Score: inf
ROOT
ATOM      1  C   UNL     1     169.474 173.507 151.719  1.00  0.00     0.180 A 
ATOM      2  C   UNL     1     170.045 172.537 152.566  1.00  0.00     0.208 A 
ATOM      3  C   UNL     1     169.410 172.242 153.783  1.00  0.00     0.238 A 
ATOM      4  O   UNL     1     169.907 171.368 154.545  1.00  0.00    -0.285 OA
ATOM      5  C   UNL     1     168.234 172.931 154.141  1.00  0.00     0.111 A 
ATOM      6  C   UNL     1     167.536 172.696 155.351  1.00  0.00     0.134 A 
ATOM      7  C   UNL     1     166.376 173.431 155.639  1.00  0.00     0.093 A 
ATOM      8  C   UNL     1     165.903 174.395 154.742  1.00  0.00     0.123 A 
ATOM      9  C   UNL     1     166.586 174.630 153.549  1.00  0.00     0.094 A 
ATOM     10  C   UNL     1     167.744 173.907 153.242  1.00  0.00     0.146 A 
ATOM     11  O   UNL     1     168.371 174.148 152.097  1.00  0.00    -0.452 OA
ENDROOT
BRANCH   1  12
ATOM     12  C   UNL     1     170.072 173.860 150.411  1.00  0.00     0.021 A 
ATOM     13  C   UNL     1     171.214 174.677 150.324  1.00  0.00     0.016 A 
ATOM     14  C   UNL     1     171.774 174.978 149.079  1.00  0.00     0.047 A 
ATOM     15  C   UNL     1     171.210 174.456 147.908  1.00  0.00     0.115 A 
ATOM     16  C   UNL     1     169.525 173.325 149.234  1.00  0.00     0.016 A 
ATOM     17  C   UNL     1     170.086 173.628 147.990  1.00  0.00     0.047 A 
BRANCH  15  18
ATOM     18  O   UNL     1     171.758 174.750 146.663  1.00  0.00    -0.508 OA
ATOM     19  H   UNL     1     171.380 174.354 145.810  1.00  0.00     0.293 HD
ENDBRANCH  15  18
ENDBRANCH   1  12
BRANCH   2  20
ATOM     20  O   UNL     1     171.239 171.905 152.211  1.00  0.00    -0.502 OA
ATOM     21  H   UNL     1     171.747 172.140 151.367  1.00  0.00     0.293 HD
ENDBRANCH   2  20
BRANCH   6  22
ATOM     22  O   UNL     1     167.985 171.742 156.265  1.00  0.00    -0.507 OA
ATOM     23  H   UNL     1     168.152 170.779 155.993  1.00  0.00     0.293 HD
ENDBRANCH   6  22
BRANCH   8  24
ATOM     24  O   UNL     1     164.751 175.125 155.028  1.00  0.00    -0.508 OA
ATOM     25  H   UNL     1     164.286 175.681 154.319  1.00  0.00     0.293 HD
ENDBRANCH   8  24
TORSDOF 5
ENDMDL
