MODEL 1
REMARK VINA RESULT:    -6.105      0.000      0.000
REMARK INTER + INTRA:         -10.211
REMARK INTER:                  -8.068
REMARK INTRA:                  -2.143
REMARK UNBOUND:                -2.143
REMARK SMILES CC[C@H](C=C[C@H](C)[C@@H]1CC[C@@H]2[C@@H]3CC=C4C[C@@H](O)CC[C@]4(C)[C@@H]3CC[C@@]21C)C(C)C
REMARK SMILES IDX 6 1 7 2 5 3 4 4 3 5 2 6 1 7 28 8 29 9 30 10 8 11 9 12 26 13
REMARK SMILES IDX 10 14 11 15 25 16 27 17 12 18 24 19 23 20 13 21 21 22 14 23
REMARK SMILES IDX 15 24 20 25 22 26 16 27 19 28 17 29 18 30
REMARK H PARENT 18 31
REMARK Flexibility Score: inf
ROOT
ATOM      1  C   UNL     1     105.800 115.112 138.895  1.00  0.00     0.012 C 
ATOM      2  C   UNL     1     106.029 116.612 139.198  1.00  0.00     0.012 C 
ENDROOT
BRANCH   1   3
ATOM      3  C   UNL     1     106.233 114.848 137.464  1.00  0.00    -0.028 C 
ATOM      4  C   UNL     1     105.456 114.189 136.588  1.00  0.00    -0.027 C 
BRANCH   4   5
ATOM      5  C   UNL     1     105.869 113.998 135.142  1.00  0.00     0.014 C 
BRANCH   5   6
ATOM      6  C   UNL     1     107.184 113.181 135.060  1.00  0.00     0.004 C 
ATOM      7  C   UNL     1     107.067 111.993 134.104  1.00  0.00     0.004 C 
ENDBRANCH   5   6
BRANCH   5   8
ATOM      8  C   UNL     1     104.699 113.361 134.328  1.00  0.00    -0.011 C 
ATOM      9  C   UNL     1     104.045 114.341 133.341  1.00  0.00     0.008 C 
ATOM     10  C   UNL     1     103.636 112.725 135.238  1.00  0.00     0.008 C 
ENDBRANCH   5   8
ENDBRANCH   4   5
ENDBRANCH   1   3
BRANCH   1  11
ATOM     11  C   UNL     1     106.539 114.152 139.906  1.00  0.00     0.002 C 
ATOM     12  C   UNL     1     107.973 113.827 139.436  1.00  0.00     0.005 C 
ATOM     13  C   UNL     1     105.905 112.730 140.213  1.00  0.00    -0.026 C 
ATOM     14  C   UNL     1     107.873 112.502 138.724  1.00  0.00     0.005 C 
ATOM     15  C   UNL     1     106.894 111.699 139.573  1.00  0.00    -0.001 C 
ATOM     16  C   UNL     1     104.461 112.509 139.686  1.00  0.00     0.007 C 
ATOM     17  C   UNL     1     105.878 112.549 141.758  1.00  0.00     0.012 C 
ATOM     18  C   UNL     1     106.268 110.461 138.855  1.00  0.00     0.000 C 
ATOM     19  C   UNL     1     103.958 111.048 139.758  1.00  0.00     0.005 C 
ATOM     20  C   UNL     1     105.053 109.945 139.656  1.00  0.00     0.003 C 
ATOM     21  C   UNL     1     105.909 110.645 137.360  1.00  0.00     0.031 C 
ATOM     22  C   UNL     1     104.528 108.578 139.071  1.00  0.00    -0.008 C 
ATOM     23  C   UNL     1     105.005 109.568 136.807  1.00  0.00    -0.027 C 
ATOM     24  C   UNL     1     104.296 108.700 137.563  1.00  0.00    -0.065 C 
ATOM     25  C   UNL     1     103.209 108.140 139.794  1.00  0.00     0.014 C 
ATOM     26  C   UNL     1     105.591 107.467 139.304  1.00  0.00     0.016 C 
ATOM     27  C   UNL     1     103.462 107.643 136.867  1.00  0.00     0.063 C 
ATOM     28  C   UNL     1     102.460 106.999 139.089  1.00  0.00     0.033 C 
ATOM     29  C   UNL     1     102.162 107.366 137.630  1.00  0.00     0.118 C 
BRANCH  29  30
ATOM     30  O   UNL     1     101.481 106.312 137.000  1.00  0.00    -0.393 OA
ATOM     31  H   UNL     1     102.016 106.061 136.202  1.00  0.00     0.210 HD
ENDBRANCH  29  30
ENDBRANCH   1  11
TORSDOF 6
ENDMDL
MODEL 2
REMARK VINA RESULT:    -6.044      1.646      2.220
REMARK INTER + INTRA:         -10.130
REMARK INTER:                  -8.496
REMARK INTRA:                  -1.634
REMARK UNBOUND:                -2.143
REMARK SMILES CC[C@H](C=C[C@H](C)[C@@H]1CC[C@@H]2[C@@H]3CC=C4C[C@@H](O)CC[C@]4(C)[C@@H]3CC[C@@]21C)C(C)C
REMARK SMILES IDX 6 1 7 2 5 3 4 4 3 5 2 6 1 7 28 8 29 9 30 10 8 11 9 12 26 13
REMARK SMILES IDX 10 14 11 15 25 16 27 17 12 18 24 19 23 20 13 21 21 22 14 23
REMARK SMILES IDX 15 24 20 25 22 26 16 27 19 28 17 29 18 30
REMARK H PARENT 18 31
REMARK Flexibility Score: inf
ROOT
ATOM      1  C   UNL     1     105.492 115.359 138.934  1.00  0.00     0.012 C 
ATOM      2  C   UNL     1     105.534 116.759 139.590  1.00  0.00     0.012 C 
ENDROOT
BRANCH   1   3
ATOM      3  C   UNL     1     104.979 115.518 137.513  1.00  0.00    -0.028 C 
ATOM      4  C   UNL     1     103.931 114.819 137.045  1.00  0.00    -0.027 C 
BRANCH   4   5
ATOM      5  C   UNL     1     103.383 115.044 135.649  1.00  0.00     0.014 C 
BRANCH   5   6
ATOM      6  C   UNL     1     103.388 113.717 134.848  1.00  0.00     0.004 C 
ATOM      7  C   UNL     1     104.489 113.687 133.788  1.00  0.00     0.004 C 
ENDBRANCH   5   6
BRANCH   5   8
ATOM      8  C   UNL     1     101.973 115.709 135.727  1.00  0.00    -0.011 C 
ATOM      9  C   UNL     1     100.831 114.753 135.345  1.00  0.00     0.008 C 
ATOM     10  C   UNL     1     101.891 117.001 134.898  1.00  0.00     0.008 C 
ENDBRANCH   5   8
ENDBRANCH   4   5
ENDBRANCH   1   3
BRANCH   1  11
ATOM     11  C   UNL     1     106.884 114.615 138.962  1.00  0.00     0.002 C 
ATOM     12  C   UNL     1     107.641 114.775 137.627  1.00  0.00     0.005 C 
ATOM     13  C   UNL     1     106.910 113.051 139.232  1.00  0.00    -0.026 C 
ATOM     14  C   UNL     1     107.334 113.527 136.837  1.00  0.00     0.005 C 
ATOM     15  C   UNL     1     107.369 112.414 137.877  1.00  0.00    -0.001 C 
ATOM     16  C   UNL     1     105.570 112.428 139.709  1.00  0.00     0.007 C 
ATOM     17  C   UNL     1     107.976 112.781 140.332  1.00  0.00     0.012 C 
ATOM     18  C   UNL     1     106.669 111.087 137.440  1.00  0.00     0.000 C 
ATOM     19  C   UNL     1     105.536 110.882 139.714  1.00  0.00     0.005 C 
ATOM     20  C   UNL     1     106.450 110.177 138.667  1.00  0.00     0.003 C 
ATOM     21  C   UNL     1     105.363 111.240 136.622  1.00  0.00     0.031 C 
ATOM     22  C   UNL     1     105.935 108.751 138.231  1.00  0.00    -0.008 C 
ATOM     23  C   UNL     1     104.548 109.972 136.521  1.00  0.00    -0.027 C 
ATOM     24  C   UNL     1     104.722 108.884 137.307  1.00  0.00    -0.065 C 
ATOM     25  C   UNL     1     105.575 107.888 139.487  1.00  0.00     0.014 C 
ATOM     26  C   UNL     1     107.056 108.010 137.447  1.00  0.00     0.016 C 
ATOM     27  C   UNL     1     103.857 107.665 137.063  1.00  0.00     0.063 C 
ATOM     28  C   UNL     1     104.779 106.614 139.161  1.00  0.00     0.033 C 
ATOM     29  C   UNL     1     103.506 106.958 138.376  1.00  0.00     0.118 C 
BRANCH  29  30
ATOM     30  O   UNL     1     102.793 105.784 138.084  1.00  0.00    -0.393 OA
ATOM     31  H   UNL     1     101.994 106.056 137.560  1.00  0.00     0.210 HD
ENDBRANCH  29  30
ENDBRANCH   1  11
TORSDOF 6
ENDMDL
MODEL 3
REMARK VINA RESULT:    -5.989      2.785      5.602
REMARK INTER + INTRA:         -10.057
REMARK INTER:                  -7.942
REMARK INTRA:                  -2.115
REMARK UNBOUND:                -2.143
REMARK SMILES CC[C@H](C=C[C@H](C)[C@@H]1CC[C@@H]2[C@@H]3CC=C4C[C@@H](O)CC[C@]4(C)[C@@H]3CC[C@@]21C)C(C)C
REMARK SMILES IDX 6 1 7 2 5 3 4 4 3 5 2 6 1 7 28 8 29 9 30 10 8 11 9 12 26 13
REMARK SMILES IDX 10 14 11 15 25 16 27 17 12 18 24 19 23 20 13 21 21 22 14 23
REMARK SMILES IDX 15 24 20 25 22 26 16 27 19 28 17 29 18 30
REMARK H PARENT 18 31
REMARK Flexibility Score: inf
ROOT
ATOM      1  C   UNL     1     102.361 110.022 135.831  1.00  0.00     0.012 C 
ATOM      2  C   UNL     1     101.319 109.360 134.898  1.00  0.00     0.012 C 
ENDROOT
BRANCH   1   3
ATOM      3  C   UNL     1     102.905 111.255 135.129  1.00  0.00    -0.028 C 
ATOM      4  C   UNL     1     104.220 111.441 134.920  1.00  0.00    -0.027 C 
BRANCH   4   5
ATOM      5  C   UNL     1     104.742 112.639 134.152  1.00  0.00     0.014 C 
BRANCH   5   6
ATOM      6  C   UNL     1     103.937 113.911 134.525  1.00  0.00     0.004 C 
ATOM      7  C   UNL     1     103.474 114.683 133.289  1.00  0.00     0.004 C 
ENDBRANCH   5   6
BRANCH   5   8
ATOM      8  C   UNL     1     106.278 112.796 134.382  1.00  0.00    -0.011 C 
ATOM      9  C   UNL     1     106.904 111.603 135.122  1.00  0.00     0.008 C 
ATOM     10  C   UNL     1     106.629 114.113 135.094  1.00  0.00     0.008 C 
ENDBRANCH   5   8
ENDBRANCH   4   5
ENDBRANCH   1   3
BRANCH   1  11
ATOM     11  C   UNL     1     101.784 110.379 137.256  1.00  0.00     0.002 C 
ATOM     12  C   UNL     1     101.141 111.782 137.274  1.00  0.00     0.005 C 
ATOM     13  C   UNL     1     102.773 110.395 138.498  1.00  0.00    -0.026 C 
ATOM     14  C   UNL     1     102.205 112.707 137.808  1.00  0.00     0.005 C 
ATOM     15  C   UNL     1     102.874 111.901 138.916  1.00  0.00    -0.001 C 
ATOM     16  C   UNL     1     104.183 109.797 138.244  1.00  0.00     0.007 C 
ATOM     17  C   UNL     1     102.108 109.572 139.639  1.00  0.00     0.012 C 
ATOM     18  C   UNL     1     104.278 112.427 139.352  1.00  0.00     0.000 C 
ATOM     19  C   UNL     1     105.212 110.055 139.369  1.00  0.00     0.005 C 
ATOM     20  C   UNL     1     105.003 111.358 140.198  1.00  0.00     0.003 C 
ATOM     21  C   UNL     1     105.194 112.953 138.220  1.00  0.00     0.031 C 
ATOM     22  C   UNL     1     106.331 111.935 140.823  1.00  0.00    -0.008 C 
ATOM     23  C   UNL     1     106.639 113.122 138.626  1.00  0.00    -0.027 C 
ATOM     24  C   UNL     1     107.192 112.584 139.737  1.00  0.00    -0.065 C 
ATOM     25  C   UNL     1     107.132 110.804 141.554  1.00  0.00     0.014 C 
ATOM     26  C   UNL     1     105.981 113.027 141.874  1.00  0.00     0.016 C 
ATOM     27  C   UNL     1     108.648 112.874 140.039  1.00  0.00     0.063 C 
ATOM     28  C   UNL     1     108.572 111.196 141.919  1.00  0.00     0.033 C 
ATOM     29  C   UNL     1     109.338 111.663 140.674  1.00  0.00     0.118 C 
BRANCH  29  30
ATOM     30  O   UNL     1     110.650 112.019 141.026  1.00  0.00    -0.393 OA
ATOM     31  H   UNL     1     110.682 113.012 141.048  1.00  0.00     0.210 HD
ENDBRANCH  29  30
ENDBRANCH   1  11
TORSDOF 6
ENDMDL
MODEL 4
REMARK VINA RESULT:    -5.916      2.833      5.917
REMARK INTER + INTRA:          -9.961
REMARK INTER:                  -8.483
REMARK INTRA:                  -1.478
REMARK UNBOUND:                -2.143
REMARK SMILES CC[C@H](C=C[C@H](C)[C@@H]1CC[C@@H]2[C@@H]3CC=C4C[C@@H](O)CC[C@]4(C)[C@@H]3CC[C@@]21C)C(C)C
REMARK SMILES IDX 6 1 7 2 5 3 4 4 3 5 2 6 1 7 28 8 29 9 30 10 8 11 9 12 26 13
REMARK SMILES IDX 10 14 11 15 25 16 27 17 12 18 24 19 23 20 13 21 21 22 14 23
REMARK SMILES IDX 15 24 20 25 22 26 16 27 19 28 17 29 18 30
REMARK H PARENT 18 31
REMARK Flexibility Score: inf
ROOT
ATOM      1  C   UNL     1     102.061 109.935 135.517  1.00  0.00     0.012 C 
ATOM      2  C   UNL     1     100.599 110.266 135.135  1.00  0.00     0.012 C 
ENDROOT
BRANCH   1   3
ATOM      3  C   UNL     1     102.902 111.180 135.288  1.00  0.00    -0.028 C 
ATOM      4  C   UNL     1     102.370 112.414 135.279  1.00  0.00    -0.027 C 
BRANCH   4   5
ATOM      5  C   UNL     1     103.232 113.652 135.125  1.00  0.00     0.014 C 
BRANCH   5   6
ATOM      6  C   UNL     1     104.477 113.337 134.256  1.00  0.00     0.004 C 
ATOM      7  C   UNL     1     105.784 113.674 134.975  1.00  0.00     0.004 C 
ENDBRANCH   5   6
BRANCH   5   8
ATOM      8  C   UNL     1     102.379 114.835 134.569  1.00  0.00    -0.011 C 
ATOM      9  C   UNL     1     102.827 115.302 133.175  1.00  0.00     0.008 C 
ATOM     10  C   UNL     1     102.327 116.024 135.543  1.00  0.00     0.008 C 
ENDBRANCH   5   8
ENDBRANCH   4   5
ENDBRANCH   1   3
BRANCH   1  11
ATOM     11  C   UNL     1     102.215 109.401 136.994  1.00  0.00     0.002 C 
ATOM     12  C   UNL     1     101.060 109.885 137.896  1.00  0.00     0.005 C 
ATOM     13  C   UNL     1     103.523 109.776 137.811  1.00  0.00    -0.026 C 
ATOM     14  C   UNL     1     101.589 111.106 138.606  1.00  0.00     0.005 C 
ATOM     15  C   UNL     1     103.032 110.744 138.939  1.00  0.00    -0.001 C 
ATOM     16  C   UNL     1     104.668 110.425 136.986  1.00  0.00     0.007 C 
ATOM     17  C   UNL     1     104.077 108.466 138.441  1.00  0.00     0.012 C 
ATOM     18  C   UNL     1     103.949 111.961 139.284  1.00  0.00     0.000 C 
ATOM     19  C   UNL     1     105.820 111.021 137.829  1.00  0.00     0.005 C 
ATOM     20  C   UNL     1     105.432 111.531 139.250  1.00  0.00     0.003 C 
ATOM     21  C   UNL     1     103.725 113.245 138.449  1.00  0.00     0.031 C 
ATOM     22  C   UNL     1     106.367 112.678 139.792  1.00  0.00    -0.008 C 
ATOM     23  C   UNL     1     104.838 114.260 138.569  1.00  0.00    -0.027 C 
ATOM     24  C   UNL     1     106.065 113.995 139.072  1.00  0.00    -0.065 C 
ATOM     25  C   UNL     1     107.875 112.290 139.614  1.00  0.00     0.014 C 
ATOM     26  C   UNL     1     106.105 112.891 141.310  1.00  0.00     0.016 C 
ATOM     27  C   UNL     1     107.070 115.125 139.170  1.00  0.00     0.063 C 
ATOM     28  C   UNL     1     108.849 113.460 139.822  1.00  0.00     0.033 C 
ATOM     29  C   UNL     1     108.494 114.630 138.894  1.00  0.00     0.118 C 
BRANCH  29  30
ATOM     30  O   UNL     1     109.392 115.691 139.098  1.00  0.00    -0.393 OA
ATOM     31  H   UNL     1     109.989 115.718 138.305  1.00  0.00     0.210 HD
ENDBRANCH  29  30
ENDBRANCH   1  11
TORSDOF 6
ENDMDL
MODEL 5
REMARK VINA RESULT:    -5.906      2.325      5.032
REMARK INTER + INTRA:          -9.948
REMARK INTER:                  -7.898
REMARK INTRA:                  -2.050
REMARK UNBOUND:                -2.143
REMARK SMILES CC[C@H](C=C[C@H](C)[C@@H]1CC[C@@H]2[C@@H]3CC=C4C[C@@H](O)CC[C@]4(C)[C@@H]3CC[C@@]21C)C(C)C
REMARK SMILES IDX 6 1 7 2 5 3 4 4 3 5 2 6 1 7 28 8 29 9 30 10 8 11 9 12 26 13
REMARK SMILES IDX 10 14 11 15 25 16 27 17 12 18 24 19 23 20 13 21 21 22 14 23
REMARK SMILES IDX 15 24 20 25 22 26 16 27 19 28 17 29 18 30
REMARK H PARENT 18 31
REMARK Flexibility Score: inf
ROOT
ATOM      1  C   UNL     1     104.339 113.449 134.705  1.00  0.00     0.012 C 
ATOM      2  C   UNL     1     104.046 114.350 133.482  1.00  0.00     0.012 C 
ENDROOT
BRANCH   1   3
ATOM      3  C   UNL     1     104.840 114.333 135.834  1.00  0.00    -0.028 C 
ATOM      4  C   UNL     1     106.073 114.205 136.354  1.00  0.00    -0.027 C 
BRANCH   4   5
ATOM      5  C   UNL     1     106.585 115.144 137.428  1.00  0.00     0.014 C 
BRANCH   5   6
ATOM      6  C   UNL     1     105.402 115.862 138.126  1.00  0.00     0.004 C 
ATOM      7  C   UNL     1     105.831 116.559 139.418  1.00  0.00     0.004 C 
ENDBRANCH   5   6
BRANCH   5   8
ATOM      8  C   UNL     1     107.506 114.370 138.423  1.00  0.00    -0.011 C 
ATOM      9  C   UNL     1     108.857 115.063 138.661  1.00  0.00     0.008 C 
ATOM     10  C   UNL     1     107.721 112.907 138.000  1.00  0.00     0.008 C 
ENDBRANCH   5   8
ENDBRANCH   4   5
ENDBRANCH   1   3
BRANCH   1  11
ATOM     11  C   UNL     1     103.095 112.589 135.157  1.00  0.00     0.002 C 
ATOM     12  C   UNL     1     101.997 113.467 135.793  1.00  0.00     0.005 C 
ATOM     13  C   UNL     1     103.315 111.425 136.215  1.00  0.00    -0.026 C 
ATOM     14  C   UNL     1     102.218 113.375 137.282  1.00  0.00     0.005 C 
ATOM     15  C   UNL     1     102.584 111.913 137.511  1.00  0.00    -0.001 C 
ATOM     16  C   UNL     1     104.794 111.062 136.518  1.00  0.00     0.007 C 
ATOM     17  C   UNL     1     102.617 110.149 135.663  1.00  0.00     0.012 C 
ATOM     18  C   UNL     1     103.284 111.621 138.877  1.00  0.00     0.000 C 
ATOM     19  C   UNL     1     104.998 110.122 137.729  1.00  0.00     0.005 C 
ATOM     20  C   UNL     1     103.921 110.214 138.852  1.00  0.00     0.003 C 
ATOM     21  C   UNL     1     104.300 112.682 139.367  1.00  0.00     0.031 C 
ATOM     22  C   UNL     1     104.455 109.809 140.280  1.00  0.00    -0.008 C 
ATOM     23  C   UNL     1     105.193 112.207 140.489  1.00  0.00    -0.027 C 
ATOM     24  C   UNL     1     105.355 110.911 140.844  1.00  0.00    -0.065 C 
ATOM     25  C   UNL     1     105.229 108.449 140.213  1.00  0.00     0.014 C 
ATOM     26  C   UNL     1     103.254 109.628 141.253  1.00  0.00     0.016 C 
ATOM     27  C   UNL     1     106.254 110.587 142.020  1.00  0.00     0.063 C 
ATOM     28  C   UNL     1     106.044 108.133 141.476  1.00  0.00     0.033 C 
ATOM     29  C   UNL     1     107.017 109.277 141.794  1.00  0.00     0.118 C 
BRANCH  29  30
ATOM     30  O   UNL     1     107.751 108.973 142.952  1.00  0.00    -0.393 OA
ATOM     31  H   UNL     1     108.227 109.804 143.216  1.00  0.00     0.210 HD
ENDBRANCH  29  30
ENDBRANCH   1  11
TORSDOF 6
ENDMDL
MODEL 6
REMARK VINA RESULT:    -5.658      1.961      4.872
REMARK INTER + INTRA:          -9.619
REMARK INTER:                  -7.761
REMARK INTRA:                  -1.858
REMARK UNBOUND:                -2.143
REMARK SMILES CC[C@H](C=C[C@H](C)[C@@H]1CC[C@@H]2[C@@H]3CC=C4C[C@@H](O)CC[C@]4(C)[C@@H]3CC[C@@]21C)C(C)C
REMARK SMILES IDX 6 1 7 2 5 3 4 4 3 5 2 6 1 7 28 8 29 9 30 10 8 11 9 12 26 13
REMARK SMILES IDX 10 14 11 15 25 16 27 17 12 18 24 19 23 20 13 21 21 22 14 23
REMARK SMILES IDX 15 24 20 25 22 26 16 27 19 28 17 29 18 30
REMARK H PARENT 18 31
REMARK Flexibility Score: inf
ROOT
ATOM      1  C   UNL     1     107.232 113.624 136.717  1.00  0.00     0.012 C 
ATOM      2  C   UNL     1     108.502 114.440 136.381  1.00  0.00     0.012 C 
ENDROOT
BRANCH   1   3
ATOM      3  C   UNL     1     107.222 113.361 138.213  1.00  0.00    -0.028 C 
ATOM      4  C   UNL     1     107.128 112.121 138.724  1.00  0.00    -0.027 C 
BRANCH   4   5
ATOM      5  C   UNL     1     107.196 111.867 140.217  1.00  0.00     0.014 C 
BRANCH   5   6
ATOM      6  C   UNL     1     108.534 112.399 140.793  1.00  0.00     0.004 C 
ATOM      7  C   UNL     1     109.221 111.374 141.696  1.00  0.00     0.004 C 
ENDBRANCH   5   6
BRANCH   5   8
ATOM      8  C   UNL     1     105.941 112.471 140.922  1.00  0.00    -0.011 C 
ATOM      9  C   UNL     1     106.252 113.743 141.726  1.00  0.00     0.008 C 
ATOM     10  C   UNL     1     105.218 111.441 141.805  1.00  0.00     0.008 C 
ENDBRANCH   5   8
ENDBRANCH   4   5
ENDBRANCH   1   3
BRANCH   1  11
ATOM     11  C   UNL     1     105.898 114.326 136.249  1.00  0.00     0.002 C 
ATOM     12  C   UNL     1     105.278 115.179 137.376  1.00  0.00     0.005 C 
ATOM     13  C   UNL     1     104.694 113.422 135.746  1.00  0.00    -0.026 C 
ATOM     14  C   UNL     1     104.233 114.301 138.017  1.00  0.00     0.005 C 
ATOM     15  C   UNL     1     103.586 113.578 136.841  1.00  0.00    -0.001 C 
ATOM     16  C   UNL     1     105.030 111.924 135.510  1.00  0.00     0.007 C 
ATOM     17  C   UNL     1     104.192 114.013 134.397  1.00  0.00     0.012 C 
ATOM     18  C   UNL     1     102.777 112.298 137.225  1.00  0.00     0.000 C 
ATOM     19  C   UNL     1     103.804 111.011 135.278  1.00  0.00     0.005 C 
ATOM     20  C   UNL     1     102.478 111.464 135.961  1.00  0.00     0.003 C 
ATOM     21  C   UNL     1     103.385 111.413 138.342  1.00  0.00     0.031 C 
ATOM     22  C   UNL     1     101.491 110.277 136.285  1.00  0.00    -0.008 C 
ATOM     23  C   UNL     1     102.772 110.036 138.438  1.00  0.00    -0.027 C 
ATOM     24  C   UNL     1     102.006 109.469 137.479  1.00  0.00    -0.065 C 
ATOM     25  C   UNL     1     101.312 109.352 135.033  1.00  0.00     0.014 C 
ATOM     26  C   UNL     1     100.094 110.849 136.660  1.00  0.00     0.016 C 
ATOM     27  C   UNL     1     101.422 108.094 137.732  1.00  0.00     0.063 C 
ATOM     28  C   UNL     1     100.626 108.012 135.341  1.00  0.00     0.033 C 
ATOM     29  C   UNL     1     101.378 107.260 136.447  1.00  0.00     0.118 C 
BRANCH  29  30
ATOM     30  O   UNL     1     100.737 106.041 136.718  1.00  0.00    -0.393 OA
ATOM     31  H   UNL     1     100.908 105.448 135.939  1.00  0.00     0.210 HD
ENDBRANCH  29  30
ENDBRANCH   1  11
TORSDOF 6
ENDMDL
MODEL 7
REMARK VINA RESULT:    -5.435      6.169      9.012
REMARK INTER + INTRA:          -9.325
REMARK INTER:                  -8.273
REMARK INTRA:                  -1.052
REMARK UNBOUND:                -2.143
REMARK SMILES CC[C@H](C=C[C@H](C)[C@@H]1CC[C@@H]2[C@@H]3CC=C4C[C@@H](O)CC[C@]4(C)[C@@H]3CC[C@@]21C)C(C)C
REMARK SMILES IDX 6 1 7 2 5 3 4 4 3 5 2 6 1 7 28 8 29 9 30 10 8 11 9 12 26 13
REMARK SMILES IDX 10 14 11 15 25 16 27 17 12 18 24 19 23 20 13 21 21 22 14 23
REMARK SMILES IDX 15 24 20 25 22 26 16 27 19 28 17 29 18 30
REMARK H PARENT 18 31
REMARK Flexibility Score: inf
ROOT
ATOM      1  C   UNL     1     107.745 106.543 137.096  1.00  0.00     0.012 C 
ATOM      2  C   UNL     1     108.844 107.119 136.173  1.00  0.00     0.012 C 
ENDROOT
BRANCH   1   3
ATOM      3  C   UNL     1     106.839 107.687 137.521  1.00  0.00    -0.028 C 
ATOM      4  C   UNL     1     106.715 108.812 136.797  1.00  0.00    -0.027 C 
BRANCH   4   5
ATOM      5  C   UNL     1     105.751 109.913 137.193  1.00  0.00     0.014 C 
BRANCH   5   6
ATOM      6  C   UNL     1     106.194 111.265 136.579  1.00  0.00     0.004 C 
ATOM      7  C   UNL     1     106.790 112.208 137.626  1.00  0.00     0.004 C 
ENDBRANCH   5   6
BRANCH   5   8
ATOM      8  C   UNL     1     104.292 109.512 136.809  1.00  0.00    -0.011 C 
ATOM      9  C   UNL     1     103.574 110.579 135.966  1.00  0.00     0.008 C 
ATOM     10  C   UNL     1     103.447 109.140 138.037  1.00  0.00     0.008 C 
ENDBRANCH   5   8
ENDBRANCH   4   5
ENDBRANCH   1   3
BRANCH   1  11
ATOM     11  C   UNL     1     106.920 105.374 136.430  1.00  0.00     0.002 C 
ATOM     12  C   UNL     1     105.498 105.274 137.020  1.00  0.00     0.005 C 
ATOM     13  C   UNL     1     107.481 103.891 136.527  1.00  0.00    -0.026 C 
ATOM     14  C   UNL     1     105.575 104.205 138.081  1.00  0.00     0.005 C 
ATOM     15  C   UNL     1     106.480 103.142 137.470  1.00  0.00    -0.001 C 
ATOM     16  C   UNL     1     108.937 103.756 137.049  1.00  0.00     0.007 C 
ATOM     17  C   UNL     1     107.429 103.274 135.101  1.00  0.00     0.012 C 
ATOM     18  C   UNL     1     107.086 102.131 138.494  1.00  0.00     0.000 C 
ATOM     19  C   UNL     1     109.376 102.312 137.387  1.00  0.00     0.005 C 
ATOM     20  C   UNL     1     108.241 101.343 137.838  1.00  0.00     0.003 C 
ATOM     21  C   UNL     1     107.521 102.718 139.860  1.00  0.00     0.031 C 
ATOM     22  C   UNL     1     108.736 100.176 138.777  1.00  0.00    -0.008 C 
ATOM     23  C   UNL     1     108.404 101.799 140.672  1.00  0.00    -0.027 C 
ATOM     24  C   UNL     1     109.042 100.714 140.177  1.00  0.00    -0.065 C 
ATOM     25  C   UNL     1     110.001  99.480 138.169  1.00  0.00     0.014 C 
ATOM     26  C   UNL     1     107.618  99.103 138.909  1.00  0.00     0.016 C 
ATOM     27  C   UNL     1     109.862  99.859 141.122  1.00  0.00     0.063 C 
ATOM     28  C   UNL     1     110.733  98.551 139.150  1.00  0.00     0.033 C 
ATOM     29  C   UNL     1     111.113  99.307 140.431  1.00  0.00     0.118 C 
BRANCH  29  30
ATOM     30  O   UNL     1     111.778  98.443 141.316  1.00  0.00    -0.393 OA
ATOM     31  H   UNL     1     112.658  98.234 140.906  1.00  0.00     0.210 HD
ENDBRANCH  29  30
ENDBRANCH   1  11
TORSDOF 6
ENDMDL
MODEL 8
REMARK VINA RESULT:    -5.192      5.255      9.042
REMARK INTER + INTRA:          -9.004
REMARK INTER:                  -7.416
REMARK INTRA:                  -1.588
REMARK UNBOUND:                -2.143
REMARK SMILES CC[C@H](C=C[C@H](C)[C@@H]1CC[C@@H]2[C@@H]3CC=C4C[C@@H](O)CC[C@]4(C)[C@@H]3CC[C@@]21C)C(C)C
REMARK SMILES IDX 6 1 7 2 5 3 4 4 3 5 2 6 1 7 28 8 29 9 30 10 8 11 9 12 26 13
REMARK SMILES IDX 10 14 11 15 25 16 27 17 12 18 24 19 23 20 13 21 21 22 14 23
REMARK SMILES IDX 15 24 20 25 22 26 16 27 19 28 17 29 18 30
REMARK H PARENT 18 31
REMARK Flexibility Score: inf
ROOT
ATOM      1  C   UNL     1     109.058 102.106 138.524  1.00  0.00     0.012 C 
ATOM      2  C   UNL     1     109.706 100.727 138.795  1.00  0.00     0.012 C 
ENDROOT
BRANCH   1   3
ATOM      3  C   UNL     1     109.870 102.805 137.447  1.00  0.00    -0.028 C 
ATOM      4  C   UNL     1     110.265 104.085 137.563  1.00  0.00    -0.027 C 
BRANCH   4   5
ATOM      5  C   UNL     1     111.139 104.746 136.515  1.00  0.00     0.014 C 
BRANCH   5   6
ATOM      6  C   UNL     1     111.569 106.159 136.986  1.00  0.00     0.004 C 
ATOM      7  C   UNL     1     111.138 107.251 136.005  1.00  0.00     0.004 C 
ENDBRANCH   5   6
BRANCH   5   8
ATOM      8  C   UNL     1     112.348 103.823 136.163  1.00  0.00    -0.011 C 
ATOM      9  C   UNL     1     113.701 104.548 136.227  1.00  0.00     0.008 C 
ATOM     10  C   UNL     1     112.174 103.129 134.803  1.00  0.00     0.008 C 
ENDBRANCH   5   8
ENDBRANCH   4   5
ENDBRANCH   1   3
BRANCH   1  11
ATOM     11  C   UNL     1     107.534 102.010 138.123  1.00  0.00     0.002 C 
ATOM     12  C   UNL     1     107.356 101.854 136.598  1.00  0.00     0.005 C 
ATOM     13  C   UNL     1     106.568 103.212 138.501  1.00  0.00    -0.026 C 
ATOM     14  C   UNL     1     107.092 103.245 136.078  1.00  0.00     0.005 C 
ATOM     15  C   UNL     1     106.182 103.866 137.131  1.00  0.00    -0.001 C 
ATOM     16  C   UNL     1     107.159 104.271 139.471  1.00  0.00     0.007 C 
ATOM     17  C   UNL     1     105.303 102.606 139.173  1.00  0.00     0.012 C 
ATOM     18  C   UNL     1     106.097 105.425 137.084  1.00  0.00     0.000 C 
ATOM     19  C   UNL     1     106.315 105.559 139.621  1.00  0.00     0.005 C 
ATOM     20  C   UNL     1     105.455 105.958 138.384  1.00  0.00     0.003 C 
ATOM     21  C   UNL     1     107.415 106.173 136.769  1.00  0.00     0.031 C 
ATOM     22  C   UNL     1     105.168 107.505 138.281  1.00  0.00    -0.008 C 
ATOM     23  C   UNL     1     107.371 107.653 137.072  1.00  0.00    -0.027 C 
ATOM     24  C   UNL     1     106.428 108.251 137.836  1.00  0.00    -0.065 C 
ATOM     25  C   UNL     1     104.657 108.063 139.653  1.00  0.00     0.014 C 
ATOM     26  C   UNL     1     104.060 107.760 137.219  1.00  0.00     0.016 C 
ATOM     27  C   UNL     1     106.487 109.754 138.018  1.00  0.00     0.063 C 
ATOM     28  C   UNL     1     104.650 109.597 139.739  1.00  0.00     0.033 C 
ATOM     29  C   UNL     1     106.042 110.163 139.426  1.00  0.00     0.118 C 
BRANCH  29  30
ATOM     30  O   UNL     1     106.017 111.565 139.507  1.00  0.00    -0.393 OA
ATOM     31  H   UNL     1     106.296 111.804 140.430  1.00  0.00     0.210 HD
ENDBRANCH  29  30
ENDBRANCH   1  11
TORSDOF 6
ENDMDL
MODEL 9
REMARK VINA RESULT:    -5.164      2.906      7.055
REMARK INTER + INTRA:          -8.967
REMARK INTER:                  -7.117
REMARK INTRA:                  -1.850
REMARK UNBOUND:                -2.143
REMARK SMILES CC[C@H](C=C[C@H](C)[C@@H]1CC[C@@H]2[C@@H]3CC=C4C[C@@H](O)CC[C@]4(C)[C@@H]3CC[C@@]21C)C(C)C
REMARK SMILES IDX 6 1 7 2 5 3 4 4 3 5 2 6 1 7 28 8 29 9 30 10 8 11 9 12 26 13
REMARK SMILES IDX 10 14 11 15 25 16 27 17 12 18 24 19 23 20 13 21 21 22 14 23
REMARK SMILES IDX 15 24 20 25 22 26 16 27 19 28 17 29 18 30
REMARK H PARENT 18 31
REMARK Flexibility Score: inf
ROOT
ATOM      1  C   UNL     1     102.188 108.063 137.786  1.00  0.00     0.012 C 
ATOM      2  C   UNL     1     101.507 106.699 137.523  1.00  0.00     0.012 C 
ENDROOT
BRANCH   1   3
ATOM      3  C   UNL     1     103.547 108.051 137.107  1.00  0.00    -0.028 C 
ATOM      4  C   UNL     1     104.693 107.915 137.796  1.00  0.00    -0.027 C 
BRANCH   4   5
ATOM      5  C   UNL     1     106.036 107.829 137.098  1.00  0.00     0.014 C 
BRANCH   5   6
ATOM      6  C   UNL     1     107.007 108.896 137.666  1.00  0.00     0.004 C 
ATOM      7  C   UNL     1     106.464 109.555 138.934  1.00  0.00     0.004 C 
ENDBRANCH   5   6
BRANCH   5   8
ATOM      8  C   UNL     1     106.598 106.376 137.192  1.00  0.00    -0.011 C 
ATOM      9  C   UNL     1     106.248 105.512 135.970  1.00  0.00     0.008 C 
ATOM     10  C   UNL     1     106.172 105.669 138.489  1.00  0.00     0.008 C 
ENDBRANCH   5   8
ENDBRANCH   4   5
ENDBRANCH   1   3
BRANCH   1  11
ATOM     11  C   UNL     1     101.320 109.294 137.315  1.00  0.00     0.002 C 
ATOM     12  C   UNL     1     101.199 109.349 135.778  1.00  0.00     0.005 C 
ATOM     13  C   UNL     1     101.789 110.758 137.715  1.00  0.00    -0.026 C 
ATOM     14  C   UNL     1     102.265 110.314 135.323  1.00  0.00     0.005 C 
ATOM     15  C   UNL     1     102.229 111.424 136.367  1.00  0.00    -0.001 C 
ATOM     16  C   UNL     1     102.930 110.835 138.766  1.00  0.00     0.007 C 
ATOM     17  C   UNL     1     100.556 111.505 138.298  1.00  0.00     0.012 C 
ATOM     18  C   UNL     1     103.499 112.332 136.402  1.00  0.00     0.000 C 
ATOM     19  C   UNL     1     103.552 112.239 138.949  1.00  0.00     0.005 C 
ATOM     20  C   UNL     1     103.515 113.169 137.699  1.00  0.00     0.003 C 
ATOM     21  C   UNL     1     104.856 111.618 136.186  1.00  0.00     0.031 C 
ATOM     22  C   UNL     1     104.671 114.241 137.668  1.00  0.00    -0.008 C 
ATOM     23  C   UNL     1     106.058 112.452 136.566  1.00  0.00    -0.027 C 
ATOM     24  C   UNL     1     106.004 113.574 137.319  1.00  0.00    -0.065 C 
ATOM     25  C   UNL     1     104.772 114.982 139.044  1.00  0.00     0.014 C 
ATOM     26  C   UNL     1     104.367 115.304 136.574  1.00  0.00     0.016 C 
ATOM     27  C   UNL     1     107.289 114.333 137.586  1.00  0.00     0.063 C 
ATOM     28  C   UNL     1     106.054 115.811 139.213  1.00  0.00     0.033 C 
ATOM     29  C   UNL     1     107.297 114.938 138.993  1.00  0.00     0.118 C 
BRANCH  29  30
ATOM     30  O   UNL     1     108.459 115.712 139.149  1.00  0.00    -0.393 OA
ATOM     31  H   UNL     1     108.467 116.370 138.405  1.00  0.00     0.210 HD
ENDBRANCH  29  30
ENDBRANCH   1  11
TORSDOF 6
ENDMDL
