MODEL 1
REMARK VINA RESULT:    -7.850      0.000      0.000
REMARK INTER + INTRA:         -10.284
REMARK INTER:                  -9.686
REMARK INTRA:                  -0.598
REMARK UNBOUND:                -0.598
REMARK SMILES CC(C)=CCC[C@@H](C)c1ccc(C)cc1
REMARK SMILES IDX 6 1 7 2 8 3 9 4 13 5 12 6 11 7 14 8 10 9 15 10 5 11 4 12
REMARK SMILES IDX 2 13 1 14 3 15
REMARK H PARENT
REMARK Flexibility Score: inf
ROOT
ATOM      1  C   UNL     1      18.914  -5.130  33.822  1.00  0.00     0.012 C 
ENDROOT
BRANCH   1   2
ATOM      2  C   UNL     1      19.799  -4.162  33.001  1.00  0.00     0.016 C 
ATOM      3  C   UNL     1      20.626  -4.933  31.964  1.00  0.00     0.013 C 
BRANCH   2   4
ATOM      4  C   UNL     1      18.984  -3.072  32.327  1.00  0.00    -0.045 A 
ATOM      5  C   UNL     1      16.706   0.049  30.396  1.00  0.00     0.044 C 
ATOM      6  C   UNL     1      17.506  -1.015  31.087  1.00  0.00    -0.051 A 
ATOM      7  C   UNL     1      18.827  -1.272  30.696  1.00  0.00     0.004 A 
ATOM      8  C   UNL     1      16.918  -1.806  32.085  1.00  0.00     0.004 A 
ATOM      9  C   UNL     1      19.563  -2.288  31.315  1.00  0.00     0.004 A 
ATOM     10  C   UNL     1      17.652  -2.821  32.705  1.00  0.00     0.004 A 
ENDBRANCH   2   4
ENDBRANCH   1   2
BRANCH   1  11
ATOM     11  C   UNL     1      19.113  -5.006  35.344  1.00  0.00     0.028 C 
BRANCH  11  12
ATOM     12  C   UNL     1      20.538  -5.286  35.760  1.00  0.00    -0.028 C 
ATOM     13  C   UNL     1      20.890  -5.975  36.869  1.00  0.00    -0.080 C 
ATOM     14  C   UNL     1      19.871  -6.470  37.865  1.00  0.00     0.039 C 
ATOM     15  C   UNL     1      22.348  -6.209  37.171  1.00  0.00     0.039 C 
ENDBRANCH  11  12
ENDBRANCH   1  11
TORSDOF 4
ENDMDL
MODEL 2
REMARK VINA RESULT:    -7.812      1.007      1.935
REMARK INTER + INTRA:         -10.237
REMARK INTER:                  -9.766
REMARK INTRA:                  -0.471
REMARK UNBOUND:                -0.598
REMARK SMILES CC(C)=CCC[C@@H](C)c1ccc(C)cc1
REMARK SMILES IDX 6 1 7 2 8 3 9 4 13 5 12 6 11 7 14 8 10 9 15 10 5 11 4 12
REMARK SMILES IDX 2 13 1 14 3 15
REMARK H PARENT
REMARK Flexibility Score: inf
ROOT
ATOM      1  C   UNL     1      20.228  -4.442  35.226  1.00  0.00     0.012 C 
ENDROOT
BRANCH   1   2
ATOM      2  C   UNL     1      19.737  -4.937  33.845  1.00  0.00     0.016 C 
ATOM      3  C   UNL     1      18.792  -6.135  34.004  1.00  0.00     0.013 C 
BRANCH   2   4
ATOM      4  C   UNL     1      19.067  -3.834  33.045  1.00  0.00    -0.045 A 
ATOM      5  C   UNL     1      17.119  -0.714  30.780  1.00  0.00     0.044 C 
ATOM      6  C   UNL     1      17.789  -1.817  31.545  1.00  0.00    -0.051 A 
ATOM      7  C   UNL     1      17.071  -2.554  32.497  1.00  0.00     0.004 A 
ATOM      8  C   UNL     1      19.155  -2.076  31.362  1.00  0.00     0.004 A 
ATOM      9  C   UNL     1      17.702  -3.559  33.237  1.00  0.00     0.004 A 
ATOM     10  C   UNL     1      19.787  -3.080  32.100  1.00  0.00     0.004 A 
ENDBRANCH   2   4
ENDBRANCH   1   2
BRANCH   1  11
ATOM     11  C   UNL     1      20.050  -5.477  36.352  1.00  0.00     0.028 C 
BRANCH  11  12
ATOM     12  C   UNL     1      21.366  -5.875  36.978  1.00  0.00    -0.028 C 
ATOM     13  C   UNL     1      21.487  -6.651  38.078  1.00  0.00    -0.080 C 
ATOM     14  C   UNL     1      20.288  -7.137  38.854  1.00  0.00     0.039 C 
ATOM     15  C   UNL     1      22.857  -6.998  38.601  1.00  0.00     0.039 C 
ENDBRANCH  11  12
ENDBRANCH   1  11
TORSDOF 4
ENDMDL
MODEL 3
REMARK VINA RESULT:    -7.396      1.198      7.358
REMARK INTER + INTRA:          -9.724
REMARK INTER:                  -9.266
REMARK INTRA:                  -0.458
REMARK UNBOUND:                -0.598
REMARK SMILES CC(C)=CCC[C@@H](C)c1ccc(C)cc1
REMARK SMILES IDX 6 1 7 2 8 3 9 4 13 5 12 6 11 7 14 8 10 9 15 10 5 11 4 12
REMARK SMILES IDX 2 13 1 14 3 15
REMARK H PARENT
REMARK Flexibility Score: inf
ROOT
ATOM      1  C   UNL     1      19.887  -3.900  35.065  1.00  0.00     0.012 C 
ENDROOT
BRANCH   1   2
ATOM      2  C   UNL     1      19.319  -5.229  35.615  1.00  0.00     0.016 C 
ATOM      3  C   UNL     1      19.131  -6.247  34.482  1.00  0.00     0.013 C 
BRANCH   2   4
ATOM      4  C   UNL     1      20.187  -5.812  36.716  1.00  0.00    -0.045 A 
ATOM      5  C   UNL     1      22.694  -7.469  39.819  1.00  0.00     0.044 C 
ATOM      6  C   UNL     1      21.824  -6.920  38.727  1.00  0.00    -0.051 A 
ATOM      7  C   UNL     1      22.397  -6.250  37.637  1.00  0.00     0.004 A 
ATOM      8  C   UNL     1      20.428  -7.014  38.820  1.00  0.00     0.004 A 
ATOM      9  C   UNL     1      21.586  -5.706  36.636  1.00  0.00     0.004 A 
ATOM     10  C   UNL     1      19.616  -6.471  37.821  1.00  0.00     0.004 A 
ENDBRANCH   2   4
ENDBRANCH   1   2
BRANCH   1  11
ATOM     11  C   UNL     1      19.740  -3.750  33.539  1.00  0.00     0.028 C 
BRANCH  11  12
ATOM     12  C   UNL     1      18.496  -2.982  33.157  1.00  0.00    -0.028 C 
ATOM     13  C   UNL     1      18.357  -2.269  32.017  1.00  0.00    -0.080 C 
ATOM     14  C   UNL     1      19.488  -2.098  31.033  1.00  0.00     0.039 C 
ATOM     15  C   UNL     1      17.058  -1.558  31.734  1.00  0.00     0.039 C 
ENDBRANCH  11  12
ENDBRANCH   1  11
TORSDOF 4
ENDMDL
MODEL 4
REMARK VINA RESULT:    -7.340      2.999      6.597
REMARK INTER + INTRA:          -9.655
REMARK INTER:                  -9.170
REMARK INTRA:                  -0.485
REMARK UNBOUND:                -0.598
REMARK SMILES CC(C)=CCC[C@@H](C)c1ccc(C)cc1
REMARK SMILES IDX 6 1 7 2 8 3 9 4 13 5 12 6 11 7 14 8 10 9 15 10 5 11 4 12
REMARK SMILES IDX 2 13 1 14 3 15
REMARK H PARENT
REMARK Flexibility Score: inf
ROOT
ATOM      1  C   UNL     1      20.379  -1.014  30.388  1.00  0.00     0.012 C 
ENDROOT
BRANCH   1   2
ATOM      2  C   UNL     1      19.088  -1.116  31.234  1.00  0.00     0.016 C 
ATOM      3  C   UNL     1      17.846  -1.041  30.336  1.00  0.00     0.013 C 
BRANCH   2   4
ATOM      4  C   UNL     1      19.056  -2.376  32.082  1.00  0.00    -0.045 A 
ATOM      5  C   UNL     1      19.010  -5.971  34.476  1.00  0.00     0.044 C 
ATOM      6  C   UNL     1      19.022  -4.739  33.620  1.00  0.00    -0.051 A 
ATOM      7  C   UNL     1      20.231  -4.240  33.116  1.00  0.00     0.004 A 
ATOM      8  C   UNL     1      17.832  -4.039  33.372  1.00  0.00     0.004 A 
ATOM      9  C   UNL     1      20.248  -3.072  32.347  1.00  0.00     0.004 A 
ATOM     10  C   UNL     1      17.848  -2.871  32.604  1.00  0.00     0.004 A 
ENDBRANCH   2   4
ENDBRANCH   1   2
BRANCH   1  11
ATOM     11  C   UNL     1      21.068   0.360  30.478  1.00  0.00     0.028 C 
BRANCH  11  12
ATOM     12  C   UNL     1      22.574   0.252  30.405  1.00  0.00    -0.028 C 
ATOM     13  C   UNL     1      23.419   1.307  30.425  1.00  0.00    -0.080 C 
ATOM     14  C   UNL     1      22.925   2.732  30.437  1.00  0.00     0.039 C 
ATOM     15  C   UNL     1      24.907   1.073  30.366  1.00  0.00     0.039 C 
ENDBRANCH  11  12
ENDBRANCH   1  11
TORSDOF 4
ENDMDL
MODEL 5
REMARK VINA RESULT:    -6.493      1.502      7.524
REMARK INTER + INTRA:          -8.610
REMARK INTER:                  -7.907
REMARK INTRA:                  -0.703
REMARK UNBOUND:                -0.598
REMARK SMILES CC(C)=CCC[C@@H](C)c1ccc(C)cc1
REMARK SMILES IDX 6 1 7 2 8 3 9 4 13 5 12 6 11 7 14 8 10 9 15 10 5 11 4 12
REMARK SMILES IDX 2 13 1 14 3 15
REMARK H PARENT
REMARK Flexibility Score: inf
ROOT
ATOM      1  C   UNL     1      19.135  -5.884  35.522  1.00  0.00     0.012 C 
ENDROOT
BRANCH   1   2
ATOM      2  C   UNL     1      20.586  -5.422  35.791  1.00  0.00     0.016 C 
ATOM      3  C   UNL     1      20.666  -3.890  35.837  1.00  0.00     0.013 C 
BRANCH   2   4
ATOM      4  C   UNL     1      21.153  -6.023  37.065  1.00  0.00    -0.045 A 
ATOM      5  C   UNL     1      22.809  -7.736  40.668  1.00  0.00     0.044 C 
ATOM      6  C   UNL     1      22.237  -7.168  39.403  1.00  0.00    -0.051 A 
ATOM      7  C   UNL     1      23.076  -6.563  38.457  1.00  0.00     0.004 A 
ATOM      8  C   UNL     1      20.851  -7.176  39.188  1.00  0.00     0.004 A 
ATOM      9  C   UNL     1      22.540  -6.002  37.294  1.00  0.00     0.004 A 
ATOM     10  C   UNL     1      20.314  -6.615  38.026  1.00  0.00     0.004 A 
ENDBRANCH   2   4
ENDBRANCH   1   2
BRANCH   1  11
ATOM     11  C   UNL     1      18.733  -5.825  34.037  1.00  0.00     0.028 C 
BRANCH  11  12
ATOM     12  C   UNL     1      17.887  -4.613  33.721  1.00  0.00    -0.028 C 
ATOM     13  C   UNL     1      18.270  -3.603  32.908  1.00  0.00    -0.080 C 
ATOM     14  C   UNL     1      19.645  -3.547  32.289  1.00  0.00     0.039 C 
ATOM     15  C   UNL     1      17.330  -2.453  32.651  1.00  0.00     0.039 C 
ENDBRANCH  11  12
ENDBRANCH   1  11
TORSDOF 4
ENDMDL
MODEL 6
REMARK VINA RESULT:    -6.415     13.435     16.303
REMARK INTER + INTRA:          -8.513
REMARK INTER:                  -7.377
REMARK INTRA:                  -1.137
REMARK UNBOUND:                -0.598
REMARK SMILES CC(C)=CCC[C@@H](C)c1ccc(C)cc1
REMARK SMILES IDX 6 1 7 2 8 3 9 4 13 5 12 6 11 7 14 8 10 9 15 10 5 11 4 12
REMARK SMILES IDX 2 13 1 14 3 15
REMARK H PARENT
REMARK Flexibility Score: inf
ROOT
ATOM      1  C   UNL     1      10.580 -11.143  43.366  1.00  0.00     0.012 C 
ENDROOT
BRANCH   1   2
ATOM      2  C   UNL     1      10.310 -10.303  44.637  1.00  0.00     0.016 C 
ATOM      3  C   UNL     1      11.344  -9.178  44.773  1.00  0.00     0.013 C 
BRANCH   2   4
ATOM      4  C   UNL     1       8.901  -9.737  44.661  1.00  0.00    -0.045 A 
ATOM      5  C   UNL     1       4.876  -8.170  44.729  1.00  0.00     0.044 C 
ATOM      6  C   UNL     1       6.270  -8.723  44.677  1.00  0.00    -0.051 A 
ATOM      7  C   UNL     1       6.522 -10.043  45.075  1.00  0.00     0.004 A 
ATOM      8  C   UNL     1       7.341  -7.903  44.293  1.00  0.00     0.004 A 
ATOM      9  C   UNL     1       7.826 -10.549  45.061  1.00  0.00     0.004 A 
ATOM     10  C   UNL     1       8.645  -8.407  44.279  1.00  0.00     0.004 A 
ENDBRANCH   2   4
ENDBRANCH   1   2
BRANCH   1  11
ATOM     11  C   UNL     1      10.834 -10.293  42.107  1.00  0.00     0.028 C 
BRANCH  11  12
ATOM     12  C   UNL     1       9.725 -10.431  41.090  1.00  0.00    -0.028 C 
ATOM     13  C   UNL     1       9.086  -9.390  40.511  1.00  0.00    -0.080 C 
ATOM     14  C   UNL     1       9.367  -7.959  40.895  1.00  0.00     0.039 C 
ATOM     15  C   UNL     1       8.005  -9.651  39.492  1.00  0.00     0.039 C 
ENDBRANCH  11  12
ENDBRANCH   1  11
TORSDOF 4
ENDMDL
MODEL 7
REMARK VINA RESULT:    -6.291     12.558     15.907
REMARK INTER + INTRA:          -8.360
REMARK INTER:                  -6.799
REMARK INTRA:                  -1.561
REMARK UNBOUND:                -0.598
REMARK SMILES CC(C)=CCC[C@@H](C)c1ccc(C)cc1
REMARK SMILES IDX 6 1 7 2 8 3 9 4 13 5 12 6 11 7 14 8 10 9 15 10 5 11 4 12
REMARK SMILES IDX 2 13 1 14 3 15
REMARK H PARENT
REMARK Flexibility Score: inf
ROOT
ATOM      1  C   UNL     1       7.350  -8.543  44.634  1.00  0.00     0.012 C 
ENDROOT
BRANCH   1   2
ATOM      2  C   UNL     1       8.001  -9.890  45.029  1.00  0.00     0.016 C 
ATOM      3  C   UNL     1       7.193 -11.067  44.467  1.00  0.00     0.013 C 
BRANCH   2   4
ATOM      4  C   UNL     1       9.450  -9.978  44.583  1.00  0.00    -0.045 A 
ATOM      5  C   UNL     1      13.577 -10.181  43.322  1.00  0.00     0.044 C 
ATOM      6  C   UNL     1      12.137 -10.097  43.734  1.00  0.00    -0.051 A 
ATOM      7  C   UNL     1      11.674  -8.995  44.467  1.00  0.00     0.004 A 
ATOM      8  C   UNL     1      11.257 -11.152  43.448  1.00  0.00     0.004 A 
ATOM      9  C   UNL     1      10.340  -8.932  44.882  1.00  0.00     0.004 A 
ATOM     10  C   UNL     1       9.924 -11.090  43.863  1.00  0.00     0.004 A 
ENDBRANCH   2   4
ENDBRANCH   1   2
BRANCH   1  11
ATOM     11  C   UNL     1       7.176  -8.363  43.115  1.00  0.00     0.028 C 
BRANCH  11  12
ATOM     12  C   UNL     1       8.073  -7.280  42.561  1.00  0.00    -0.028 C 
ATOM     13  C   UNL     1       8.998  -7.473  41.594  1.00  0.00    -0.080 C 
ATOM     14  C   UNL     1       9.290  -8.837  41.021  1.00  0.00     0.039 C 
ATOM     15  C   UNL     1       9.822  -6.309  41.107  1.00  0.00     0.039 C 
ENDBRANCH  11  12
ENDBRANCH   1  11
TORSDOF 4
ENDMDL
MODEL 8
REMARK VINA RESULT:    -6.125     13.337     15.003
REMARK INTER + INTRA:          -8.156
REMARK INTER:                  -6.630
REMARK INTRA:                  -1.525
REMARK UNBOUND:                -0.598
REMARK SMILES CC(C)=CCC[C@@H](C)c1ccc(C)cc1
REMARK SMILES IDX 6 1 7 2 8 3 9 4 13 5 12 6 11 7 14 8 10 9 15 10 5 11 4 12
REMARK SMILES IDX 2 13 1 14 3 15
REMARK H PARENT
REMARK Flexibility Score: inf
ROOT
ATOM      1  C   UNL     1      11.824  -8.923  43.766  1.00  0.00     0.012 C 
ENDROOT
BRANCH   1   2
ATOM      2  C   UNL     1      11.926 -10.141  42.818  1.00  0.00     0.016 C 
ATOM      3  C   UNL     1      12.071 -11.441  43.620  1.00  0.00     0.013 C 
BRANCH   2   4
ATOM      4  C   UNL     1      10.743 -10.230  41.870  1.00  0.00    -0.045 A 
ATOM      5  C   UNL     1       7.372 -10.437  39.176  1.00  0.00     0.044 C 
ATOM      6  C   UNL     1       8.524 -10.359  40.134  1.00  0.00    -0.051 A 
ATOM      7  C   UNL     1       9.203  -9.148  40.326  1.00  0.00     0.004 A 
ATOM      8  C   UNL     1       8.973 -11.512  40.795  1.00  0.00     0.004 A 
ATOM      9  C   UNL     1      10.299  -9.082  41.192  1.00  0.00     0.004 A 
ATOM     10  C   UNL     1      10.068 -11.447  41.661  1.00  0.00     0.004 A 
ENDBRANCH   2   4
ENDBRANCH   1   2
BRANCH   1  11
ATOM     11  C   UNL     1      10.833  -9.126  44.927  1.00  0.00     0.028 C 
BRANCH  11  12
ATOM     12  C   UNL     1       9.476  -8.529  44.633  1.00  0.00    -0.028 C 
ATOM     13  C   UNL     1       8.317  -9.226  44.634  1.00  0.00    -0.080 C 
ATOM     14  C   UNL     1       8.277 -10.718  44.852  1.00  0.00     0.039 C 
ATOM     15  C   UNL     1       7.019  -8.517  44.344  1.00  0.00     0.039 C 
ENDBRANCH  11  12
ENDBRANCH   1  11
TORSDOF 4
ENDMDL
