MODEL 1
REMARK VINA RESULT:    -3.823      0.000      0.000
REMARK INTER + INTRA:          -5.613
REMARK INTER:                  -5.388
REMARK INTRA:                  -0.225
REMARK UNBOUND:                -0.225
REMARK SMILES CCCCCCCCC(=O)[O-]
REMARK SMILES IDX 6 1 7 2 8 3 9 4 10 5 11 6 5 7 4 8 3 9 2 10 1 11
REMARK H PARENT
REMARK Flexibility Score: inf
ROOT
ATOM      1  C   UNL     1       5.615  -3.375  -7.136  1.00  0.00     0.000 C 
ENDROOT
BRANCH   1   2
ATOM      2  C   UNL     1       6.225  -2.752  -8.404  1.00  0.00     0.006 C 
BRANCH   2   3
ATOM      3  C   UNL     1       7.657  -3.234  -8.669  1.00  0.00     0.053 C 
BRANCH   3   4
ATOM      4  C   UNL     1       8.625  -2.106  -8.507  1.00  0.00     0.041 C 
ATOM      5  O   UNL     1       8.307  -0.941  -8.862  1.00  0.00    -0.550 OA
ATOM      6  O   UNL     1       9.863  -2.331  -7.917  1.00  0.00    -0.550 OA
ENDBRANCH   3   4
ENDBRANCH   2   3
ENDBRANCH   1   2
BRANCH   1   7
ATOM      7  C   UNL     1       4.401  -4.268  -7.443  1.00  0.00     0.000 C 
BRANCH   7   8
ATOM      8  C   UNL     1       3.169  -3.901  -6.598  1.00  0.00    -0.000 C 
BRANCH   8   9
ATOM      9  C   UNL     1       3.546  -3.356  -5.208  1.00  0.00    -0.000 C 
BRANCH   9  10
ATOM     10  C   UNL     1       2.363  -2.673  -4.505  1.00  0.00    -0.003 C 
ATOM     11  C   UNL     1       2.433  -2.782  -2.982  1.00  0.00     0.004 C 
ENDBRANCH   9  10
ENDBRANCH   8   9
ENDBRANCH   7   8
ENDBRANCH   1   7
TORSDOF 7
ENDMDL
MODEL 2
REMARK VINA RESULT:    -3.744      3.505      5.132
REMARK INTER + INTRA:          -5.502
REMARK INTER:                  -4.703
REMARK INTRA:                  -0.799
REMARK UNBOUND:                -0.225
REMARK SMILES CCCCCCCCC(=O)[O-]
REMARK SMILES IDX 6 1 7 2 8 3 9 4 10 5 11 6 5 7 4 8 3 9 2 10 1 11
REMARK H PARENT
REMARK Flexibility Score: inf
ROOT
ATOM      1  C   UNL     1       6.231  -3.373  -8.563  1.00  0.00     0.000 C 
ENDROOT
BRANCH   1   2
ATOM      2  C   UNL     1       4.822  -3.019  -8.059  1.00  0.00     0.006 C 
BRANCH   2   3
ATOM      3  C   UNL     1       3.925  -4.253  -7.894  1.00  0.00     0.053 C 
BRANCH   3   4
ATOM      4  C   UNL     1       3.200  -4.199  -6.586  1.00  0.00     0.041 C 
ATOM      5  O   UNL     1       3.802  -3.835  -5.542  1.00  0.00    -0.550 OA
ATOM      6  O   UNL     1       1.846  -4.505  -6.529  1.00  0.00    -0.550 OA
ENDBRANCH   3   4
ENDBRANCH   2   3
ENDBRANCH   1   2
BRANCH   1   7
ATOM      7  C   UNL     1       7.341  -2.757  -7.695  1.00  0.00     0.000 C 
BRANCH   7   8
ATOM      8  C   UNL     1       7.484  -3.458  -6.334  1.00  0.00    -0.000 C 
BRANCH   8   9
ATOM      9  C   UNL     1       7.632  -4.984  -6.467  1.00  0.00    -0.000 C 
BRANCH   9  10
ATOM     10  C   UNL     1       6.619  -5.750  -5.602  1.00  0.00    -0.003 C 
ATOM     11  C   UNL     1       6.062  -6.993  -6.298  1.00  0.00     0.004 C 
ENDBRANCH   9  10
ENDBRANCH   8   9
ENDBRANCH   7   8
ENDBRANCH   1   7
TORSDOF 7
ENDMDL
MODEL 3
REMARK VINA RESULT:    -3.720      1.087      1.339
REMARK INTER + INTRA:          -5.467
REMARK INTER:                  -5.286
REMARK INTRA:                  -0.180
REMARK UNBOUND:                -0.225
REMARK SMILES CCCCCCCCC(=O)[O-]
REMARK SMILES IDX 6 1 7 2 8 3 9 4 10 5 11 6 5 7 4 8 3 9 2 10 1 11
REMARK H PARENT
REMARK Flexibility Score: inf
ROOT
ATOM      1  C   UNL     1       5.251  -2.999  -7.600  1.00  0.00     0.000 C 
ENDROOT
BRANCH   1   2
ATOM      2  C   UNL     1       6.683  -3.450  -7.932  1.00  0.00     0.006 C 
BRANCH   2   3
ATOM      3  C   UNL     1       7.750  -2.552  -7.293  1.00  0.00     0.053 C 
BRANCH   3   4
ATOM      4  C   UNL     1       9.101  -3.184  -7.408  1.00  0.00     0.041 C 
ATOM      5  O   UNL     1      10.094  -2.498  -7.765  1.00  0.00    -0.550 OA
ATOM      6  O   UNL     1       9.273  -4.522  -7.073  1.00  0.00    -0.550 OA
ENDBRANCH   3   4
ENDBRANCH   2   3
ENDBRANCH   1   2
BRANCH   1   7
ATOM      7  C   UNL     1       4.368  -4.155  -7.102  1.00  0.00     0.000 C 
BRANCH   7   8
ATOM      8  C   UNL     1       3.122  -3.664  -6.346  1.00  0.00    -0.000 C 
BRANCH   8   9
ATOM      9  C   UNL     1       3.405  -3.378  -4.860  1.00  0.00    -0.000 C 
BRANCH   9  10
ATOM     10  C   UNL     1       2.233  -2.667  -4.165  1.00  0.00    -0.003 C 
ATOM     11  C   UNL     1       2.366  -2.652  -2.643  1.00  0.00     0.004 C 
ENDBRANCH   9  10
ENDBRANCH   8   9
ENDBRANCH   7   8
ENDBRANCH   1   7
TORSDOF 7
ENDMDL
MODEL 4
REMARK VINA RESULT:    -3.707      1.875      2.837
REMARK INTER + INTRA:          -5.449
REMARK INTER:                  -4.855
REMARK INTRA:                  -0.594
REMARK UNBOUND:                -0.225
REMARK SMILES CCCCCCCCC(=O)[O-]
REMARK SMILES IDX 6 1 7 2 8 3 9 4 10 5 11 6 5 7 4 8 3 9 2 10 1 11
REMARK H PARENT
REMARK Flexibility Score: inf
ROOT
ATOM      1  C   UNL     1       6.863  -4.570  -6.560  1.00  0.00     0.000 C 
ENDROOT
BRANCH   1   2
ATOM      2  C   UNL     1       7.431  -3.171  -6.854  1.00  0.00     0.006 C 
BRANCH   2   3
ATOM      3  C   UNL     1       7.686  -2.937  -8.348  1.00  0.00     0.053 C 
BRANCH   3   4
ATOM      4  C   UNL     1       8.722  -1.874  -8.540  1.00  0.00     0.041 C 
ATOM      5  O   UNL     1       8.390  -0.732  -8.949  1.00  0.00    -0.550 OA
ATOM      6  O   UNL     1      10.049  -2.132  -8.219  1.00  0.00    -0.550 OA
ENDBRANCH   3   4
ENDBRANCH   2   3
ENDBRANCH   1   2
BRANCH   1   7
ATOM      7  C   UNL     1       5.490  -4.516  -5.869  1.00  0.00     0.000 C 
BRANCH   7   8
ATOM      8  C   UNL     1       4.451  -3.724  -6.680  1.00  0.00    -0.000 C 
BRANCH   8   9
ATOM      9  C   UNL     1       3.531  -4.634  -7.514  1.00  0.00    -0.000 C 
BRANCH   9  10
ATOM     10  C   UNL     1       3.654  -4.369  -9.023  1.00  0.00    -0.003 C 
ATOM     11  C   UNL     1       4.148  -2.959  -9.340  1.00  0.00     0.004 C 
ENDBRANCH   9  10
ENDBRANCH   8   9
ENDBRANCH   7   8
ENDBRANCH   1   7
TORSDOF 7
ENDMDL
MODEL 5
REMARK VINA RESULT:    -3.680      1.835      2.469
REMARK INTER + INTRA:          -5.411
REMARK INTER:                  -4.748
REMARK INTRA:                  -0.663
REMARK UNBOUND:                -0.225
REMARK SMILES CCCCCCCCC(=O)[O-]
REMARK SMILES IDX 6 1 7 2 8 3 9 4 10 5 11 6 5 7 4 8 3 9 2 10 1 11
REMARK H PARENT
REMARK Flexibility Score: inf
ROOT
ATOM      1  C   UNL     1       4.981  -2.577  -8.533  1.00  0.00     0.000 C 
ENDROOT
BRANCH   1   2
ATOM      2  C   UNL     1       6.365  -2.645  -9.200  1.00  0.00     0.006 C 
BRANCH   2   3
ATOM      3  C   UNL     1       7.513  -2.647  -8.182  1.00  0.00     0.053 C 
BRANCH   3   4
ATOM      4  C   UNL     1       8.586  -1.695  -8.604  1.00  0.00     0.041 C 
ATOM      5  O   UNL     1       8.288  -0.622  -9.191  1.00  0.00    -0.550 OA
ATOM      6  O   UNL     1       9.916  -1.970  -8.307  1.00  0.00    -0.550 OA
ENDBRANCH   3   4
ENDBRANCH   2   3
ENDBRANCH   1   2
BRANCH   1   7
ATOM      7  C   UNL     1       4.134  -3.832  -8.802  1.00  0.00     0.000 C 
BRANCH   7   8
ATOM      8  C   UNL     1       4.037  -4.753  -7.574  1.00  0.00    -0.000 C 
BRANCH   8   9
ATOM      9  C   UNL     1       4.584  -4.094  -6.295  1.00  0.00    -0.000 C 
BRANCH   9  10
ATOM     10  C   UNL     1       5.827  -4.813  -5.749  1.00  0.00    -0.003 C 
ATOM     11  C   UNL     1       6.086  -6.155  -6.433  1.00  0.00     0.004 C 
ENDBRANCH   9  10
ENDBRANCH   8   9
ENDBRANCH   7   8
ENDBRANCH   1   7
TORSDOF 7
ENDMDL
MODEL 6
REMARK VINA RESULT:    -3.660      3.462      4.693
REMARK INTER + INTRA:          -5.383
REMARK INTER:                  -4.617
REMARK INTRA:                  -0.765
REMARK UNBOUND:                -0.225
REMARK SMILES CCCCCCCCC(=O)[O-]
REMARK SMILES IDX 6 1 7 2 8 3 9 4 10 5 11 6 5 7 4 8 3 9 2 10 1 11
REMARK H PARENT
REMARK Flexibility Score: inf
ROOT
ATOM      1  C   UNL     1       8.308  -4.030  -6.912  1.00  0.00     0.000 C 
ENDROOT
BRANCH   1   2
ATOM      2  C   UNL     1       7.716  -5.403  -7.273  1.00  0.00     0.006 C 
BRANCH   2   3
ATOM      3  C   UNL     1       7.692  -6.369  -6.083  1.00  0.00     0.053 C 
BRANCH   3   4
ATOM      4  C   UNL     1       6.291  -6.560  -5.594  1.00  0.00     0.041 C 
ATOM      5  O   UNL     1       5.773  -5.722  -4.811  1.00  0.00    -0.550 OA
ATOM      6  O   UNL     1       5.538  -7.639  -6.043  1.00  0.00    -0.550 OA
ENDBRANCH   3   4
ENDBRANCH   2   3
ENDBRANCH   1   2
BRANCH   1   7
ATOM      7  C   UNL     1       7.265  -2.901  -6.978  1.00  0.00     0.000 C 
BRANCH   7   8
ATOM      8  C   UNL     1       6.628  -2.768  -8.372  1.00  0.00    -0.000 C 
BRANCH   8   9
ATOM      9  C   UNL     1       5.094  -2.643  -8.312  1.00  0.00    -0.000 C 
BRANCH   9  10
ATOM     10  C   UNL     1       4.487  -3.424  -7.136  1.00  0.00    -0.003 C 
ATOM     11  C   UNL     1       3.734  -4.678  -7.581  1.00  0.00     0.004 C 
ENDBRANCH   9  10
ENDBRANCH   8   9
ENDBRANCH   7   8
ENDBRANCH   1   7
TORSDOF 7
ENDMDL
MODEL 7
REMARK VINA RESULT:    -3.660      3.660      5.114
REMARK INTER + INTRA:          -5.382
REMARK INTER:                  -4.546
REMARK INTRA:                  -0.837
REMARK UNBOUND:                -0.225
REMARK SMILES CCCCCCCCC(=O)[O-]
REMARK SMILES IDX 6 1 7 2 8 3 9 4 10 5 11 6 5 7 4 8 3 9 2 10 1 11
REMARK H PARENT
REMARK Flexibility Score: inf
ROOT
ATOM      1  C   UNL     1       4.304  -3.337  -6.960  1.00  0.00     0.000 C 
ENDROOT
BRANCH   1   2
ATOM      2  C   UNL     1       3.287  -4.440  -7.300  1.00  0.00     0.006 C 
BRANCH   2   3
ATOM      3  C   UNL     1       3.689  -5.254  -8.536  1.00  0.00     0.053 C 
BRANCH   3   4
ATOM      4  C   UNL     1       4.107  -6.634  -8.138  1.00  0.00     0.041 C 
ATOM      5  O   UNL     1       5.239  -7.074  -8.470  1.00  0.00    -0.550 OA
ATOM      6  O   UNL     1       3.267  -7.417  -7.356  1.00  0.00    -0.550 OA
ENDBRANCH   3   4
ENDBRANCH   2   3
ENDBRANCH   1   2
BRANCH   1   7
ATOM      7  C   UNL     1       5.245  -3.019  -8.134  1.00  0.00     0.000 C 
BRANCH   7   8
ATOM      8  C   UNL     1       6.711  -3.369  -7.827  1.00  0.00    -0.000 C 
BRANCH   8   9
ATOM      9  C   UNL     1       6.933  -3.745  -6.351  1.00  0.00    -0.000 C 
BRANCH   9  10
ATOM     10  C   UNL     1       7.348  -5.214  -6.176  1.00  0.00    -0.003 C 
ATOM     11  C   UNL     1       6.386  -6.002  -5.287  1.00  0.00     0.004 C 
ENDBRANCH   9  10
ENDBRANCH   8   9
ENDBRANCH   7   8
ENDBRANCH   1   7
TORSDOF 7
ENDMDL
MODEL 8
REMARK VINA RESULT:    -3.660      3.617      5.115
REMARK INTER + INTRA:          -5.382
REMARK INTER:                  -4.610
REMARK INTRA:                  -0.773
REMARK UNBOUND:                -0.225
REMARK SMILES CCCCCCCCC(=O)[O-]
REMARK SMILES IDX 6 1 7 2 8 3 9 4 10 5 11 6 5 7 4 8 3 9 2 10 1 11
REMARK H PARENT
REMARK Flexibility Score: inf
ROOT
ATOM      1  C   UNL     1       7.182  -2.844  -7.255  1.00  0.00     0.000 C 
ENDROOT
BRANCH   1   2
ATOM      2  C   UNL     1       6.030  -3.564  -7.977  1.00  0.00     0.006 C 
BRANCH   2   3
ATOM      3  C   UNL     1       4.651  -3.036  -7.565  1.00  0.00     0.053 C 
BRANCH   3   4
ATOM      4  C   UNL     1       3.983  -3.994  -6.631  1.00  0.00     0.041 C 
ATOM      5  O   UNL     1       4.379  -4.101  -5.441  1.00  0.00    -0.550 OA
ATOM      6  O   UNL     1       2.889  -4.736  -7.060  1.00  0.00    -0.550 OA
ENDBRANCH   3   4
ENDBRANCH   2   3
ENDBRANCH   1   2
BRANCH   1   7
ATOM      7  C   UNL     1       7.995  -3.788  -6.353  1.00  0.00     0.000 C 
BRANCH   7   8
ATOM      8  C   UNL     1       8.187  -5.180  -6.977  1.00  0.00    -0.000 C 
BRANCH   8   9
ATOM      9  C   UNL     1       8.129  -6.310  -5.932  1.00  0.00    -0.000 C 
BRANCH   9  10
ATOM     10  C   UNL     1       6.688  -6.699  -5.567  1.00  0.00    -0.003 C 
ATOM     11  C   UNL     1       5.873  -7.162  -6.774  1.00  0.00     0.004 C 
ENDBRANCH   9  10
ENDBRANCH   8   9
ENDBRANCH   7   8
ENDBRANCH   1   7
TORSDOF 7
ENDMDL
MODEL 9
REMARK VINA RESULT:    -3.656      3.140      5.292
REMARK INTER + INTRA:          -5.377
REMARK INTER:                  -4.608
REMARK INTRA:                  -0.769
REMARK UNBOUND:                -0.225
REMARK SMILES CCCCCCCCC(=O)[O-]
REMARK SMILES IDX 6 1 7 2 8 3 9 4 10 5 11 6 5 7 4 8 3 9 2 10 1 11
REMARK H PARENT
REMARK Flexibility Score: inf
ROOT
ATOM      1  C   UNL     1       6.024  -2.427  -9.549  1.00  0.00     0.000 C 
ENDROOT
BRANCH   1   2
ATOM      2  C   UNL     1       5.302  -3.511  -8.730  1.00  0.00     0.006 C 
BRANCH   2   3
ATOM      3  C   UNL     1       4.626  -2.950  -7.472  1.00  0.00     0.053 C 
BRANCH   3   4
ATOM      4  C   UNL     1       4.083  -4.063  -6.633  1.00  0.00     0.041 C 
ATOM      5  O   UNL     1       4.673  -4.405  -5.575  1.00  0.00    -0.550 OA
ATOM      6  O   UNL     1       2.897  -4.691  -6.993  1.00  0.00    -0.550 OA
ENDBRANCH   3   4
ENDBRANCH   2   3
ENDBRANCH   1   2
BRANCH   1   7
ATOM      7  C   UNL     1       7.553  -2.592  -9.529  1.00  0.00     0.000 C 
BRANCH   7   8
ATOM      8  C   UNL     1       8.191  -2.031  -8.248  1.00  0.00    -0.000 C 
BRANCH   8   9
ATOM      9  C   UNL     1       8.967  -3.099  -7.456  1.00  0.00    -0.000 C 
BRANCH   9  10
ATOM     10  C   UNL     1       8.107  -3.764  -6.369  1.00  0.00    -0.003 C 
ATOM     11  C   UNL     1       7.911  -5.262  -6.599  1.00  0.00     0.004 C 
ENDBRANCH   9  10
ENDBRANCH   8   9
ENDBRANCH   7   8
ENDBRANCH   1   7
TORSDOF 7
ENDMDL
