MODEL 1
REMARK VINA RESULT:    -3.709      0.000      0.000
REMARK INTER + INTRA:          -3.709
REMARK INTER:                  -3.709
REMARK INTRA:                   0.000
REMARK UNBOUND:                 0.000
REMARK SMILES c1cc[nH]c1
REMARK SMILES IDX 1 1 5 2 4 3 3 4 2 5
REMARK H PARENT 4 6
REMARK Flexibility Score: inf
ROOT
ATOM      1  C   UNL     1       6.791   6.085  13.282  1.00  0.00     0.019 A 
ATOM      2  C   UNL     1       7.826   6.257  12.386  1.00  0.00     0.082 A 
ATOM      3  N   UNL     1       8.555   7.334  12.727  1.00  0.00    -0.368 N 
ATOM      4  C   UNL     1       7.996   7.857  13.833  1.00  0.00     0.082 A 
ATOM      5  C   UNL     1       6.899   7.107  14.205  1.00  0.00     0.019 A 
ATOM      6  H   UNL     1       9.397   7.697  12.227  1.00  0.00     0.165 HD
ENDROOT
TORSDOF 0
ENDMDL
MODEL 2
REMARK VINA RESULT:    -3.706      0.021      1.624
REMARK INTER + INTRA:          -3.706
REMARK INTER:                  -3.706
REMARK INTRA:                   0.000
REMARK UNBOUND:                 0.000
REMARK SMILES c1cc[nH]c1
REMARK SMILES IDX 1 1 5 2 4 3 3 4 2 5
REMARK H PARENT 4 6
REMARK Flexibility Score: inf
ROOT
ATOM      1  C   UNL     1       6.910   7.091  14.222  1.00  0.00     0.019 A 
ATOM      2  C   UNL     1       7.996   7.849  13.835  1.00  0.00     0.082 A 
ATOM      3  N   UNL     1       8.548   7.328  12.725  1.00  0.00    -0.368 N 
ATOM      4  C   UNL     1       7.827   6.241  12.396  1.00  0.00     0.082 A 
ATOM      5  C   UNL     1       6.802   6.065  13.304  1.00  0.00     0.019 A 
ATOM      6  H   UNL     1       9.381   7.697  12.214  1.00  0.00     0.165 HD
ENDROOT
TORSDOF 0
ENDMDL
MODEL 3
REMARK VINA RESULT:    -3.643      1.422      1.759
REMARK INTER + INTRA:          -3.643
REMARK INTER:                  -3.643
REMARK INTRA:                   0.000
REMARK UNBOUND:                 0.000
REMARK SMILES c1cc[nH]c1
REMARK SMILES IDX 1 1 5 2 4 3 3 4 2 5
REMARK H PARENT 4 6
REMARK Flexibility Score: inf
ROOT
ATOM      1  C   UNL     1       7.784   6.355  11.999  1.00  0.00     0.019 A 
ATOM      2  C   UNL     1       7.374   5.224  12.675  1.00  0.00     0.082 A 
ATOM      3  N   UNL     1       6.932   5.556  13.901  1.00  0.00    -0.368 N 
ATOM      4  C   UNL     1       7.056   6.890  14.019  1.00  0.00     0.082 A 
ATOM      5  C   UNL     1       7.582   7.418  12.857  1.00  0.00     0.019 A 
ATOM      6  H   UNL     1       6.563   4.901  14.626  1.00  0.00     0.165 HD
ENDROOT
TORSDOF 0
ENDMDL
MODEL 4
REMARK VINA RESULT:    -3.465      1.766      2.226
REMARK INTER + INTRA:          -3.465
REMARK INTER:                  -3.465
REMARK INTRA:                   0.000
REMARK UNBOUND:                 0.000
REMARK SMILES c1cc[nH]c1
REMARK SMILES IDX 1 1 5 2 4 3 3 4 2 5
REMARK H PARENT 4 6
REMARK Flexibility Score: inf
ROOT
ATOM      1  C   UNL     1       6.581   7.101  12.374  1.00  0.00     0.019 A 
ATOM      2  C   UNL     1       7.750   6.368  12.382  1.00  0.00     0.082 A 
ATOM      3  N   UNL     1       7.496   5.100  12.751  1.00  0.00    -0.368 N 
ATOM      4  C   UNL     1       6.173   5.013  12.981  1.00  0.00     0.082 A 
ATOM      5  C   UNL     1       5.575   6.237  12.757  1.00  0.00     0.019 A 
ATOM      6  H   UNL     1       8.193   4.329  12.842  1.00  0.00     0.165 HD
ENDROOT
TORSDOF 0
ENDMDL
MODEL 5
REMARK VINA RESULT:    -3.213      1.983      2.670
REMARK INTER + INTRA:          -3.213
REMARK INTER:                  -3.213
REMARK INTRA:                   0.000
REMARK UNBOUND:                 0.000
REMARK SMILES c1cc[nH]c1
REMARK SMILES IDX 1 1 5 2 4 3 3 4 2 5
REMARK H PARENT 4 6
REMARK Flexibility Score: inf
ROOT
ATOM      1  C   UNL     1       4.634   5.803  12.429  1.00  0.00     0.019 A 
ATOM      2  C   UNL     1       5.096   7.030  12.859  1.00  0.00     0.082 A 
ATOM      3  N   UNL     1       6.286   6.887  13.468  1.00  0.00    -0.368 N 
ATOM      4  C   UNL     1       6.592   5.577  13.434  1.00  0.00     0.082 A 
ATOM      5  C   UNL     1       5.589   4.875  12.796  1.00  0.00     0.019 A 
ATOM      6  H   UNL     1       6.864   7.648  13.888  1.00  0.00     0.165 HD
ENDROOT
TORSDOF 0
ENDMDL
MODEL 6
REMARK VINA RESULT:    -2.305     10.171     10.494
REMARK INTER + INTRA:          -2.305
REMARK INTER:                  -2.305
REMARK INTRA:                   0.000
REMARK UNBOUND:                 0.000
REMARK SMILES c1cc[nH]c1
REMARK SMILES IDX 1 1 5 2 4 3 3 4 2 5
REMARK H PARENT 4 6
REMARK Flexibility Score: inf
ROOT
ATOM      1  C   UNL     1      12.956  14.835  10.905  1.00  0.00     0.019 A 
ATOM      2  C   UNL     1      12.433  16.096  11.102  1.00  0.00     0.082 A 
ATOM      3  N   UNL     1      12.929  16.628  12.233  1.00  0.00    -0.368 N 
ATOM      4  C   UNL     1      13.764  15.718  12.766  1.00  0.00     0.082 A 
ATOM      5  C   UNL     1      13.805  14.593  11.967  1.00  0.00     0.019 A 
ATOM      6  H   UNL     1      12.707  17.570  12.625  1.00  0.00     0.165 HD
ENDROOT
TORSDOF 0
ENDMDL
MODEL 7
REMARK VINA RESULT:    -1.892     20.430     21.205
REMARK INTER + INTRA:          -1.892
REMARK INTER:                  -1.892
REMARK INTRA:                   0.000
REMARK UNBOUND:                 0.000
REMARK SMILES c1cc[nH]c1
REMARK SMILES IDX 1 1 5 2 4 3 3 4 2 5
REMARK H PARENT 4 6
REMARK Flexibility Score: inf
ROOT
ATOM      1  C   UNL     1      -0.095  18.118  30.900  1.00  0.00     0.019 A 
ATOM      2  C   UNL     1      -0.125  16.756  31.118  1.00  0.00     0.082 A 
ATOM      3  N   UNL     1       0.306  16.105  30.023  1.00  0.00    -0.368 N 
ATOM      4  C   UNL     1       0.611  17.038  29.103  1.00  0.00     0.082 A 
ATOM      5  C   UNL     1       0.375  18.298  29.614  1.00  0.00     0.019 A 
ATOM      6  H   UNL     1       0.388  15.071  29.908  1.00  0.00     0.165 HD
ENDROOT
TORSDOF 0
ENDMDL
MODEL 8
REMARK VINA RESULT:    -1.762     20.877     21.470
REMARK INTER + INTRA:          -1.762
REMARK INTER:                  -1.762
REMARK INTRA:                   0.000
REMARK UNBOUND:                 0.000
REMARK SMILES c1cc[nH]c1
REMARK SMILES IDX 1 1 5 2 4 3 3 4 2 5
REMARK H PARENT 4 6
REMARK Flexibility Score: inf
ROOT
ATOM      1  C   UNL     1       1.001  17.650  29.306  1.00  0.00     0.019 A 
ATOM      2  C   UNL     1       0.545  18.753  29.998  1.00  0.00     0.082 A 
ATOM      3  N   UNL     1      -0.125  18.362  31.097  1.00  0.00    -0.368 N 
ATOM      4  C   UNL     1      -0.104  17.017  31.115  1.00  0.00     0.082 A 
ATOM      5  C   UNL     1       0.587  16.542  30.018  1.00  0.00     0.019 A 
ATOM      6  H   UNL     1      -0.577  18.985  31.802  1.00  0.00     0.165 HD
ENDROOT
TORSDOF 0
ENDMDL
MODEL 9
REMARK VINA RESULT:    -1.646      9.680     10.353
REMARK INTER + INTRA:          -1.646
REMARK INTER:                  -1.646
REMARK INTRA:                   0.000
REMARK UNBOUND:                 0.000
REMARK SMILES c1cc[nH]c1
REMARK SMILES IDX 1 1 5 2 4 3 3 4 2 5
REMARK H PARENT 4 6
REMARK Flexibility Score: inf
ROOT
ATOM      1  C   UNL     1      12.973  16.370  12.049  1.00  0.00     0.019 A 
ATOM      2  C   UNL     1      13.755  15.422  12.676  1.00  0.00     0.082 A 
ATOM      3  N   UNL     1      13.765  14.285  11.957  1.00  0.00    -0.368 N 
ATOM      4  C   UNL     1      12.994  14.494  10.875  1.00  0.00     0.082 A 
ATOM      5  C   UNL     1      12.487  15.778  10.900  1.00  0.00     0.019 A 
ATOM      6  H   UNL     1      14.275  13.406  12.195  1.00  0.00     0.165 HD
ENDROOT
TORSDOF 0
ENDMDL
