MODEL 1
REMARK VINA RESULT:    -3.735      0.000      0.000
REMARK INTER + INTRA:          -8.481
REMARK INTER:                  -6.574
REMARK INTRA:                  -1.907
REMARK UNBOUND:                -1.907
REMARK SMILES CCCCCCCCCCCCCCC(=O)[O-]
REMARK SMILES IDX 9 1 10 2 11 3 12 4 13 5 14 6 15 7 16 8 17 9 8 10 7 11 6 12
REMARK SMILES IDX 5 13 4 14 3 15 2 16 1 17
REMARK H PARENT
REMARK Flexibility Score: inf
ROOT
ATOM      1  C   UNL     1      27.149 -21.177  25.624  1.00  0.00     0.000 C 
ENDROOT
BRANCH   1   2
ATOM      2  C   UNL     1      27.775 -19.813  25.966  1.00  0.00     0.000 C 
BRANCH   2   3
ATOM      3  C   UNL     1      29.303 -19.876  26.105  1.00  0.00     0.000 C 
BRANCH   3   4
ATOM      4  C   UNL     1      29.935 -18.501  25.856  1.00  0.00     0.000 C 
BRANCH   4   5
ATOM      5  C   UNL     1      28.908 -17.519  25.280  1.00  0.00     0.006 C 
BRANCH   5   6
ATOM      6  C   UNL     1      29.599 -16.378  24.530  1.00  0.00     0.053 C 
BRANCH   6   7
ATOM      7  C   UNL     1      28.619 -15.646  23.669  1.00  0.00     0.041 C 
ATOM      8  O   UNL     1      28.008 -14.641  24.119  1.00  0.00    -0.550 OA
ATOM      9  O   UNL     1      28.418 -16.043  22.354  1.00  0.00    -0.550 OA
ENDBRANCH   6   7
ENDBRANCH   5   6
ENDBRANCH   4   5
ENDBRANCH   3   4
ENDBRANCH   2   3
ENDBRANCH   1   2
BRANCH   1  10
ATOM     10  C   UNL     1      27.746 -22.377  26.388  1.00  0.00     0.000 C 
BRANCH  10  11
ATOM     11  C   UNL     1      28.889 -23.114  25.663  1.00  0.00    -0.000 C 
BRANCH  11  12
ATOM     12  C   UNL     1      28.482 -23.827  24.360  1.00  0.00    -0.000 C 
BRANCH  12  13
ATOM     13  C   UNL     1      29.459 -23.556  23.203  1.00  0.00    -0.000 C 
BRANCH  13  14
ATOM     14  C   UNL     1      29.784 -22.060  23.046  1.00  0.00    -0.000 C 
BRANCH  14  15
ATOM     15  C   UNL     1      28.704 -21.302  22.256  1.00  0.00    -0.000 C 
BRANCH  15  16
ATOM     16  C   UNL     1      28.896 -19.778  22.311  1.00  0.00    -0.003 C 
ATOM     17  C   UNL     1      30.353 -19.356  22.122  1.00  0.00     0.004 C 
ENDBRANCH  15  16
ENDBRANCH  14  15
ENDBRANCH  13  14
ENDBRANCH  12  13
ENDBRANCH  11  12
ENDBRANCH  10  11
ENDBRANCH   1  10
TORSDOF 13
ENDMDL
MODEL 2
REMARK VINA RESULT:    -3.732      7.761     12.181
REMARK INTER + INTRA:          -8.475
REMARK INTER:                  -7.209
REMARK INTRA:                  -1.267
REMARK UNBOUND:                -1.907
REMARK SMILES CCCCCCCCCCCCCCC(=O)[O-]
REMARK SMILES IDX 9 1 10 2 11 3 12 4 13 5 14 6 15 7 16 8 17 9 8 10 7 11 6 12
REMARK SMILES IDX 5 13 4 14 3 15 2 16 1 17
REMARK H PARENT
REMARK Flexibility Score: inf
ROOT
ATOM      1  C   UNL     1      32.892 -11.583  18.192  1.00  0.00     0.000 C 
ENDROOT
BRANCH   1   2
ATOM      2  C   UNL     1      31.915 -12.188  19.217  1.00  0.00     0.000 C 
BRANCH   2   3
ATOM      3  C   UNL     1      31.503 -11.190  20.308  1.00  0.00     0.000 C 
BRANCH   3   4
ATOM      4  C   UNL     1      30.366 -11.755  21.169  1.00  0.00     0.000 C 
BRANCH   4   5
ATOM      5  C   UNL     1      30.122 -13.236  20.855  1.00  0.00     0.006 C 
BRANCH   5   6
ATOM      6  C   UNL     1      28.641 -13.500  20.570  1.00  0.00     0.053 C 
BRANCH   6   7
ATOM      7  C   UNL     1      28.037 -14.326  21.661  1.00  0.00     0.041 C 
ATOM      8  O   UNL     1      28.060 -15.583  21.592  1.00  0.00    -0.550 OA
ATOM      9  O   UNL     1      27.491 -13.708  22.779  1.00  0.00    -0.550 OA
ENDBRANCH   6   7
ENDBRANCH   5   6
ENDBRANCH   4   5
ENDBRANCH   3   4
ENDBRANCH   2   3
ENDBRANCH   1   2
BRANCH   1  10
ATOM     10  C   UNL     1      32.796 -10.053  18.027  1.00  0.00     0.000 C 
BRANCH  10  11
ATOM     11  C   UNL     1      32.258  -9.572  16.664  1.00  0.00    -0.000 C 
BRANCH  11  12
ATOM     12  C   UNL     1      32.167  -8.044  16.501  1.00  0.00    -0.000 C 
BRANCH  12  13
ATOM     13  C   UNL     1      31.391  -7.369  17.645  1.00  0.00    -0.000 C 
BRANCH  13  14
ATOM     14  C   UNL     1      32.214  -6.276  18.349  1.00  0.00    -0.000 C 
BRANCH  14  15
ATOM     15  C   UNL     1      32.327  -6.508  19.866  1.00  0.00    -0.000 C 
BRANCH  15  16
ATOM     16  C   UNL     1      31.227  -7.436  20.404  1.00  0.00    -0.003 C 
ATOM     17  C   UNL     1      31.404  -7.769  21.885  1.00  0.00     0.004 C 
ENDBRANCH  15  16
ENDBRANCH  14  15
ENDBRANCH  13  14
ENDBRANCH  12  13
ENDBRANCH  11  12
ENDBRANCH  10  11
ENDBRANCH   1  10
TORSDOF 13
ENDMDL
MODEL 3
REMARK VINA RESULT:    -3.731      1.268      3.384
REMARK INTER + INTRA:          -8.475
REMARK INTER:                  -6.532
REMARK INTRA:                  -1.943
REMARK UNBOUND:                -1.907
REMARK SMILES CCCCCCCCCCCCCCC(=O)[O-]
REMARK SMILES IDX 9 1 10 2 11 3 12 4 13 5 14 6 15 7 16 8 17 9 8 10 7 11 6 12
REMARK SMILES IDX 5 13 4 14 3 15 2 16 1 17
REMARK H PARENT
REMARK Flexibility Score: inf
ROOT
ATOM      1  C   UNL     1      29.391 -22.006  22.894  1.00  0.00     0.000 C 
ENDROOT
BRANCH   1   2
ATOM      2  C   UNL     1      28.817 -20.578  22.875  1.00  0.00     0.000 C 
BRANCH   2   3
ATOM      3  C   UNL     1      29.549 -19.654  21.891  1.00  0.00     0.000 C 
BRANCH   3   4
ATOM      4  C   UNL     1      30.395 -18.616  22.639  1.00  0.00     0.000 C 
BRANCH   4   5
ATOM      5  C   UNL     1      29.520 -17.483  23.186  1.00  0.00     0.006 C 
BRANCH   5   6
ATOM      6  C   UNL     1      29.665 -16.217  22.337  1.00  0.00     0.053 C 
BRANCH   6   7
ATOM      7  C   UNL     1      28.393 -15.928  21.605  1.00  0.00     0.041 C 
ATOM      8  O   UNL     1      27.683 -14.941  21.932  1.00  0.00    -0.550 OA
ATOM      9  O   UNL     1      28.016 -16.720  20.528  1.00  0.00    -0.550 OA
ENDBRANCH   6   7
ENDBRANCH   5   6
ENDBRANCH   4   5
ENDBRANCH   3   4
ENDBRANCH   2   3
ENDBRANCH   1   2
BRANCH   1  10
ATOM     10  C   UNL     1      29.630 -22.594  24.300  1.00  0.00     0.000 C 
BRANCH  10  11
ATOM     11  C   UNL     1      28.355 -23.006  25.064  1.00  0.00    -0.000 C 
BRANCH  11  12
ATOM     12  C   UNL     1      27.986 -22.100  26.253  1.00  0.00    -0.000 C 
BRANCH  12  13
ATOM     13  C   UNL     1      27.044 -20.951  25.855  1.00  0.00    -0.000 C 
BRANCH  13  14
ATOM     14  C   UNL     1      27.627 -19.569  26.193  1.00  0.00    -0.000 C 
BRANCH  14  15
ATOM     15  C   UNL     1      28.852 -19.655  27.119  1.00  0.00    -0.000 C 
BRANCH  15  16
ATOM     16  C   UNL     1      30.070 -18.906  26.555  1.00  0.00    -0.003 C 
ATOM     17  C   UNL     1      31.173 -19.847  26.071  1.00  0.00     0.004 C 
ENDBRANCH  15  16
ENDBRANCH  14  15
ENDBRANCH  13  14
ENDBRANCH  12  13
ENDBRANCH  11  12
ENDBRANCH  10  11
ENDBRANCH   1  10
TORSDOF 13
ENDMDL
MODEL 4
REMARK VINA RESULT:    -3.714      8.098     12.756
REMARK INTER + INTRA:          -8.444
REMARK INTER:                  -6.976
REMARK INTRA:                  -1.468
REMARK UNBOUND:                -1.907
REMARK SMILES CCCCCCCCCCCCCCC(=O)[O-]
REMARK SMILES IDX 9 1 10 2 11 3 12 4 13 5 14 6 15 7 16 8 17 9 8 10 7 11 6 12
REMARK SMILES IDX 5 13 4 14 3 15 2 16 1 17
REMARK H PARENT
REMARK Flexibility Score: inf
ROOT
ATOM      1  C   UNL     1      32.511  -9.593  16.662  1.00  0.00     0.000 C 
ENDROOT
BRANCH   1   2
ATOM      2  C   UNL     1      32.915  -9.867  18.121  1.00  0.00     0.000 C 
BRANCH   2   3
ATOM      3  C   UNL     1      32.169 -11.062  18.732  1.00  0.00     0.000 C 
BRANCH   3   4
ATOM      4  C   UNL     1      32.069 -10.927  20.257  1.00  0.00     0.000 C 
BRANCH   4   5
ATOM      5  C   UNL     1      30.842 -11.669  20.797  1.00  0.00     0.006 C 
BRANCH   5   6
ATOM      6  C   UNL     1      30.803 -13.112  20.285  1.00  0.00     0.053 C 
BRANCH   6   7
ATOM      7  C   UNL     1      29.671 -13.861  20.913  1.00  0.00     0.041 C 
ATOM      8  O   UNL     1      28.487 -13.461  20.765  1.00  0.00    -0.550 OA
ATOM      9  O   UNL     1      29.920 -15.030  21.621  1.00  0.00    -0.550 OA
ENDBRANCH   6   7
ENDBRANCH   5   6
ENDBRANCH   4   5
ENDBRANCH   3   4
ENDBRANCH   2   3
ENDBRANCH   1   2
BRANCH   1  10
ATOM     10  C   UNL     1      32.109  -8.135  16.361  1.00  0.00     0.000 C 
BRANCH  10  11
ATOM     11  C   UNL     1      31.426  -7.388  17.524  1.00  0.00    -0.000 C 
BRANCH  11  12
ATOM     12  C   UNL     1      32.286  -6.301  18.195  1.00  0.00    -0.000 C 
BRANCH  12  13
ATOM     13  C   UNL     1      32.257  -6.385  19.731  1.00  0.00    -0.000 C 
BRANCH  13  14
ATOM     14  C   UNL     1      31.153  -7.323  20.249  1.00  0.00    -0.000 C 
BRANCH  14  15
ATOM     15  C   UNL     1      31.278  -7.605  21.756  1.00  0.00    -0.000 C 
BRANCH  15  16
ATOM     16  C   UNL     1      29.941  -8.021  22.390  1.00  0.00    -0.003 C 
ATOM     17  C   UNL     1      30.110  -9.054  23.504  1.00  0.00     0.004 C 
ENDBRANCH  15  16
ENDBRANCH  14  15
ENDBRANCH  13  14
ENDBRANCH  12  13
ENDBRANCH  11  12
ENDBRANCH  10  11
ENDBRANCH   1  10
TORSDOF 13
ENDMDL
MODEL 5
REMARK VINA RESULT:    -3.678      1.498      3.896
REMARK INTER + INTRA:          -8.380
REMARK INTER:                  -7.031
REMARK INTRA:                  -1.349
REMARK UNBOUND:                -1.907
REMARK SMILES CCCCCCCCCCCCCCC(=O)[O-]
REMARK SMILES IDX 9 1 10 2 11 3 12 4 13 5 14 6 15 7 16 8 17 9 8 10 7 11 6 12
REMARK SMILES IDX 5 13 4 14 3 15 2 16 1 17
REMARK H PARENT
REMARK Flexibility Score: inf
ROOT
ATOM      1  C   UNL     1      29.556 -18.587  23.303  1.00  0.00     0.000 C 
ENDROOT
BRANCH   1   2
ATOM      2  C   UNL     1      29.935 -17.435  22.356  1.00  0.00     0.000 C 
BRANCH   2   3
ATOM      3  C   UNL     1      28.745 -16.928  21.528  1.00  0.00     0.000 C 
BRANCH   3   4
ATOM      4  C   UNL     1      28.787 -15.402  21.383  1.00  0.00     0.000 C 
BRANCH   4   5
ATOM      5  C   UNL     1      27.628 -14.744  22.141  1.00  0.00     0.006 C 
BRANCH   5   6
ATOM      6  C   UNL     1      28.148 -13.839  23.261  1.00  0.00     0.053 C 
BRANCH   6   7
ATOM      7  C   UNL     1      28.718 -14.658  24.376  1.00  0.00     0.041 C 
ATOM      8  O   UNL     1      27.980 -15.443  25.027  1.00  0.00    -0.550 OA
ATOM      9  O   UNL     1      30.075 -14.590  24.663  1.00  0.00    -0.550 OA
ENDBRANCH   6   7
ENDBRANCH   5   6
ENDBRANCH   4   5
ENDBRANCH   3   4
ENDBRANCH   2   3
ENDBRANCH   1   2
BRANCH   1  10
ATOM     10  C   UNL     1      29.995 -19.989  22.830  1.00  0.00     0.000 C 
BRANCH  10  11
ATOM     11  C   UNL     1      28.894 -20.827  22.151  1.00  0.00    -0.000 C 
BRANCH  11  12
ATOM     12  C   UNL     1      28.683 -22.231  22.747  1.00  0.00    -0.000 C 
BRANCH  12  13
ATOM     13  C   UNL     1      29.334 -22.394  24.131  1.00  0.00    -0.000 C 
BRANCH  13  14
ATOM     14  C   UNL     1      28.406 -23.092  25.140  1.00  0.00    -0.000 C 
BRANCH  14  15
ATOM     15  C   UNL     1      27.918 -22.143  26.247  1.00  0.00    -0.000 C 
BRANCH  15  16
ATOM     16  C   UNL     1      27.140 -20.940  25.692  1.00  0.00    -0.003 C 
ATOM     17  C   UNL     1      27.627 -19.606  26.259  1.00  0.00     0.004 C 
ENDBRANCH  15  16
ENDBRANCH  14  15
ENDBRANCH  13  14
ENDBRANCH  12  13
ENDBRANCH  11  12
ENDBRANCH  10  11
ENDBRANCH   1  10
TORSDOF 13
ENDMDL
MODEL 6
REMARK VINA RESULT:    -3.668      7.099     11.387
REMARK INTER + INTRA:          -8.364
REMARK INTER:                  -7.205
REMARK INTRA:                  -1.159
REMARK UNBOUND:                -1.907
REMARK SMILES CCCCCCCCCCCCCCC(=O)[O-]
REMARK SMILES IDX 9 1 10 2 11 3 12 4 13 5 14 6 15 7 16 8 17 9 8 10 7 11 6 12
REMARK SMILES IDX 5 13 4 14 3 15 2 16 1 17
REMARK H PARENT
REMARK Flexibility Score: inf
ROOT
ATOM      1  C   UNL     1      31.316 -10.863  20.457  1.00  0.00     0.000 C 
ENDROOT
BRANCH   1   2
ATOM      2  C   UNL     1      30.619 -11.965  21.275  1.00  0.00     0.000 C 
BRANCH   2   3
ATOM      3  C   UNL     1      29.791 -12.921  20.402  1.00  0.00     0.000 C 
BRANCH   3   4
ATOM      4  C   UNL     1      29.603 -14.275  21.097  1.00  0.00     0.000 C 
BRANCH   4   5
ATOM      5  C   UNL     1      28.122 -14.547  21.382  1.00  0.00     0.006 C 
BRANCH   5   6
ATOM      6  C   UNL     1      27.667 -13.831  22.657  1.00  0.00     0.053 C 
BRANCH   6   7
ATOM      7  C   UNL     1      28.357 -14.402  23.854  1.00  0.00     0.041 C 
ATOM      8  O   UNL     1      28.060 -15.553  24.269  1.00  0.00    -0.550 OA
ATOM      9  O   UNL     1      29.365 -13.683  24.484  1.00  0.00    -0.550 OA
ENDBRANCH   6   7
ENDBRANCH   5   6
ENDBRANCH   4   5
ENDBRANCH   3   4
ENDBRANCH   2   3
ENDBRANCH   1   2
BRANCH   1  10
ATOM     10  C   UNL     1      32.173 -11.370  19.278  1.00  0.00     0.000 C 
BRANCH  10  11
ATOM     11  C   UNL     1      32.960 -10.281  18.523  1.00  0.00    -0.000 C 
BRANCH  11  12
ATOM     12  C   UNL     1      32.299  -9.781  17.225  1.00  0.00    -0.000 C 
BRANCH  12  13
ATOM     13  C   UNL     1      32.474  -8.267  17.014  1.00  0.00    -0.000 C 
BRANCH  13  14
ATOM     14  C   UNL     1      31.429  -7.442  17.784  1.00  0.00    -0.000 C 
BRANCH  14  15
ATOM     15  C   UNL     1      32.071  -6.395  18.710  1.00  0.00    -0.000 C 
BRANCH  15  16
ATOM     16  C   UNL     1      32.401  -6.961  20.100  1.00  0.00    -0.003 C 
ATOM     17  C   UNL     1      31.155  -7.218  20.947  1.00  0.00     0.004 C 
ENDBRANCH  15  16
ENDBRANCH  14  15
ENDBRANCH  13  14
ENDBRANCH  12  13
ENDBRANCH  11  12
ENDBRANCH  10  11
ENDBRANCH   1  10
TORSDOF 13
ENDMDL
MODEL 7
REMARK VINA RESULT:    -3.654      1.331      3.353
REMARK INTER + INTRA:          -8.338
REMARK INTER:                  -6.803
REMARK INTRA:                  -1.535
REMARK UNBOUND:                -1.907
REMARK SMILES CCCCCCCCCCCCCCC(=O)[O-]
REMARK SMILES IDX 9 1 10 2 11 3 12 4 13 5 14 6 15 7 16 8 17 9 8 10 7 11 6 12
REMARK SMILES IDX 5 13 4 14 3 15 2 16 1 17
REMARK H PARENT
REMARK Flexibility Score: inf
ROOT
ATOM      1  C   UNL     1      30.399 -20.676  22.843  1.00  0.00     0.000 C 
ENDROOT
BRANCH   1   2
ATOM      2  C   UNL     1      29.131 -20.114  22.177  1.00  0.00     0.000 C 
BRANCH   2   3
ATOM      3  C   UNL     1      29.222 -18.606  21.901  1.00  0.00     0.000 C 
BRANCH   3   4
ATOM      4  C   UNL     1      30.042 -17.897  22.986  1.00  0.00     0.000 C 
BRANCH   4   5
ATOM      5  C   UNL     1      30.118 -16.389  22.722  1.00  0.00     0.006 C 
BRANCH   5   6
ATOM      6  C   UNL     1      28.786 -15.707  23.045  1.00  0.00     0.053 C 
BRANCH   6   7
ATOM      7  C   UNL     1      28.352 -14.838  21.908  1.00  0.00     0.041 C 
ATOM      8  O   UNL     1      27.350 -14.086  22.031  1.00  0.00    -0.550 OA
ATOM      9  O   UNL     1      29.084 -14.822  20.727  1.00  0.00    -0.550 OA
ENDBRANCH   6   7
ENDBRANCH   5   6
ENDBRANCH   4   5
ENDBRANCH   3   4
ENDBRANCH   2   3
ENDBRANCH   1   2
BRANCH   1  10
ATOM     10  C   UNL     1      30.401 -22.204  23.054  1.00  0.00     0.000 C 
BRANCH  10  11
ATOM     11  C   UNL     1      29.008 -22.866  23.074  1.00  0.00    -0.000 C 
BRANCH  11  12
ATOM     12  C   UNL     1      28.661 -23.615  24.373  1.00  0.00    -0.000 C 
BRANCH  12  13
ATOM     13  C   UNL     1      28.869 -22.754  25.631  1.00  0.00    -0.000 C 
BRANCH  13  14
ATOM     14  C   UNL     1      27.545 -22.221  26.205  1.00  0.00    -0.000 C 
BRANCH  14  15
ATOM     15  C   UNL     1      27.203 -20.813  25.691  1.00  0.00    -0.000 C 
BRANCH  15  16
ATOM     16  C   UNL     1      28.393 -19.845  25.786  1.00  0.00    -0.003 C 
ATOM     17  C   UNL     1      28.732 -19.463  27.227  1.00  0.00     0.004 C 
ENDBRANCH  15  16
ENDBRANCH  14  15
ENDBRANCH  13  14
ENDBRANCH  12  13
ENDBRANCH  11  12
ENDBRANCH  10  11
ENDBRANCH   1  10
TORSDOF 13
ENDMDL
MODEL 8
REMARK VINA RESULT:    -3.628      4.320      5.298
REMARK INTER + INTRA:          -8.292
REMARK INTER:                  -6.308
REMARK INTRA:                  -1.984
REMARK UNBOUND:                -1.907
REMARK SMILES CCCCCCCCCCCCCCC(=O)[O-]
REMARK SMILES IDX 9 1 10 2 11 3 12 4 13 5 14 6 15 7 16 8 17 9 8 10 7 11 6 12
REMARK SMILES IDX 5 13 4 14 3 15 2 16 1 17
REMARK H PARENT
REMARK Flexibility Score: inf
ROOT
ATOM      1  C   UNL     1      27.601 -19.736  26.007  1.00  0.00     0.000 C 
ENDROOT
BRANCH   1   2
ATOM      2  C   UNL     1      28.595 -19.743  27.182  1.00  0.00     0.000 C 
BRANCH   2   3
ATOM      3  C   UNL     1      30.054 -19.582  26.729  1.00  0.00     0.000 C 
BRANCH   3   4
ATOM      4  C   UNL     1      30.933 -20.702  27.301  1.00  0.00     0.000 C 
BRANCH   4   5
ATOM      5  C   UNL     1      30.801 -20.782  28.826  1.00  0.00     0.006 C 
BRANCH   5   6
ATOM      6  C   UNL     1      30.241 -22.139  29.259  1.00  0.00     0.053 C 
BRANCH   6   7
ATOM      7  C   UNL     1      31.226 -22.863  30.120  1.00  0.00     0.041 C 
ATOM      8  O   UNL     1      30.878 -23.893  30.754  1.00  0.00    -0.550 OA
ATOM      9  O   UNL     1      32.544 -22.427  30.184  1.00  0.00    -0.550 OA
ENDBRANCH   6   7
ENDBRANCH   5   6
ENDBRANCH   4   5
ENDBRANCH   3   4
ENDBRANCH   2   3
ENDBRANCH   1   2
BRANCH   1  10
ATOM     10  C   UNL     1      27.236 -21.129  25.455  1.00  0.00     0.000 C 
BRANCH  10  11
ATOM     11  C   UNL     1      27.623 -22.316  26.360  1.00  0.00    -0.000 C 
BRANCH  11  12
ATOM     12  C   UNL     1      28.743 -23.217  25.810  1.00  0.00    -0.000 C 
BRANCH  12  13
ATOM     13  C   UNL     1      28.622 -23.460  24.296  1.00  0.00    -0.000 C 
BRANCH  13  14
ATOM     14  C   UNL     1      29.971 -23.326  23.569  1.00  0.00    -0.000 C 
BRANCH  14  15
ATOM     15  C   UNL     1      30.526 -21.892  23.614  1.00  0.00    -0.000 C 
BRANCH  15  16
ATOM     16  C   UNL     1      30.236 -21.108  22.325  1.00  0.00    -0.003 C 
ATOM     17  C   UNL     1      29.044 -20.161  22.464  1.00  0.00     0.004 C 
ENDBRANCH  15  16
ENDBRANCH  14  15
ENDBRANCH  13  14
ENDBRANCH  12  13
ENDBRANCH  11  12
ENDBRANCH  10  11
ENDBRANCH   1  10
TORSDOF 13
ENDMDL
MODEL 9
REMARK VINA RESULT:    -3.622     11.052     13.641
REMARK INTER + INTRA:          -8.282
REMARK INTER:                  -5.966
REMARK INTRA:                  -2.317
REMARK UNBOUND:                -1.907
REMARK SMILES CCCCCCCCCCCCCCC(=O)[O-]
REMARK SMILES IDX 9 1 10 2 11 3 12 4 13 5 14 6 15 7 16 8 17 9 8 10 7 11 6 12
REMARK SMILES IDX 5 13 4 14 3 15 2 16 1 17
REMARK H PARENT
REMARK Flexibility Score: inf
ROOT
ATOM      1  C   UNL     1      31.481  -7.368  17.411  1.00  0.00     0.000 C 
ENDROOT
BRANCH   1   2
ATOM      2  C   UNL     1      32.259  -6.195  18.033  1.00  0.00     0.000 C 
BRANCH   2   3
ATOM      3  C   UNL     1      32.238  -6.214  19.568  1.00  0.00     0.000 C 
BRANCH   3   4
ATOM      4  C   UNL     1      31.313  -7.320  20.091  1.00  0.00     0.000 C 
BRANCH   4   5
ATOM      5  C   UNL     1      31.013  -7.128  21.582  1.00  0.00     0.006 C 
BRANCH   5   6
ATOM      6  C   UNL     1      30.238  -8.323  22.145  1.00  0.00     0.053 C 
BRANCH   6   7
ATOM      7  C   UNL     1      31.083  -9.556  22.117  1.00  0.00     0.041 C 
ATOM      8  O   UNL     1      30.651 -10.608  21.576  1.00  0.00    -0.550 OA
ATOM      9  O   UNL     1      32.368  -9.530  22.644  1.00  0.00    -0.550 OA
ENDBRANCH   6   7
ENDBRANCH   5   6
ENDBRANCH   4   5
ENDBRANCH   3   4
ENDBRANCH   2   3
ENDBRANCH   1   2
BRANCH   1  10
ATOM     10  C   UNL     1      32.098  -7.948  16.122  1.00  0.00     0.000 C 
BRANCH  10  11
ATOM     11  C   UNL     1      32.443  -9.450  16.176  1.00  0.00    -0.000 C 
BRANCH  11  12
ATOM     12  C   UNL     1      32.417 -10.074  17.584  1.00  0.00    -0.000 C 
BRANCH  12  13
ATOM     13  C   UNL     1      33.825 -10.364  18.131  1.00  0.00    -0.000 C 
BRANCH  13  14
ATOM     14  C   UNL     1      34.122  -9.594  19.429  1.00  0.00    -0.000 C 
BRANCH  14  15
ATOM     15  C   UNL     1      35.102  -8.428  19.214  1.00  0.00    -0.000 C 
BRANCH  15  16
ATOM     16  C   UNL     1      35.846  -8.525  17.873  1.00  0.00    -0.003 C 
ATOM     17  C   UNL     1      35.670  -7.278  17.006  1.00  0.00     0.004 C 
ENDBRANCH  15  16
ENDBRANCH  14  15
ENDBRANCH  13  14
ENDBRANCH  12  13
ENDBRANCH  11  12
ENDBRANCH  10  11
ENDBRANCH   1  10
TORSDOF 13
ENDMDL
