MODEL 1
REMARK VINA RESULT:    -5.081      0.000      0.000
REMARK INTER + INTRA:          -9.381
REMARK INTER:                  -8.646
REMARK INTRA:                  -0.736
REMARK UNBOUND:                -0.736
REMARK SMILES CCCCCCCCCCCCCC(=O)[O-]
REMARK SMILES IDX 8 1 9 2 10 3 11 4 12 5 13 6 14 7 15 8 16 9 7 10 6 11 5 12
REMARK SMILES IDX 4 13 3 14 2 15 1 16
REMARK H PARENT
REMARK Flexibility Score: inf
ROOT
ATOM      1  C   UNL     1      14.493 -30.619  21.183  1.00  0.00     0.000 C 
ENDROOT
BRANCH   1   2
ATOM      2  C   UNL     1      14.577 -30.277  22.681  1.00  0.00     0.000 C 
BRANCH   2   3
ATOM      3  C   UNL     1      13.230 -30.436  23.403  1.00  0.00     0.000 C 
BRANCH   3   4
ATOM      4  C   UNL     1      12.263 -29.276  23.107  1.00  0.00     0.000 C 
BRANCH   4   5
ATOM      5  C   UNL     1      12.344 -28.158  24.159  1.00  0.00     0.006 C 
BRANCH   5   6
ATOM      6  C   UNL     1      12.105 -26.765  23.562  1.00  0.00     0.053 C 
BRANCH   6   7
ATOM      7  C   UNL     1      13.200 -25.830  23.966  1.00  0.00     0.041 C 
ATOM      8  O   UNL     1      13.525 -24.873  23.215  1.00  0.00    -0.550 OA
ATOM      9  O   UNL     1      13.896 -26.043  25.150  1.00  0.00    -0.550 OA
ENDBRANCH   6   7
ENDBRANCH   5   6
ENDBRANCH   4   5
ENDBRANCH   3   4
ENDBRANCH   2   3
ENDBRANCH   1   2
BRANCH   1  10
ATOM     10  C   UNL     1      13.682 -31.898  20.906  1.00  0.00     0.000 C 
BRANCH  10  11
ATOM     11  C   UNL     1      14.521 -33.133  20.530  1.00  0.00    -0.000 C 
BRANCH  11  12
ATOM     12  C   UNL     1      15.059 -33.888  21.757  1.00  0.00    -0.000 C 
BRANCH  12  13
ATOM     13  C   UNL     1      16.279 -34.763  21.423  1.00  0.00    -0.000 C 
BRANCH  13  14
ATOM     14  C   UNL     1      16.567 -34.831  19.916  1.00  0.00    -0.000 C 
BRANCH  14  15
ATOM     15  C   UNL     1      16.588 -36.283  19.427  1.00  0.00    -0.003 C 
ATOM     16  C   UNL     1      17.517 -37.141  20.282  1.00  0.00     0.004 C 
ENDBRANCH  14  15
ENDBRANCH  13  14
ENDBRANCH  12  13
ENDBRANCH  11  12
ENDBRANCH  10  11
ENDBRANCH   1  10
TORSDOF 12
ENDMDL
MODEL 2
REMARK VINA RESULT:    -4.997      2.618      5.957
REMARK INTER + INTRA:          -9.239
REMARK INTER:                  -7.682
REMARK INTRA:                  -1.556
REMARK UNBOUND:                -0.736
REMARK SMILES CCCCCCCCCCCCCC(=O)[O-]
REMARK SMILES IDX 8 1 9 2 10 3 11 4 12 5 13 6 14 7 15 8 16 9 7 10 6 11 5 12
REMARK SMILES IDX 4 13 3 14 2 15 1 16
REMARK H PARENT
REMARK Flexibility Score: inf
ROOT
ATOM      1  C   UNL     1      16.880 -35.119  19.301  1.00  0.00     0.000 C 
ENDROOT
BRANCH   1   2
ATOM      2  C   UNL     1      17.984 -34.074  19.060  1.00  0.00     0.000 C 
BRANCH   2   3
ATOM      3  C   UNL     1      18.782 -33.749  20.333  1.00  0.00     0.000 C 
BRANCH   3   4
ATOM      4  C   UNL     1      19.023 -32.239  20.506  1.00  0.00     0.000 C 
BRANCH   4   5
ATOM      5  C   UNL     1      17.716 -31.430  20.512  1.00  0.00     0.006 C 
BRANCH   5   6
ATOM      6  C   UNL     1      17.867 -30.066  21.199  1.00  0.00     0.053 C 
BRANCH   6   7
ATOM      7  C   UNL     1      16.654 -29.759  22.019  1.00  0.00     0.041 C 
ATOM      8  O   UNL     1      16.438 -30.386  23.089  1.00  0.00    -0.550 OA
ATOM      9  O   UNL     1      15.736 -28.815  21.577  1.00  0.00    -0.550 OA
ENDBRANCH   6   7
ENDBRANCH   5   6
ENDBRANCH   4   5
ENDBRANCH   3   4
ENDBRANCH   2   3
ENDBRANCH   1   2
BRANCH   1  10
ATOM     10  C   UNL     1      15.551 -34.491  19.759  1.00  0.00     0.000 C 
BRANCH  10  11
ATOM     11  C   UNL     1      15.387 -34.352  21.284  1.00  0.00    -0.000 C 
BRANCH  11  12
ATOM     12  C   UNL     1      14.595 -33.097  21.689  1.00  0.00    -0.000 C 
BRANCH  12  13
ATOM     13  C   UNL     1      13.908 -32.421  20.492  1.00  0.00    -0.000 C 
BRANCH  13  14
ATOM     14  C   UNL     1      13.199 -31.114  20.875  1.00  0.00    -0.000 C 
BRANCH  14  15
ATOM     15  C   UNL     1      13.042 -31.001  22.396  1.00  0.00    -0.003 C 
ATOM     16  C   UNL     1      12.540 -29.618  22.799  1.00  0.00     0.004 C 
ENDBRANCH  14  15
ENDBRANCH  13  14
ENDBRANCH  12  13
ENDBRANCH  11  12
ENDBRANCH  10  11
ENDBRANCH   1  10
TORSDOF 12
ENDMDL
MODEL 3
REMARK VINA RESULT:    -4.966      2.538      4.510
REMARK INTER + INTRA:          -9.185
REMARK INTER:                  -7.304
REMARK INTRA:                  -1.880
REMARK UNBOUND:                -0.736
REMARK SMILES CCCCCCCCCCCCCC(=O)[O-]
REMARK SMILES IDX 8 1 9 2 10 3 11 4 12 5 13 6 14 7 15 8 16 9 7 10 6 11 5 12
REMARK SMILES IDX 4 13 3 14 2 15 1 16
REMARK H PARENT
REMARK Flexibility Score: inf
ROOT
ATOM      1  C   UNL     1      15.890 -34.806  20.199  1.00  0.00     0.000 C 
ENDROOT
BRANCH   1   2
ATOM      2  C   UNL     1      15.011 -33.931  21.110  1.00  0.00     0.000 C 
BRANCH   2   3
ATOM      3  C   UNL     1      15.421 -34.013  22.589  1.00  0.00     0.000 C 
BRANCH   3   4
ATOM      4  C   UNL     1      14.647 -33.019  23.471  1.00  0.00     0.000 C 
BRANCH   4   5
ATOM      5  C   UNL     1      13.904 -31.955  22.647  1.00  0.00     0.006 C 
BRANCH   5   6
ATOM      6  C   UNL     1      13.985 -30.557  23.275  1.00  0.00     0.053 C 
BRANCH   6   7
ATOM      7  C   UNL     1      12.772 -29.756  22.923  1.00  0.00     0.041 C 
ATOM      8  O   UNL     1      11.902 -30.232  22.147  1.00  0.00    -0.550 OA
ATOM      9  O   UNL     1      12.624 -28.465  23.413  1.00  0.00    -0.550 OA
ENDBRANCH   6   7
ENDBRANCH   5   6
ENDBRANCH   4   5
ENDBRANCH   3   4
ENDBRANCH   2   3
ENDBRANCH   1   2
BRANCH   1  10
ATOM     10  C   UNL     1      16.509 -34.018  19.030  1.00  0.00     0.000 C 
BRANCH  10  11
ATOM     11  C   UNL     1      18.021 -34.233  18.828  1.00  0.00    -0.000 C 
BRANCH  11  12
ATOM     12  C   UNL     1      18.817 -34.157  20.142  1.00  0.00    -0.000 C 
BRANCH  12  13
ATOM     13  C   UNL     1      19.112 -32.710  20.571  1.00  0.00    -0.000 C 
BRANCH  13  14
ATOM     14  C   UNL     1      18.608 -32.397  21.988  1.00  0.00    -0.000 C 
BRANCH  14  15
ATOM     15  C   UNL     1      17.972 -31.004  22.048  1.00  0.00    -0.003 C 
ATOM     16  C   UNL     1      16.985 -30.796  20.904  1.00  0.00     0.004 C 
ENDBRANCH  14  15
ENDBRANCH  13  14
ENDBRANCH  12  13
ENDBRANCH  11  12
ENDBRANCH  10  11
ENDBRANCH   1  10
TORSDOF 12
ENDMDL
MODEL 4
REMARK VINA RESULT:    -4.912      2.129      3.623
REMARK INTER + INTRA:          -9.093
REMARK INTER:                  -7.828
REMARK INTRA:                  -1.265
REMARK UNBOUND:                -0.736
REMARK SMILES CCCCCCCCCCCCCC(=O)[O-]
REMARK SMILES IDX 8 1 9 2 10 3 11 4 12 5 13 6 14 7 15 8 16 9 7 10 6 11 5 12
REMARK SMILES IDX 4 13 3 14 2 15 1 16
REMARK H PARENT
REMARK Flexibility Score: inf
ROOT
ATOM      1  C   UNL     1      14.812 -33.273  21.070  1.00  0.00     0.000 C 
ENDROOT
BRANCH   1   2
ATOM      2  C   UNL     1      14.988 -33.735  22.527  1.00  0.00     0.000 C 
BRANCH   2   3
ATOM      3  C   UNL     1      14.630 -32.639  23.545  1.00  0.00     0.000 C 
BRANCH   3   4
ATOM      4  C   UNL     1      14.473 -31.256  22.889  1.00  0.00     0.000 C 
BRANCH   4   5
ATOM      5  C   UNL     1      13.320 -30.443  23.499  1.00  0.00     0.006 C 
BRANCH   5   6
ATOM      6  C   UNL     1      13.433 -28.941  23.203  1.00  0.00     0.053 C 
BRANCH   6   7
ATOM      7  C   UNL     1      12.250 -28.210  23.755  1.00  0.00     0.041 C 
ATOM      8  O   UNL     1      11.116 -28.349  23.225  1.00  0.00    -0.550 OA
ATOM      9  O   UNL     1      12.408 -27.338  24.824  1.00  0.00    -0.550 OA
ENDBRANCH   6   7
ENDBRANCH   5   6
ENDBRANCH   4   5
ENDBRANCH   3   4
ENDBRANCH   2   3
ENDBRANCH   1   2
BRANCH   1  10
ATOM     10  C   UNL     1      15.052 -34.402  20.051  1.00  0.00     0.000 C 
BRANCH  10  11
ATOM     11  C   UNL     1      16.372 -34.301  19.266  1.00  0.00    -0.000 C 
BRANCH  11  12
ATOM     12  C   UNL     1      17.614 -34.355  20.172  1.00  0.00    -0.000 C 
BRANCH  12  13
ATOM     13  C   UNL     1      18.558 -33.162  19.951  1.00  0.00    -0.000 C 
BRANCH  13  14
ATOM     14  C   UNL     1      18.439 -32.098  21.052  1.00  0.00    -0.000 C 
BRANCH  14  15
ATOM     15  C   UNL     1      17.504 -30.963  20.618  1.00  0.00    -0.003 C 
ATOM     16  C   UNL     1      17.625 -29.761  21.550  1.00  0.00     0.004 C 
ENDBRANCH  14  15
ENDBRANCH  13  14
ENDBRANCH  12  13
ENDBRANCH  11  12
ENDBRANCH  10  11
ENDBRANCH   1  10
TORSDOF 12
ENDMDL
MODEL 5
REMARK VINA RESULT:    -4.904      2.547      4.262
REMARK INTER + INTRA:          -9.081
REMARK INTER:                  -7.166
REMARK INTRA:                  -1.915
REMARK UNBOUND:                -0.736
REMARK SMILES CCCCCCCCCCCCCC(=O)[O-]
REMARK SMILES IDX 8 1 9 2 10 3 11 4 12 5 13 6 14 7 15 8 16 9 7 10 6 11 5 12
REMARK SMILES IDX 4 13 3 14 2 15 1 16
REMARK H PARENT
REMARK Flexibility Score: inf
ROOT
ATOM      1  C   UNL     1      18.898 -33.227  20.605  1.00  0.00     0.000 C 
ENDROOT
BRANCH   1   2
ATOM      2  C   UNL     1      18.536 -31.733  20.534  1.00  0.00     0.000 C 
BRANCH   2   3
ATOM      3  C   UNL     1      17.824 -31.234  21.802  1.00  0.00     0.000 C 
BRANCH   3   4
ATOM      4  C   UNL     1      16.430 -30.656  21.505  1.00  0.00     0.000 C 
BRANCH   4   5
ATOM      5  C   UNL     1      15.667 -30.272  22.784  1.00  0.00     0.006 C 
BRANCH   5   6
ATOM      6  C   UNL     1      14.571 -29.229  22.528  1.00  0.00     0.053 C 
BRANCH   6   7
ATOM      7  C   UNL     1      13.239 -29.756  22.959  1.00  0.00     0.041 C 
ATOM      8  O   UNL     1      12.660 -29.267  23.965  1.00  0.00    -0.550 OA
ATOM      9  O   UNL     1      12.658 -30.819  22.280  1.00  0.00    -0.550 OA
ENDBRANCH   6   7
ENDBRANCH   5   6
ENDBRANCH   4   5
ENDBRANCH   3   4
ENDBRANCH   2   3
ENDBRANCH   1   2
BRANCH   1  10
ATOM     10  C   UNL     1      18.499 -34.000  19.334  1.00  0.00     0.000 C 
BRANCH  10  11
ATOM     11  C   UNL     1      16.999 -33.960  18.991  1.00  0.00    -0.000 C 
BRANCH  11  12
ATOM     12  C   UNL     1      16.134 -34.743  19.994  1.00  0.00    -0.000 C 
BRANCH  12  13
ATOM     13  C   UNL     1      14.980 -33.900  20.563  1.00  0.00    -0.000 C 
BRANCH  13  14
ATOM     14  C   UNL     1      14.948 -33.898  22.098  1.00  0.00    -0.000 C 
BRANCH  14  15
ATOM     15  C   UNL     1      16.249 -34.468  22.675  1.00  0.00    -0.003 C 
ATOM     16  C   UNL     1      16.498 -33.956  24.090  1.00  0.00     0.004 C 
ENDBRANCH  14  15
ENDBRANCH  13  14
ENDBRANCH  12  13
ENDBRANCH  11  12
ENDBRANCH  10  11
ENDBRANCH   1  10
TORSDOF 12
ENDMDL
MODEL 6
REMARK VINA RESULT:    -4.885      4.070      8.358
REMARK INTER + INTRA:          -9.048
REMARK INTER:                  -7.954
REMARK INTRA:                  -1.094
REMARK UNBOUND:                -0.736
REMARK SMILES CCCCCCCCCCCCCC(=O)[O-]
REMARK SMILES IDX 8 1 9 2 10 3 11 4 12 5 13 6 14 7 15 8 16 9 7 10 6 11 5 12
REMARK SMILES IDX 4 13 3 14 2 15 1 16
REMARK H PARENT
REMARK Flexibility Score: inf
ROOT
ATOM      1  C   UNL     1      14.747 -33.498  21.067  1.00  0.00     0.000 C 
ENDROOT
BRANCH   1   2
ATOM      2  C   UNL     1      15.174 -34.052  19.697  1.00  0.00     0.000 C 
BRANCH   2   3
ATOM      3  C   UNL     1      16.620 -33.683  19.331  1.00  0.00     0.000 C 
BRANCH   3   4
ATOM      4  C   UNL     1      17.514 -34.922  19.144  1.00  0.00     0.000 C 
BRANCH   4   5
ATOM      5  C   UNL     1      16.805 -36.226  19.544  1.00  0.00     0.006 C 
BRANCH   5   6
ATOM      6  C   UNL     1      17.605 -37.046  20.565  1.00  0.00     0.053 C 
BRANCH   6   7
ATOM      7  C   UNL     1      18.082 -36.168  21.679  1.00  0.00     0.041 C 
ATOM      8  O   UNL     1      19.314 -36.038  21.899  1.00  0.00    -0.550 OA
ATOM      9  O   UNL     1      17.164 -35.533  22.506  1.00  0.00    -0.550 OA
ENDBRANCH   6   7
ENDBRANCH   5   6
ENDBRANCH   4   5
ENDBRANCH   3   4
ENDBRANCH   2   3
ENDBRANCH   1   2
BRANCH   1  10
ATOM     10  C   UNL     1      15.507 -32.216  21.457  1.00  0.00     0.000 C 
BRANCH  10  11
ATOM     11  C   UNL     1      14.740 -30.904  21.211  1.00  0.00    -0.000 C 
BRANCH  11  12
ATOM     12  C   UNL     1      13.255 -31.130  20.882  1.00  0.00    -0.000 C 
BRANCH  12  13
ATOM     13  C   UNL     1      12.326 -30.728  22.040  1.00  0.00    -0.000 C 
BRANCH  13  14
ATOM     14  C   UNL     1      13.055 -29.941  23.139  1.00  0.00    -0.000 C 
BRANCH  14  15
ATOM     15  C   UNL     1      12.246 -28.708  23.559  1.00  0.00    -0.003 C 
ATOM     16  C   UNL     1      13.140 -27.480  23.695  1.00  0.00     0.004 C 
ENDBRANCH  14  15
ENDBRANCH  13  14
ENDBRANCH  12  13
ENDBRANCH  11  12
ENDBRANCH  10  11
ENDBRANCH   1  10
TORSDOF 12
ENDMDL
MODEL 7
REMARK VINA RESULT:    -4.881      5.013      8.010
REMARK INTER + INTRA:          -9.041
REMARK INTER:                  -8.338
REMARK INTRA:                  -0.703
REMARK UNBOUND:                -0.736
REMARK SMILES CCCCCCCCCCCCCC(=O)[O-]
REMARK SMILES IDX 8 1 9 2 10 3 11 4 12 5 13 6 14 7 15 8 16 9 7 10 6 11 5 12
REMARK SMILES IDX 4 13 3 14 2 15 1 16
REMARK H PARENT
REMARK Flexibility Score: inf
ROOT
ATOM      1  C   UNL     1      16.453 -29.852  22.469  1.00  0.00     0.000 C 
ENDROOT
BRANCH   1   2
ATOM      2  C   UNL     1      17.273 -30.280  21.239  1.00  0.00     0.000 C 
BRANCH   2   3
ATOM      3  C   UNL     1      18.686 -29.676  21.228  1.00  0.00     0.000 C 
BRANCH   3   4
ATOM      4  C   UNL     1      18.707 -28.238  20.681  1.00  0.00     0.000 C 
BRANCH   4   5
ATOM      5  C   UNL     1      19.866 -27.406  21.253  1.00  0.00     0.006 C 
BRANCH   5   6
ATOM      6  C   UNL     1      21.199 -27.684  20.546  1.00  0.00     0.053 C 
BRANCH   6   7
ATOM      7  C   UNL     1      21.993 -26.422  20.416  1.00  0.00     0.041 C 
ATOM      8  O   UNL     1      23.112 -26.317  20.983  1.00  0.00    -0.550 OA
ATOM      9  O   UNL     1      21.475 -25.345  19.708  1.00  0.00    -0.550 OA
ENDBRANCH   6   7
ENDBRANCH   5   6
ENDBRANCH   4   5
ENDBRANCH   3   4
ENDBRANCH   2   3
ENDBRANCH   1   2
BRANCH   1  10
ATOM     10  C   UNL     1      15.157 -29.110  22.096  1.00  0.00     0.000 C 
BRANCH  10  11
ATOM     11  C   UNL     1      13.863 -29.925  22.279  1.00  0.00    -0.000 C 
BRANCH  11  12
ATOM     12  C   UNL     1      13.080 -29.530  23.542  1.00  0.00    -0.000 C 
BRANCH  12  13
ATOM     13  C   UNL     1      11.808 -28.727  23.221  1.00  0.00    -0.000 C 
BRANCH  13  14
ATOM     14  C   UNL     1      11.708 -27.425  24.029  1.00  0.00    -0.000 C 
BRANCH  14  15
ATOM     15  C   UNL     1      12.887 -26.496  23.720  1.00  0.00    -0.003 C 
ATOM     16  C   UNL     1      13.650 -26.129  24.989  1.00  0.00     0.004 C 
ENDBRANCH  14  15
ENDBRANCH  13  14
ENDBRANCH  12  13
ENDBRANCH  11  12
ENDBRANCH  10  11
ENDBRANCH   1  10
TORSDOF 12
ENDMDL
MODEL 8
REMARK VINA RESULT:    -4.843      2.153      3.320
REMARK INTER + INTRA:          -8.977
REMARK INTER:                  -7.569
REMARK INTRA:                  -1.408
REMARK UNBOUND:                -0.736
REMARK SMILES CCCCCCCCCCCCCC(=O)[O-]
REMARK SMILES IDX 8 1 9 2 10 3 11 4 12 5 13 6 14 7 15 8 16 9 7 10 6 11 5 12
REMARK SMILES IDX 4 13 3 14 2 15 1 16
REMARK H PARENT
REMARK Flexibility Score: inf
ROOT
ATOM      1  C   UNL     1      17.744 -30.872  21.825  1.00  0.00     0.000 C 
ENDROOT
BRANCH   1   2
ATOM      2  C   UNL     1      16.852 -29.632  21.639  1.00  0.00     0.000 C 
BRANCH   2   3
ATOM      3  C   UNL     1      15.493 -29.767  22.344  1.00  0.00     0.000 C 
BRANCH   3   4
ATOM      4  C   UNL     1      14.402 -30.333  21.418  1.00  0.00     0.000 C 
BRANCH   4   5
ATOM      5  C   UNL     1      13.032 -30.426  22.109  1.00  0.00     0.006 C 
BRANCH   5   6
ATOM      6  C   UNL     1      13.059 -29.903  23.551  1.00  0.00     0.053 C 
BRANCH   6   7
ATOM      7  C   UNL     1      12.332 -28.600  23.646  1.00  0.00     0.041 C 
ATOM      8  O   UNL     1      11.111 -28.532  23.344  1.00  0.00    -0.550 OA
ATOM      9  O   UNL     1      13.012 -27.448  24.022  1.00  0.00    -0.550 OA
ENDBRANCH   6   7
ENDBRANCH   5   6
ENDBRANCH   4   5
ENDBRANCH   3   4
ENDBRANCH   2   3
ENDBRANCH   1   2
BRANCH   1  10
ATOM     10  C   UNL     1      18.121 -31.544  20.491  1.00  0.00     0.000 C 
BRANCH  10  11
ATOM     11  C   UNL     1      18.942 -32.839  20.623  1.00  0.00    -0.000 C 
BRANCH  11  12
ATOM     12  C   UNL     1      18.448 -33.959  19.692  1.00  0.00    -0.000 C 
BRANCH  12  13
ATOM     13  C   UNL     1      17.028 -33.701  19.160  1.00  0.00    -0.000 C 
BRANCH  13  14
ATOM     14  C   UNL     1      15.993 -34.679  19.733  1.00  0.00    -0.000 C 
BRANCH  14  15
ATOM     15  C   UNL     1      14.900 -33.931  20.505  1.00  0.00    -0.003 C 
ATOM     16  C   UNL     1      15.214 -33.879  21.997  1.00  0.00     0.004 C 
ENDBRANCH  14  15
ENDBRANCH  13  14
ENDBRANCH  12  13
ENDBRANCH  11  12
ENDBRANCH  10  11
ENDBRANCH   1  10
TORSDOF 12
ENDMDL
MODEL 9
REMARK VINA RESULT:    -4.793      3.773      5.119
REMARK INTER + INTRA:          -8.892
REMARK INTER:                  -7.170
REMARK INTRA:                  -1.722
REMARK UNBOUND:                -0.736
REMARK SMILES CCCCCCCCCCCCCC(=O)[O-]
REMARK SMILES IDX 8 1 9 2 10 3 11 4 12 5 13 6 14 7 15 8 16 9 7 10 6 11 5 12
REMARK SMILES IDX 4 13 3 14 2 15 1 16
REMARK H PARENT
REMARK Flexibility Score: inf
ROOT
ATOM      1  C   UNL     1      18.494 -33.520  22.634  1.00  0.00     0.000 C 
ENDROOT
BRANCH   1   2
ATOM      2  C   UNL     1      17.903 -34.873  23.070  1.00  0.00     0.000 C 
BRANCH   2   3
ATOM      3  C   UNL     1      16.470 -34.748  23.612  1.00  0.00     0.000 C 
BRANCH   3   4
ATOM      4  C   UNL     1      16.117 -33.306  24.016  1.00  0.00     0.000 C 
BRANCH   4   5
ATOM      5  C   UNL     1      14.769 -32.845  23.438  1.00  0.00     0.006 C 
BRANCH   5   6
ATOM      6  C   UNL     1      14.643 -33.124  21.935  1.00  0.00     0.053 C 
BRANCH   6   7
ATOM      7  C   UNL     1      14.323 -31.863  21.196  1.00  0.00     0.041 C 
ATOM      8  O   UNL     1      15.122 -30.890  21.228  1.00  0.00    -0.550 OA
ATOM      9  O   UNL     1      13.120 -31.744  20.511  1.00  0.00    -0.550 OA
ENDBRANCH   6   7
ENDBRANCH   5   6
ENDBRANCH   4   5
ENDBRANCH   3   4
ENDBRANCH   2   3
ENDBRANCH   1   2
BRANCH   1  10
ATOM     10  C   UNL     1      19.364 -33.627  21.368  1.00  0.00     0.000 C 
BRANCH  10  11
ATOM     11  C   UNL     1      18.762 -32.979  20.107  1.00  0.00    -0.000 C 
BRANCH  11  12
ATOM     12  C   UNL     1      18.305 -34.012  19.063  1.00  0.00    -0.000 C 
BRANCH  12  13
ATOM     13  C   UNL     1      16.774 -34.143  18.994  1.00  0.00    -0.000 C 
BRANCH  13  14
ATOM     14  C   UNL     1      16.251 -35.390  19.721  1.00  0.00    -0.000 C 
BRANCH  14  15
ATOM     15  C   UNL     1      16.954 -36.655  19.214  1.00  0.00    -0.003 C 
ATOM     16  C   UNL     1      17.651 -37.393  20.352  1.00  0.00     0.004 C 
ENDBRANCH  14  15
ENDBRANCH  13  14
ENDBRANCH  12  13
ENDBRANCH  11  12
ENDBRANCH  10  11
ENDBRANCH   1  10
TORSDOF 12
ENDMDL
