MODEL 1
REMARK VINA RESULT:    -4.951      0.000      0.000
REMARK INTER + INTRA:          -6.708
REMARK INTER:                  -6.398
REMARK INTRA:                  -0.310
REMARK UNBOUND:                -0.310
REMARK SMILES CCO[C@@H]1O[C@@H](CO)[C@H](O)[C@@H](O)[C@@H]1O
REMARK SMILES IDX 4 1 13 2 11 3 9 4 6 5 5 6 3 7 2 8 1 9 14 10 12 12 7 14 8 15
REMARK SMILES IDX 10 17
REMARK H PARENT 14 11 12 13 8 16 10 18
REMARK Flexibility Score: inf
ROOT
ATOM      1  C   UNL     1      -5.943   7.754 -12.184  1.00  0.00     0.281 C 
ATOM      2  C   UNL     1      -6.506   8.685 -11.094  1.00  0.00     0.202 C 
ATOM      3  C   UNL     1      -6.036   8.217  -9.703  1.00  0.00     0.179 C 
ATOM      4  C   UNL     1      -4.506   8.027  -9.694  1.00  0.00     0.177 C 
ATOM      5  C   UNL     1      -4.074   7.136 -10.888  1.00  0.00     0.178 C 
ATOM      6  O   UNL     1      -4.523   7.697 -12.113  1.00  0.00    -0.341 OA
ENDROOT
BRANCH   1   7
ATOM      7  O   UNL     1      -6.524   6.464 -12.078  1.00  0.00    -0.350 OA
BRANCH   7   8
ATOM      8  C   UNL     1      -7.058   6.065 -13.323  1.00  0.00     0.160 C 
ATOM      9  C   UNL     1      -5.944   5.478 -14.176  1.00  0.00     0.035 C 
ENDBRANCH   7   8
ENDBRANCH   1   7
BRANCH   2  10
ATOM     10  O   UNL     1      -7.908   8.686 -11.160  1.00  0.00    -0.385 OA
ATOM     11  H   UNL     1      -8.213   7.808 -10.813  1.00  0.00     0.211 HD
ENDBRANCH   2  10
BRANCH   3  12
ATOM     12  O   UNL     1      -6.432   9.124  -8.705  1.00  0.00    -0.387 OA
ATOM     13  H   UNL     1      -7.272   8.782  -8.300  1.00  0.00     0.211 HD
ENDBRANCH   3  12
BRANCH   5  14
ATOM     14  C   UNL     1      -2.547   7.002 -10.964  1.00  0.00     0.191 C 
BRANCH  14  15
ATOM     15  O   UNL     1      -2.126   5.821 -10.339  1.00  0.00    -0.394 OA
ATOM     16  H   UNL     1      -2.170   5.996  -9.363  1.00  0.00     0.210 HD
ENDBRANCH  14  15
ENDBRANCH   5  14
BRANCH   4  17
ATOM     17  O   UNL     1      -4.088   7.485  -8.465  1.00  0.00    -0.387 OA
ATOM     18  H   UNL     1      -4.512   6.592  -8.370  1.00  0.00     0.211 HD
ENDBRANCH   4  17
TORSDOF 7
ENDMDL
MODEL 2
REMARK VINA RESULT:    -4.764      1.494      3.652
REMARK INTER + INTRA:          -6.467
REMARK INTER:                  -6.046
REMARK INTRA:                  -0.421
REMARK UNBOUND:                -0.310
REMARK SMILES CCO[C@@H]1O[C@@H](CO)[C@H](O)[C@@H](O)[C@@H]1O
REMARK SMILES IDX 4 1 13 2 11 3 9 4 6 5 5 6 3 7 2 8 1 9 14 10 12 12 7 14 8 15
REMARK SMILES IDX 10 17
REMARK H PARENT 14 11 12 13 8 16 10 18
REMARK Flexibility Score: inf
ROOT
ATOM      1  C   UNL     1      -4.205   6.693 -11.977  1.00  0.00     0.281 C 
ATOM      2  C   UNL     1      -3.730   6.622 -10.514  1.00  0.00     0.202 C 
ATOM      3  C   UNL     1      -4.386   7.745  -9.688  1.00  0.00     0.179 C 
ATOM      4  C   UNL     1      -5.914   7.735  -9.895  1.00  0.00     0.177 C 
ATOM      5  C   UNL     1      -6.243   7.731 -11.411  1.00  0.00     0.178 C 
ATOM      6  O   UNL     1      -5.624   6.624 -12.050  1.00  0.00    -0.341 OA
ENDROOT
BRANCH   1   7
ATOM      7  O   UNL     1      -3.706   7.868 -12.599  1.00  0.00    -0.350 OA
BRANCH   7   8
ATOM      8  C   UNL     1      -3.125   7.550 -13.847  1.00  0.00     0.160 C 
ATOM      9  C   UNL     1      -4.127   7.851 -14.951  1.00  0.00     0.035 C 
ENDBRANCH   7   8
ENDBRANCH   1   7
BRANCH   2  10
ATOM     10  O   UNL     1      -2.331   6.738 -10.471  1.00  0.00    -0.385 OA
ATOM     11  H   UNL     1      -1.966   6.040 -11.074  1.00  0.00     0.211 HD
ENDBRANCH   2  10
BRANCH   3  12
ATOM     12  O   UNL     1      -4.067   7.621  -8.324  1.00  0.00    -0.387 OA
ATOM     13  H   UNL     1      -3.079   7.681  -8.237  1.00  0.00     0.211 HD
ENDBRANCH   3  12
BRANCH   5  14
ATOM     14  C   UNL     1      -7.756   7.627 -11.655  1.00  0.00     0.191 C 
BRANCH  14  15
ATOM     15  O   UNL     1      -8.369   6.895 -10.630  1.00  0.00    -0.394 OA
ATOM     16  H   UNL     1      -9.211   6.537 -11.014  1.00  0.00     0.210 HD
ENDBRANCH  14  15
ENDBRANCH   5  14
BRANCH   4  17
ATOM     17  O   UNL     1      -6.502   8.833  -9.240  1.00  0.00    -0.387 OA
ATOM     18  H   UNL     1      -5.798   9.270  -8.694  1.00  0.00     0.211 HD
ENDBRANCH   4  17
TORSDOF 7
ENDMDL
MODEL 3
REMARK VINA RESULT:    -4.638      1.803      3.365
REMARK INTER + INTRA:          -6.304
REMARK INTER:                  -6.070
REMARK INTRA:                  -0.234
REMARK UNBOUND:                -0.310
REMARK SMILES CCO[C@@H]1O[C@@H](CO)[C@H](O)[C@@H](O)[C@@H]1O
REMARK SMILES IDX 4 1 13 2 11 3 9 4 6 5 5 6 3 7 2 8 1 9 14 10 12 12 7 14 8 15
REMARK SMILES IDX 10 17
REMARK H PARENT 14 11 12 13 8 16 10 18
REMARK Flexibility Score: inf
ROOT
ATOM      1  C   UNL     1      -6.355   6.237 -11.926  1.00  0.00     0.281 C 
ATOM      2  C   UNL     1      -5.745   6.331 -13.337  1.00  0.00     0.202 C 
ATOM      3  C   UNL     1      -4.814   7.554 -13.432  1.00  0.00     0.179 C 
ATOM      4  C   UNL     1      -3.803   7.546 -12.267  1.00  0.00     0.177 C 
ATOM      5  C   UNL     1      -4.549   7.368 -10.918  1.00  0.00     0.178 C 
ATOM      6  O   UNL     1      -5.333   6.183 -10.938  1.00  0.00    -0.341 OA
ENDROOT
BRANCH   1   7
ATOM      7  O   UNL     1      -7.242   7.322 -11.700  1.00  0.00    -0.350 OA
BRANCH   7   8
ATOM      8  C   UNL     1      -8.248   6.946 -10.782  1.00  0.00     0.160 C 
ATOM      9  C   UNL     1      -8.740   5.550 -11.128  1.00  0.00     0.035 C 
ENDBRANCH   7   8
ENDBRANCH   1   7
BRANCH   2  10
ATOM     10  O   UNL     1      -6.776   6.428 -14.285  1.00  0.00    -0.385 OA
ATOM     11  H   UNL     1      -7.025   7.387 -14.341  1.00  0.00     0.211 HD
ENDBRANCH   2  10
BRANCH   3  12
ATOM     12  O   UNL     1      -4.148   7.587 -14.670  1.00  0.00    -0.387 OA
ATOM     13  H   UNL     1      -4.356   6.743 -15.149  1.00  0.00     0.211 HD
ENDBRANCH   3  12
BRANCH   5  14
ATOM     14  C   UNL     1      -3.566   7.261  -9.744  1.00  0.00     0.191 C 
BRANCH  14  15
ATOM     15  O   UNL     1      -4.190   7.632  -8.546  1.00  0.00    -0.394 OA
ATOM     16  H   UNL     1      -3.459   7.794  -7.894  1.00  0.00     0.210 HD
ENDBRANCH  14  15
ENDBRANCH   5  14
BRANCH   4  17
ATOM     17  O   UNL     1      -3.032   8.722 -12.281  1.00  0.00    -0.387 OA
ATOM     18  H   UNL     1      -3.658   9.493 -12.249  1.00  0.00     0.211 HD
ENDBRANCH   4  17
TORSDOF 7
ENDMDL
MODEL 4
REMARK VINA RESULT:    -4.621      1.678      2.853
REMARK INTER + INTRA:          -6.281
REMARK INTER:                  -6.008
REMARK INTRA:                  -0.273
REMARK UNBOUND:                -0.310
REMARK SMILES CCO[C@@H]1O[C@@H](CO)[C@H](O)[C@@H](O)[C@@H]1O
REMARK SMILES IDX 4 1 13 2 11 3 9 4 6 5 5 6 3 7 2 8 1 9 14 10 12 12 7 14 8 15
REMARK SMILES IDX 10 17
REMARK H PARENT 14 11 12 13 8 16 10 18
REMARK Flexibility Score: inf
ROOT
ATOM      1  C   UNL     1      -6.705   7.886 -10.892  1.00  0.00     0.281 C 
ATOM      2  C   UNL     1      -5.579   8.428  -9.991  1.00  0.00     0.202 C 
ATOM      3  C   UNL     1      -4.451   7.386  -9.868  1.00  0.00     0.179 C 
ATOM      4  C   UNL     1      -4.014   6.907 -11.267  1.00  0.00     0.177 C 
ATOM      5  C   UNL     1      -5.254   6.466 -12.088  1.00  0.00     0.178 C 
ATOM      6  O   UNL     1      -6.196   7.526 -12.170  1.00  0.00    -0.341 OA
ENDROOT
BRANCH   1   7
ATOM      7  O   UNL     1      -7.357   6.795 -10.262  1.00  0.00    -0.350 OA
BRANCH   7   8
ATOM      8  C   UNL     1      -8.532   6.455 -10.969  1.00  0.00     0.160 C 
ATOM      9  C   UNL     1      -9.011   5.088 -10.506  1.00  0.00     0.035 C 
ENDBRANCH   7   8
ENDBRANCH   1   7
BRANCH   2  10
ATOM     10  O   UNL     1      -6.102   8.732  -8.724  1.00  0.00    -0.385 OA
ATOM     11  H   UNL     1      -6.871   8.123  -8.576  1.00  0.00     0.211 HD
ENDBRANCH   2  10
BRANCH   3  12
ATOM     12  O   UNL     1      -3.357   7.908  -9.155  1.00  0.00    -0.387 OA
ATOM     13  H   UNL     1      -3.276   8.870  -9.386  1.00  0.00     0.211 HD
ENDBRANCH   3  12
BRANCH   5  14
ATOM     14  C   UNL     1      -4.866   6.070 -13.520  1.00  0.00     0.191 C 
BRANCH  14  15
ATOM     15  O   UNL     1      -3.811   6.869 -13.981  1.00  0.00    -0.394 OA
ATOM     16  H   UNL     1      -4.104   7.809 -13.858  1.00  0.00     0.210 HD
ENDBRANCH  14  15
ENDBRANCH   5  14
BRANCH   4  17
ATOM     17  O   UNL     1      -3.071   5.868 -11.155  1.00  0.00    -0.387 OA
ATOM     18  H   UNL     1      -2.923   5.496 -12.063  1.00  0.00     0.211 HD
ENDBRANCH   4  17
TORSDOF 7
ENDMDL
MODEL 5
REMARK VINA RESULT:    -4.366      2.107      4.919
REMARK INTER + INTRA:          -5.952
REMARK INTER:                  -5.645
REMARK INTRA:                  -0.307
REMARK UNBOUND:                -0.310
REMARK SMILES CCO[C@@H]1O[C@@H](CO)[C@H](O)[C@@H](O)[C@@H]1O
REMARK SMILES IDX 4 1 13 2 11 3 9 4 6 5 5 6 3 7 2 8 1 9 14 10 12 12 7 14 8 15
REMARK SMILES IDX 10 17
REMARK H PARENT 14 11 12 13 8 16 10 18
REMARK Flexibility Score: inf
ROOT
ATOM      1  C   UNL     1      -4.519   7.512 -12.412  1.00  0.00     0.281 C 
ATOM      2  C   UNL     1      -4.716   7.449 -13.938  1.00  0.00     0.202 C 
ATOM      3  C   UNL     1      -5.741   6.355 -14.295  1.00  0.00     0.179 C 
ATOM      4  C   UNL     1      -7.026   6.537 -13.463  1.00  0.00     0.177 C 
ATOM      5  C   UNL     1      -6.671   6.664 -11.958  1.00  0.00     0.178 C 
ATOM      6  O   UNL     1      -5.760   7.735 -11.752  1.00  0.00    -0.341 OA
ENDROOT
BRANCH   1   7
ATOM      7  O   UNL     1      -3.886   6.330 -11.948  1.00  0.00    -0.350 OA
BRANCH   7   8
ATOM      8  C   UNL     1      -3.345   6.540 -10.660  1.00  0.00     0.160 C 
ATOM      9  C   UNL     1      -1.877   6.145 -10.667  1.00  0.00     0.035 C 
ENDBRANCH   7   8
ENDBRANCH   1   7
BRANCH   2  10
ATOM     10  O   UNL     1      -3.484   7.184 -14.557  1.00  0.00    -0.385 OA
ATOM     11  H   UNL     1      -2.979   8.038 -14.568  1.00  0.00     0.211 HD
ENDBRANCH   2  10
BRANCH   3  12
ATOM     12  O   UNL     1      -6.031   6.365 -15.671  1.00  0.00    -0.387 OA
ATOM     13  H   UNL     1      -5.582   7.156 -16.070  1.00  0.00     0.211 HD
ENDBRANCH   3  12
BRANCH   5  14
ATOM     14  C   UNL     1      -7.920   6.940 -11.109  1.00  0.00     0.191 C 
BRANCH  14  15
ATOM     15  O   UNL     1      -8.759   5.818 -11.091  1.00  0.00    -0.394 OA
ATOM     16  H   UNL     1      -8.247   5.086 -11.524  1.00  0.00     0.210 HD
ENDBRANCH  14  15
ENDBRANCH   5  14
BRANCH   4  17
ATOM     17  O   UNL     1      -7.914   5.471 -13.697  1.00  0.00    -0.387 OA
ATOM     18  H   UNL     1      -8.250   5.558 -14.627  1.00  0.00     0.211 HD
ENDBRANCH   4  17
TORSDOF 7
ENDMDL
MODEL 6
REMARK VINA RESULT:    -4.303     10.924     12.859
REMARK INTER + INTRA:          -5.871
REMARK INTER:                  -5.678
REMARK INTRA:                  -0.193
REMARK UNBOUND:                -0.310
REMARK SMILES CCO[C@@H]1O[C@@H](CO)[C@H](O)[C@@H](O)[C@@H]1O
REMARK SMILES IDX 4 1 13 2 11 3 9 4 6 5 5 6 3 7 2 8 1 9 14 10 12 12 7 14 8 15
REMARK SMILES IDX 10 17
REMARK H PARENT 14 11 12 13 8 16 10 18
REMARK Flexibility Score: inf
ROOT
ATOM      1  C   UNL     1      -5.631  -3.107 -20.353  1.00  0.00     0.281 C 
ATOM      2  C   UNL     1      -6.554  -1.895 -20.576  1.00  0.00     0.202 C 
ATOM      3  C   UNL     1      -6.619  -1.036 -19.298  1.00  0.00     0.179 C 
ATOM      4  C   UNL     1      -5.195  -0.709 -18.804  1.00  0.00     0.177 C 
ATOM      5  C   UNL     1      -4.357  -2.011 -18.701  1.00  0.00     0.178 C 
ATOM      6  O   UNL     1      -4.333  -2.685 -19.951  1.00  0.00    -0.341 OA
ENDROOT
BRANCH   1   7
ATOM      7  O   UNL     1      -6.206  -3.997 -19.409  1.00  0.00    -0.350 OA
BRANCH   7   8
ATOM      8  C   UNL     1      -6.727  -5.134 -20.066  1.00  0.00     0.160 C 
ATOM      9  C   UNL     1      -7.953  -5.625 -19.311  1.00  0.00     0.035 C 
ENDBRANCH   7   8
ENDBRANCH   1   7
BRANCH   2  10
ATOM     10  O   UNL     1      -7.837  -2.344 -20.927  1.00  0.00    -0.385 OA
ATOM     11  H   UNL     1      -7.861  -2.399 -21.917  1.00  0.00     0.211 HD
ENDBRANCH   2  10
BRANCH   3  12
ATOM     12  O   UNL     1      -7.354   0.142 -19.519  1.00  0.00    -0.387 OA
ATOM     13  H   UNL     1      -8.258  -0.119 -19.837  1.00  0.00     0.211 HD
ENDBRANCH   3  12
BRANCH   5  14
ATOM     14  C   UNL     1      -2.905  -1.712 -18.300  1.00  0.00     0.191 C 
BRANCH  14  15
ATOM     15  O   UNL     1      -2.655  -0.334 -18.354  1.00  0.00    -0.394 OA
ATOM     16  H   UNL     1      -2.816   0.010 -17.437  1.00  0.00     0.210 HD
ENDBRANCH  14  15
ENDBRANCH   5  14
BRANCH   4  17
ATOM     17  O   UNL     1      -5.250  -0.030 -17.573  1.00  0.00    -0.387 OA
ATOM     18  H   UNL     1      -5.311  -0.712 -16.854  1.00  0.00     0.211 HD
ENDBRANCH   4  17
TORSDOF 7
ENDMDL
MODEL 7
REMARK VINA RESULT:    -4.291      1.914      3.044
REMARK INTER + INTRA:          -5.856
REMARK INTER:                  -5.480
REMARK INTRA:                  -0.376
REMARK UNBOUND:                -0.310
REMARK SMILES CCO[C@@H]1O[C@@H](CO)[C@H](O)[C@@H](O)[C@@H]1O
REMARK SMILES IDX 4 1 13 2 11 3 9 4 6 5 5 6 3 7 2 8 1 9 14 10 12 12 7 14 8 15
REMARK SMILES IDX 10 17
REMARK H PARENT 14 11 12 13 8 16 10 18
REMARK Flexibility Score: inf
ROOT
ATOM      1  C   UNL     1      -5.300   7.545 -13.483  1.00  0.00     0.281 C 
ATOM      2  C   UNL     1      -6.752   7.038 -13.422  1.00  0.00     0.202 C 
ATOM      3  C   UNL     1      -6.932   6.086 -12.224  1.00  0.00     0.179 C 
ATOM      4  C   UNL     1      -6.400   6.747 -10.935  1.00  0.00     0.177 C 
ATOM      5  C   UNL     1      -4.961   7.278 -11.166  1.00  0.00     0.178 C 
ATOM      6  O   UNL     1      -4.936   8.180 -12.263  1.00  0.00    -0.341 OA
ENDROOT
BRANCH   1   7
ATOM      7  O   UNL     1      -4.419   6.478 -13.799  1.00  0.00    -0.350 OA
BRANCH   7   8
ATOM      8  C   UNL     1      -3.575   6.843 -14.871  1.00  0.00     0.160 C 
ATOM      9  C   UNL     1      -3.973   6.053 -16.108  1.00  0.00     0.035 C 
ENDBRANCH   7   8
ENDBRANCH   1   7
BRANCH   2  10
ATOM     10  O   UNL     1      -7.067   6.377 -14.620  1.00  0.00    -0.385 OA
ATOM     11  H   UNL     1      -6.539   6.816 -15.337  1.00  0.00     0.211 HD
ENDBRANCH   2  10
BRANCH   3  12
ATOM     12  O   UNL     1      -8.279   5.712 -12.073  1.00  0.00    -0.387 OA
ATOM     13  H   UNL     1      -8.454   4.955 -12.692  1.00  0.00     0.211 HD
ENDBRANCH   3  12
BRANCH   5  14
ATOM     14  C   UNL     1      -4.435   8.025  -9.932  1.00  0.00     0.191 C 
BRANCH  14  15
ATOM     15  O   UNL     1      -4.315   7.150  -8.844  1.00  0.00    -0.394 OA
ATOM     16  H   UNL     1      -4.707   7.625  -8.065  1.00  0.00     0.210 HD
ENDBRANCH  14  15
ENDBRANCH   5  14
BRANCH   4  17
ATOM     17  O   UNL     1      -6.451   5.836  -9.864  1.00  0.00    -0.387 OA
ATOM     18  H   UNL     1      -5.721   6.073  -9.233  1.00  0.00     0.211 HD
ENDBRANCH   4  17
TORSDOF 7
ENDMDL
MODEL 8
REMARK VINA RESULT:    -4.150      1.592      2.102
REMARK INTER + INTRA:          -5.673
REMARK INTER:                  -5.282
REMARK INTRA:                  -0.391
REMARK UNBOUND:                -0.310
REMARK SMILES CCO[C@@H]1O[C@@H](CO)[C@H](O)[C@@H](O)[C@@H]1O
REMARK SMILES IDX 4 1 13 2 11 3 9 4 6 5 5 6 3 7 2 8 1 9 14 10 12 12 7 14 8 15
REMARK SMILES IDX 10 17
REMARK H PARENT 14 11 12 13 8 16 10 18
REMARK Flexibility Score: inf
ROOT
ATOM      1  C   UNL     1      -6.413   7.262 -12.245  1.00  0.00     0.281 C 
ATOM      2  C   UNL     1      -6.365   7.054 -10.720  1.00  0.00     0.202 C 
ATOM      3  C   UNL     1      -4.947   6.634 -10.286  1.00  0.00     0.179 C 
ATOM      4  C   UNL     1      -3.904   7.614 -10.860  1.00  0.00     0.177 C 
ATOM      5  C   UNL     1      -4.120   7.787 -12.386  1.00  0.00     0.178 C 
ATOM      6  O   UNL     1      -5.446   8.222 -12.652  1.00  0.00    -0.341 OA
ENDROOT
BRANCH   1   7
ATOM      7  O   UNL     1      -6.236   6.024 -12.916  1.00  0.00    -0.350 OA
BRANCH   7   8
ATOM      8  C   UNL     1      -6.750   6.104 -14.230  1.00  0.00     0.160 C 
ATOM      9  C   UNL     1      -5.621   5.862 -15.219  1.00  0.00     0.035 C 
ENDBRANCH   7   8
ENDBRANCH   1   7
BRANCH   2  10
ATOM     10  O   UNL     1      -7.297   6.070 -10.354  1.00  0.00    -0.385 OA
ATOM     11  H   UNL     1      -8.075   6.171 -10.961  1.00  0.00     0.211 HD
ENDBRANCH   2  10
BRANCH   3  12
ATOM     12  O   UNL     1      -4.848   6.562  -8.885  1.00  0.00    -0.387 OA
ATOM     13  H   UNL     1      -5.553   5.942  -8.563  1.00  0.00     0.211 HD
ENDBRANCH   3  12
BRANCH   5  14
ATOM     14  C   UNL     1      -3.157   8.828 -12.974  1.00  0.00     0.191 C 
BRANCH  14  15
ATOM     15  O   UNL     1      -1.875   8.282 -13.123  1.00  0.00    -0.394 OA
ATOM     16  H   UNL     1      -1.726   7.709 -12.326  1.00  0.00     0.210 HD
ENDBRANCH  14  15
ENDBRANCH   5  14
BRANCH   4  17
ATOM     17  O   UNL     1      -2.602   7.166 -10.568  1.00  0.00    -0.387 OA
ATOM     18  H   UNL     1      -2.043   7.319 -11.375  1.00  0.00     0.211 HD
ENDBRANCH   4  17
TORSDOF 7
ENDMDL
MODEL 9
REMARK VINA RESULT:    -4.119     13.556     15.419
REMARK INTER + INTRA:          -5.633
REMARK INTER:                  -5.268
REMARK INTRA:                  -0.364
REMARK UNBOUND:                -0.310
REMARK SMILES CCO[C@@H]1O[C@@H](CO)[C@H](O)[C@@H](O)[C@@H]1O
REMARK SMILES IDX 4 1 13 2 11 3 9 4 6 5 5 6 3 7 2 8 1 9 14 10 12 12 7 14 8 15
REMARK SMILES IDX 10 17
REMARK H PARENT 14 11 12 13 8 16 10 18
REMARK Flexibility Score: inf
ROOT
ATOM      1  C   UNL     1      -8.356  -5.299 -19.445  1.00  0.00     0.281 C 
ATOM      2  C   UNL     1      -7.743  -4.692 -18.170  1.00  0.00     0.202 C 
ATOM      3  C   UNL     1      -6.273  -4.305 -18.422  1.00  0.00     0.179 C 
ATOM      4  C   UNL     1      -6.160  -3.441 -19.694  1.00  0.00     0.177 C 
ATOM      5  C   UNL     1      -6.887  -4.137 -20.875  1.00  0.00     0.178 C 
ATOM      6  O   UNL     1      -8.242  -4.396 -20.539  1.00  0.00    -0.341 OA
ENDROOT
BRANCH   1   7
ATOM      7  O   UNL     1      -7.751  -6.550 -19.735  1.00  0.00    -0.350 OA
BRANCH   7   8
ATOM      8  C   UNL     1      -8.732  -7.487 -20.129  1.00  0.00     0.160 C 
ATOM      9  C   UNL     1      -8.476  -8.805 -19.414  1.00  0.00     0.035 C 
ENDBRANCH   7   8
ENDBRANCH   1   7
BRANCH   2  10
ATOM     10  O   UNL     1      -7.830  -5.621 -17.122  1.00  0.00    -0.385 OA
ATOM     11  H   UNL     1      -7.571  -6.503 -17.497  1.00  0.00     0.211 HD
ENDBRANCH   2  10
BRANCH   3  12
ATOM     12  O   UNL     1      -5.731  -3.632 -17.312  1.00  0.00    -0.387 OA
ATOM     13  H   UNL     1      -5.198  -2.866 -17.652  1.00  0.00     0.211 HD
ENDBRANCH   3  12
BRANCH   5  14
ATOM     14  C   UNL     1      -6.874  -3.261 -22.135  1.00  0.00     0.191 C 
BRANCH  14  15
ATOM     15  O   UNL     1      -5.806  -3.616 -22.969  1.00  0.00    -0.394 OA
ATOM     16  H   UNL     1      -5.944  -4.572 -23.201  1.00  0.00     0.210 HD
ENDBRANCH  14  15
ENDBRANCH   5  14
BRANCH   4  17
ATOM     17  O   UNL     1      -4.809  -3.188 -19.994  1.00  0.00    -0.387 OA
ATOM     18  H   UNL     1      -4.421  -4.024 -20.364  1.00  0.00     0.211 HD
ENDBRANCH   4  17
TORSDOF 7
ENDMDL
