MODEL 1
REMARK VINA RESULT:    -4.825      0.000      0.000
REMARK INTER + INTRA:          -5.202
REMARK INTER:                  -5.107
REMARK INTRA:                  -0.095
REMARK UNBOUND:                -0.095
REMARK SMILES C=C(C)[C@@H]1CC=C(C)C(=O)C1
REMARK SMILES IDX 8 1 7 2 6 3 5 4 4 5 11 6 9 7 10 8 2 9 1 10 3 11
REMARK H PARENT
REMARK Flexibility Score: inf
ROOT
ATOM      1  C   UNL     1      15.613  18.823  29.761  1.00  0.00     0.048 C 
ATOM      2  C   UNL     1      15.370  20.306  29.693  1.00  0.00    -0.012 C 
ATOM      3  C   UNL     1      15.378  21.037  30.821  1.00  0.00    -0.019 C 
ATOM      4  C   UNL     1      15.160  22.527  30.808  1.00  0.00     0.036 C 
ATOM      5  C   UNL     1      14.200  22.936  29.674  1.00  0.00     0.025 C 
ATOM      6  C   UNL     1      14.715  22.412  28.322  1.00  0.00     0.089 C 
ATOM      7  C   UNL     1      15.000  20.936  28.401  1.00  0.00     0.158 C 
ATOM      8  O   UNL     1      14.957  20.246  27.347  1.00  0.00    -0.295 OA
ENDROOT
BRANCH   5   9
ATOM      9  C   UNL     1      13.987  24.443  29.642  1.00  0.00    -0.077 C 
ATOM     10  C   UNL     1      13.876  25.133  30.789  1.00  0.00     0.008 C 
ATOM     11  C   UNL     1      13.894  25.197  28.337  1.00  0.00     0.039 C 
ENDBRANCH   5   9
TORSDOF 1
ENDMDL
MODEL 2
REMARK VINA RESULT:    -4.728      1.380      2.696
REMARK INTER + INTRA:          -5.100
REMARK INTER:                  -5.002
REMARK INTRA:                  -0.098
REMARK UNBOUND:                -0.095
REMARK SMILES C=C(C)[C@@H]1CC=C(C)C(=O)C1
REMARK SMILES IDX 8 1 7 2 6 3 5 4 4 5 11 6 9 7 10 8 2 9 1 10 3 11
REMARK H PARENT
REMARK Flexibility Score: inf
ROOT
ATOM      1  C   UNL     1      14.807  20.998  26.876  1.00  0.00     0.048 C 
ATOM      2  C   UNL     1      14.655  21.652  28.222  1.00  0.00    -0.012 C 
ATOM      3  C   UNL     1      14.221  22.921  28.302  1.00  0.00    -0.019 C 
ATOM      4  C   UNL     1      14.032  23.618  29.624  1.00  0.00     0.036 C 
ATOM      5  C   UNL     1      15.060  23.127  30.661  1.00  0.00     0.025 C 
ATOM      6  C   UNL     1      14.993  21.595  30.796  1.00  0.00     0.089 C 
ATOM      7  C   UNL     1      15.102  20.940  29.445  1.00  0.00     0.158 C 
ATOM      8  O   UNL     1      15.544  19.762  29.368  1.00  0.00    -0.295 OA
ENDROOT
BRANCH   5   9
ATOM      9  C   UNL     1      14.865  23.812  32.006  1.00  0.00    -0.077 C 
ATOM     10  C   UNL     1      15.354  23.253  33.125  1.00  0.00     0.008 C 
ATOM     11  C   UNL     1      14.125  25.123  32.121  1.00  0.00     0.039 C 
ENDBRANCH   5   9
TORSDOF 1
ENDMDL
MODEL 3
REMARK VINA RESULT:    -4.425      1.855      3.174
REMARK INTER + INTRA:          -4.779
REMARK INTER:                  -4.681
REMARK INTRA:                  -0.098
REMARK UNBOUND:                -0.095
REMARK SMILES C=C(C)[C@@H]1CC=C(C)C(=O)C1
REMARK SMILES IDX 8 1 7 2 6 3 5 4 4 5 11 6 9 7 10 8 2 9 1 10 3 11
REMARK H PARENT
REMARK Flexibility Score: inf
ROOT
ATOM      1  C   UNL     1      15.766  22.754  25.602  1.00  0.00     0.048 C 
ATOM      2  C   UNL     1      15.351  23.145  26.994  1.00  0.00    -0.012 C 
ATOM      3  C   UNL     1      15.682  24.356  27.474  1.00  0.00    -0.019 C 
ATOM      4  C   UNL     1      15.276  24.806  28.852  1.00  0.00     0.036 C 
ATOM      5  C   UNL     1      15.225  23.617  29.830  1.00  0.00     0.025 C 
ATOM      6  C   UNL     1      14.302  22.513  29.283  1.00  0.00     0.089 C 
ATOM      7  C   UNL     1      14.689  22.151  27.875  1.00  0.00     0.158 C 
ATOM      8  O   UNL     1      14.410  21.002  27.438  1.00  0.00    -0.295 OA
ENDROOT
BRANCH   5   9
ATOM      9  C   UNL     1      14.798  24.059  31.223  1.00  0.00    -0.077 C 
ATOM     10  C   UNL     1      14.101  25.196  31.385  1.00  0.00     0.008 C 
ATOM     11  C   UNL     1      15.142  23.246  32.447  1.00  0.00     0.039 C 
ENDBRANCH   5   9
TORSDOF 1
ENDMDL
MODEL 4
REMARK VINA RESULT:    -4.414      8.927      9.729
REMARK INTER + INTRA:          -4.767
REMARK INTER:                  -4.671
REMARK INTRA:                  -0.096
REMARK UNBOUND:                -0.095
REMARK SMILES C=C(C)[C@@H]1CC=C(C)C(=O)C1
REMARK SMILES IDX 8 1 7 2 6 3 5 4 4 5 11 6 9 7 10 8 2 9 1 10 3 11
REMARK H PARENT
REMARK Flexibility Score: inf
ROOT
ATOM      1  C   UNL     1      24.402  29.425  29.765  1.00  0.00     0.048 C 
ATOM      2  C   UNL     1      23.397  28.489  29.153  1.00  0.00    -0.012 C 
ATOM      3  C   UNL     1      22.083  28.734  29.294  1.00  0.00    -0.019 C 
ATOM      4  C   UNL     1      21.035  27.841  28.685  1.00  0.00     0.036 C 
ATOM      5  C   UNL     1      21.509  26.375  28.650  1.00  0.00     0.025 C 
ATOM      6  C   UNL     1      22.859  26.268  27.920  1.00  0.00     0.089 C 
ATOM      7  C   UNL     1      23.854  27.235  28.504  1.00  0.00     0.158 C 
ATOM      8  O   UNL     1      25.085  26.984  28.402  1.00  0.00    -0.295 OA
ENDROOT
BRANCH   5   9
ATOM      9  C   UNL     1      20.462  25.467  28.019  1.00  0.00    -0.077 C 
ATOM     10  C   UNL     1      19.155  25.727  28.187  1.00  0.00     0.008 C 
ATOM     11  C   UNL     1      20.857  24.263  27.199  1.00  0.00     0.039 C 
ENDBRANCH   5   9
TORSDOF 1
ENDMDL
MODEL 5
REMARK VINA RESULT:    -4.359      6.370      7.052
REMARK INTER + INTRA:          -4.709
REMARK INTER:                  -4.612
REMARK INTRA:                  -0.097
REMARK UNBOUND:                -0.095
REMARK SMILES C=C(C)[C@@H]1CC=C(C)C(=O)C1
REMARK SMILES IDX 8 1 7 2 6 3 5 4 4 5 11 6 9 7 10 8 2 9 1 10 3 11
REMARK H PARENT
REMARK Flexibility Score: inf
ROOT
ATOM      1  C   UNL     1      20.534  23.980  26.683  1.00  0.00     0.048 C 
ATOM      2  C   UNL     1      20.013  25.114  27.523  1.00  0.00    -0.012 C 
ATOM      3  C   UNL     1      18.702  25.409  27.509  1.00  0.00    -0.019 C 
ATOM      4  C   UNL     1      18.126  26.521  28.345  1.00  0.00     0.036 C 
ATOM      5  C   UNL     1      19.136  27.672  28.508  1.00  0.00     0.025 C 
ATOM      6  C   UNL     1      20.463  27.142  29.080  1.00  0.00     0.089 C 
ATOM      7  C   UNL     1      20.963  25.980  28.266  1.00  0.00     0.158 C 
ATOM      8  O   UNL     1      22.197  25.726  28.252  1.00  0.00    -0.295 OA
ENDROOT
BRANCH   5   9
ATOM      9  C   UNL     1      18.568  28.793  29.368  1.00  0.00    -0.077 C 
ATOM     10  C   UNL     1      17.897  28.505  30.495  1.00  0.00     0.008 C 
ATOM     11  C   UNL     1      18.739  30.243  28.983  1.00  0.00     0.039 C 
ENDBRANCH   5   9
TORSDOF 1
ENDMDL
MODEL 6
REMARK VINA RESULT:    -4.301      7.833     10.163
REMARK INTER + INTRA:          -4.648
REMARK INTER:                  -4.552
REMARK INTRA:                  -0.096
REMARK UNBOUND:                -0.095
REMARK SMILES C=C(C)[C@@H]1CC=C(C)C(=O)C1
REMARK SMILES IDX 8 1 7 2 6 3 5 4 4 5 11 6 9 7 10 8 2 9 1 10 3 11
REMARK H PARENT
REMARK Flexibility Score: inf
ROOT
ATOM      1  C   UNL     1      19.331  34.009  29.733  1.00  0.00     0.048 C 
ATOM      2  C   UNL     1      18.406  32.841  29.526  1.00  0.00    -0.012 C 
ATOM      3  C   UNL     1      17.079  33.042  29.464  1.00  0.00    -0.019 C 
ATOM      4  C   UNL     1      16.110  31.911  29.239  1.00  0.00     0.036 C 
ATOM      5  C   UNL     1      16.627  30.605  29.872  1.00  0.00     0.025 C 
ATOM      6  C   UNL     1      18.036  30.277  29.347  1.00  0.00     0.089 C 
ATOM      7  C   UNL     1      18.951  31.460  29.514  1.00  0.00     0.158 C 
ATOM      8  O   UNL     1      20.193  31.267  29.607  1.00  0.00    -0.295 OA
ENDROOT
BRANCH   5   9
ATOM      9  C   UNL     1      15.662  29.451  29.634  1.00  0.00    -0.077 C 
ATOM     10  C   UNL     1      14.343  29.685  29.533  1.00  0.00     0.008 C 
ATOM     11  C   UNL     1      16.153  28.029  29.508  1.00  0.00     0.039 C 
ENDBRANCH   5   9
TORSDOF 1
ENDMDL
MODEL 7
REMARK VINA RESULT:    -4.298      8.816      9.415
REMARK INTER + INTRA:          -4.645
REMARK INTER:                  -4.547
REMARK INTRA:                  -0.098
REMARK UNBOUND:                -0.095
REMARK SMILES C=C(C)[C@@H]1CC=C(C)C(=O)C1
REMARK SMILES IDX 8 1 7 2 6 3 5 4 4 5 11 6 9 7 10 8 2 9 1 10 3 11
REMARK H PARENT
REMARK Flexibility Score: inf
ROOT
ATOM      1  C   UNL     1      18.877  25.971  28.108  1.00  0.00     0.048 C 
ATOM      2  C   UNL     1      20.266  26.477  28.385  1.00  0.00    -0.012 C 
ATOM      3  C   UNL     1      20.442  27.725  28.851  1.00  0.00    -0.019 C 
ATOM      4  C   UNL     1      21.809  28.275  29.164  1.00  0.00     0.036 C 
ATOM      5  C   UNL     1      22.872  27.689  28.215  1.00  0.00     0.025 C 
ATOM      6  C   UNL     1      22.839  26.151  28.260  1.00  0.00     0.089 C 
ATOM      7  C   UNL     1      21.442  25.645  28.026  1.00  0.00     0.158 C 
ATOM      8  O   UNL     1      21.280  24.487  27.554  1.00  0.00    -0.295 OA
ENDROOT
BRANCH   5   9
ATOM      9  C   UNL     1      24.260  28.225  28.535  1.00  0.00    -0.077 C 
ATOM     10  C   UNL     1      24.430  29.101  29.539  1.00  0.00     0.008 C 
ATOM     11  C   UNL     1      25.471  27.797  27.742  1.00  0.00     0.039 C 
ENDBRANCH   5   9
TORSDOF 1
ENDMDL
MODEL 8
REMARK VINA RESULT:    -3.756      2.041      4.162
REMARK INTER + INTRA:          -4.071
REMARK INTER:                  -3.974
REMARK INTRA:                  -0.096
REMARK UNBOUND:                -0.095
REMARK SMILES C=C(C)[C@@H]1CC=C(C)C(=O)C1
REMARK SMILES IDX 8 1 7 2 6 3 5 4 4 5 11 6 9 7 10 8 2 9 1 10 3 11
REMARK H PARENT
REMARK Flexibility Score: inf
ROOT
ATOM      1  C   UNL     1      14.613  24.863  32.551  1.00  0.00     0.048 C 
ATOM      2  C   UNL     1      14.539  23.755  31.536  1.00  0.00    -0.012 C 
ATOM      3  C   UNL     1      14.904  22.509  31.880  1.00  0.00    -0.019 C 
ATOM      4  C   UNL     1      14.831  21.360  30.909  1.00  0.00     0.036 C 
ATOM      5  C   UNL     1      15.103  21.834  29.469  1.00  0.00     0.025 C 
ATOM      6  C   UNL     1      14.142  22.976  29.092  1.00  0.00     0.089 C 
ATOM      7  C   UNL     1      14.183  24.065  30.129  1.00  0.00     0.158 C 
ATOM      8  O   UNL     1      13.875  25.241  29.796  1.00  0.00    -0.295 OA
ENDROOT
BRANCH   5   9
ATOM      9  C   UNL     1      15.013  20.682  28.477  1.00  0.00    -0.077 C 
ATOM     10  C   UNL     1      15.367  19.441  28.852  1.00  0.00     0.008 C 
ATOM     11  C   UNL     1      14.533  20.897  27.062  1.00  0.00     0.039 C 
ENDBRANCH   5   9
TORSDOF 1
ENDMDL
