MODEL 1
REMARK VINA RESULT:    -5.651      0.000      0.000
REMARK INTER + INTRA:          -7.025
REMARK INTER:                  -6.642
REMARK INTRA:                  -0.382
REMARK UNBOUND:                -0.382
REMARK SMILES C=C[C@@]1(C)CC[C@@H](C(=C)C)C[C@H]1C(=C)C
REMARK SMILES IDX 7 1 6 2 5 3 3 4 12 5 11 6 4 7 8 8 10 9 9 10 13 11 14 12
REMARK SMILES IDX 15 13 2 14 1 15
REMARK H PARENT
REMARK Flexibility Score: inf
ROOT
ATOM      1  C   UNL     1     147.468 143.400 163.275  1.00  0.00     0.015 C 
ATOM      2  C   UNL     1     147.095 143.362 164.769  1.00  0.00     0.009 C 
ATOM      3  C   UNL     1     145.578 143.505 164.961  1.00  0.00     0.012 C 
ATOM      4  C   UNL     1     144.772 142.404 164.208  1.00  0.00    -0.008 C 
ATOM      5  C   UNL     1     145.185 142.442 162.690  1.00  0.00     0.024 C 
ATOM      6  C   UNL     1     146.716 142.300 162.500  1.00  0.00     0.017 C 
ATOM      7  C   UNL     1     143.265 142.730 164.347  1.00  0.00     0.016 C 
ENDROOT
BRANCH   1   8
ATOM      8  C   UNL     1     148.974 143.291 163.075  1.00  0.00    -0.077 C 
ATOM      9  C   UNL     1     149.879 143.070 164.259  1.00  0.00     0.039 C 
ATOM     10  C   UNL     1     149.527 143.390 161.853  1.00  0.00     0.008 C 
ENDBRANCH   1   8
BRANCH   5  11
ATOM     11  C   UNL     1     144.387 141.483 161.796  1.00  0.00    -0.077 C 
ATOM     12  C   UNL     1     144.852 140.239 161.582  1.00  0.00     0.008 C 
ATOM     13  C   UNL     1     143.089 141.865 161.124  1.00  0.00     0.039 C 
ENDBRANCH   5  11
BRANCH   4  14
ATOM     14  C   UNL     1     145.046 141.035 164.834  1.00  0.00    -0.028 C 
ATOM     15  C   UNL     1     144.076 140.169 165.156  1.00  0.00     0.004 C 
ENDBRANCH   4  14
TORSDOF 3
ENDMDL
MODEL 2
REMARK VINA RESULT:    -5.646      3.566      5.572
REMARK INTER + INTRA:          -7.019
REMARK INTER:                  -6.641
REMARK INTRA:                  -0.378
REMARK UNBOUND:                -0.382
REMARK SMILES C=C[C@@]1(C)CC[C@@H](C(=C)C)C[C@H]1C(=C)C
REMARK SMILES IDX 7 1 6 2 5 3 3 4 12 5 11 6 4 7 8 8 10 9 9 10 13 11 14 12
REMARK SMILES IDX 15 13 2 14 1 15
REMARK H PARENT
REMARK Flexibility Score: inf
ROOT
ATOM      1  C   UNL     1     143.383 143.307 163.281  1.00  0.00     0.015 C 
ATOM      2  C   UNL     1     143.344 143.702 164.769  1.00  0.00     0.009 C 
ATOM      3  C   UNL     1     143.469 145.224 164.937  1.00  0.00     0.012 C 
ATOM      4  C   UNL     1     142.357 146.006 164.175  1.00  0.00    -0.008 C 
ATOM      5  C   UNL     1     142.398 145.570 162.663  1.00  0.00     0.024 C 
ATOM      6  C   UNL     1     142.273 144.035 162.497  1.00  0.00     0.017 C 
ATOM      7  C   UNL     1     142.667 147.518 164.289  1.00  0.00     0.016 C 
ENDROOT
BRANCH   1   8
ATOM      8  C   UNL     1     143.291 141.797 163.104  1.00  0.00    -0.077 C 
ATOM      9  C   UNL     1     143.062 140.910 164.300  1.00  0.00     0.039 C 
ATOM     10  C   UNL     1     143.413 141.225 161.893  1.00  0.00     0.008 C 
ENDBRANCH   1   8
BRANCH   5  11
ATOM     11  C   UNL     1     141.428 146.343 161.758  1.00  0.00    -0.077 C 
ATOM     12  C   UNL     1     140.181 145.874 161.573  1.00  0.00     0.008 C 
ATOM     13  C   UNL     1     141.803 147.621 161.045  1.00  0.00     0.039 C 
ENDBRANCH   5  11
BRANCH   4  14
ATOM     14  C   UNL     1     140.993 145.726 164.807  1.00  0.00    -0.028 C 
ATOM     15  C   UNL     1     140.116 146.690 165.117  1.00  0.00     0.004 C 
ENDBRANCH   4  14
TORSDOF 3
ENDMDL
MODEL 3
REMARK VINA RESULT:    -5.630      3.596      5.591
REMARK INTER + INTRA:          -7.000
REMARK INTER:                  -6.646
REMARK INTRA:                  -0.354
REMARK UNBOUND:                -0.382
REMARK SMILES C=C[C@@]1(C)CC[C@@H](C(=C)C)C[C@H]1C(=C)C
REMARK SMILES IDX 7 1 6 2 5 3 3 4 12 5 11 6 4 7 8 8 10 9 9 10 13 11 14 12
REMARK SMILES IDX 15 13 2 14 1 15
REMARK H PARENT
REMARK Flexibility Score: inf
ROOT
ATOM      1  C   UNL     1     147.350 147.456 163.241  1.00  0.00     0.015 C 
ATOM      2  C   UNL     1     147.373 147.084 164.735  1.00  0.00     0.009 C 
ATOM      3  C   UNL     1     147.255 145.564 164.924  1.00  0.00     0.012 C 
ATOM      4  C   UNL     1     148.380 144.778 164.188  1.00  0.00    -0.008 C 
ATOM      5  C   UNL     1     148.355 145.191 162.669  1.00  0.00     0.024 C 
ATOM      6  C   UNL     1     148.473 146.724 162.481  1.00  0.00     0.017 C 
ATOM      7  C   UNL     1     148.078 143.266 164.321  1.00  0.00     0.016 C 
ENDROOT
BRANCH   1   8
ATOM      8  C   UNL     1     147.434 148.964 163.042  1.00  0.00    -0.077 C 
ATOM      9  C   UNL     1     147.653 149.871 164.226  1.00  0.00     0.039 C 
ATOM     10  C   UNL     1     147.316 149.518 161.822  1.00  0.00     0.008 C 
ENDBRANCH   1   8
BRANCH   5  11
ATOM     11  C   UNL     1     149.341 144.411 161.788  1.00  0.00    -0.077 C 
ATOM     12  C   UNL     1     150.586 144.887 161.607  1.00  0.00     0.008 C 
ATOM     13  C   UNL     1     148.985 143.116 161.095  1.00  0.00     0.039 C 
ENDBRANCH   5  11
BRANCH   4  14
ATOM     14  C   UNL     1     149.735 145.076 164.833  1.00  0.00    -0.028 C 
ATOM     15  C   UNL     1     150.636 144.127 165.118  1.00  0.00     0.004 C 
ENDBRANCH   4  14
TORSDOF 3
ENDMDL
MODEL 4
REMARK VINA RESULT:    -5.627      5.215      7.219
REMARK INTER + INTRA:          -6.996
REMARK INTER:                  -6.637
REMARK INTRA:                  -0.359
REMARK UNBOUND:                -0.382
REMARK SMILES C=C[C@@]1(C)CC[C@@H](C(=C)C)C[C@H]1C(=C)C
REMARK SMILES IDX 7 1 6 2 5 3 3 4 12 5 11 6 4 7 8 8 10 9 9 10 13 11 14 12
REMARK SMILES IDX 15 13 2 14 1 15
REMARK H PARENT
REMARK Flexibility Score: inf
ROOT
ATOM      1  C   UNL     1     147.736 146.272 163.516  1.00  0.00     0.015 C 
ATOM      2  C   UNL     1     147.442 146.434 162.013  1.00  0.00     0.009 C 
ATOM      3  C   UNL     1     146.255 147.383 161.784  1.00  0.00     0.012 C 
ATOM      4  C   UNL     1     146.484 148.791 162.411  1.00  0.00    -0.008 C 
ATOM      5  C   UNL     1     146.807 148.602 163.940  1.00  0.00     0.024 C 
ATOM      6  C   UNL     1     148.002 147.644 164.167  1.00  0.00     0.017 C 
ATOM      7  C   UNL     1     145.178 149.607 162.251  1.00  0.00     0.016 C 
ENDROOT
BRANCH   1   8
ATOM      8  C   UNL     1     148.890 145.308 163.756  1.00  0.00    -0.077 C 
ATOM      9  C   UNL     1     150.119 145.370 162.886  1.00  0.00     0.039 C 
ATOM     10  C   UNL     1     148.842 144.389 164.736  1.00  0.00     0.008 C 
ENDBRANCH   1   8
BRANCH   5  11
ATOM     11  C   UNL     1     146.946 149.916 164.721  1.00  0.00    -0.077 C 
ATOM     12  C   UNL     1     148.171 150.424 164.947  1.00  0.00     0.008 C 
ATOM     13  C   UNL     1     145.765 150.684 165.267  1.00  0.00     0.039 C 
ENDBRANCH   5  11
BRANCH   4  14
ATOM     14  C   UNL     1     147.616 149.513 161.679  1.00  0.00    -0.028 C 
ATOM     15  C   UNL     1     147.544 149.874 160.391  1.00  0.00     0.004 C 
ENDBRANCH   4  14
TORSDOF 3
ENDMDL
MODEL 5
REMARK VINA RESULT:    -5.619      1.493      5.601
REMARK INTER + INTRA:          -6.987
REMARK INTER:                  -6.627
REMARK INTRA:                  -0.360
REMARK UNBOUND:                -0.382
REMARK SMILES C=C[C@@]1(C)CC[C@@H](C(=C)C)C[C@H]1C(=C)C
REMARK SMILES IDX 7 1 6 2 5 3 3 4 12 5 11 6 4 7 8 8 10 9 9 10 13 11 14 12
REMARK SMILES IDX 15 13 2 14 1 15
REMARK H PARENT
REMARK Flexibility Score: inf
ROOT
ATOM      1  C   UNL     1     146.256 143.012 163.435  1.00  0.00     0.015 C 
ATOM      2  C   UNL     1     146.434 143.271 161.928  1.00  0.00     0.009 C 
ATOM      3  C   UNL     1     147.374 144.461 161.682  1.00  0.00     0.012 C 
ATOM      4  C   UNL     1     148.776 144.263 162.333  1.00  0.00    -0.008 C 
ATOM      5  C   UNL     1     148.570 143.975 163.866  1.00  0.00     0.024 C 
ATOM      6  C   UNL     1     147.621 142.776 164.111  1.00  0.00     0.017 C 
ATOM      7  C   UNL     1     149.581 145.573 162.152  1.00  0.00     0.016 C 
ENDROOT
BRANCH   1   8
ATOM      8  C   UNL     1     145.300 141.854 163.691  1.00  0.00    -0.077 C 
ATOM      9  C   UNL     1     144.215 141.985 164.728  1.00  0.00     0.039 C 
ATOM     10  C   UNL     1     145.400 140.700 163.008  1.00  0.00     0.008 C 
ENDBRANCH   1   8
BRANCH   5  11
ATOM     11  C   UNL     1     149.875 143.868 164.668  1.00  0.00    -0.077 C 
ATOM     12  C   UNL     1     150.396 142.655 164.924  1.00  0.00     0.008 C 
ATOM     13  C   UNL     1     150.619 145.070 165.202  1.00  0.00     0.039 C 
ENDBRANCH   5  11
BRANCH   4  14
ATOM     14  C   UNL     1     149.519 143.121 161.638  1.00  0.00    -0.028 C 
ATOM     15  C   UNL     1     149.895 143.165 160.353  1.00  0.00     0.004 C 
ENDBRANCH   4  14
TORSDOF 3
ENDMDL
MODEL 6
REMARK VINA RESULT:    -5.617      5.173      7.005
REMARK INTER + INTRA:          -6.984
REMARK INTER:                  -6.588
REMARK INTRA:                  -0.396
REMARK UNBOUND:                -0.382
REMARK SMILES C=C[C@@]1(C)CC[C@@H](C(=C)C)C[C@H]1C(=C)C
REMARK SMILES IDX 7 1 6 2 5 3 3 4 12 5 11 6 4 7 8 8 10 9 9 10 13 11 14 12
REMARK SMILES IDX 15 13 2 14 1 15
REMARK H PARENT
REMARK Flexibility Score: inf
ROOT
ATOM      1  C   UNL     1     142.754 147.962 161.136  1.00  0.00     0.015 C 
ATOM      2  C   UNL     1     144.012 147.170 161.538  1.00  0.00     0.009 C 
ATOM      3  C   UNL     1     144.277 147.287 163.047  1.00  0.00     0.012 C 
ATOM      4  C   UNL     1     143.073 146.798 163.907  1.00  0.00    -0.008 C 
ATOM      5  C   UNL     1     141.794 147.601 163.464  1.00  0.00     0.024 C 
ATOM      6  C   UNL     1     141.531 147.483 161.942  1.00  0.00     0.017 C 
ATOM      7  C   UNL     1     143.388 147.099 165.392  1.00  0.00     0.016 C 
ENDROOT
BRANCH   1   8
ATOM      8  C   UNL     1     142.500 147.878 159.637  1.00  0.00    -0.077 C 
ATOM      9  C   UNL     1     143.594 148.238 158.665  1.00  0.00     0.039 C 
ATOM     10  C   UNL     1     141.310 147.489 159.148  1.00  0.00     0.008 C 
ENDBRANCH   1   8
BRANCH   5  11
ATOM     11  C   UNL     1     140.543 147.307 164.304  1.00  0.00    -0.077 C 
ATOM     12  C   UNL     1     140.090 148.238 165.162  1.00  0.00     0.008 C 
ATOM     13  C   UNL     1     139.780 146.006 164.225  1.00  0.00     0.039 C 
ENDBRANCH   5  11
BRANCH   4  14
ATOM     14  C   UNL     1     142.883 145.291 163.732  1.00  0.00    -0.028 C 
ATOM     15  C   UNL     1     143.149 144.401 164.698  1.00  0.00     0.004 C 
ENDBRANCH   4  14
TORSDOF 3
ENDMDL
MODEL 7
REMARK VINA RESULT:    -5.613      5.579      7.846
REMARK INTER + INTRA:          -6.980
REMARK INTER:                  -6.582
REMARK INTRA:                  -0.399
REMARK UNBOUND:                -0.382
REMARK SMILES C=C[C@@]1(C)CC[C@@H](C(=C)C)C[C@H]1C(=C)C
REMARK SMILES IDX 7 1 6 2 5 3 3 4 12 5 11 6 4 7 8 8 10 9 9 10 13 11 14 12
REMARK SMILES IDX 15 13 2 14 1 15
REMARK H PARENT
REMARK Flexibility Score: inf
ROOT
ATOM      1  C   UNL     1     143.328 147.367 163.324  1.00  0.00     0.015 C 
ATOM      2  C   UNL     1     143.751 147.391 164.805  1.00  0.00     0.009 C 
ATOM      3  C   UNL     1     145.273 147.231 164.945  1.00  0.00     0.012 C 
ATOM      4  C   UNL     1     146.065 148.328 164.172  1.00  0.00    -0.008 C 
ATOM      5  C   UNL     1     145.601 148.303 162.669  1.00  0.00     0.024 C 
ATOM      6  C   UNL     1     144.066 148.463 162.531  1.00  0.00     0.017 C 
ATOM      7  C   UNL     1     147.572 147.984 164.258  1.00  0.00     0.016 C 
ENDROOT
BRANCH   1   8
ATOM      8  C   UNL     1     141.818 147.493 163.176  1.00  0.00    -0.077 C 
ATOM      9  C   UNL     1     140.954 147.701 164.393  1.00  0.00     0.039 C 
ATOM     10  C   UNL     1     141.224 147.422 161.971  1.00  0.00     0.008 C 
ENDBRANCH   1   8
BRANCH   5  11
ATOM     11  C   UNL     1     146.379 149.259 161.753  1.00  0.00    -0.077 C 
ATOM     12  C   UNL     1     145.906 150.500 161.540  1.00  0.00     0.008 C 
ATOM     13  C   UNL     1     147.666 148.877 161.061  1.00  0.00     0.039 C 
ENDBRANCH   5  11
BRANCH   4  14
ATOM     14  C   UNL     1     145.828 149.695 164.815  1.00  0.00    -0.028 C 
ATOM     15  C   UNL     1     146.819 150.536 165.137  1.00  0.00     0.004 C 
ENDBRANCH   4  14
TORSDOF 3
ENDMDL
MODEL 8
REMARK VINA RESULT:    -5.613      5.481      6.880
REMARK INTER + INTRA:          -6.979
REMARK INTER:                  -6.623
REMARK INTRA:                  -0.356
REMARK UNBOUND:                -0.382
REMARK SMILES C=C[C@@]1(C)CC[C@@H](C(=C)C)C[C@H]1C(=C)C
REMARK SMILES IDX 7 1 6 2 5 3 3 4 12 5 11 6 4 7 8 8 10 9 9 10 13 11 14 12
REMARK SMILES IDX 15 13 2 14 1 15
REMARK H PARENT
REMARK Flexibility Score: inf
ROOT
ATOM      1  C   UNL     1     144.492 147.752 163.489  1.00  0.00     0.015 C 
ATOM      2  C   UNL     1     144.336 147.470 161.984  1.00  0.00     0.009 C 
ATOM      3  C   UNL     1     143.393 146.282 161.742  1.00  0.00     0.012 C 
ATOM      4  C   UNL     1     141.982 146.499 162.366  1.00  0.00    -0.008 C 
ATOM      5  C   UNL     1     142.165 146.809 163.898  1.00  0.00     0.024 C 
ATOM      6  C   UNL     1     143.118 148.007 164.139  1.00  0.00     0.017 C 
ATOM      7  C   UNL     1     141.173 145.190 162.193  1.00  0.00     0.016 C 
ENDROOT
BRANCH   1   8
ATOM      8  C   UNL     1     145.450 148.909 163.742  1.00  0.00    -0.077 C 
ATOM      9  C   UNL     1     145.395 150.139 162.873  1.00  0.00     0.039 C 
ATOM     10  C   UNL     1     146.359 148.862 164.732  1.00  0.00     0.008 C 
ENDBRANCH   1   8
BRANCH   5  11
ATOM     11  C   UNL     1     140.848 146.937 164.677  1.00  0.00    -0.077 C 
ATOM     12  C   UNL     1     140.332 148.157 164.906  1.00  0.00     0.008 C 
ATOM     13  C   UNL     1     140.087 145.748 165.216  1.00  0.00     0.039 C 
ENDBRANCH   5  11
BRANCH   4  14
ATOM     14  C   UNL     1     141.258 147.634 161.641  1.00  0.00    -0.028 C 
ATOM     15  C   UNL     1     140.890 147.566 160.355  1.00  0.00     0.004 C 
ENDBRANCH   4  14
TORSDOF 3
ENDMDL
MODEL 9
REMARK VINA RESULT:    -5.604      2.615      5.189
REMARK INTER + INTRA:          -6.969
REMARK INTER:                  -6.616
REMARK INTRA:                  -0.353
REMARK UNBOUND:                -0.382
REMARK SMILES C=C[C@@]1(C)CC[C@@H](C(=C)C)C[C@H]1C(=C)C
REMARK SMILES IDX 7 1 6 2 5 3 3 4 12 5 11 6 4 7 8 8 10 9 9 10 13 11 14 12
REMARK SMILES IDX 15 13 2 14 1 15
REMARK H PARENT
REMARK Flexibility Score: inf
ROOT
ATOM      1  C   UNL     1     143.039 144.464 163.342  1.00  0.00     0.015 C 
ATOM      2  C   UNL     1     143.306 144.253 161.840  1.00  0.00     0.009 C 
ATOM      3  C   UNL     1     144.491 143.300 161.620  1.00  0.00     0.012 C 
ATOM      4  C   UNL     1     144.280 141.914 162.298  1.00  0.00    -0.008 C 
ATOM      5  C   UNL     1     143.985 142.152 163.826  1.00  0.00     0.024 C 
ATOM      6  C   UNL     1     142.791 143.114 164.044  1.00  0.00     0.017 C 
ATOM      7  C   UNL     1     145.585 141.097 162.141  1.00  0.00     0.016 C 
ENDROOT
BRANCH   1   8
ATOM      8  C   UNL     1     141.886 145.431 163.572  1.00  0.00    -0.077 C 
ATOM      9  C   UNL     1     140.647 145.345 162.720  1.00  0.00     0.039 C 
ATOM     10  C   UNL     1     141.944 146.376 164.528  1.00  0.00     0.008 C 
ENDBRANCH   1   8
BRANCH   5  11
ATOM     11  C   UNL     1     143.865 140.864 164.653  1.00  0.00    -0.077 C 
ATOM     12  C   UNL     1     142.648 140.353 164.906  1.00  0.00     0.008 C 
ATOM     13  C   UNL     1     145.059 140.128 165.215  1.00  0.00     0.039 C 
ENDBRANCH   5  11
BRANCH   4  14
ATOM     14  C   UNL     1     143.136 141.164 161.612  1.00  0.00    -0.028 C 
ATOM     15  C   UNL     1     143.139 140.858 160.308  1.00  0.00     0.004 C 
ENDBRANCH   4  14
TORSDOF 3
ENDMDL
