MODEL 1
REMARK VINA RESULT:    -3.486      0.000      0.000
REMARK INTER + INTRA:          -3.848
REMARK INTER:                  -3.690
REMARK INTRA:                  -0.158
REMARK UNBOUND:                -0.158
REMARK SMILES CC(C)[C@H]1CC[C@H](C)CC1=O
REMARK SMILES IDX 8 1 7 2 6 3 5 4 4 5 10 6 11 7 9 8 2 9 1 10 3 11
REMARK H PARENT
REMARK Flexibility Score: inf
ROOT
ATOM      1  C   UNL     1     158.837 175.635 166.600  1.00  0.00     0.008 C 
ATOM      2  C   UNL     1     159.477 174.380 167.205  1.00  0.00    -0.007 C 
ATOM      3  C   UNL     1     160.574 174.766 168.217  1.00  0.00     0.004 C 
ATOM      4  C   UNL     1     161.250 173.513 168.791  1.00  0.00     0.012 C 
ATOM      5  C   UNL     1     160.228 172.595 169.504  1.00  0.00     0.058 C 
ATOM      6  C   UNL     1     159.045 172.336 168.587  1.00  0.00     0.136 C 
ATOM      7  O   UNL     1     158.534 171.229 168.508  1.00  0.00    -0.299 OA
ATOM      8  C   UNL     1     158.407 173.497 167.872  1.00  0.00     0.079 C 
ENDROOT
BRANCH   5   9
ATOM      9  C   UNL     1     160.864 171.286 170.073  1.00  0.00    -0.007 C 
ATOM     10  C   UNL     1     162.400 171.261 169.991  1.00  0.00     0.008 C 
ATOM     11  C   UNL     1     160.408 171.009 171.513  1.00  0.00     0.008 C 
ENDBRANCH   5   9
TORSDOF 1
ENDMDL
MODEL 2
REMARK VINA RESULT:    -3.483      8.420      9.670
REMARK INTER + INTRA:          -3.845
REMARK INTER:                  -3.681
REMARK INTRA:                  -0.164
REMARK UNBOUND:                -0.158
REMARK SMILES CC(C)[C@H]1CC[C@H](C)CC1=O
REMARK SMILES IDX 8 1 7 2 6 3 5 4 4 5 10 6 11 7 9 8 2 9 1 10 3 11
REMARK H PARENT
REMARK Flexibility Score: inf
ROOT
ATOM      1  C   UNL     1     159.635 162.190 169.410  1.00  0.00     0.008 C 
ATOM      2  C   UNL     1     161.037 162.807 169.353  1.00  0.00    -0.007 C 
ATOM      3  C   UNL     1     161.007 164.148 168.594  1.00  0.00     0.004 C 
ATOM      4  C   UNL     1     162.417 164.748 168.494  1.00  0.00     0.012 C 
ATOM      5  C   UNL     1     163.028 164.992 169.895  1.00  0.00     0.058 C 
ATOM      6  C   UNL     1     162.915 163.728 170.731  1.00  0.00     0.136 C 
ATOM      7  O   UNL     1     163.829 163.361 171.453  1.00  0.00    -0.299 OA
ATOM      8  C   UNL     1     161.600 162.997 170.773  1.00  0.00     0.079 C 
ENDROOT
BRANCH   5   9
ATOM      9  C   UNL     1     164.481 165.567 169.844  1.00  0.00    -0.007 C 
ATOM     10  C   UNL     1     164.968 165.885 168.420  1.00  0.00     0.008 C 
ATOM     11  C   UNL     1     164.636 166.803 170.742  1.00  0.00     0.008 C 
ENDBRANCH   5   9
TORSDOF 1
ENDMDL
MODEL 3
REMARK VINA RESULT:    -3.480     10.147     11.245
REMARK INTER + INTRA:          -3.842
REMARK INTER:                  -3.707
REMARK INTRA:                  -0.135
REMARK UNBOUND:                -0.158
REMARK SMILES CC(C)[C@H]1CC[C@H](C)CC1=O
REMARK SMILES IDX 8 1 7 2 6 3 5 4 4 5 10 6 11 7 9 8 2 9 1 10 3 11
REMARK H PARENT
REMARK Flexibility Score: inf
ROOT
ATOM      1  C   UNL     1     165.066 164.484 171.230  1.00  0.00     0.008 C 
ATOM      2  C   UNL     1     166.411 164.827 170.580  1.00  0.00    -0.007 C 
ATOM      3  C   UNL     1     166.195 165.576 169.251  1.00  0.00     0.004 C 
ATOM      4  C   UNL     1     167.539 165.880 168.573  1.00  0.00     0.012 C 
ATOM      5  C   UNL     1     168.446 166.747 169.480  1.00  0.00     0.058 C 
ATOM      6  C   UNL     1     168.539 166.119 170.860  1.00  0.00     0.136 C 
ATOM      7  O   UNL     1     169.597 166.082 171.471  1.00  0.00    -0.299 OA
ATOM      8  C   UNL     1     167.277 165.662 171.542  1.00  0.00     0.079 C 
ENDROOT
BRANCH   5   9
ATOM      9  C   UNL     1     169.842 167.051 168.847  1.00  0.00    -0.007 C 
ATOM     10  C   UNL     1     169.921 166.731 167.344  1.00  0.00     0.008 C 
ATOM     11  C   UNL     1     170.279 168.502 169.101  1.00  0.00     0.008 C 
ENDBRANCH   5   9
TORSDOF 1
ENDMDL
MODEL 4
REMARK VINA RESULT:    -3.329     15.990     18.629
REMARK INTER + INTRA:          -3.682
REMARK INTER:                  -3.521
REMARK INTRA:                  -0.161
REMARK UNBOUND:                -0.158
REMARK SMILES CC(C)[C@H]1CC[C@H](C)CC1=O
REMARK SMILES IDX 8 1 7 2 6 3 5 4 4 5 10 6 11 7 9 8 2 9 1 10 3 11
REMARK H PARENT
REMARK Flexibility Score: inf
ROOT
ATOM      1  C   UNL     1     172.876 155.875 166.795  1.00  0.00     0.008 C 
ATOM      2  C   UNL     1     172.028 157.040 167.318  1.00  0.00    -0.007 C 
ATOM      3  C   UNL     1     170.734 156.517 167.972  1.00  0.00     0.004 C 
ATOM      4  C   UNL     1     169.859 157.682 168.456  1.00  0.00     0.012 C 
ATOM      5  C   UNL     1     170.607 158.559 169.489  1.00  0.00     0.058 C 
ATOM      6  C   UNL     1     171.968 158.950 168.938  1.00  0.00     0.136 C 
ATOM      7  O   UNL     1     172.415 160.077 169.091  1.00  0.00    -0.299 OA
ATOM      8  C   UNL     1     172.837 157.889 168.316  1.00  0.00     0.079 C 
ENDROOT
BRANCH   5   9
ATOM      9  C   UNL     1     169.769 159.782 169.983  1.00  0.00    -0.007 C 
ATOM     10  C   UNL     1     168.315 159.777 169.480  1.00  0.00     0.008 C 
ATOM     11  C   UNL     1     169.797 159.911 171.514  1.00  0.00     0.008 C 
ENDBRANCH   5   9
TORSDOF 1
ENDMDL
MODEL 5
REMARK VINA RESULT:    -3.326      2.444      3.359
REMARK INTER + INTRA:          -3.679
REMARK INTER:                  -3.504
REMARK INTRA:                  -0.176
REMARK UNBOUND:                -0.158
REMARK SMILES CC(C)[C@H]1CC[C@H](C)CC1=O
REMARK SMILES IDX 8 1 7 2 6 3 5 4 4 5 10 6 11 7 9 8 2 9 1 10 3 11
REMARK H PARENT
REMARK Flexibility Score: inf
ROOT
ATOM      1  C   UNL     1     164.082 174.248 166.026  1.00  0.00     0.008 C 
ATOM      2  C   UNL     1     163.406 173.839 167.339  1.00  0.00    -0.007 C 
ATOM      3  C   UNL     1     161.967 174.388 167.402  1.00  0.00     0.004 C 
ATOM      4  C   UNL     1     161.301 174.021 168.736  1.00  0.00     0.012 C 
ATOM      5  C   UNL     1     161.247 172.487 168.937  1.00  0.00     0.058 C 
ATOM      6  C   UNL     1     162.627 171.893 168.711  1.00  0.00     0.136 C 
ATOM      7  O   UNL     1     163.062 171.006 169.431  1.00  0.00    -0.299 OA
ATOM      8  C   UNL     1     163.411 172.307 167.494  1.00  0.00     0.079 C 
ENDROOT
BRANCH   5   9
ATOM      9  C   UNL     1     160.612 172.065 170.301  1.00  0.00    -0.007 C 
ATOM     10  C   UNL     1     160.606 173.188 171.352  1.00  0.00     0.008 C 
ATOM     11  C   UNL     1     159.193 171.505 170.119  1.00  0.00     0.008 C 
ENDBRANCH   5   9
TORSDOF 1
ENDMDL
MODEL 6
REMARK VINA RESULT:    -3.303      2.921      5.231
REMARK INTER + INTRA:          -3.655
REMARK INTER:                  -3.497
REMARK INTRA:                  -0.158
REMARK UNBOUND:                -0.158
REMARK SMILES CC(C)[C@H]1CC[C@H](C)CC1=O
REMARK SMILES IDX 8 1 7 2 6 3 5 4 4 5 10 6 11 7 9 8 2 9 1 10 3 11
REMARK H PARENT
REMARK Flexibility Score: inf
ROOT
ATOM      1  C   UNL     1     163.349 171.401 170.505  1.00  0.00     0.008 C 
ATOM      2  C   UNL     1     163.333 172.587 169.533  1.00  0.00    -0.007 C 
ATOM      3  C   UNL     1     163.330 172.091 168.074  1.00  0.00     0.004 C 
ATOM      4  C   UNL     1     163.361 173.275 167.097  1.00  0.00     0.012 C 
ATOM      5  C   UNL     1     162.142 174.207 167.299  1.00  0.00     0.058 C 
ATOM      6  C   UNL     1     162.017 174.576 168.768  1.00  0.00     0.136 C 
ATOM      7  O   UNL     1     161.727 175.711 169.115  1.00  0.00    -0.299 OA
ATOM      8  C   UNL     1     162.115 173.489 169.804  1.00  0.00     0.079 C 
ENDROOT
BRANCH   5   9
ATOM      9  C   UNL     1     162.150 175.450 166.351  1.00  0.00    -0.007 C 
ATOM     10  C   UNL     1     163.248 175.397 165.275  1.00  0.00     0.008 C 
ATOM     11  C   UNL     1     160.779 175.675 165.695  1.00  0.00     0.008 C 
ENDBRANCH   5   9
TORSDOF 1
ENDMDL
MODEL 7
REMARK VINA RESULT:    -3.286     16.115     17.431
REMARK INTER + INTRA:          -3.637
REMARK INTER:                  -3.464
REMARK INTRA:                  -0.173
REMARK UNBOUND:                -0.158
REMARK SMILES CC(C)[C@H]1CC[C@H](C)CC1=O
REMARK SMILES IDX 8 1 7 2 6 3 5 4 4 5 10 6 11 7 9 8 2 9 1 10 3 11
REMARK H PARENT
REMARK Flexibility Score: inf
ROOT
ATOM      1  C   UNL     1     167.124 157.010 166.019  1.00  0.00     0.008 C 
ATOM      2  C   UNL     1     167.807 157.378 167.341  1.00  0.00    -0.007 C 
ATOM      3  C   UNL     1     169.243 156.821 167.382  1.00  0.00     0.004 C 
ATOM      4  C   UNL     1     169.916 157.147 168.724  1.00  0.00     0.012 C 
ATOM      5  C   UNL     1     169.977 158.674 168.969  1.00  0.00     0.058 C 
ATOM      6  C   UNL     1     168.599 159.281 168.765  1.00  0.00     0.136 C 
ATOM      7  O   UNL     1     168.170 160.148 169.511  1.00  0.00    -0.299 OA
ATOM      8  C   UNL     1     167.809 158.905 167.540  1.00  0.00     0.079 C 
ENDROOT
BRANCH   5   9
ATOM      9  C   UNL     1     170.619 159.054 170.341  1.00  0.00    -0.007 C 
ATOM     10  C   UNL     1     170.764 157.864 171.305  1.00  0.00     0.008 C 
ATOM     11  C   UNL     1     171.974 159.756 170.162  1.00  0.00     0.008 C 
ENDBRANCH   5   9
TORSDOF 1
ENDMDL
MODEL 8
REMARK VINA RESULT:    -3.242      1.664      2.493
REMARK INTER + INTRA:          -3.590
REMARK INTER:                  -3.430
REMARK INTRA:                  -0.160
REMARK UNBOUND:                -0.158
REMARK SMILES CC(C)[C@H]1CC[C@H](C)CC1=O
REMARK SMILES IDX 8 1 7 2 6 3 5 4 4 5 10 6 11 7 9 8 2 9 1 10 3 11
REMARK H PARENT
REMARK Flexibility Score: inf
ROOT
ATOM      1  C   UNL     1     157.769 174.587 167.124  1.00  0.00     0.008 C 
ATOM      2  C   UNL     1     158.675 173.994 168.209  1.00  0.00    -0.007 C 
ATOM      3  C   UNL     1     158.555 172.457 168.233  1.00  0.00     0.004 C 
ATOM      4  C   UNL     1     159.426 171.861 169.349  1.00  0.00     0.012 C 
ATOM      5  C   UNL     1     160.917 172.233 169.163  1.00  0.00     0.058 C 
ATOM      6  C   UNL     1     161.050 173.733 168.962  1.00  0.00     0.136 C 
ATOM      7  O   UNL     1     161.951 174.367 169.490  1.00  0.00    -0.299 OA
ATOM      8  C   UNL     1     160.137 174.423 167.984  1.00  0.00     0.079 C 
ENDROOT
BRANCH   5   9
ATOM      9  C   UNL     1     161.838 171.680 170.297  1.00  0.00    -0.007 C 
ATOM     10  C   UNL     1     161.117 170.730 171.269  1.00  0.00     0.008 C 
ATOM     11  C   UNL     1     163.094 171.000 169.731  1.00  0.00     0.008 C 
ENDBRANCH   5   9
TORSDOF 1
ENDMDL
MODEL 9
REMARK VINA RESULT:    -3.227     15.807     18.413
REMARK INTER + INTRA:          -3.575
REMARK INTER:                  -3.422
REMARK INTRA:                  -0.153
REMARK UNBOUND:                -0.158
REMARK SMILES CC(C)[C@H]1CC[C@H](C)CC1=O
REMARK SMILES IDX 8 1 7 2 6 3 5 4 4 5 10 6 11 7 9 8 2 9 1 10 3 11
REMARK H PARENT
REMARK Flexibility Score: inf
ROOT
ATOM      1  C   UNL     1     173.501 156.625 167.120  1.00  0.00     0.008 C 
ATOM      2  C   UNL     1     172.582 157.204 168.201  1.00  0.00    -0.007 C 
ATOM      3  C   UNL     1     172.721 158.738 168.266  1.00  0.00     0.004 C 
ATOM      4  C   UNL     1     171.837 159.318 169.379  1.00  0.00     0.012 C 
ATOM      5  C   UNL     1     170.345 158.972 169.155  1.00  0.00     0.058 C 
ATOM      6  C   UNL     1     170.196 157.479 168.915  1.00  0.00     0.136 C 
ATOM      7  O   UNL     1     169.276 156.845 169.409  1.00  0.00    -0.299 OA
ATOM      8  C   UNL     1     171.119 156.801 167.938  1.00  0.00     0.079 C 
ENDROOT
BRANCH   5   9
ATOM      9  C   UNL     1     169.409 159.510 170.285  1.00  0.00    -0.007 C 
ATOM     10  C   UNL     1     170.108 160.474 171.258  1.00  0.00     0.008 C 
ATOM     11  C   UNL     1     168.142 160.164 169.713  1.00  0.00     0.008 C 
ENDBRANCH   5   9
TORSDOF 1
ENDMDL
