MODEL 1
REMARK VINA RESULT:    -3.405      0.000      0.000
REMARK INTER + INTRA:          -3.615
REMARK INTER:                  -3.604
REMARK INTRA:                  -0.011
REMARK UNBOUND:                -0.011
REMARK SMILES O=Cc1ccco1
REMARK SMILES IDX 5 1 6 2 7 3 3 4 4 5 2 6 1 7
REMARK H PARENT
REMARK Flexibility Score: inf
ROOT
ATOM      1  C   UNL     1      25.353  -1.886 -50.086  1.00  0.00     0.043 A 
ATOM      2  C   UNL     1      24.764  -1.883 -48.837  1.00  0.00     0.196 A 
ATOM      3  O   UNL     1      25.694  -1.904 -47.909  1.00  0.00    -0.462 OA
ATOM      4  C   UNL     1      26.868  -1.921 -48.495  1.00  0.00     0.166 A 
ATOM      5  C   UNL     1      26.713  -1.911 -49.868  1.00  0.00     0.054 A 
ENDROOT
BRANCH   4   6
ATOM      6  C   UNL     1      28.140  -1.947 -47.767  1.00  0.00     0.298 C 
ATOM      7  O   UNL     1      28.590  -3.025 -47.299  1.00  0.00    -0.294 OA
ENDBRANCH   4   6
TORSDOF 1
ENDMDL
MODEL 2
REMARK VINA RESULT:    -3.393     10.718     11.148
REMARK INTER + INTRA:          -3.602
REMARK INTER:                  -3.592
REMARK INTRA:                  -0.010
REMARK UNBOUND:                -0.011
REMARK SMILES O=Cc1ccco1
REMARK SMILES IDX 5 1 6 2 7 3 3 4 4 5 2 6 1 7
REMARK H PARENT
REMARK Flexibility Score: inf
ROOT
ATOM      1  C   UNL     1      19.908  -9.553 -46.216  1.00  0.00     0.043 A 
ATOM      2  C   UNL     1      18.777  -9.942 -46.905  1.00  0.00     0.196 A 
ATOM      3  O   UNL     1      19.094 -10.850 -47.801  1.00  0.00    -0.462 OA
ATOM      4  C   UNL     1      20.385 -11.073 -47.728  1.00  0.00     0.166 A 
ATOM      5  C   UNL     1      20.949 -10.283 -46.746  1.00  0.00     0.054 A 
ENDROOT
BRANCH   4   6
ATOM      6  C   UNL     1      21.094 -12.031 -48.582  1.00  0.00     0.298 C 
ATOM      7  O   UNL     1      21.734 -12.990 -48.077  1.00  0.00    -0.294 OA
ENDBRANCH   4   6
TORSDOF 1
ENDMDL
MODEL 3
REMARK VINA RESULT:    -3.271     18.810     19.484
REMARK INTER + INTRA:          -3.473
REMARK INTER:                  -3.458
REMARK INTRA:                  -0.015
REMARK UNBOUND:                -0.011
REMARK SMILES O=Cc1ccco1
REMARK SMILES IDX 5 1 6 2 7 3 3 4 4 5 2 6 1 7
REMARK H PARENT
REMARK Flexibility Score: inf
ROOT
ATOM      1  C   UNL     1      14.703  -6.795 -34.184  1.00  0.00     0.043 A 
ATOM      2  C   UNL     1      14.326  -6.856 -32.858  1.00  0.00     0.196 A 
ATOM      3  O   UNL     1      15.110  -6.084 -32.139  1.00  0.00    -0.462 OA
ATOM      4  C   UNL     1      15.984  -5.518 -32.937  1.00  0.00     0.166 A 
ATOM      5  C   UNL     1      15.775  -5.931 -34.239  1.00  0.00     0.054 A 
ENDROOT
BRANCH   4   6
ATOM      6  C   UNL     1      17.019  -4.587 -32.480  1.00  0.00     0.298 C 
ATOM      7  O   UNL     1      17.470  -4.653 -31.307  1.00  0.00    -0.294 OA
ENDBRANCH   4   6
TORSDOF 1
ENDMDL
MODEL 4
REMARK VINA RESULT:    -3.251     10.853     12.054
REMARK INTER + INTRA:          -3.452
REMARK INTER:                  -3.442
REMARK INTRA:                  -0.010
REMARK UNBOUND:                -0.011
REMARK SMILES O=Cc1ccco1
REMARK SMILES IDX 5 1 6 2 7 3 3 4 4 5 2 6 1 7
REMARK H PARENT
REMARK Flexibility Score: inf
ROOT
ATOM      1  C   UNL     1      17.537   1.825 -46.513  1.00  0.00     0.043 A 
ATOM      2  C   UNL     1      16.593   1.774 -45.507  1.00  0.00     0.196 A 
ATOM      3  O   UNL     1      15.387   1.811 -46.028  1.00  0.00    -0.462 OA
ATOM      4  C   UNL     1      15.500   1.883 -47.334  1.00  0.00     0.166 A 
ATOM      5  C   UNL     1      16.833   1.895 -47.695  1.00  0.00     0.054 A 
ENDROOT
BRANCH   4   6
ATOM      6  C   UNL     1      14.355   1.941 -48.247  1.00  0.00     0.298 C 
ATOM      7  O   UNL     1      14.141   2.967 -48.944  1.00  0.00    -0.294 OA
ENDBRANCH   4   6
TORSDOF 1
ENDMDL
MODEL 5
REMARK VINA RESULT:    -3.237     10.350     11.118
REMARK INTER + INTRA:          -3.437
REMARK INTER:                  -3.426
REMARK INTRA:                  -0.011
REMARK UNBOUND:                -0.011
REMARK SMILES O=Cc1ccco1
REMARK SMILES IDX 5 1 6 2 7 3 3 4 4 5 2 6 1 7
REMARK H PARENT
REMARK Flexibility Score: inf
ROOT
ATOM      1  C   UNL     1      15.707  -3.024 -49.705  1.00  0.00     0.043 A 
ATOM      2  C   UNL     1      14.491  -2.707 -49.135  1.00  0.00     0.196 A 
ATOM      3  O   UNL     1      14.534  -1.487 -48.648  1.00  0.00    -0.462 OA
ATOM      4  C   UNL     1      15.728  -0.990 -48.875  1.00  0.00     0.166 A 
ATOM      5  C   UNL     1      16.509  -1.916 -49.538  1.00  0.00     0.054 A 
ENDROOT
BRANCH   4   6
ATOM      6  C   UNL     1      16.138   0.357 -48.469  1.00  0.00     0.298 C 
ATOM      7  O   UNL     1      16.472   0.595 -47.279  1.00  0.00    -0.294 OA
ENDBRANCH   4   6
TORSDOF 1
ENDMDL
MODEL 6
REMARK VINA RESULT:    -3.219     10.271     11.585
REMARK INTER + INTRA:          -3.418
REMARK INTER:                  -3.402
REMARK INTRA:                  -0.016
REMARK UNBOUND:                -0.011
REMARK SMILES O=Cc1ccco1
REMARK SMILES IDX 5 1 6 2 7 3 3 4 4 5 2 6 1 7
REMARK H PARENT
REMARK Flexibility Score: inf
ROOT
ATOM      1  C   UNL     1      16.744   1.913 -45.412  1.00  0.00     0.043 A 
ATOM      2  C   UNL     1      17.558   1.794 -46.521  1.00  0.00     0.196 A 
ATOM      3  O   UNL     1      16.922   1.142 -47.469  1.00  0.00    -0.462 OA
ATOM      4  C   UNL     1      15.726   0.830 -47.029  1.00  0.00     0.166 A 
ATOM      5  C   UNL     1      15.559   1.291 -45.738  1.00  0.00     0.054 A 
ENDROOT
BRANCH   4   6
ATOM      6  C   UNL     1      14.734   0.097 -47.821  1.00  0.00     0.298 C 
ATOM      7  O   UNL     1      14.816   0.059 -49.077  1.00  0.00    -0.294 OA
ENDBRANCH   4   6
TORSDOF 1
ENDMDL
MODEL 7
REMARK VINA RESULT:    -3.203     19.322     20.273
REMARK INTER + INTRA:          -3.401
REMARK INTER:                  -3.391
REMARK INTRA:                  -0.010
REMARK UNBOUND:                -0.011
REMARK SMILES O=Cc1ccco1
REMARK SMILES IDX 5 1 6 2 7 3 3 4 4 5 2 6 1 7
REMARK H PARENT
REMARK Flexibility Score: inf
ROOT
ATOM      1  C   UNL     1      12.316  -6.400 -32.401  1.00  0.00     0.043 A 
ATOM      2  C   UNL     1      11.823  -5.925 -33.600  1.00  0.00     0.196 A 
ATOM      3  O   UNL     1      12.786  -5.895 -34.494  1.00  0.00    -0.462 OA
ATOM      4  C   UNL     1      13.889  -6.332 -33.933  1.00  0.00     0.166 A 
ATOM      5  C   UNL     1      13.651  -6.664 -32.614  1.00  0.00     0.054 A 
ENDROOT
BRANCH   4   6
ATOM      6  C   UNL     1      15.171  -6.438 -34.635  1.00  0.00     0.298 C 
ATOM      7  O   UNL     1      15.814  -7.521 -34.638  1.00  0.00    -0.294 OA
ENDBRANCH   4   6
TORSDOF 1
ENDMDL
MODEL 8
REMARK VINA RESULT:    -3.189      1.475      3.189
REMARK INTER + INTRA:          -3.387
REMARK INTER:                  -3.376
REMARK INTRA:                  -0.011
REMARK UNBOUND:                -0.011
REMARK SMILES O=Cc1ccco1
REMARK SMILES IDX 5 1 6 2 7 3 3 4 4 5 2 6 1 7
REMARK H PARENT
REMARK Flexibility Score: inf
ROOT
ATOM      1  C   UNL     1      28.837  -1.855 -47.342  1.00  0.00     0.043 A 
ATOM      2  C   UNL     1      28.320  -0.576 -47.389  1.00  0.00     0.196 A 
ATOM      3  O   UNL     1      27.140  -0.597 -47.968  1.00  0.00    -0.462 OA
ATOM      4  C   UNL     1      26.861  -1.835 -48.301  1.00  0.00     0.166 A 
ATOM      5  C   UNL     1      27.895  -2.671 -47.930  1.00  0.00     0.054 A 
ENDROOT
BRANCH   4   6
ATOM      6  C   UNL     1      25.620  -2.236 -48.970  1.00  0.00     0.298 C 
ATOM      7  O   UNL     1      24.563  -2.413 -48.310  1.00  0.00    -0.294 OA
ENDBRANCH   4   6
TORSDOF 1
ENDMDL
MODEL 9
REMARK VINA RESULT:    -3.104     10.473     11.195
REMARK INTER + INTRA:          -3.296
REMARK INTER:                  -3.286
REMARK INTRA:                  -0.010
REMARK UNBOUND:                -0.011
REMARK SMILES O=Cc1ccco1
REMARK SMILES IDX 5 1 6 2 7 3 3 4 4 5 2 6 1 7
REMARK H PARENT
REMARK Flexibility Score: inf
ROOT
ATOM      1  C   UNL     1      20.987 -10.106 -46.754  1.00  0.00     0.043 A 
ATOM      2  C   UNL     1      19.913  -9.676 -46.002  1.00  0.00     0.196 A 
ATOM      3  O   UNL     1      18.816  -9.733 -46.724  1.00  0.00    -0.462 OA
ATOM      4  C   UNL     1      19.126 -10.184 -47.917  1.00  0.00     0.166 A 
ATOM      5  C   UNL     1      20.482 -10.436 -47.992  1.00  0.00     0.054 A 
ENDROOT
BRANCH   4   6
ATOM      6  C   UNL     1      18.148 -10.380 -48.991  1.00  0.00     0.298 C 
ATOM      7  O   UNL     1      17.973  -9.495 -49.870  1.00  0.00    -0.294 OA
ENDBRANCH   4   6
TORSDOF 1
ENDMDL
