MODEL 1
REMARK VINA RESULT:    -4.201      0.000      0.000
REMARK INTER + INTRA:          -4.604
REMARK INTER:                  -4.569
REMARK INTRA:                  -0.035
REMARK UNBOUND:                -0.035
REMARK SMILES O=C([O-])c1ccc(O)cc1
REMARK SMILES IDX 7 1 6 2 9 3 5 4 10 5 4 6 8 7 2 9 1 10 3 11
REMARK H PARENT 8 8
REMARK Flexibility Score: inf
ROOT
ATOM      1  C   UNL     1     124.923 131.718 123.986  1.00  0.00     0.115 A 
ATOM      2  C   UNL     1     123.934 131.532 124.960  1.00  0.00     0.047 A 
ATOM      3  C   UNL     1     125.849 132.755 124.128  1.00  0.00     0.047 A 
ATOM      4  C   UNL     1     123.874 132.379 126.071  1.00  0.00     0.014 A 
ATOM      5  C   UNL     1     125.792 133.605 125.237  1.00  0.00     0.014 A 
ATOM      6  C   UNL     1     124.802 133.426 126.221  1.00  0.00    -0.003 A 
ENDROOT
BRANCH   1   7
ATOM      7  O   UNL     1     124.994 130.880 122.875  1.00  0.00    -0.508 OA
ATOM      8  H   UNL     1     124.200 130.751 122.260  1.00  0.00     0.293 HD
ENDBRANCH   1   7
BRANCH   6   9
ATOM      9  C   UNL     1     124.736 134.320 127.397  1.00  0.00     0.071 C 
ATOM     10  O   UNL     1     125.743 134.990 127.750  1.00  0.00    -0.545 OA
ATOM     11  O   UNL     1     123.560 134.435 128.130  1.00  0.00    -0.545 OA
ENDBRANCH   6   9
TORSDOF 2
ENDMDL
MODEL 2
REMARK VINA RESULT:    -4.194      0.012      1.532
REMARK INTER + INTRA:          -4.596
REMARK INTER:                  -4.561
REMARK INTRA:                  -0.035
REMARK UNBOUND:                -0.035
REMARK SMILES O=C([O-])c1ccc(O)cc1
REMARK SMILES IDX 7 1 6 2 9 3 5 4 10 5 4 6 8 7 2 9 1 10 3 11
REMARK H PARENT 8 8
REMARK Flexibility Score: inf
ROOT
ATOM      1  C   UNL     1     124.933 131.728 123.981  1.00  0.00     0.115 A 
ATOM      2  C   UNL     1     125.865 132.761 124.136  1.00  0.00     0.047 A 
ATOM      3  C   UNL     1     123.937 131.541 124.943  1.00  0.00     0.047 A 
ATOM      4  C   UNL     1     125.799 133.605 125.249  1.00  0.00     0.014 A 
ATOM      5  C   UNL     1     123.868 132.383 126.058  1.00  0.00     0.014 A 
ATOM      6  C   UNL     1     124.800 133.424 126.223  1.00  0.00    -0.003 A 
ENDROOT
BRANCH   1   7
ATOM      7  O   UNL     1     124.988 130.881 122.875  1.00  0.00    -0.508 OA
ATOM      8  H   UNL     1     125.594 131.078 122.088  1.00  0.00     0.293 HD
ENDBRANCH   1   7
BRANCH   6   9
ATOM      9  C   UNL     1     124.733 134.318 127.399  1.00  0.00     0.071 C 
ATOM     10  O   UNL     1     125.737 134.993 127.750  1.00  0.00    -0.545 OA
ATOM     11  O   UNL     1     123.558 134.427 128.135  1.00  0.00    -0.545 OA
ENDBRANCH   6   9
TORSDOF 2
ENDMDL
MODEL 3
REMARK VINA RESULT:    -3.871      1.114      4.313
REMARK INTER + INTRA:          -4.245
REMARK INTER:                  -4.210
REMARK INTRA:                  -0.035
REMARK UNBOUND:                -0.035
REMARK SMILES O=C([O-])c1ccc(O)cc1
REMARK SMILES IDX 7 1 6 2 9 3 5 4 10 5 4 6 8 7 2 9 1 10 3 11
REMARK H PARENT 8 8
REMARK Flexibility Score: inf
ROOT
ATOM      1  C   UNL     1     124.205 133.332 127.554  1.00  0.00     0.115 A 
ATOM      2  C   UNL     1     125.298 133.962 126.946  1.00  0.00     0.047 A 
ATOM      3  C   UNL     1     123.495 132.350 126.859  1.00  0.00     0.047 A 
ATOM      4  C   UNL     1     125.679 133.609 125.648  1.00  0.00     0.014 A 
ATOM      5  C   UNL     1     123.873 131.994 125.560  1.00  0.00     0.014 A 
ATOM      6  C   UNL     1     124.969 132.621 124.940  1.00  0.00    -0.003 A 
ENDROOT
BRANCH   1   7
ATOM      7  O   UNL     1     123.817 133.675 128.848  1.00  0.00    -0.508 OA
ATOM      8  H   UNL     1     124.426 133.519 129.642  1.00  0.00     0.293 HD
ENDBRANCH   1   7
BRANCH   6   9
ATOM      9  C   UNL     1     125.374 132.250 123.567  1.00  0.00     0.071 C 
ATOM     10  O   UNL     1     126.083 133.028 122.875  1.00  0.00    -0.545 OA
ATOM     11  O   UNL     1     124.979 131.034 123.021  1.00  0.00    -0.545 OA
ENDBRANCH   6   9
TORSDOF 2
ENDMDL
MODEL 4
REMARK VINA RESULT:    -3.829      1.324      1.753
REMARK INTER + INTRA:          -4.200
REMARK INTER:                  -4.168
REMARK INTRA:                  -0.031
REMARK UNBOUND:                -0.035
REMARK SMILES O=C([O-])c1ccc(O)cc1
REMARK SMILES IDX 7 1 6 2 9 3 5 4 10 5 4 6 8 7 2 9 1 10 3 11
REMARK H PARENT 8 8
REMARK Flexibility Score: inf
ROOT
ATOM      1  C   UNL     1     125.548 132.765 124.130  1.00  0.00     0.115 A 
ATOM      2  C   UNL     1     124.533 131.858 124.461  1.00  0.00     0.047 A 
ATOM      3  C   UNL     1     125.957 133.720 125.064  1.00  0.00     0.047 A 
ATOM      4  C   UNL     1     123.931 131.907 125.722  1.00  0.00     0.014 A 
ATOM      5  C   UNL     1     125.358 133.772 126.327  1.00  0.00     0.014 A 
ATOM      6  C   UNL     1     124.337 132.865 126.669  1.00  0.00    -0.003 A 
ENDROOT
BRANCH   1   7
ATOM      7  O   UNL     1     126.155 132.726 122.876  1.00  0.00    -0.508 OA
ATOM      8  H   UNL     1     125.773 133.236 122.088  1.00  0.00     0.293 HD
ENDBRANCH   1   7
BRANCH   6   9
ATOM      9  C   UNL     1     123.699 132.914 128.002  1.00  0.00     0.071 C 
ATOM     10  O   UNL     1     123.498 131.856 128.656  1.00  0.00    -0.545 OA
ATOM     11  O   UNL     1     123.314 134.130 128.555  1.00  0.00    -0.545 OA
ENDBRANCH   6   9
TORSDOF 2
ENDMDL
MODEL 5
REMARK VINA RESULT:    -3.385      1.825      2.523
REMARK INTER + INTRA:          -3.717
REMARK INTER:                  -3.687
REMARK INTRA:                  -0.029
REMARK UNBOUND:                -0.035
REMARK SMILES O=C([O-])c1ccc(O)cc1
REMARK SMILES IDX 7 1 6 2 9 3 5 4 10 5 4 6 8 7 2 9 1 10 3 11
REMARK H PARENT 8 8
REMARK Flexibility Score: inf
ROOT
ATOM      1  C   UNL     1     125.764 132.835 125.441  1.00  0.00     0.115 A 
ATOM      2  C   UNL     1     125.919 134.149 125.898  1.00  0.00     0.047 A 
ATOM      3  C   UNL     1     124.742 132.036 125.960  1.00  0.00     0.047 A 
ATOM      4  C   UNL     1     125.054 134.662 126.870  1.00  0.00     0.014 A 
ATOM      5  C   UNL     1     123.874 132.545 126.932  1.00  0.00     0.014 A 
ATOM      6  C   UNL     1     124.022 133.865 127.398  1.00  0.00    -0.003 A 
ENDROOT
BRANCH   1   7
ATOM      7  O   UNL     1     126.620 132.313 124.472  1.00  0.00    -0.508 OA
ATOM      8  H   UNL     1     126.557 131.346 124.177  1.00  0.00     0.293 HD
ENDBRANCH   1   7
BRANCH   6   9
ATOM      9  C   UNL     1     123.109 134.409 128.425  1.00  0.00     0.071 C 
ATOM     10  O   UNL     1     122.996 133.846 129.546  1.00  0.00    -0.545 OA
ATOM     11  O   UNL     1     122.363 135.554 128.169  1.00  0.00    -0.545 OA
ENDBRANCH   6   9
TORSDOF 2
ENDMDL
MODEL 6
REMARK VINA RESULT:    -2.137      2.280      4.322
REMARK INTER + INTRA:          -2.359
REMARK INTER:                  -2.330
REMARK INTRA:                  -0.028
REMARK UNBOUND:                -0.035
REMARK SMILES O=C([O-])c1ccc(O)cc1
REMARK SMILES IDX 7 1 6 2 9 3 5 4 10 5 4 6 8 7 2 9 1 10 3 11
REMARK H PARENT 8 8
REMARK Flexibility Score: inf
ROOT
ATOM      1  C   UNL     1     122.900 134.542 128.468  1.00  0.00     0.115 A 
ATOM      2  C   UNL     1     122.844 133.154 128.289  1.00  0.00     0.047 A 
ATOM      3  C   UNL     1     123.978 135.265 127.949  1.00  0.00     0.047 A 
ATOM      4  C   UNL     1     123.861 132.493 127.593  1.00  0.00     0.014 A 
ATOM      5  C   UNL     1     124.997 134.608 127.252  1.00  0.00     0.014 A 
ATOM      6  C   UNL     1     124.950 133.213 127.068  1.00  0.00    -0.003 A 
ENDROOT
BRANCH   1   7
ATOM      7  O   UNL     1     121.892 135.212 129.159  1.00  0.00    -0.508 OA
ATOM      8  H   UNL     1     120.956 135.294 128.780  1.00  0.00     0.293 HD
ENDBRANCH   1   7
BRANCH   6   9
ATOM      9  C   UNL     1     126.024 132.512 126.332  1.00  0.00     0.071 C 
ATOM     10  O   UNL     1     126.758 131.672 126.917  1.00  0.00    -0.545 OA
ATOM     11  O   UNL     1     126.238 132.770 124.983  1.00  0.00    -0.545 OA
ENDBRANCH   6   9
TORSDOF 2
ENDMDL
MODEL 7
REMARK VINA RESULT:    -1.924     15.519     16.698
REMARK INTER + INTRA:          -2.128
REMARK INTER:                  -2.096
REMARK INTRA:                  -0.032
REMARK UNBOUND:                -0.035
REMARK SMILES O=C([O-])c1ccc(O)cc1
REMARK SMILES IDX 7 1 6 2 9 3 5 4 10 5 4 6 8 7 2 9 1 10 3 11
REMARK H PARENT 8 8
REMARK Flexibility Score: inf
ROOT
ATOM      1  C   UNL     1     139.461 123.195 124.162  1.00  0.00     0.115 A 
ATOM      2  C   UNL     1     138.927 123.774 125.319  1.00  0.00     0.047 A 
ATOM      3  C   UNL     1     138.718 122.246 123.455  1.00  0.00     0.047 A 
ATOM      4  C   UNL     1     137.654 123.407 125.766  1.00  0.00     0.014 A 
ATOM      5  C   UNL     1     137.444 121.875 123.898  1.00  0.00     0.014 A 
ATOM      6  C   UNL     1     136.899 122.452 125.060  1.00  0.00    -0.003 A 
ENDROOT
BRANCH   1   7
ATOM      7  O   UNL     1     140.729 123.554 123.707  1.00  0.00    -0.508 OA
ATOM      8  H   UNL     1     141.027 124.522 123.682  1.00  0.00     0.293 HD
ENDBRANCH   1   7
BRANCH   6   9
ATOM      9  C   UNL     1     135.553 122.065 125.534  1.00  0.00     0.071 C 
ATOM     10  O   UNL     1     134.608 121.899 124.717  1.00  0.00    -0.545 OA
ATOM     11  O   UNL     1     135.310 121.878 126.890  1.00  0.00    -0.545 OA
ENDBRANCH   6   9
TORSDOF 2
ENDMDL
