MODEL 1
REMARK VINA RESULT:    -4.189      0.000      0.000
REMARK INTER + INTRA:         -10.168
REMARK INTER:                  -7.618
REMARK INTRA:                  -2.550
REMARK UNBOUND:                -2.550
REMARK SMILES CCCCCCCCCCCCCCCC(=O)[O-]
REMARK SMILES IDX 9 1 10 2 11 3 12 4 13 5 14 6 15 7 16 8 17 9 18 10 8 11 7 12
REMARK SMILES IDX 6 13 5 14 4 15 3 16 2 17 1 18
REMARK H PARENT
REMARK Flexibility Score: inf
ROOT
ATOM      1  C   UNL     1       0.196  -8.912  -2.761  1.00  0.00     0.000 C 
ENDROOT
BRANCH   1   2
ATOM      2  C   UNL     1      -0.314  -9.014  -1.315  1.00  0.00     0.000 C 
BRANCH   2   3
ATOM      3  C   UNL     1      -1.744  -8.471  -1.154  1.00  0.00     0.000 C 
BRANCH   3   4
ATOM      4  C   UNL     1      -1.778  -6.968  -0.829  1.00  0.00     0.000 C 
BRANCH   4   5
ATOM      5  C   UNL     1      -2.418  -6.108  -1.939  1.00  0.00     0.000 C 
BRANCH   5   6
ATOM      6  C   UNL     1      -3.085  -6.966  -3.025  1.00  0.00     0.006 C 
BRANCH   6   7
ATOM      7  C   UNL     1      -2.542  -6.613  -4.413  1.00  0.00     0.053 C 
BRANCH   7   8
ATOM      8  C   UNL     1      -2.871  -5.196  -4.761  1.00  0.00     0.041 C 
ATOM      9  O   UNL     1      -4.042  -4.884  -5.109  1.00  0.00    -0.550 OA
ATOM     10  O   UNL     1      -1.900  -4.209  -4.652  1.00  0.00    -0.550 OA
ENDBRANCH   7   8
ENDBRANCH   6   7
ENDBRANCH   5   6
ENDBRANCH   4   5
ENDBRANCH   3   4
ENDBRANCH   2   3
ENDBRANCH   1   2
BRANCH   1  11
ATOM     11  C   UNL     1       1.714  -8.686  -2.840  1.00  0.00     0.000 C 
BRANCH  11  12
ATOM     12  C   UNL     1       2.044  -7.501  -3.759  1.00  0.00    -0.000 C 
BRANCH  12  13
ATOM     13  C   UNL     1       0.907  -6.468  -3.834  1.00  0.00    -0.000 C 
BRANCH  13  14
ATOM     14  C   UNL     1       1.071  -5.244  -2.908  1.00  0.00    -0.000 C 
BRANCH  14  15
ATOM     15  C   UNL     1       2.253  -5.320  -1.924  1.00  0.00    -0.000 C 
BRANCH  15  16
ATOM     16  C   UNL     1       1.832  -5.784  -0.519  1.00  0.00    -0.000 C 
BRANCH  16  17
ATOM     17  C   UNL     1       2.972  -6.485   0.235  1.00  0.00    -0.003 C 
ATOM     18  C   UNL     1       2.630  -7.923   0.625  1.00  0.00     0.004 C 
ENDBRANCH  16  17
ENDBRANCH  15  16
ENDBRANCH  14  15
ENDBRANCH  13  14
ENDBRANCH  12  13
ENDBRANCH  11  12
ENDBRANCH   1  11
TORSDOF 14
ENDMDL
MODEL 2
REMARK VINA RESULT:    -4.060      2.912      5.721
REMARK INTER + INTRA:          -9.933
REMARK INTER:                  -7.481
REMARK INTRA:                  -2.451
REMARK UNBOUND:                -2.550
REMARK SMILES CCCCCCCCCCCCCCCC(=O)[O-]
REMARK SMILES IDX 9 1 10 2 11 3 12 4 13 5 14 6 15 7 16 8 17 9 18 10 8 11 7 12
REMARK SMILES IDX 6 13 5 14 4 15 3 16 2 17 1 18
REMARK H PARENT
REMARK Flexibility Score: inf
ROOT
ATOM      1  C   UNL     1       1.634  -8.752  -3.107  1.00  0.00     0.000 C 
ENDROOT
BRANCH   1   2
ATOM      2  C   UNL     1       2.071  -7.472  -3.837  1.00  0.00     0.000 C 
BRANCH   2   3
ATOM      3  C   UNL     1       0.885  -6.555  -4.180  1.00  0.00     0.000 C 
BRANCH   3   4
ATOM      4  C   UNL     1       0.921  -5.222  -3.413  1.00  0.00     0.000 C 
BRANCH   4   5
ATOM      5  C   UNL     1       2.035  -5.149  -2.348  1.00  0.00     0.000 C 
BRANCH   5   6
ATOM      6  C   UNL     1       1.530  -5.550  -0.953  1.00  0.00     0.006 C 
BRANCH   6   7
ATOM      7  C   UNL     1       2.699  -5.845  -0.009  1.00  0.00     0.053 C 
BRANCH   7   8
ATOM      8  C   UNL     1       3.157  -7.261  -0.166  1.00  0.00     0.041 C 
ATOM      9  O   UNL     1       4.094  -7.539  -0.961  1.00  0.00    -0.550 OA
ATOM     10  O   UNL     1       2.584  -8.267   0.601  1.00  0.00    -0.550 OA
ENDBRANCH   7   8
ENDBRANCH   6   7
ENDBRANCH   5   6
ENDBRANCH   4   5
ENDBRANCH   3   4
ENDBRANCH   2   3
ENDBRANCH   1   2
BRANCH   1  11
ATOM     11  C   UNL     1       0.113  -8.829  -2.902  1.00  0.00     0.000 C 
BRANCH  11  12
ATOM     12  C   UNL     1      -0.244  -8.721  -1.412  1.00  0.00    -0.000 C 
BRANCH  12  13
ATOM     13  C   UNL     1      -1.739  -8.447  -1.174  1.00  0.00    -0.000 C 
BRANCH  13  14
ATOM     14  C   UNL     1      -2.098  -6.973  -0.892  1.00  0.00    -0.000 C 
BRANCH  14  15
ATOM     15  C   UNL     1      -2.330  -6.104  -2.142  1.00  0.00    -0.000 C 
BRANCH  15  16
ATOM     16  C   UNL     1      -2.914  -6.898  -3.323  1.00  0.00    -0.000 C 
BRANCH  16  17
ATOM     17  C   UNL     1      -2.707  -6.188  -4.669  1.00  0.00    -0.003 C 
ATOM     18  C   UNL     1      -2.549  -4.675  -4.524  1.00  0.00     0.004 C 
ENDBRANCH  16  17
ENDBRANCH  15  16
ENDBRANCH  14  15
ENDBRANCH  13  14
ENDBRANCH  12  13
ENDBRANCH  11  12
ENDBRANCH   1  11
TORSDOF 14
ENDMDL
MODEL 3
REMARK VINA RESULT:    -4.013      2.844      5.445
REMARK INTER + INTRA:          -9.847
REMARK INTER:                  -7.193
REMARK INTRA:                  -2.654
REMARK UNBOUND:                -2.550
REMARK SMILES CCCCCCCCCCCCCCCC(=O)[O-]
REMARK SMILES IDX 9 1 10 2 11 3 12 4 13 5 14 6 15 7 16 8 17 9 18 10 8 11 7 12
REMARK SMILES IDX 6 13 5 14 4 15 3 16 2 17 1 18
REMARK H PARENT
REMARK Flexibility Score: inf
ROOT
ATOM      1  C   UNL     1      -1.909  -7.243  -0.149  1.00  0.00     0.000 C 
ENDROOT
BRANCH   1   2
ATOM      2  C   UNL     1      -1.816  -8.476  -1.062  1.00  0.00     0.000 C 
BRANCH   2   3
ATOM      3  C   UNL     1      -0.365  -8.927  -1.298  1.00  0.00     0.000 C 
BRANCH   3   4
ATOM      4  C   UNL     1       0.630  -8.265  -0.330  1.00  0.00     0.000 C 
BRANCH   4   5
ATOM      5  C   UNL     1       1.962  -7.855  -0.993  1.00  0.00     0.000 C 
BRANCH   5   6
ATOM      6  C   UNL     1       2.913  -7.163  -0.003  1.00  0.00     0.006 C 
BRANCH   6   7
ATOM      7  C   UNL     1       3.315  -5.774  -0.508  1.00  0.00     0.053 C 
BRANCH   7   8
ATOM      8  C   UNL     1       4.249  -5.890  -1.672  1.00  0.00     0.041 C 
ATOM      9  O   UNL     1       4.092  -5.158  -2.685  1.00  0.00    -0.550 OA
ATOM     10  O   UNL     1       5.323  -6.769  -1.617  1.00  0.00    -0.550 OA
ENDBRANCH   7   8
ENDBRANCH   6   7
ENDBRANCH   5   6
ENDBRANCH   4   5
ENDBRANCH   3   4
ENDBRANCH   2   3
ENDBRANCH   1   2
BRANCH   1  11
ATOM     11  C   UNL     1      -2.666  -6.076  -0.802  1.00  0.00     0.000 C 
BRANCH  11  12
ATOM     12  C   UNL     1      -1.860  -4.773  -0.697  1.00  0.00    -0.000 C 
BRANCH  12  13
ATOM     13  C   UNL     1      -0.455  -4.888  -1.314  1.00  0.00    -0.000 C 
BRANCH  13  14
ATOM     14  C   UNL     1      -0.405  -4.790  -2.853  1.00  0.00    -0.000 C 
BRANCH  14  15
ATOM     15  C   UNL     1       0.700  -5.624  -3.528  1.00  0.00    -0.000 C 
BRANCH  15  16
ATOM     16  C   UNL     1       0.163  -6.908  -4.182  1.00  0.00    -0.000 C 
BRANCH  16  17
ATOM     17  C   UNL     1      -1.358  -6.869  -4.395  1.00  0.00    -0.003 C 
ATOM     18  C   UNL     1      -1.947  -8.242  -4.718  1.00  0.00     0.004 C 
ENDBRANCH  16  17
ENDBRANCH  15  16
ENDBRANCH  14  15
ENDBRANCH  13  14
ENDBRANCH  12  13
ENDBRANCH  11  12
ENDBRANCH   1  11
TORSDOF 14
ENDMDL
MODEL 4
REMARK VINA RESULT:    -4.007      2.896      5.747
REMARK INTER + INTRA:          -9.836
REMARK INTER:                  -7.316
REMARK INTRA:                  -2.520
REMARK UNBOUND:                -2.550
REMARK SMILES CCCCCCCCCCCCCCCC(=O)[O-]
REMARK SMILES IDX 9 1 10 2 11 3 12 4 13 5 14 6 15 7 16 8 17 9 18 10 8 11 7 12
REMARK SMILES IDX 6 13 5 14 4 15 3 16 2 17 1 18
REMARK H PARENT
REMARK Flexibility Score: inf
ROOT
ATOM      1  C   UNL     1       2.289  -7.744  -3.915  1.00  0.00     0.000 C 
ENDROOT
BRANCH   1   2
ATOM      2  C   UNL     1       1.290  -6.599  -4.147  1.00  0.00     0.000 C 
BRANCH   2   3
ATOM      3  C   UNL     1       1.653  -5.330  -3.357  1.00  0.00     0.000 C 
BRANCH   3   4
ATOM      4  C   UNL     1       0.616  -4.984  -2.276  1.00  0.00     0.000 C 
BRANCH   4   5
ATOM      5  C   UNL     1       1.095  -5.281  -0.839  1.00  0.00     0.000 C 
BRANCH   5   6
ATOM      6  C   UNL     1       2.582  -5.666  -0.792  1.00  0.00     0.006 C 
BRANCH   6   7
ATOM      7  C   UNL     1       3.210  -5.269   0.548  1.00  0.00     0.053 C 
BRANCH   7   8
ATOM      8  C   UNL     1       3.398  -3.787   0.620  1.00  0.00     0.041 C 
ATOM      9  O   UNL     1       3.341  -3.194   1.730  1.00  0.00    -0.550 OA
ATOM     10  O   UNL     1       3.688  -3.065  -0.531  1.00  0.00    -0.550 OA
ENDBRANCH   7   8
ENDBRANCH   6   7
ENDBRANCH   5   6
ENDBRANCH   4   5
ENDBRANCH   3   4
ENDBRANCH   2   3
ENDBRANCH   1   2
BRANCH   1  11
ATOM     11  C   UNL     1       1.895  -8.644  -2.733  1.00  0.00     0.000 C 
BRANCH  11  12
ATOM     12  C   UNL     1       0.371  -8.819  -2.663  1.00  0.00    -0.000 C 
BRANCH  12  13
ATOM     13  C   UNL     1      -0.171  -8.758  -1.224  1.00  0.00    -0.000 C 
BRANCH  13  14
ATOM     14  C   UNL     1      -1.552  -8.085  -1.073  1.00  0.00    -0.000 C 
BRANCH  14  15
ATOM     15  C   UNL     1      -2.401  -8.034  -2.356  1.00  0.00    -0.000 C 
BRANCH  15  16
ATOM     16  C   UNL     1      -2.566  -6.608  -2.908  1.00  0.00    -0.000 C 
BRANCH  16  17
ATOM     17  C   UNL     1      -2.368  -6.540  -4.430  1.00  0.00    -0.003 C 
ATOM     18  C   UNL     1      -2.051  -7.901  -5.049  1.00  0.00     0.004 C 
ENDBRANCH  16  17
ENDBRANCH  15  16
ENDBRANCH  14  15
ENDBRANCH  13  14
ENDBRANCH  12  13
ENDBRANCH  11  12
ENDBRANCH   1  11
TORSDOF 14
ENDMDL
MODEL 5
REMARK VINA RESULT:    -3.973      1.425      2.620
REMARK INTER + INTRA:          -9.775
REMARK INTER:                  -7.332
REMARK INTRA:                  -2.443
REMARK UNBOUND:                -2.550
REMARK SMILES CCCCCCCCCCCCCCCC(=O)[O-]
REMARK SMILES IDX 9 1 10 2 11 3 12 4 13 5 14 6 15 7 16 8 17 9 18 10 8 11 7 12
REMARK SMILES IDX 6 13 5 14 4 15 3 16 2 17 1 18
REMARK H PARENT
REMARK Flexibility Score: inf
ROOT
ATOM      1  C   UNL     1       1.999  -7.287  -4.031  1.00  0.00     0.000 C 
ENDROOT
BRANCH   1   2
ATOM      2  C   UNL     1       1.808  -8.507  -3.115  1.00  0.00     0.000 C 
BRANCH   2   3
ATOM      3  C   UNL     1       0.329  -8.776  -2.792  1.00  0.00     0.000 C 
BRANCH   3   4
ATOM      4  C   UNL     1       0.045  -8.803  -1.281  1.00  0.00     0.000 C 
BRANCH   4   5
ATOM      5  C   UNL     1      -1.383  -8.348  -0.909  1.00  0.00     0.000 C 
BRANCH   5   6
ATOM      6  C   UNL     1      -2.210  -7.967  -2.148  1.00  0.00     0.006 C 
BRANCH   6   7
ATOM      7  C   UNL     1      -2.456  -6.457  -2.200  1.00  0.00     0.053 C 
BRANCH   7   8
ATOM      8  C   UNL     1      -3.409  -6.119  -3.303  1.00  0.00     0.041 C 
ATOM      9  O   UNL     1      -4.652  -6.136  -3.095  1.00  0.00    -0.550 OA
ATOM     10  O   UNL     1      -2.925  -5.736  -4.548  1.00  0.00    -0.550 OA
ENDBRANCH   7   8
ENDBRANCH   6   7
ENDBRANCH   5   6
ENDBRANCH   4   5
ENDBRANCH   3   4
ENDBRANCH   2   3
ENDBRANCH   1   2
BRANCH   1  11
ATOM     11  C   UNL     1       0.895  -6.233  -3.854  1.00  0.00     0.000 C 
BRANCH  11  12
ATOM     12  C   UNL     1       1.386  -5.067  -2.984  1.00  0.00    -0.000 C 
BRANCH  12  13
ATOM     13  C   UNL     1       0.927  -5.179  -1.519  1.00  0.00    -0.000 C 
BRANCH  13  14
ATOM     14  C   UNL     1       2.059  -5.120  -0.472  1.00  0.00    -0.000 C 
BRANCH  14  15
ATOM     15  C   UNL     1       2.623  -6.485  -0.037  1.00  0.00    -0.000 C 
BRANCH  15  16
ATOM     16  C   UNL     1       3.899  -6.876  -0.801  1.00  0.00    -0.000 C 
BRANCH  16  17
ATOM     17  C   UNL     1       4.695  -5.653  -1.281  1.00  0.00    -0.003 C 
ATOM     18  C   UNL     1       6.045  -6.027  -1.893  1.00  0.00     0.004 C 
ENDBRANCH  16  17
ENDBRANCH  15  16
ENDBRANCH  14  15
ENDBRANCH  13  14
ENDBRANCH  12  13
ENDBRANCH  11  12
ENDBRANCH   1  11
TORSDOF 14
ENDMDL
MODEL 6
REMARK VINA RESULT:    -3.971      2.997      5.544
REMARK INTER + INTRA:          -9.772
REMARK INTER:                  -7.302
REMARK INTRA:                  -2.470
REMARK UNBOUND:                -2.550
REMARK SMILES CCCCCCCCCCCCCCCC(=O)[O-]
REMARK SMILES IDX 9 1 10 2 11 3 12 4 13 5 14 6 15 7 16 8 17 9 18 10 8 11 7 12
REMARK SMILES IDX 6 13 5 14 4 15 3 16 2 17 1 18
REMARK H PARENT
REMARK Flexibility Score: inf
ROOT
ATOM      1  C   UNL     1      -0.237  -8.441  -1.255  1.00  0.00     0.000 C 
ENDROOT
BRANCH   1   2
ATOM      2  C   UNL     1      -0.010  -8.908  -2.702  1.00  0.00     0.000 C 
BRANCH   2   3
ATOM      3  C   UNL     1       1.076  -8.091  -3.422  1.00  0.00     0.000 C 
BRANCH   3   4
ATOM      4  C   UNL     1       2.478  -8.306  -2.825  1.00  0.00     0.000 C 
BRANCH   4   5
ATOM      5  C   UNL     1       3.103  -7.026  -2.232  1.00  0.00     0.000 C 
BRANCH   5   6
ATOM      6  C   UNL     1       3.710  -7.268  -0.841  1.00  0.00     0.006 C 
BRANCH   6   7
ATOM      7  C   UNL     1       2.945  -6.493   0.235  1.00  0.00     0.053 C 
BRANCH   7   8
ATOM      8  C   UNL     1       3.528  -5.126   0.411  1.00  0.00     0.041 C 
ATOM      9  O   UNL     1       2.890  -4.241   1.040  1.00  0.00    -0.550 OA
ATOM     10  O   UNL     1       4.798  -4.844  -0.076  1.00  0.00    -0.550 OA
ENDBRANCH   7   8
ENDBRANCH   6   7
ENDBRANCH   5   6
ENDBRANCH   4   5
ENDBRANCH   3   4
ENDBRANCH   2   3
ENDBRANCH   1   2
BRANCH   1  11
ATOM     11  C   UNL     1      -1.675  -7.961  -1.005  1.00  0.00     0.000 C 
BRANCH  11  12
ATOM     12  C   UNL     1      -2.508  -8.033  -2.294  1.00  0.00    -0.000 C 
BRANCH  12  13
ATOM     13  C   UNL     1      -3.281  -6.734  -2.579  1.00  0.00    -0.000 C 
BRANCH  13  14
ATOM     14  C   UNL     1      -3.041  -6.122  -3.975  1.00  0.00    -0.000 C 
BRANCH  14  15
ATOM     15  C   UNL     1      -1.578  -5.756  -4.288  1.00  0.00    -0.000 C 
BRANCH  15  16
ATOM     16  C   UNL     1      -1.110  -4.487  -3.556  1.00  0.00    -0.000 C 
BRANCH  16  17
ATOM     17  C   UNL     1       0.242  -4.680  -2.851  1.00  0.00    -0.003 C 
ATOM     18  C   UNL     1       0.115  -4.728  -1.328  1.00  0.00     0.004 C 
ENDBRANCH  16  17
ENDBRANCH  15  16
ENDBRANCH  14  15
ENDBRANCH  13  14
ENDBRANCH  12  13
ENDBRANCH  11  12
ENDBRANCH   1  11
TORSDOF 14
ENDMDL
MODEL 7
REMARK VINA RESULT:    -3.962      1.549      3.263
REMARK INTER + INTRA:          -9.755
REMARK INTER:                  -7.324
REMARK INTRA:                  -2.432
REMARK UNBOUND:                -2.550
REMARK SMILES CCCCCCCCCCCCCCCC(=O)[O-]
REMARK SMILES IDX 9 1 10 2 11 3 12 4 13 5 14 6 15 7 16 8 17 9 18 10 8 11 7 12
REMARK SMILES IDX 6 13 5 14 4 15 3 16 2 17 1 18
REMARK H PARENT
REMARK Flexibility Score: inf
ROOT
ATOM      1  C   UNL     1      -2.135  -5.780  -0.768  1.00  0.00     0.000 C 
ENDROOT
BRANCH   1   2
ATOM      2  C   UNL     1      -0.823  -4.980  -0.750  1.00  0.00     0.000 C 
BRANCH   2   3
ATOM      3  C   UNL     1      -0.062  -5.064  -2.084  1.00  0.00     0.000 C 
BRANCH   3   4
ATOM      4  C   UNL     1      -0.966  -4.806  -3.302  1.00  0.00     0.000 C 
BRANCH   4   5
ATOM      5  C   UNL     1      -1.109  -6.025  -4.237  1.00  0.00     0.000 C 
BRANCH   5   6
ATOM      6  C   UNL     1      -2.580  -6.365  -4.525  1.00  0.00     0.006 C 
BRANCH   6   7
ATOM      7  C   UNL     1      -3.391  -5.097  -4.807  1.00  0.00     0.053 C 
BRANCH   7   8
ATOM      8  C   UNL     1      -4.684  -5.124  -4.054  1.00  0.00     0.041 C 
ATOM      9  O   UNL     1      -5.654  -4.416  -4.435  1.00  0.00    -0.550 OA
ATOM     10  O   UNL     1      -4.836  -5.968  -2.962  1.00  0.00    -0.550 OA
ENDBRANCH   7   8
ENDBRANCH   6   7
ENDBRANCH   5   6
ENDBRANCH   4   5
ENDBRANCH   3   4
ENDBRANCH   2   3
ENDBRANCH   1   2
BRANCH   1  11
ATOM     11  C   UNL     1      -1.979  -7.190  -0.177  1.00  0.00     0.000 C 
BRANCH  11  12
ATOM     12  C   UNL     1      -1.949  -8.249  -1.289  1.00  0.00    -0.000 C 
BRANCH  12  13
ATOM     13  C   UNL     1      -0.671  -9.106  -1.263  1.00  0.00    -0.000 C 
BRANCH  13  14
ATOM     14  C   UNL     1       0.401  -8.715  -2.301  1.00  0.00    -0.000 C 
BRANCH  14  15
ATOM     15  C   UNL     1       1.740  -8.235  -1.712  1.00  0.00    -0.000 C 
BRANCH  15  16
ATOM     16  C   UNL     1       1.694  -8.063  -0.185  1.00  0.00    -0.000 C 
BRANCH  16  17
ATOM     17  C   UNL     1       2.929  -7.332   0.363  1.00  0.00    -0.003 C 
ATOM     18  C   UNL     1       2.901  -5.829   0.085  1.00  0.00     0.004 C 
ENDBRANCH  16  17
ENDBRANCH  15  16
ENDBRANCH  14  15
ENDBRANCH  13  14
ENDBRANCH  12  13
ENDBRANCH  11  12
ENDBRANCH   1  11
TORSDOF 14
ENDMDL
MODEL 8
REMARK VINA RESULT:    -3.960      3.037      5.608
REMARK INTER + INTRA:          -9.750
REMARK INTER:                  -6.938
REMARK INTRA:                  -2.812
REMARK UNBOUND:                -2.550
REMARK SMILES CCCCCCCCCCCCCCCC(=O)[O-]
REMARK SMILES IDX 9 1 10 2 11 3 12 4 13 5 14 6 15 7 16 8 17 9 18 10 8 11 7 12
REMARK SMILES IDX 6 13 5 14 4 15 3 16 2 17 1 18
REMARK H PARENT
REMARK Flexibility Score: inf
ROOT
ATOM      1  C   UNL     1       1.959  -6.324  -3.758  1.00  0.00     0.000 C 
ENDROOT
BRANCH   1   2
ATOM      2  C   UNL     1       1.341  -7.719  -3.943  1.00  0.00     0.000 C 
BRANCH   2   3
ATOM      3  C   UNL     1       1.659  -8.665  -2.773  1.00  0.00     0.000 C 
BRANCH   3   4
ATOM      4  C   UNL     1       0.527  -8.729  -1.734  1.00  0.00     0.000 C 
BRANCH   4   5
ATOM      5  C   UNL     1       0.812  -7.914  -0.455  1.00  0.00     0.000 C 
BRANCH   5   6
ATOM      6  C   UNL     1       2.298  -7.945  -0.067  1.00  0.00     0.006 C 
BRANCH   6   7
ATOM      7  C   UNL     1       2.831  -6.531   0.179  1.00  0.00     0.053 C 
BRANCH   7   8
ATOM      8  C   UNL     1       3.966  -6.229  -0.750  1.00  0.00     0.041 C 
ATOM      9  O   UNL     1       4.407  -5.053  -0.850  1.00  0.00    -0.550 OA
ATOM     10  O   UNL     1       4.570  -7.254  -1.466  1.00  0.00    -0.550 OA
ENDBRANCH   7   8
ENDBRANCH   6   7
ENDBRANCH   5   6
ENDBRANCH   4   5
ENDBRANCH   3   4
ENDBRANCH   2   3
ENDBRANCH   1   2
BRANCH   1  11
ATOM     11  C   UNL     1       0.900  -5.217  -3.641  1.00  0.00     0.000 C 
BRANCH  11  12
ATOM     12  C   UNL     1       0.924  -4.583  -2.242  1.00  0.00    -0.000 C 
BRANCH  12  13
ATOM     13  C   UNL     1      -0.448  -4.623  -1.544  1.00  0.00    -0.000 C 
BRANCH  13  14
ATOM     14  C   UNL     1      -1.622  -5.082  -2.434  1.00  0.00    -0.000 C 
BRANCH  14  15
ATOM     15  C   UNL     1      -2.246  -6.436  -2.049  1.00  0.00    -0.000 C 
BRANCH  15  16
ATOM     16  C   UNL     1      -3.065  -7.062  -3.191  1.00  0.00    -0.000 C 
BRANCH  16  17
ATOM     17  C   UNL     1      -2.268  -7.161  -4.501  1.00  0.00    -0.003 C 
ATOM     18  C   UNL     1      -2.033  -8.605  -4.945  1.00  0.00     0.004 C 
ENDBRANCH  16  17
ENDBRANCH  15  16
ENDBRANCH  14  15
ENDBRANCH  13  14
ENDBRANCH  12  13
ENDBRANCH  11  12
ENDBRANCH   1  11
TORSDOF 14
ENDMDL
MODEL 9
REMARK VINA RESULT:    -3.928      3.010      5.674
REMARK INTER + INTRA:          -9.693
REMARK INTER:                  -7.136
REMARK INTRA:                  -2.557
REMARK UNBOUND:                -2.550
REMARK SMILES CCCCCCCCCCCCCCCC(=O)[O-]
REMARK SMILES IDX 9 1 10 2 11 3 12 4 13 5 14 6 15 7 16 8 17 9 18 10 8 11 7 12
REMARK SMILES IDX 6 13 5 14 4 15 3 16 2 17 1 18
REMARK H PARENT
REMARK Flexibility Score: inf
ROOT
ATOM      1  C   UNL     1      -0.985  -4.508  -3.881  1.00  0.00     0.000 C 
ENDROOT
BRANCH   1   2
ATOM      2  C   UNL     1      -0.454  -4.291  -2.455  1.00  0.00     0.000 C 
BRANCH   2   3
ATOM      3  C   UNL     1       0.790  -5.143  -2.152  1.00  0.00     0.000 C 
BRANCH   3   4
ATOM      4  C   UNL     1       1.596  -5.489  -3.415  1.00  0.00     0.000 C 
BRANCH   4   5
ATOM      5  C   UNL     1       3.028  -5.984  -3.121  1.00  0.00     0.000 C 
BRANCH   5   6
ATOM      6  C   UNL     1       3.036  -7.357  -2.429  1.00  0.00     0.006 C 
BRANCH   6   7
ATOM      7  C   UNL     1       3.916  -7.335  -1.176  1.00  0.00     0.053 C 
BRANCH   7   8
ATOM      8  C   UNL     1       3.089  -7.062   0.041  1.00  0.00     0.041 C 
ATOM      9  O   UNL     1       2.427  -7.989   0.579  1.00  0.00    -0.550 OA
ATOM     10  O   UNL     1       3.089  -5.796   0.612  1.00  0.00    -0.550 OA
ENDBRANCH   7   8
ENDBRANCH   6   7
ENDBRANCH   5   6
ENDBRANCH   4   5
ENDBRANCH   3   4
ENDBRANCH   2   3
ENDBRANCH   1   2
BRANCH   1  11
ATOM     11  C   UNL     1      -2.499  -4.765  -3.918  1.00  0.00     0.000 C 
BRANCH  11  12
ATOM     12  C   UNL     1      -2.802  -6.171  -4.456  1.00  0.00    -0.000 C 
BRANCH  12  13
ATOM     13  C   UNL     1      -1.531  -7.001  -4.711  1.00  0.00    -0.000 C 
BRANCH  13  14
ATOM     14  C   UNL     1      -1.502  -8.383  -4.026  1.00  0.00    -0.000 C 
BRANCH  14  15
ATOM     15  C   UNL     1      -0.215  -8.700  -3.242  1.00  0.00    -0.000 C 
BRANCH  15  16
ATOM     16  C   UNL     1      -0.407  -8.613  -1.719  1.00  0.00    -0.000 C 
BRANCH  16  17
ATOM     17  C   UNL     1      -1.874  -8.386  -1.322  1.00  0.00    -0.003 C 
ATOM     18  C   UNL     1      -2.088  -7.075  -0.566  1.00  0.00     0.004 C 
ENDBRANCH  16  17
ENDBRANCH  15  16
ENDBRANCH  14  15
ENDBRANCH  13  14
ENDBRANCH  12  13
ENDBRANCH  11  12
ENDBRANCH   1  11
TORSDOF 14
ENDMDL
