MODEL 1
REMARK VINA RESULT:    -3.991      0.000      0.000
REMARK INTER + INTRA:          -7.580
REMARK INTER:                  -6.325
REMARK INTRA:                  -1.255
REMARK UNBOUND:                -1.255
REMARK SMILES CCCCCCCCCCCC(=O)[O-]
REMARK SMILES IDX 7 1 8 2 9 3 10 4 11 5 12 6 13 7 14 8 6 9 5 10 4 11 3 12 2 13
REMARK SMILES IDX 1 14
REMARK H PARENT
REMARK Flexibility Score: inf
ROOT
ATOM      1  C   UNL     1      29.097  33.512  34.865  1.00  0.00     0.000 C 
ENDROOT
BRANCH   1   2
ATOM      2  C   UNL     1      28.044  33.598  33.744  1.00  0.00     0.000 C 
BRANCH   2   3
ATOM      3  C   UNL     1      27.304  34.947  33.722  1.00  0.00     0.000 C 
BRANCH   3   4
ATOM      4  C   UNL     1      27.209  35.550  32.309  1.00  0.00     0.006 C 
BRANCH   4   5
ATOM      5  C   UNL     1      27.282  34.520  31.170  1.00  0.00     0.053 C 
BRANCH   5   6
ATOM      6  C   UNL     1      25.925  34.035  30.762  1.00  0.00     0.041 C 
ATOM      7  O   UNL     1      25.388  34.470  29.710  1.00  0.00    -0.550 OA
ATOM      8  O   UNL     1      25.268  33.078  31.526  1.00  0.00    -0.550 OA
ENDBRANCH   5   6
ENDBRANCH   4   5
ENDBRANCH   3   4
ENDBRANCH   2   3
ENDBRANCH   1   2
BRANCH   1   9
ATOM      9  C   UNL     1      28.538  33.219  36.273  1.00  0.00     0.000 C 
BRANCH   9  10
ATOM     10  C   UNL     1      27.804  31.874  36.417  1.00  0.00    -0.000 C 
BRANCH  10  11
ATOM     11  C   UNL     1      26.320  32.040  36.776  1.00  0.00    -0.000 C 
BRANCH  11  12
ATOM     12  C   UNL     1      25.999  33.499  37.120  1.00  0.00    -0.000 C 
BRANCH  12  13
ATOM     13  C   UNL     1      24.822  34.015  36.285  1.00  0.00    -0.003 C 
ATOM     14  C   UNL     1      24.496  33.058  35.142  1.00  0.00     0.004 C 
ENDBRANCH  12  13
ENDBRANCH  11  12
ENDBRANCH  10  11
ENDBRANCH   9  10
ENDBRANCH   1   9
TORSDOF 10
ENDMDL
MODEL 2
REMARK VINA RESULT:    -3.833      1.124      2.956
REMARK INTER + INTRA:          -7.329
REMARK INTER:                  -6.066
REMARK INTRA:                  -1.263
REMARK UNBOUND:                -1.255
REMARK SMILES CCCCCCCCCCCC(=O)[O-]
REMARK SMILES IDX 7 1 8 2 9 3 10 4 11 5 12 6 13 7 14 8 6 9 5 10 4 11 3 12 2 13
REMARK SMILES IDX 1 14
REMARK H PARENT
REMARK Flexibility Score: inf
ROOT
ATOM      1  C   UNL     1      24.752  33.252  35.593  1.00  0.00     0.000 C 
ENDROOT
BRANCH   1   2
ATOM      2  C   UNL     1      25.571  33.484  34.310  1.00  0.00     0.000 C 
BRANCH   2   3
ATOM      3  C   UNL     1      26.495  34.710  34.405  1.00  0.00     0.000 C 
BRANCH   3   4
ATOM      4  C   UNL     1      27.415  34.858  33.179  1.00  0.00     0.006 C 
BRANCH   4   5
ATOM      5  C   UNL     1      26.704  35.337  31.904  1.00  0.00     0.053 C 
BRANCH   5   6
ATOM      6  C   UNL     1      26.690  34.286  30.838  1.00  0.00     0.041 C 
ATOM      7  O   UNL     1      25.600  33.915  30.327  1.00  0.00    -0.550 OA
ATOM      8  O   UNL     1      27.884  33.739  30.383  1.00  0.00    -0.550 OA
ENDBRANCH   5   6
ENDBRANCH   4   5
ENDBRANCH   3   4
ENDBRANCH   2   3
ENDBRANCH   1   2
BRANCH   1   9
ATOM      9  C   UNL     1      25.573  33.204  36.899  1.00  0.00     0.000 C 
BRANCH   9  10
ATOM     10  C   UNL     1      26.415  31.931  37.095  1.00  0.00    -0.000 C 
BRANCH  10  11
ATOM     11  C   UNL     1      27.911  32.161  36.836  1.00  0.00    -0.000 C 
BRANCH  11  12
ATOM     12  C   UNL     1      28.362  31.447  35.556  1.00  0.00    -0.000 C 
BRANCH  12  13
ATOM     13  C   UNL     1      29.489  32.220  34.863  1.00  0.00    -0.003 C 
ATOM     14  C   UNL     1      29.847  33.485  35.637  1.00  0.00     0.004 C 
ENDBRANCH  12  13
ENDBRANCH  11  12
ENDBRANCH  10  11
ENDBRANCH   9  10
ENDBRANCH   1   9
TORSDOF 10
ENDMDL
MODEL 3
REMARK VINA RESULT:    -3.821      0.927      2.487
REMARK INTER + INTRA:          -7.310
REMARK INTER:                  -6.259
REMARK INTRA:                  -1.051
REMARK UNBOUND:                -1.255
REMARK SMILES CCCCCCCCCCCC(=O)[O-]
REMARK SMILES IDX 7 1 8 2 9 3 10 4 11 5 12 6 13 7 14 8 6 9 5 10 4 11 3 12 2 13
REMARK SMILES IDX 1 14
REMARK H PARENT
REMARK Flexibility Score: inf
ROOT
ATOM      1  C   UNL     1      26.092  34.137  34.374  1.00  0.00     0.000 C 
ENDROOT
BRANCH   1   2
ATOM      2  C   UNL     1      26.669  35.535  34.085  1.00  0.00     0.000 C 
BRANCH   2   3
ATOM      3  C   UNL     1      27.052  35.730  32.608  1.00  0.00     0.000 C 
BRANCH   3   4
ATOM      4  C   UNL     1      27.866  34.552  32.043  1.00  0.00     0.006 C 
BRANCH   4   5
ATOM      5  C   UNL     1      27.437  34.096  30.640  1.00  0.00     0.053 C 
BRANCH   5   6
ATOM      6  C   UNL     1      25.952  33.934  30.531  1.00  0.00     0.041 C 
ATOM      7  O   UNL     1      25.305  34.582  29.667  1.00  0.00    -0.550 OA
ATOM      8  O   UNL     1      25.286  33.040  31.362  1.00  0.00    -0.550 OA
ENDBRANCH   5   6
ENDBRANCH   4   5
ENDBRANCH   3   4
ENDBRANCH   2   3
ENDBRANCH   1   2
BRANCH   1   9
ATOM      9  C   UNL     1      25.273  34.018  35.677  1.00  0.00     0.000 C 
BRANCH   9  10
ATOM     10  C   UNL     1      25.655  32.834  36.583  1.00  0.00    -0.000 C 
BRANCH  10  11
ATOM     11  C   UNL     1      27.046  32.267  36.269  1.00  0.00    -0.000 C 
BRANCH  11  12
ATOM     12  C   UNL     1      28.134  33.021  37.043  1.00  0.00    -0.000 C 
BRANCH  12  13
ATOM     13  C   UNL     1      29.343  33.315  36.148  1.00  0.00    -0.003 C 
ATOM     14  C   UNL     1      29.291  32.494  34.864  1.00  0.00     0.004 C 
ENDBRANCH  12  13
ENDBRANCH  11  12
ENDBRANCH  10  11
ENDBRANCH   9  10
ENDBRANCH   1   9
TORSDOF 10
ENDMDL
MODEL 4
REMARK VINA RESULT:    -3.805      2.439      5.251
REMARK INTER + INTRA:          -7.284
REMARK INTER:                  -6.254
REMARK INTRA:                  -1.030
REMARK UNBOUND:                -1.255
REMARK SMILES CCCCCCCCCCCC(=O)[O-]
REMARK SMILES IDX 7 1 8 2 9 3 10 4 11 5 12 6 13 7 14 8 6 9 5 10 4 11 3 12 2 13
REMARK SMILES IDX 1 14
REMARK H PARENT
REMARK Flexibility Score: inf
ROOT
ATOM      1  C   UNL     1      25.887  33.674  34.333  1.00  0.00     0.000 C 
ENDROOT
BRANCH   1   2
ATOM      2  C   UNL     1      25.202  33.365  35.677  1.00  0.00     0.000 C 
BRANCH   2   3
ATOM      3  C   UNL     1      26.094  32.551  36.630  1.00  0.00     0.000 C 
BRANCH   3   4
ATOM      4  C   UNL     1      27.063  31.616  35.885  1.00  0.00     0.006 C 
BRANCH   4   5
ATOM      5  C   UNL     1      28.541  31.794  36.269  1.00  0.00     0.053 C 
BRANCH   5   6
ATOM      6  C   UNL     1      29.331  32.451  35.180  1.00  0.00     0.041 C 
ATOM      7  O   UNL     1      29.605  31.818  34.127  1.00  0.00    -0.550 OA
ATOM      8  O   UNL     1      29.735  33.774  35.313  1.00  0.00    -0.550 OA
ENDBRANCH   5   6
ENDBRANCH   4   5
ENDBRANCH   3   4
ENDBRANCH   2   3
ENDBRANCH   1   2
BRANCH   1   9
ATOM      9  C   UNL     1      26.587  35.047  34.251  1.00  0.00     0.000 C 
BRANCH   9  10
ATOM     10  C   UNL     1      27.113  35.430  32.856  1.00  0.00    -0.000 C 
BRANCH  10  11
ATOM     11  C   UNL     1      27.921  34.305  32.194  1.00  0.00    -0.000 C 
BRANCH  11  12
ATOM     12  C   UNL     1      27.441  34.056  30.758  1.00  0.00    -0.000 C 
BRANCH  12  13
ATOM     13  C   UNL     1      25.967  33.639  30.735  1.00  0.00    -0.003 C 
ATOM     14  C   UNL     1      25.152  34.542  29.814  1.00  0.00     0.004 C 
ENDBRANCH  12  13
ENDBRANCH  11  12
ENDBRANCH  10  11
ENDBRANCH   9  10
ENDBRANCH   1   9
TORSDOF 10
ENDMDL
MODEL 5
REMARK VINA RESULT:    -3.565      3.214      5.490
REMARK INTER + INTRA:          -6.904
REMARK INTER:                  -5.912
REMARK INTRA:                  -0.992
REMARK UNBOUND:                -1.255
REMARK SMILES CCCCCCCCCCCC(=O)[O-]
REMARK SMILES IDX 7 1 8 2 9 3 10 4 11 5 12 6 13 7 14 8 6 9 5 10 4 11 3 12 2 13
REMARK SMILES IDX 1 14
REMARK H PARENT
REMARK Flexibility Score: inf
ROOT
ATOM      1  C   UNL     1      26.733  32.777  34.982  1.00  0.00     0.000 C 
ENDROOT
BRANCH   1   2
ATOM      2  C   UNL     1      28.178  33.159  35.352  1.00  0.00     0.000 C 
BRANCH   2   3
ATOM      3  C   UNL     1      29.221  32.547  34.401  1.00  0.00     0.000 C 
BRANCH   3   4
ATOM      4  C   UNL     1      30.011  31.394  35.047  1.00  0.00     0.006 C 
BRANCH   4   5
ATOM      5  C   UNL     1      29.255  30.058  35.105  1.00  0.00     0.053 C 
BRANCH   5   6
ATOM      6  C   UNL     1      29.874  29.022  34.218  1.00  0.00     0.041 C 
ATOM      7  O   UNL     1      30.033  29.252  32.991  1.00  0.00    -0.550 OA
ATOM      8  O   UNL     1      30.305  27.814  34.753  1.00  0.00    -0.550 OA
ENDBRANCH   5   6
ENDBRANCH   4   5
ENDBRANCH   3   4
ENDBRANCH   2   3
ENDBRANCH   1   2
BRANCH   1   9
ATOM      9  C   UNL     1      25.937  33.863  34.229  1.00  0.00     0.000 C 
BRANCH   9  10
ATOM     10  C   UNL     1      26.656  35.216  34.080  1.00  0.00    -0.000 C 
BRANCH  10  11
ATOM     11  C   UNL     1      26.757  35.680  32.620  1.00  0.00    -0.000 C 
BRANCH  11  12
ATOM     12  C   UNL     1      27.922  34.987  31.903  1.00  0.00    -0.000 C 
BRANCH  12  13
ATOM     13  C   UNL     1      27.410  34.003  30.846  1.00  0.00    -0.003 C 
ATOM     14  C   UNL     1      25.978  34.331  30.434  1.00  0.00     0.004 C 
ENDBRANCH  12  13
ENDBRANCH  11  12
ENDBRANCH  10  11
ENDBRANCH   9  10
ENDBRANCH   1   9
TORSDOF 10
ENDMDL
MODEL 6
REMARK VINA RESULT:    -3.544      2.560      5.279
REMARK INTER + INTRA:          -6.871
REMARK INTER:                  -5.850
REMARK INTRA:                  -1.020
REMARK UNBOUND:                -1.255
REMARK SMILES CCCCCCCCCCCC(=O)[O-]
REMARK SMILES IDX 7 1 8 2 9 3 10 4 11 5 12 6 13 7 14 8 6 9 5 10 4 11 3 12 2 13
REMARK SMILES IDX 1 14
REMARK H PARENT
REMARK Flexibility Score: inf
ROOT
ATOM      1  C   UNL     1      25.248  33.294  35.513  1.00  0.00     0.000 C 
ENDROOT
BRANCH   1   2
ATOM      2  C   UNL     1      26.176  33.205  36.738  1.00  0.00     0.000 C 
BRANCH   2   3
ATOM      3  C   UNL     1      26.547  31.757  37.103  1.00  0.00     0.000 C 
BRANCH   3   4
ATOM      4  C   UNL     1      28.051  31.471  36.947  1.00  0.00     0.006 C 
BRANCH   4   5
ATOM      5  C   UNL     1      28.453  30.903  35.576  1.00  0.00     0.053 C 
BRANCH   5   6
ATOM      6  C   UNL     1      29.539  31.707  34.931  1.00  0.00     0.041 C 
ATOM      7  O   UNL     1      30.029  32.702  35.525  1.00  0.00    -0.550 OA
ATOM      8  O   UNL     1      30.033  31.336  33.686  1.00  0.00    -0.550 OA
ENDBRANCH   5   6
ENDBRANCH   4   5
ENDBRANCH   3   4
ENDBRANCH   2   3
ENDBRANCH   1   2
BRANCH   1   9
ATOM      9  C   UNL     1      25.956  33.551  34.166  1.00  0.00     0.000 C 
BRANCH   9  10
ATOM     10  C   UNL     1      27.223  34.422  34.250  1.00  0.00    -0.000 C 
BRANCH  10  11
ATOM     11  C   UNL     1      27.968  34.521  32.912  1.00  0.00    -0.000 C 
BRANCH  11  12
ATOM     12  C   UNL     1      27.079  35.155  31.834  1.00  0.00    -0.000 C 
BRANCH  12  13
ATOM     13  C   UNL     1      26.867  34.192  30.661  1.00  0.00    -0.003 C 
ATOM     14  C   UNL     1      25.469  34.346  30.067  1.00  0.00     0.004 C 
ENDBRANCH  12  13
ENDBRANCH  11  12
ENDBRANCH  10  11
ENDBRANCH   9  10
ENDBRANCH   1   9
TORSDOF 10
ENDMDL
MODEL 7
REMARK VINA RESULT:    -3.518      2.650      4.932
REMARK INTER + INTRA:          -6.829
REMARK INTER:                  -5.702
REMARK INTRA:                  -1.127
REMARK UNBOUND:                -1.255
REMARK SMILES CCCCCCCCCCCC(=O)[O-]
REMARK SMILES IDX 7 1 8 2 9 3 10 4 11 5 12 6 13 7 14 8 6 9 5 10 4 11 3 12 2 13
REMARK SMILES IDX 1 14
REMARK H PARENT
REMARK Flexibility Score: inf
ROOT
ATOM      1  C   UNL     1      25.870  32.990  36.587  1.00  0.00     0.000 C 
ENDROOT
BRANCH   1   2
ATOM      2  C   UNL     1      27.179  32.278  36.198  1.00  0.00     0.000 C 
BRANCH   2   3
ATOM      3  C   UNL     1      28.431  33.000  36.724  1.00  0.00     0.000 C 
BRANCH   3   4
ATOM      4  C   UNL     1      29.499  33.208  35.635  1.00  0.00     0.006 C 
BRANCH   4   5
ATOM      5  C   UNL     1      29.239  32.435  34.333  1.00  0.00     0.053 C 
BRANCH   5   6
ATOM      6  C   UNL     1      30.191  31.292  34.157  1.00  0.00     0.041 C 
ATOM      7  O   UNL     1      30.749  30.772  35.159  1.00  0.00    -0.550 OA
ATOM      8  O   UNL     1      30.437  30.780  32.889  1.00  0.00    -0.550 OA
ENDBRANCH   5   6
ENDBRANCH   4   5
ENDBRANCH   3   4
ENDBRANCH   2   3
ENDBRANCH   1   2
BRANCH   1   9
ATOM      9  C   UNL     1      25.192  33.788  35.453  1.00  0.00     0.000 C 
BRANCH   9  10
ATOM     10  C   UNL     1      25.966  33.820  34.123  1.00  0.00    -0.000 C 
BRANCH  10  11
ATOM     11  C   UNL     1      26.699  35.149  33.891  1.00  0.00    -0.000 C 
BRANCH  11  12
ATOM     12  C   UNL     1      26.995  35.360  32.402  1.00  0.00    -0.000 C 
BRANCH  12  13
ATOM     13  C   UNL     1      26.750  34.075  31.604  1.00  0.00    -0.003 C 
ATOM     14  C   UNL     1      25.855  34.337  30.397  1.00  0.00     0.004 C 
ENDBRANCH  12  13
ENDBRANCH  11  12
ENDBRANCH  10  11
ENDBRANCH   9  10
ENDBRANCH   1   9
TORSDOF 10
ENDMDL
MODEL 8
REMARK VINA RESULT:    -3.221      2.004      3.525
REMARK INTER + INTRA:          -6.360
REMARK INTER:                  -5.344
REMARK INTRA:                  -1.016
REMARK UNBOUND:                -1.255
REMARK SMILES CCCCCCCCCCCC(=O)[O-]
REMARK SMILES IDX 7 1 8 2 9 3 10 4 11 5 12 6 13 7 14 8 6 9 5 10 4 11 3 12 2 13
REMARK SMILES IDX 1 14
REMARK H PARENT
REMARK Flexibility Score: inf
ROOT
ATOM      1  C   UNL     1      26.955  32.225  35.699  1.00  0.00     0.000 C 
ENDROOT
BRANCH   1   2
ATOM      2  C   UNL     1      28.038  33.287  35.435  1.00  0.00     0.000 C 
BRANCH   2   3
ATOM      3  C   UNL     1      28.051  33.777  33.977  1.00  0.00     0.000 C 
BRANCH   3   4
ATOM      4  C   UNL     1      26.967  34.832  33.693  1.00  0.00     0.006 C 
BRANCH   4   5
ATOM      5  C   UNL     1      26.948  35.354  32.247  1.00  0.00     0.053 C 
BRANCH   5   6
ATOM      6  C   UNL     1      26.779  34.247  31.252  1.00  0.00     0.041 C 
ATOM      7  O   UNL     1      27.706  33.975  30.444  1.00  0.00    -0.550 OA
ATOM      8  O   UNL     1      25.611  33.494  31.240  1.00  0.00    -0.550 OA
ENDBRANCH   5   6
ENDBRANCH   4   5
ENDBRANCH   3   4
ENDBRANCH   2   3
ENDBRANCH   1   2
BRANCH   1   9
ATOM      9  C   UNL     1      27.325  31.154  36.747  1.00  0.00     0.000 C 
BRANCH   9  10
ATOM     10  C   UNL     1      28.816  31.097  37.125  1.00  0.00    -0.000 C 
BRANCH  10  11
ATOM     11  C   UNL     1      29.495  29.794  36.678  1.00  0.00    -0.000 C 
BRANCH  11  12
ATOM     12  C   UNL     1      30.555  30.067  35.604  1.00  0.00    -0.000 C 
BRANCH  12  13
ATOM     13  C   UNL     1      29.989  29.831  34.200  1.00  0.00    -0.003 C 
ATOM     14  C   UNL     1      30.438  30.925  33.235  1.00  0.00     0.004 C 
ENDBRANCH  12  13
ENDBRANCH  11  12
ENDBRANCH  10  11
ENDBRANCH   9  10
ENDBRANCH   1   9
TORSDOF 10
ENDMDL
