MODEL 1
REMARK VINA RESULT:    -3.717      0.000      0.000
REMARK INTER + INTRA:          -5.759
REMARK INTER:                  -5.021
REMARK INTRA:                  -0.738
REMARK UNBOUND:                -0.738
REMARK SMILES CCCCCCC=CC(=O)[O-]
REMARK SMILES IDX 5 1 6 2 7 3 8 4 9 5 10 6 11 7 4 8 3 9 2 10 1 11
REMARK H PARENT
REMARK Flexibility Score: inf
ROOT
ATOM      1  C   UNL     1      49.465   4.755 111.353  1.00  0.00     0.004 C 
ENDROOT
BRANCH   1   2
ATOM      2  C   UNL     1      49.264   6.140 110.728  1.00  0.00     0.027 C 
BRANCH   2   3
ATOM      3  C   UNL     1      48.493   7.045 111.646  1.00  0.00    -0.025 C 
ATOM      4  C   UNL     1      47.667   6.556 112.577  1.00  0.00     0.020 C 
BRANCH   4   5
ATOM      5  C   UNL     1      46.913   7.423 113.496  1.00  0.00     0.064 C 
ATOM      6  O   UNL     1      45.760   7.839 113.201  1.00  0.00    -0.545 OA
ATOM      7  O   UNL     1      47.480   7.790 114.709  1.00  0.00    -0.545 OA
ENDBRANCH   4   5
ENDBRANCH   2   3
ENDBRANCH   1   2
BRANCH   1   8
ATOM      8  C   UNL     1      50.745   4.712 112.196  1.00  0.00     0.000 C 
BRANCH   8   9
ATOM      9  C   UNL     1      50.444   4.281 113.635  1.00  0.00    -0.000 C 
BRANCH   9  10
ATOM     10  C   UNL     1      50.657   5.441 114.614  1.00  0.00    -0.003 C 
ATOM     11  C   UNL     1      51.415   6.589 113.954  1.00  0.00     0.004 C 
ENDBRANCH   9  10
ENDBRANCH   8   9
ENDBRANCH   1   8
TORSDOF 6
ENDMDL
MODEL 2
REMARK VINA RESULT:    -3.698      1.624      2.512
REMARK INTER + INTRA:          -5.733
REMARK INTER:                  -5.334
REMARK INTRA:                  -0.399
REMARK UNBOUND:                -0.738
REMARK SMILES CCCCCCC=CC(=O)[O-]
REMARK SMILES IDX 5 1 6 2 7 3 8 4 9 5 10 6 11 7 4 8 3 9 2 10 1 11
REMARK H PARENT
REMARK Flexibility Score: inf
ROOT
ATOM      1  C   UNL     1      48.669   6.791 111.328  1.00  0.00     0.004 C 
ENDROOT
BRANCH   1   2
ATOM      2  C   UNL     1      47.849   7.694 112.257  1.00  0.00     0.027 C 
BRANCH   2   3
ATOM      3  C   UNL     1      46.852   6.898 113.049  1.00  0.00    -0.025 C 
ATOM      4  C   UNL     1      45.764   7.469 113.578  1.00  0.00     0.020 C 
BRANCH   4   5
ATOM      5  C   UNL     1      44.768   6.706 114.346  1.00  0.00     0.064 C 
ATOM      6  O   UNL     1      44.182   5.709 113.843  1.00  0.00    -0.545 OA
ATOM      7  O   UNL     1      44.467   7.089 115.646  1.00  0.00    -0.545 OA
ENDBRANCH   4   5
ENDBRANCH   2   3
ENDBRANCH   1   2
BRANCH   1   8
ATOM      8  C   UNL     1      48.586   5.325 111.772  1.00  0.00     0.000 C 
BRANCH   8   9
ATOM      9  C   UNL     1      49.775   4.519 111.238  1.00  0.00    -0.000 C 
BRANCH   9  10
ATOM     10  C   UNL     1      50.989   4.649 112.165  1.00  0.00    -0.003 C 
ATOM     11  C   UNL     1      50.616   4.340 113.611  1.00  0.00     0.004 C 
ENDBRANCH   9  10
ENDBRANCH   8   9
ENDBRANCH   1   8
TORSDOF 6
ENDMDL
MODEL 3
REMARK VINA RESULT:    -3.611      1.347      2.292
REMARK INTER + INTRA:          -5.616
REMARK INTER:                  -4.870
REMARK INTRA:                  -0.747
REMARK UNBOUND:                -0.738
REMARK SMILES CCCCCCC=CC(=O)[O-]
REMARK SMILES IDX 5 1 6 2 7 3 8 4 9 5 10 6 11 7 4 8 3 9 2 10 1 11
REMARK H PARENT
REMARK Flexibility Score: inf
ROOT
ATOM      1  C   UNL     1      49.292   6.431 110.591  1.00  0.00     0.004 C 
ENDROOT
BRANCH   1   2
ATOM      2  C   UNL     1      48.153   7.182 111.289  1.00  0.00     0.027 C 
BRANCH   2   3
ATOM      3  C   UNL     1      48.132   6.891 112.762  1.00  0.00    -0.025 C 
ATOM      4  C   UNL     1      48.677   7.731 113.648  1.00  0.00     0.020 C 
BRANCH   4   5
ATOM      5  C   UNL     1      48.656   7.473 115.097  1.00  0.00     0.064 C 
ATOM      6  O   UNL     1      49.718   7.233 115.731  1.00  0.00    -0.545 OA
ATOM      7  O   UNL     1      47.446   7.494 115.777  1.00  0.00    -0.545 OA
ENDBRANCH   4   5
ENDBRANCH   2   3
ENDBRANCH   1   2
BRANCH   1   8
ATOM      8  C   UNL     1      49.516   5.054 111.229  1.00  0.00     0.000 C 
BRANCH   8   9
ATOM      9  C   UNL     1      51.005   4.805 111.493  1.00  0.00    -0.000 C 
BRANCH   9  10
ATOM     10  C   UNL     1      51.350   5.040 112.968  1.00  0.00    -0.003 C 
ATOM     11  C   UNL     1      50.417   4.256 113.885  1.00  0.00     0.004 C 
ENDBRANCH   9  10
ENDBRANCH   8   9
ENDBRANCH   1   8
TORSDOF 6
ENDMDL
MODEL 4
REMARK VINA RESULT:    -3.591      2.337      3.689
REMARK INTER + INTRA:          -5.589
REMARK INTER:                  -5.285
REMARK INTRA:                  -0.304
REMARK UNBOUND:                -0.738
REMARK SMILES CCCCCCC=CC(=O)[O-]
REMARK SMILES IDX 5 1 6 2 7 3 8 4 9 5 10 6 11 7 4 8 3 9 2 10 1 11
REMARK H PARENT
REMARK Flexibility Score: inf
ROOT
ATOM      1  C   UNL     1      47.521   7.531 112.092  1.00  0.00     0.004 C 
ENDROOT
BRANCH   1   2
ATOM      2  C   UNL     1      46.694   7.106 113.312  1.00  0.00     0.027 C 
BRANCH   2   3
ATOM      3  C   UNL     1      45.532   8.031 113.530  1.00  0.00    -0.025 C 
ATOM      4  C   UNL     1      45.327   8.630 114.707  1.00  0.00     0.020 C 
BRANCH   4   5
ATOM      5  C   UNL     1      44.203   9.551 114.939  1.00  0.00     0.064 C 
ATOM      6  O   UNL     1      43.268   9.662 114.101  1.00  0.00    -0.545 OA
ATOM      7  O   UNL     1      44.170  10.311 116.101  1.00  0.00    -0.545 OA
ENDBRANCH   4   5
ENDBRANCH   2   3
ENDBRANCH   1   2
BRANCH   1   8
ATOM      8  C   UNL     1      48.927   6.921 112.141  1.00  0.00     0.000 C 
BRANCH   8   9
ATOM      9  C   UNL     1      49.155   5.965 110.965  1.00  0.00    -0.000 C 
BRANCH   9  10
ATOM     10  C   UNL     1      49.547   4.568 111.458  1.00  0.00    -0.003 C 
ATOM     11  C   UNL     1      48.350   3.838 112.060  1.00  0.00     0.004 C 
ENDBRANCH   9  10
ENDBRANCH   8   9
ENDBRANCH   1   8
TORSDOF 6
ENDMDL
MODEL 5
REMARK VINA RESULT:    -3.544      8.514     10.791
REMARK INTER + INTRA:          -5.525
REMARK INTER:                  -4.816
REMARK INTRA:                  -0.709
REMARK UNBOUND:                -0.738
REMARK SMILES CCCCCCC=CC(=O)[O-]
REMARK SMILES IDX 5 1 6 2 7 3 8 4 9 5 10 6 11 7 4 8 3 9 2 10 1 11
REMARK H PARENT
REMARK Flexibility Score: inf
ROOT
ATOM      1  C   UNL     1      42.688  12.249 121.220  1.00  0.00     0.004 C 
ENDROOT
BRANCH   1   2
ATOM      2  C   UNL     1      41.851  10.978 121.039  1.00  0.00     0.027 C 
BRANCH   2   3
ATOM      3  C   UNL     1      42.593   9.948 120.236  1.00  0.00    -0.025 C 
ATOM      4  C   UNL     1      43.272  10.279 119.133  1.00  0.00     0.020 C 
BRANCH   4   5
ATOM      5  C   UNL     1      44.018   9.290 118.339  1.00  0.00     0.064 C 
ATOM      6  O   UNL     1      43.432   8.551 117.503  1.00  0.00    -0.545 OA
ATOM      7  O   UNL     1      45.390   9.168 118.513  1.00  0.00    -0.545 OA
ENDBRANCH   4   5
ENDBRANCH   2   3
ENDBRANCH   1   2
BRANCH   1   8
ATOM      8  C   UNL     1      43.246  12.343 122.646  1.00  0.00     0.000 C 
BRANCH   8   9
ATOM      9  C   UNL     1      44.755  12.078 122.666  1.00  0.00    -0.000 C 
BRANCH   9  10
ATOM     10  C   UNL     1      45.439  12.695 121.441  1.00  0.00    -0.003 C 
ATOM     11  C   UNL     1      46.438  11.724 120.819  1.00  0.00     0.004 C 
ENDBRANCH   9  10
ENDBRANCH   8   9
ENDBRANCH   1   8
TORSDOF 6
ENDMDL
MODEL 6
REMARK VINA RESULT:    -3.537      7.475      9.656
REMARK INTER + INTRA:          -5.516
REMARK INTER:                  -5.135
REMARK INTRA:                  -0.381
REMARK UNBOUND:                -0.738
REMARK SMILES CCCCCCC=CC(=O)[O-]
REMARK SMILES IDX 5 1 6 2 7 3 8 4 9 5 10 6 11 7 4 8 3 9 2 10 1 11
REMARK H PARENT
REMARK Flexibility Score: inf
ROOT
ATOM      1  C   UNL     1      42.931   9.231 119.308  1.00  0.00     0.004 C 
ENDROOT
BRANCH   1   2
ATOM      2  C   UNL     1      44.112   8.922 118.380  1.00  0.00     0.027 C 
BRANCH   2   3
ATOM      3  C   UNL     1      43.738   9.125 116.939  1.00  0.00    -0.025 C 
ATOM      4  C   UNL     1      43.571  10.349 116.427  1.00  0.00     0.020 C 
BRANCH   4   5
ATOM      5  C   UNL     1      43.219  10.571 115.015  1.00  0.00     0.064 C 
ATOM      6  O   UNL     1      42.628  11.622 114.649  1.00  0.00    -0.545 OA
ATOM      7  O   UNL     1      43.544   9.607 114.070  1.00  0.00    -0.545 OA
ENDBRANCH   4   5
ENDBRANCH   2   3
ENDBRANCH   1   2
BRANCH   1   8
ATOM      8  C   UNL     1      43.302  10.314 120.328  1.00  0.00     0.000 C 
BRANCH   8   9
ATOM      9  C   UNL     1      42.049  10.923 120.967  1.00  0.00    -0.000 C 
BRANCH   9  10
ATOM     10  C   UNL     1      42.139  12.453 121.007  1.00  0.00    -0.003 C 
ATOM     11  C   UNL     1      42.663  13.010 119.688  1.00  0.00     0.004 C 
ENDBRANCH   9  10
ENDBRANCH   8   9
ENDBRANCH   1   8
TORSDOF 6
ENDMDL
MODEL 7
REMARK VINA RESULT:    -3.452      8.865     11.686
REMARK INTER + INTRA:          -5.401
REMARK INTER:                  -4.941
REMARK INTRA:                  -0.460
REMARK UNBOUND:                -0.738
REMARK SMILES CCCCCCC=CC(=O)[O-]
REMARK SMILES IDX 5 1 6 2 7 3 8 4 9 5 10 6 11 7 4 8 3 9 2 10 1 11
REMARK H PARENT
REMARK Flexibility Score: inf
ROOT
ATOM      1  C   UNL     1      41.925  15.044 113.023  1.00  0.00     0.004 C 
ENDROOT
BRANCH   1   2
ATOM      2  C   UNL     1      41.930  14.212 114.310  1.00  0.00     0.027 C 
BRANCH   2   3
ATOM      3  C   UNL     1      41.892  12.741 114.008  1.00  0.00    -0.025 C 
ATOM      4  C   UNL     1      41.910  12.286 112.751  1.00  0.00     0.020 C 
BRANCH   4   5
ATOM      5  C   UNL     1      41.888  10.849 112.432  1.00  0.00     0.064 C 
ATOM      6  O   UNL     1      40.817  10.187 112.486  1.00  0.00    -0.545 OA
ATOM      7  O   UNL     1      43.066  10.212 112.065  1.00  0.00    -0.545 OA
ENDBRANCH   4   5
ENDBRANCH   2   3
ENDBRANCH   1   2
BRANCH   1   8
ATOM      8  C   UNL     1      40.633  15.862 112.901  1.00  0.00     0.000 C 
BRANCH   8   9
ATOM      9  C   UNL     1      40.096  16.253 114.282  1.00  0.00    -0.000 C 
BRANCH   9  10
ATOM     10  C   UNL     1      40.550  17.665 114.670  1.00  0.00    -0.003 C 
ATOM     11  C   UNL     1      41.377  17.648 115.951  1.00  0.00     0.004 C 
ENDBRANCH   9  10
ENDBRANCH   8   9
ENDBRANCH   1   8
TORSDOF 6
ENDMDL
MODEL 8
REMARK VINA RESULT:    -3.451      6.144      8.750
REMARK INTER + INTRA:          -5.400
REMARK INTER:                  -5.198
REMARK INTRA:                  -0.201
REMARK UNBOUND:                -0.738
REMARK SMILES CCCCCCC=CC(=O)[O-]
REMARK SMILES IDX 5 1 6 2 7 3 8 4 9 5 10 6 11 7 4 8 3 9 2 10 1 11
REMARK H PARENT
REMARK Flexibility Score: inf
ROOT
ATOM      1  C   UNL     1      43.610   9.459 117.960  1.00  0.00     0.004 C 
ENDROOT
BRANCH   1   2
ATOM      2  C   UNL     1      43.715  10.157 116.599  1.00  0.00     0.027 C 
BRANCH   2   3
ATOM      3  C   UNL     1      44.497   9.328 115.622  1.00  0.00    -0.025 C 
ATOM      4  C   UNL     1      44.002   8.194 115.114  1.00  0.00     0.020 C 
BRANCH   4   5
ATOM      5  C   UNL     1      44.745   7.374 114.144  1.00  0.00     0.064 C 
ATOM      6  O   UNL     1      44.544   6.133 114.051  1.00  0.00    -0.545 OA
ATOM      7  O   UNL     1      45.685   7.976 113.318  1.00  0.00    -0.545 OA
ENDBRANCH   4   5
ENDBRANCH   2   3
ENDBRANCH   1   2
BRANCH   1   8
ATOM      8  C   UNL     1      43.274  10.464 119.069  1.00  0.00     0.000 C 
BRANCH   8   9
ATOM      9  C   UNL     1      42.291   9.861 120.079  1.00  0.00    -0.000 C 
BRANCH   9  10
ATOM     10  C   UNL     1      41.852  10.906 121.112  1.00  0.00    -0.003 C 
ATOM     11  C   UNL     1      42.342  12.299 120.731  1.00  0.00     0.004 C 
ENDBRANCH   9  10
ENDBRANCH   8   9
ENDBRANCH   1   8
TORSDOF 6
ENDMDL
MODEL 9
REMARK VINA RESULT:    -3.444      6.747      8.998
REMARK INTER + INTRA:          -5.391
REMARK INTER:                  -5.073
REMARK INTRA:                  -0.317
REMARK UNBOUND:                -0.738
REMARK SMILES CCCCCCC=CC(=O)[O-]
REMARK SMILES IDX 5 1 6 2 7 3 8 4 9 5 10 6 11 7 4 8 3 9 2 10 1 11
REMARK H PARENT
REMARK Flexibility Score: inf
ROOT
ATOM      1  C   UNL     1      43.820   9.760 117.059  1.00  0.00     0.004 C 
ENDROOT
BRANCH   1   2
ATOM      2  C   UNL     1      43.424   8.804 118.190  1.00  0.00     0.027 C 
BRANCH   2   3
ATOM      3  C   UNL     1      42.989   9.558 119.413  1.00  0.00    -0.025 C 
ATOM      4  C   UNL     1      42.935  10.895 119.427  1.00  0.00     0.020 C 
BRANCH   4   5
ATOM      5  C   UNL     1      42.498  11.654 120.610  1.00  0.00     0.064 C 
ATOM      6  O   UNL     1      42.482  11.125 121.754  1.00  0.00    -0.545 OA
ATOM      7  O   UNL     1      42.097  12.975 120.463  1.00  0.00    -0.545 OA
ENDBRANCH   4   5
ENDBRANCH   2   3
ENDBRANCH   1   2
BRANCH   1   8
ATOM      8  C   UNL     1      43.626   9.101 115.688  1.00  0.00     0.000 C 
BRANCH   8   9
ATOM      9  C   UNL     1      43.351   7.601 115.830  1.00  0.00    -0.000 C 
BRANCH   9  10
ATOM     10  C   UNL     1      43.377   6.903 114.466  1.00  0.00    -0.003 C 
ATOM     11  C   UNL     1      44.786   6.441 114.108  1.00  0.00     0.004 C 
ENDBRANCH   9  10
ENDBRANCH   8   9
ENDBRANCH   1   8
TORSDOF 6
ENDMDL
