MODEL 1
REMARK VINA RESULT:    -5.612      0.000      0.000
REMARK INTER + INTRA:         -10.792
REMARK INTER:                  -8.564
REMARK INTRA:                  -2.229
REMARK UNBOUND:                -2.229
REMARK SMILES CC(=O)CCC=C(C)CCC=C(C)CCC=C(C)C
REMARK SMILES IDX 10 1 11 2 12 3 13 4 14 5 15 6 16 7 18 8 17 9 19 10 9 11 7 12
REMARK SMILES IDX 6 13 8 14 5 15 4 16 2 17 3 18 1 19
REMARK H PARENT
REMARK Flexibility Score: inf
ROOT
ATOM      1  C   UNL     1      18.609 -30.871  21.406  1.00  0.00     0.032 C 
ENDROOT
BRANCH   1   2
ATOM      2  C   UNL     1      18.181 -31.986  20.482  1.00  0.00    -0.028 C 
ATOM      3  C   UNL     1      18.364 -33.303  20.728  1.00  0.00    -0.077 C 
ATOM      4  C   UNL     1      18.972 -33.798  22.019  1.00  0.00     0.039 C 
BRANCH   3   5
ATOM      5  C   UNL     1      17.928 -34.313  19.686  1.00  0.00     0.034 C 
BRANCH   5   6
ATOM      6  C   UNL     1      16.589 -34.971  20.049  1.00  0.00     0.032 C 
BRANCH   6   7
ATOM      7  C   UNL     1      15.425 -34.031  19.833  1.00  0.00    -0.028 C 
ATOM      8  C   UNL     1      15.052 -33.659  22.282  1.00  0.00     0.039 C 
ATOM      9  C   UNL     1      14.753 -33.405  20.825  1.00  0.00    -0.080 C 
ATOM     10  C   UNL     1      13.627 -32.463  20.486  1.00  0.00     0.039 C 
ENDBRANCH   6   7
ENDBRANCH   5   6
ENDBRANCH   3   5
ENDBRANCH   1   2
BRANCH   1  11
ATOM     11  C   UNL     1      17.544 -29.772  21.516  1.00  0.00     0.034 C 
BRANCH  11  12
ATOM     12  C   UNL     1      16.552 -30.061  22.623  1.00  0.00    -0.077 C 
ATOM     13  C   UNL     1      15.262 -29.687  22.470  1.00  0.00    -0.028 C 
ATOM     14  C   UNL     1      17.025 -30.826  23.837  1.00  0.00     0.039 C 
BRANCH  13  15
ATOM     15  C   UNL     1      14.180 -29.911  23.498  1.00  0.00     0.035 C 
BRANCH  15  16
ATOM     16  C   UNL     1      12.789 -29.819  22.854  1.00  0.00     0.079 C 
BRANCH  16  17
ATOM     17  C   UNL     1      11.936 -28.721  23.443  1.00  0.00     0.130 C 
ATOM     18  O   UNL     1      10.875 -28.401  22.926  1.00  0.00    -0.300 OA
ATOM     19  C   UNL     1      12.391 -28.000  24.675  1.00  0.00     0.087 C 
ENDBRANCH  16  17
ENDBRANCH  15  16
ENDBRANCH  13  15
ENDBRANCH  11  12
ENDBRANCH   1  11
TORSDOF 9
ENDMDL
MODEL 2
REMARK VINA RESULT:    -5.530      1.639      5.345
REMARK INTER + INTRA:         -10.667
REMARK INTER:                  -8.791
REMARK INTRA:                  -1.877
REMARK UNBOUND:                -2.229
REMARK SMILES CC(=O)CCC=C(C)CCC=C(C)CCC=C(C)C
REMARK SMILES IDX 10 1 11 2 12 3 13 4 14 5 15 6 16 7 18 8 17 9 19 10 9 11 7 12
REMARK SMILES IDX 6 13 8 14 5 15 4 16 2 17 3 18 1 19
REMARK H PARENT
REMARK Flexibility Score: inf
ROOT
ATOM      1  C   UNL     1      15.373 -34.738  20.129  1.00  0.00     0.032 C 
ENDROOT
BRANCH   1   2
ATOM      2  C   UNL     1      14.605 -33.459  20.360  1.00  0.00    -0.028 C 
ATOM      3  C   UNL     1      14.416 -32.883  21.570  1.00  0.00    -0.077 C 
ATOM      4  C   UNL     1      15.032 -33.448  22.828  1.00  0.00     0.039 C 
BRANCH   3   5
ATOM      5  C   UNL     1      13.579 -31.623  21.661  1.00  0.00     0.034 C 
BRANCH   5   6
ATOM      6  C   UNL     1      13.068 -31.376  23.087  1.00  0.00     0.032 C 
BRANCH   6   7
ATOM      7  C   UNL     1      13.506 -30.029  23.615  1.00  0.00    -0.028 C 
ATOM      8  C   UNL     1      11.351 -28.902  23.013  1.00  0.00     0.039 C 
ATOM      9  C   UNL     1      12.730 -28.922  23.624  1.00  0.00    -0.080 C 
ATOM     10  C   UNL     1      13.265 -27.639  24.206  1.00  0.00     0.039 C 
ENDBRANCH   6   7
ENDBRANCH   5   6
ENDBRANCH   3   5
ENDBRANCH   1   2
BRANCH   1  11
ATOM     11  C   UNL     1      16.695 -34.490  19.389  1.00  0.00     0.034 C 
BRANCH  11  12
ATOM     12  C   UNL     1      17.748 -33.903  20.306  1.00  0.00    -0.077 C 
ATOM     13  C   UNL     1      17.992 -32.573  20.268  1.00  0.00    -0.028 C 
ATOM     14  C   UNL     1      18.443 -34.816  21.288  1.00  0.00     0.039 C 
BRANCH  13  15
ATOM     15  C   UNL     1      19.016 -31.869  21.123  1.00  0.00     0.035 C 
BRANCH  15  16
ATOM     16  C   UNL     1      18.640 -30.393  21.318  1.00  0.00     0.079 C 
BRANCH  16  17
ATOM     17  C   UNL     1      17.355 -30.208  22.091  1.00  0.00     0.130 C 
ATOM     18  O   UNL     1      16.380 -29.681  21.576  1.00  0.00    -0.300 OA
ATOM     19  C   UNL     1      17.267 -30.667  23.515  1.00  0.00     0.087 C 
ENDBRANCH  16  17
ENDBRANCH  15  16
ENDBRANCH  13  15
ENDBRANCH  11  12
ENDBRANCH   1  11
TORSDOF 9
ENDMDL
MODEL 3
REMARK VINA RESULT:    -5.471      1.328      3.343
REMARK INTER + INTRA:         -10.578
REMARK INTER:                  -8.419
REMARK INTRA:                  -2.159
REMARK UNBOUND:                -2.229
REMARK SMILES CC(=O)CCC=C(C)CCC=C(C)CCC=C(C)C
REMARK SMILES IDX 10 1 11 2 12 3 13 4 14 5 15 6 16 7 18 8 17 9 19 10 9 11 7 12
REMARK SMILES IDX 6 13 8 14 5 15 4 16 2 17 3 18 1 19
REMARK H PARENT
REMARK Flexibility Score: inf
ROOT
ATOM      1  C   UNL     1      14.962 -33.732  23.298  1.00  0.00     0.032 C 
ENDROOT
BRANCH   1   2
ATOM      2  C   UNL     1      15.633 -34.372  22.107  1.00  0.00    -0.028 C 
ATOM      3  C   UNL     1      15.308 -34.128  20.817  1.00  0.00    -0.077 C 
ATOM      4  C   UNL     1      14.255 -33.113  20.437  1.00  0.00     0.039 C 
BRANCH   3   5
ATOM      5  C   UNL     1      16.034 -34.880  19.721  1.00  0.00     0.034 C 
BRANCH   5   6
ATOM      6  C   UNL     1      17.232 -34.089  19.178  1.00  0.00     0.032 C 
BRANCH   6   7
ATOM      7  C   UNL     1      18.336 -33.968  20.203  1.00  0.00    -0.028 C 
ATOM      8  C   UNL     1      17.953 -31.522  20.578  1.00  0.00     0.039 C 
ATOM      9  C   UNL     1      18.642 -32.832  20.867  1.00  0.00    -0.080 C 
ATOM     10  C   UNL     1      19.746 -32.840  21.893  1.00  0.00     0.039 C 
ENDBRANCH   6   7
ENDBRANCH   5   6
ENDBRANCH   3   5
ENDBRANCH   1   2
BRANCH   1  11
ATOM     11  C   UNL     1      15.978 -33.138  24.283  1.00  0.00     0.034 C 
BRANCH  11  12
ATOM     12  C   UNL     1      16.354 -31.718  23.913  1.00  0.00    -0.077 C 
ATOM     13  C   UNL     1      15.451 -30.940  23.274  1.00  0.00    -0.028 C 
ATOM     14  C   UNL     1      17.706 -31.193  24.335  1.00  0.00     0.039 C 
BRANCH  13  15
ATOM     15  C   UNL     1      15.703 -29.516  22.846  1.00  0.00     0.035 C 
BRANCH  15  16
ATOM     16  C   UNL     1      14.403 -28.854  22.366  1.00  0.00     0.079 C 
BRANCH  16  17
ATOM     17  C   UNL     1      13.569 -28.299  23.497  1.00  0.00     0.130 C 
ATOM     18  O   UNL     1      13.902 -27.280  24.085  1.00  0.00    -0.300 OA
ATOM     19  C   UNL     1      12.317 -29.006  23.918  1.00  0.00     0.087 C 
ENDBRANCH  16  17
ENDBRANCH  15  16
ENDBRANCH  13  15
ENDBRANCH  11  12
ENDBRANCH   1  11
TORSDOF 9
ENDMDL
MODEL 4
REMARK VINA RESULT:    -5.422      2.624      5.667
REMARK INTER + INTRA:         -10.504
REMARK INTER:                  -8.652
REMARK INTRA:                  -1.851
REMARK UNBOUND:                -2.229
REMARK SMILES CC(=O)CCC=C(C)CCC=C(C)CCC=C(C)C
REMARK SMILES IDX 10 1 11 2 12 3 13 4 14 5 15 6 16 7 18 8 17 9 19 10 9 11 7 12
REMARK SMILES IDX 6 13 8 14 5 15 4 16 2 17 3 18 1 19
REMARK H PARENT
REMARK Flexibility Score: inf
ROOT
ATOM      1  C   UNL     1      17.626 -30.964  23.651  1.00  0.00     0.032 C 
ENDROOT
BRANCH   1   2
ATOM      2  C   UNL     1      16.133 -31.038  23.437  1.00  0.00    -0.028 C 
ATOM      3  C   UNL     1      15.379 -32.142  23.642  1.00  0.00    -0.077 C 
ATOM      4  C   UNL     1      15.969 -33.422  24.186  1.00  0.00     0.039 C 
BRANCH   3   5
ATOM      5  C   UNL     1      13.896 -32.086  23.338  1.00  0.00     0.034 C 
BRANCH   5   6
ATOM      6  C   UNL     1      13.597 -31.241  22.093  1.00  0.00     0.032 C 
BRANCH   6   7
ATOM      7  C   UNL     1      12.306 -30.468  22.236  1.00  0.00    -0.028 C 
ATOM      8  C   UNL     1      13.413 -28.483  23.290  1.00  0.00     0.039 C 
ATOM      9  C   UNL     1      12.216 -29.214  22.734  1.00  0.00    -0.080 C 
ATOM     10  C   UNL     1      10.875 -28.530  22.799  1.00  0.00     0.039 C 
ENDBRANCH   6   7
ENDBRANCH   5   6
ENDBRANCH   3   5
ENDBRANCH   1   2
BRANCH   1  11
ATOM     11  C   UNL     1      18.395 -30.870  22.326  1.00  0.00     0.034 C 
BRANCH  11  12
ATOM     12  C   UNL     1      18.643 -32.237  21.724  1.00  0.00    -0.077 C 
ATOM     13  C   UNL     1      18.158 -32.517  20.493  1.00  0.00    -0.028 C 
ATOM     14  C   UNL     1      19.491 -33.223  22.492  1.00  0.00     0.039 C 
BRANCH  13  15
ATOM     15  C   UNL     1      18.331 -33.840  19.788  1.00  0.00     0.035 C 
BRANCH  15  16
ATOM     16  C   UNL     1      17.069 -34.200  18.990  1.00  0.00     0.079 C 
BRANCH  16  17
ATOM     17  C   UNL     1      16.101 -35.058  19.770  1.00  0.00     0.130 C 
ATOM     18  O   UNL     1      16.182 -36.277  19.749  1.00  0.00    -0.300 OA
ATOM     19  C   UNL     1      15.017 -34.415  20.580  1.00  0.00     0.087 C 
ENDBRANCH  16  17
ENDBRANCH  15  16
ENDBRANCH  13  15
ENDBRANCH  11  12
ENDBRANCH   1  11
TORSDOF 9
ENDMDL
MODEL 5
REMARK VINA RESULT:    -5.417      2.052      3.620
REMARK INTER + INTRA:         -10.496
REMARK INTER:                  -9.186
REMARK INTRA:                  -1.310
REMARK UNBOUND:                -2.229
REMARK SMILES CC(=O)CCC=C(C)CCC=C(C)CCC=C(C)C
REMARK SMILES IDX 10 1 11 2 12 3 13 4 14 5 15 6 16 7 18 8 17 9 19 10 9 11 7 12
REMARK SMILES IDX 6 13 8 14 5 15 4 16 2 17 3 18 1 19
REMARK H PARENT
REMARK Flexibility Score: inf
ROOT
ATOM      1  C   UNL     1      14.669 -33.657  20.336  1.00  0.00     0.032 C 
ENDROOT
BRANCH   1   2
ATOM      2  C   UNL     1      15.367 -34.988  20.191  1.00  0.00    -0.028 C 
ATOM      3  C   UNL     1      16.504 -35.188  19.485  1.00  0.00    -0.077 C 
ATOM      4  C   UNL     1      17.237 -34.051  18.812  1.00  0.00     0.039 C 
BRANCH   3   5
ATOM      5  C   UNL     1      17.068 -36.590  19.384  1.00  0.00     0.034 C 
BRANCH   5   6
ATOM      6  C   UNL     1      17.566 -37.108  20.741  1.00  0.00     0.032 C 
BRANCH   6   7
ATOM      7  C   UNL     1      18.736 -36.300  21.255  1.00  0.00    -0.028 C 
ATOM      8  C   UNL     1      17.438 -35.314  23.158  1.00  0.00     0.039 C 
ATOM      9  C   UNL     1      18.702 -35.523  22.361  1.00  0.00    -0.080 C 
ATOM     10  C   UNL     1      19.943 -34.787  22.796  1.00  0.00     0.039 C 
ENDBRANCH   6   7
ENDBRANCH   5   6
ENDBRANCH   3   5
ENDBRANCH   1   2
BRANCH   1  11
ATOM     11  C   UNL     1      14.663 -33.164  21.790  1.00  0.00     0.034 C 
BRANCH  11  12
ATOM     12  C   UNL     1      14.083 -31.770  21.906  1.00  0.00    -0.077 C 
ATOM     13  C   UNL     1      14.555 -30.934  22.859  1.00  0.00    -0.028 C 
ATOM     14  C   UNL     1      13.042 -31.333  20.903  1.00  0.00     0.039 C 
BRANCH  13  15
ATOM     15  C   UNL     1      14.058 -29.527  23.082  1.00  0.00     0.035 C 
BRANCH  15  16
ATOM     16  C   UNL     1      12.950 -29.503  24.145  1.00  0.00     0.079 C 
BRANCH  16  17
ATOM     17  C   UNL     1      12.415 -28.116  24.410  1.00  0.00     0.130 C 
ATOM     18  O   UNL     1      12.806 -27.462  25.366  1.00  0.00    -0.300 OA
ATOM     19  C   UNL     1      11.383 -27.525  23.498  1.00  0.00     0.087 C 
ENDBRANCH  16  17
ENDBRANCH  15  16
ENDBRANCH  13  15
ENDBRANCH  11  12
ENDBRANCH   1  11
TORSDOF 9
ENDMDL
MODEL 6
REMARK VINA RESULT:    -5.408      2.777      5.307
REMARK INTER + INTRA:         -10.482
REMARK INTER:                  -7.641
REMARK INTRA:                  -2.841
REMARK UNBOUND:                -2.229
REMARK SMILES CC(=O)CCC=C(C)CCC=C(C)CCC=C(C)C
REMARK SMILES IDX 10 1 11 2 12 3 13 4 14 5 15 6 16 7 18 8 17 9 19 10 9 11 7 12
REMARK SMILES IDX 6 13 8 14 5 15 4 16 2 17 3 18 1 19
REMARK H PARENT
REMARK Flexibility Score: inf
ROOT
ATOM      1  C   UNL     1      15.630 -34.788  20.969  1.00  0.00     0.032 C 
ENDROOT
BRANCH   1   2
ATOM      2  C   UNL     1      14.974 -33.987  22.069  1.00  0.00    -0.028 C 
ATOM      3  C   UNL     1      15.415 -33.928  23.346  1.00  0.00    -0.077 C 
ATOM      4  C   UNL     1      16.679 -34.627  23.788  1.00  0.00     0.039 C 
BRANCH   3   5
ATOM      5  C   UNL     1      14.628 -33.122  24.359  1.00  0.00     0.034 C 
BRANCH   5   6
ATOM      6  C   UNL     1      13.809 -32.007  23.694  1.00  0.00     0.032 C 
BRANCH   6   7
ATOM      7  C   UNL     1      14.672 -30.822  23.324  1.00  0.00    -0.028 C 
ATOM      8  C   UNL     1      13.907 -30.794  20.939  1.00  0.00     0.039 C 
ATOM      9  C   UNL     1      14.694 -30.244  22.103  1.00  0.00    -0.080 C 
ATOM     10  C   UNL     1      15.573 -29.044  21.860  1.00  0.00     0.039 C 
ENDBRANCH   6   7
ENDBRANCH   5   6
ENDBRANCH   3   5
ENDBRANCH   1   2
BRANCH   1  11
ATOM     11  C   UNL     1      16.281 -33.887  19.910  1.00  0.00     0.034 C 
BRANCH  11  12
ATOM     12  C   UNL     1      17.626 -33.365  20.370  1.00  0.00    -0.077 C 
ATOM     13  C   UNL     1      17.797 -32.034  20.539  1.00  0.00    -0.028 C 
ATOM     14  C   UNL     1      18.716 -34.359  20.696  1.00  0.00     0.039 C 
BRANCH  13  15
ATOM     15  C   UNL     1      19.085 -31.389  20.985  1.00  0.00     0.035 C 
BRANCH  15  16
ATOM     16  C   UNL     1      18.884 -30.626  22.303  1.00  0.00     0.079 C 
BRANCH  16  17
ATOM     17  C   UNL     1      18.893 -31.528  23.515  1.00  0.00     0.130 C 
ATOM     18  O   UNL     1      19.622 -32.507  23.566  1.00  0.00    -0.300 OA
ATOM     19  C   UNL     1      17.992 -31.231  24.675  1.00  0.00     0.087 C 
ENDBRANCH  16  17
ENDBRANCH  15  16
ENDBRANCH  13  15
ENDBRANCH  11  12
ENDBRANCH   1  11
TORSDOF 9
ENDMDL
MODEL 7
REMARK VINA RESULT:    -5.395      3.950      6.355
REMARK INTER + INTRA:         -10.462
REMARK INTER:                  -9.052
REMARK INTRA:                  -1.410
REMARK UNBOUND:                -2.229
REMARK SMILES CC(=O)CCC=C(C)CCC=C(C)CCC=C(C)C
REMARK SMILES IDX 10 1 11 2 12 3 13 4 14 5 15 6 16 7 18 8 17 9 19 10 9 11 7 12
REMARK SMILES IDX 6 13 8 14 5 15 4 16 2 17 3 18 1 19
REMARK H PARENT
REMARK Flexibility Score: inf
ROOT
ATOM      1  C   UNL     1      17.993 -31.072  20.788  1.00  0.00     0.032 C 
ENDROOT
BRANCH   1   2
ATOM      2  C   UNL     1      17.244 -31.879  21.821  1.00  0.00    -0.028 C 
ATOM      3  C   UNL     1      16.590 -31.353  22.882  1.00  0.00    -0.077 C 
ATOM      4  C   UNL     1      16.490 -29.862  23.100  1.00  0.00     0.039 C 
BRANCH   3   5
ATOM      5  C   UNL     1      15.922 -32.288  23.869  1.00  0.00     0.034 C 
BRANCH   5   6
ATOM      6  C   UNL     1      14.550 -32.763  23.371  1.00  0.00     0.032 C 
BRANCH   6   7
ATOM      7  C   UNL     1      13.537 -31.641  23.360  1.00  0.00    -0.028 C 
ATOM      8  C   UNL     1      13.402 -31.560  20.860  1.00  0.00     0.039 C 
ATOM      9  C   UNL     1      12.984 -31.121  22.242  1.00  0.00    -0.080 C 
ATOM     10  C   UNL     1      11.958 -30.023  22.356  1.00  0.00     0.039 C 
ENDBRANCH   6   7
ENDBRANCH   5   6
ENDBRANCH   3   5
ENDBRANCH   1   2
BRANCH   1  11
ATOM     11  C   UNL     1      19.477 -30.910  21.147  1.00  0.00     0.034 C 
BRANCH  11  12
ATOM     12  C   UNL     1      19.883 -29.452  21.209  1.00  0.00    -0.077 C 
ATOM     13  C   UNL     1      21.131 -29.129  21.616  1.00  0.00    -0.028 C 
ATOM     14  C   UNL     1      18.898 -28.406  20.743  1.00  0.00     0.039 C 
BRANCH  13  15
ATOM     15  C   UNL     1      21.655 -27.719  21.727  1.00  0.00     0.035 C 
BRANCH  15  16
ATOM     16  C   UNL     1      22.393 -27.310  20.444  1.00  0.00     0.079 C 
BRANCH  16  17
ATOM     17  C   UNL     1      22.038 -25.918  19.977  1.00  0.00     0.130 C 
ATOM     18  O   UNL     1      20.871 -25.570  19.860  1.00  0.00    -0.300 OA
ATOM     19  C   UNL     1      23.124 -24.942  19.641  1.00  0.00     0.087 C 
ENDBRANCH  16  17
ENDBRANCH  15  16
ENDBRANCH  13  15
ENDBRANCH  11  12
ENDBRANCH   1  11
TORSDOF 9
ENDMDL
MODEL 8
REMARK VINA RESULT:    -5.316      2.298      4.904
REMARK INTER + INTRA:         -10.342
REMARK INTER:                  -7.993
REMARK INTRA:                  -2.348
REMARK UNBOUND:                -2.229
REMARK SMILES CC(=O)CCC=C(C)CCC=C(C)CCC=C(C)C
REMARK SMILES IDX 10 1 11 2 12 3 13 4 14 5 15 6 16 7 18 8 17 9 19 10 9 11 7 12
REMARK SMILES IDX 6 13 8 14 5 15 4 16 2 17 3 18 1 19
REMARK H PARENT
REMARK Flexibility Score: inf
ROOT
ATOM      1  C   UNL     1      17.773 -37.007  20.969  1.00  0.00     0.032 C 
ENDROOT
BRANCH   1   2
ATOM      2  C   UNL     1      18.784 -36.074  21.590  1.00  0.00    -0.028 C 
ATOM      3  C   UNL     1      18.573 -35.343  22.709  1.00  0.00    -0.077 C 
ATOM      4  C   UNL     1      17.290 -35.448  23.500  1.00  0.00     0.039 C 
BRANCH   3   5
ATOM      5  C   UNL     1      19.662 -34.408  23.193  1.00  0.00     0.034 C 
BRANCH   5   6
ATOM      6  C   UNL     1      19.948 -33.289  22.183  1.00  0.00     0.032 C 
BRANCH   6   7
ATOM      7  C   UNL     1      18.713 -32.469  21.888  1.00  0.00    -0.028 C 
ATOM      8  C   UNL     1      20.014 -30.469  21.126  1.00  0.00     0.039 C 
ATOM      9  C   UNL     1      18.729 -31.218  21.376  1.00  0.00    -0.080 C 
ATOM     10  C   UNL     1      17.430 -30.510  21.093  1.00  0.00     0.039 C 
ENDBRANCH   6   7
ENDBRANCH   5   6
ENDBRANCH   3   5
ENDBRANCH   1   2
BRANCH   1  11
ATOM     11  C   UNL     1      17.358 -36.553  19.562  1.00  0.00     0.034 C 
BRANCH  11  12
ATOM     12  C   UNL     1      16.680 -35.199  19.588  1.00  0.00    -0.077 C 
ATOM     13  C   UNL     1      15.537 -35.044  20.295  1.00  0.00    -0.028 C 
ATOM     14  C   UNL     1      17.345 -34.043  18.878  1.00  0.00     0.039 C 
BRANCH  13  15
ATOM     15  C   UNL     1      14.764 -33.752  20.395  1.00  0.00     0.035 C 
BRANCH  15  16
ATOM     16  C   UNL     1      14.880 -33.157  21.806  1.00  0.00     0.079 C 
BRANCH  16  17
ATOM     17  C   UNL     1      14.018 -31.932  22.003  1.00  0.00     0.130 C 
ATOM     18  O   UNL     1      13.947 -31.379  23.091  1.00  0.00    -0.300 OA
ATOM     19  C   UNL     1      13.228 -31.381  20.855  1.00  0.00     0.087 C 
ENDBRANCH  16  17
ENDBRANCH  15  16
ENDBRANCH  13  15
ENDBRANCH  11  12
ENDBRANCH   1  11
TORSDOF 9
ENDMDL
MODEL 9
REMARK VINA RESULT:    -5.238      1.926      5.332
REMARK INTER + INTRA:         -10.222
REMARK INTER:                  -8.383
REMARK INTRA:                  -1.839
REMARK UNBOUND:                -2.229
REMARK SMILES CC(=O)CCC=C(C)CCC=C(C)CCC=C(C)C
REMARK SMILES IDX 10 1 11 2 12 3 13 4 14 5 15 6 16 7 18 8 17 9 19 10 9 11 7 12
REMARK SMILES IDX 6 13 8 14 5 15 4 16 2 17 3 18 1 19
REMARK H PARENT
REMARK Flexibility Score: inf
ROOT
ATOM      1  C   UNL     1      18.972 -31.180  21.835  1.00  0.00     0.032 C 
ENDROOT
BRANCH   1   2
ATOM      2  C   UNL     1      17.530 -30.848  22.138  1.00  0.00    -0.028 C 
ATOM      3  C   UNL     1      16.897 -31.153  23.295  1.00  0.00    -0.077 C 
ATOM      4  C   UNL     1      17.615 -31.814  24.448  1.00  0.00     0.039 C 
BRANCH   3   5
ATOM      5  C   UNL     1      15.431 -30.803  23.444  1.00  0.00     0.034 C 
BRANCH   5   6
ATOM      6  C   UNL     1      15.026 -29.631  22.540  1.00  0.00     0.032 C 
BRANCH   6   7
ATOM      7  C   UNL     1      13.983 -28.752  23.193  1.00  0.00    -0.028 C 
ATOM      8  C   UNL     1      12.057 -30.084  22.305  1.00  0.00     0.039 C 
ATOM      9  C   UNL     1      12.651 -28.969  23.129  1.00  0.00    -0.080 C 
ATOM     10  C   UNL     1      11.707 -28.041  23.849  1.00  0.00     0.039 C 
ENDBRANCH   6   7
ENDBRANCH   5   6
ENDBRANCH   3   5
ENDBRANCH   1   2
BRANCH   1  11
ATOM     11  C   UNL     1      19.113 -32.028  20.563  1.00  0.00     0.034 C 
BRANCH  11  12
ATOM     12  C   UNL     1      18.535 -33.415  20.748  1.00  0.00    -0.077 C 
ATOM     13  C   UNL     1      17.659 -33.895  19.837  1.00  0.00    -0.028 C 
ATOM     14  C   UNL     1      19.015 -34.250  21.913  1.00  0.00     0.039 C 
BRANCH  13  15
ATOM     15  C   UNL     1      17.009 -35.254  19.910  1.00  0.00     0.035 C 
BRANCH  15  16
ATOM     16  C   UNL     1      15.485 -35.123  20.050  1.00  0.00     0.079 C 
BRANCH  16  17
ATOM     17  C   UNL     1      15.073 -34.163  21.141  1.00  0.00     0.130 C 
ATOM     18  O   UNL     1      15.371 -34.370  22.309  1.00  0.00    -0.300 OA
ATOM     19  C   UNL     1      14.279 -32.939  20.800  1.00  0.00     0.087 C 
ENDBRANCH  16  17
ENDBRANCH  15  16
ENDBRANCH  13  15
ENDBRANCH  11  12
ENDBRANCH   1  11
TORSDOF 9
ENDMDL
