MODEL 1
REMARK VINA RESULT:    -4.618      0.000      0.000
REMARK INTER + INTRA:         -10.106
REMARK INTER:                  -8.398
REMARK INTRA:                  -1.707
REMARK UNBOUND:                -1.707
REMARK SMILES CCCCCC=CCC=CCCCCCCCC(=O)[O-]
REMARK SMILES IDX 11 1 12 2 13 3 14 4 15 5 16 6 17 7 18 8 19 9 20 10 10 11
REMARK SMILES IDX 9 12 8 13 7 14 6 15 5 16 4 17 3 18 2 19 1 20
REMARK H PARENT
REMARK Flexibility Score: inf
ROOT
ATOM      1  C   UNL     1      46.381  43.049  38.409  1.00  0.00     0.027 C 
ENDROOT
BRANCH   1   2
ATOM      2  C   UNL     1      46.606  43.215  39.918  1.00  0.00     0.004 C 
BRANCH   2   3
ATOM      3  C   UNL     1      46.762  41.862  40.633  1.00  0.00     0.000 C 
BRANCH   3   4
ATOM      4  C   UNL     1      48.204  41.332  40.585  1.00  0.00     0.000 C 
BRANCH   4   5
ATOM      5  C   UNL     1      48.367  40.146  39.618  1.00  0.00     0.000 C 
BRANCH   5   6
ATOM      6  C   UNL     1      47.144  39.212  39.599  1.00  0.00     0.006 C 
BRANCH   6   7
ATOM      7  C   UNL     1      47.293  37.971  40.496  1.00  0.00     0.053 C 
BRANCH   7   8
ATOM      8  C   UNL     1      46.638  38.141  41.833  1.00  0.00     0.041 C 
ATOM      9  O   UNL     1      47.280  38.631  42.799  1.00  0.00    -0.550 OA
ATOM     10  O   UNL     1      45.306  37.784  42.005  1.00  0.00    -0.550 OA
ENDBRANCH   7   8
ENDBRANCH   6   7
ENDBRANCH   5   6
ENDBRANCH   4   5
ENDBRANCH   3   4
ENDBRANCH   2   3
ENDBRANCH   1   2
BRANCH   1  11
ATOM     11  C   UNL     1      47.669  43.153  37.630  1.00  0.00    -0.031 C 
ATOM     12  C   UNL     1      47.869  42.616  36.411  1.00  0.00    -0.027 C 
BRANCH  12  13
ATOM     13  C   UNL     1      46.814  41.889  35.618  1.00  0.00     0.054 C 
BRANCH  13  14
ATOM     14  C   UNL     1      46.319  42.732  34.475  1.00  0.00    -0.027 C 
ATOM     15  C   UNL     1      45.351  43.640  34.665  1.00  0.00    -0.031 C 
BRANCH  15  16
ATOM     16  C   UNL     1      44.849  44.506  33.540  1.00  0.00     0.027 C 
BRANCH  16  17
ATOM     17  C   UNL     1      44.921  43.798  32.178  1.00  0.00     0.004 C 
BRANCH  17  18
ATOM     18  C   UNL     1      45.791  44.570  31.171  1.00  0.00     0.000 C 
BRANCH  18  19
ATOM     19  C   UNL     1      47.242  44.065  31.138  1.00  0.00    -0.003 C 
ATOM     20  C   UNL     1      48.203  44.977  31.901  1.00  0.00     0.004 C 
ENDBRANCH  18  19
ENDBRANCH  17  18
ENDBRANCH  16  17
ENDBRANCH  15  16
ENDBRANCH  13  14
ENDBRANCH  12  13
ENDBRANCH   1  11
TORSDOF 14
ENDMDL
MODEL 2
REMARK VINA RESULT:    -4.603      4.419      8.820
REMARK INTER + INTRA:         -10.077
REMARK INTER:                  -8.305
REMARK INTRA:                  -1.773
REMARK UNBOUND:                -1.707
REMARK SMILES CCCCCC=CCC=CCCCCCCCC(=O)[O-]
REMARK SMILES IDX 11 1 12 2 13 3 14 4 15 5 16 6 17 7 18 8 19 9 20 10 10 11
REMARK SMILES IDX 9 12 8 13 7 14 6 15 5 16 4 17 3 18 2 19 1 20
REMARK H PARENT
REMARK Flexibility Score: inf
ROOT
ATOM      1  C   UNL     1      46.518  40.435  35.527  1.00  0.00     0.027 C 
ENDROOT
BRANCH   1   2
ATOM      2  C   UNL     1      45.593  41.442  36.225  1.00  0.00     0.004 C 
BRANCH   2   3
ATOM      3  C   UNL     1      46.066  42.893  36.031  1.00  0.00     0.000 C 
BRANCH   3   4
ATOM      4  C   UNL     1      47.255  43.001  35.062  1.00  0.00     0.000 C 
BRANCH   4   5
ATOM      5  C   UNL     1      46.829  43.423  33.646  1.00  0.00     0.000 C 
BRANCH   5   6
ATOM      6  C   UNL     1      47.486  44.736  33.186  1.00  0.00     0.006 C 
BRANCH   6   7
ATOM      7  C   UNL     1      47.980  44.708  31.728  1.00  0.00     0.053 C 
BRANCH   7   8
ATOM      8  C   UNL     1      46.990  44.084  30.792  1.00  0.00     0.041 C 
ATOM      9  O   UNL     1      45.949  44.709  30.458  1.00  0.00    -0.550 OA
ATOM     10  O   UNL     1      47.232  42.822  30.265  1.00  0.00    -0.550 OA
ENDBRANCH   7   8
ENDBRANCH   6   7
ENDBRANCH   5   6
ENDBRANCH   4   5
ENDBRANCH   3   4
ENDBRANCH   2   3
ENDBRANCH   1   2
BRANCH   1  11
ATOM     11  C   UNL     1      46.800  39.232  36.394  1.00  0.00    -0.031 C 
ATOM     12  C   UNL     1      47.809  39.151  37.281  1.00  0.00    -0.027 C 
BRANCH  12  13
ATOM     13  C   UNL     1      48.766  40.275  37.586  1.00  0.00     0.054 C 
BRANCH  13  14
ATOM     14  C   UNL     1      48.677  40.686  39.030  1.00  0.00    -0.027 C 
ATOM     15  C   UNL     1      47.993  41.783  39.387  1.00  0.00    -0.031 C 
BRANCH  15  16
ATOM     16  C   UNL     1      47.877  42.208  40.827  1.00  0.00     0.027 C 
BRANCH  16  17
ATOM     17  C   UNL     1      48.539  41.209  41.788  1.00  0.00     0.004 C 
BRANCH  17  18
ATOM     18  C   UNL     1      47.503  40.430  42.617  1.00  0.00     0.000 C 
BRANCH  18  19
ATOM     19  C   UNL     1      47.287  39.000  42.098  1.00  0.00    -0.003 C 
ATOM     20  C   UNL     1      46.100  38.891  41.141  1.00  0.00     0.004 C 
ENDBRANCH  18  19
ENDBRANCH  17  18
ENDBRANCH  16  17
ENDBRANCH  15  16
ENDBRANCH  13  14
ENDBRANCH  12  13
ENDBRANCH   1  11
TORSDOF 14
ENDMDL
MODEL 3
REMARK VINA RESULT:    -4.594      2.085      3.301
REMARK INTER + INTRA:         -10.062
REMARK INTER:                  -8.729
REMARK INTRA:                  -1.333
REMARK UNBOUND:                -1.707
REMARK SMILES CCCCCC=CCC=CCCCCCCCC(=O)[O-]
REMARK SMILES IDX 11 1 12 2 13 3 14 4 15 5 16 6 17 7 18 8 19 9 20 10 10 11
REMARK SMILES IDX 9 12 8 13 7 14 6 15 5 16 4 17 3 18 2 19 1 20
REMARK H PARENT
REMARK Flexibility Score: inf
ROOT
ATOM      1  C   UNL     1      48.036  39.916  38.951  1.00  0.00     0.027 C 
ENDROOT
BRANCH   1   2
ATOM      2  C   UNL     1      46.835  39.047  39.351  1.00  0.00     0.004 C 
BRANCH   2   3
ATOM      3  C   UNL     1      47.245  37.879  40.264  1.00  0.00     0.000 C 
BRANCH   3   4
ATOM      4  C   UNL     1      47.021  38.188  41.753  1.00  0.00     0.000 C 
BRANCH   4   5
ATOM      5  C   UNL     1      46.021  39.335  41.977  1.00  0.00     0.000 C 
BRANCH   5   6
ATOM      6  C   UNL     1      46.550  40.418  42.934  1.00  0.00     0.006 C 
BRANCH   6   7
ATOM      7  C   UNL     1      48.032  40.770  42.718  1.00  0.00     0.053 C 
BRANCH   7   8
ATOM      8  C   UNL     1      48.344  42.196  43.056  1.00  0.00     0.041 C 
ATOM      9  O   UNL     1      48.751  42.503  44.208  1.00  0.00    -0.550 OA
ATOM     10  O   UNL     1      48.213  43.185  42.089  1.00  0.00    -0.550 OA
ENDBRANCH   7   8
ENDBRANCH   6   7
ENDBRANCH   5   6
ENDBRANCH   4   5
ENDBRANCH   3   4
ENDBRANCH   2   3
ENDBRANCH   1   2
BRANCH   1  11
ATOM     11  C   UNL     1      47.735  41.389  39.082  1.00  0.00    -0.031 C 
ATOM     12  C   UNL     1      47.761  42.267  38.061  1.00  0.00    -0.027 C 
BRANCH  12  13
ATOM     13  C   UNL     1      48.029  41.895  36.625  1.00  0.00     0.054 C 
BRANCH  13  14
ATOM     14  C   UNL     1      47.539  42.964  35.688  1.00  0.00    -0.027 C 
ATOM     15  C   UNL     1      46.926  42.639  34.541  1.00  0.00    -0.031 C 
BRANCH  15  16
ATOM     16  C   UNL     1      46.415  43.691  33.592  1.00  0.00     0.027 C 
BRANCH  16  17
ATOM     17  C   UNL     1      47.472  44.761  33.278  1.00  0.00     0.004 C 
BRANCH  17  18
ATOM     18  C   UNL     1      47.983  44.660  31.831  1.00  0.00     0.000 C 
BRANCH  18  19
ATOM     19  C   UNL     1      46.842  44.539  30.809  1.00  0.00    -0.003 C 
ATOM     20  C   UNL     1      47.007  43.338  29.878  1.00  0.00     0.004 C 
ENDBRANCH  18  19
ENDBRANCH  17  18
ENDBRANCH  16  17
ENDBRANCH  15  16
ENDBRANCH  13  14
ENDBRANCH  12  13
ENDBRANCH   1  11
TORSDOF 14
ENDMDL
MODEL 4
REMARK VINA RESULT:    -4.590      3.647      8.331
REMARK INTER + INTRA:         -10.053
REMARK INTER:                  -8.101
REMARK INTRA:                  -1.953
REMARK UNBOUND:                -1.707
REMARK SMILES CCCCCC=CCC=CCCCCCCCC(=O)[O-]
REMARK SMILES IDX 11 1 12 2 13 3 14 4 15 5 16 6 17 7 18 8 19 9 20 10 10 11
REMARK SMILES IDX 9 12 8 13 7 14 6 15 5 16 4 17 3 18 2 19 1 20
REMARK H PARENT
REMARK Flexibility Score: inf
ROOT
ATOM      1  C   UNL     1      47.138  44.413  33.515  1.00  0.00     0.027 C 
ENDROOT
BRANCH   1   2
ATOM      2  C   UNL     1      47.922  44.657  32.218  1.00  0.00     0.004 C 
BRANCH   2   3
ATOM      3  C   UNL     1      46.992  44.855  31.009  1.00  0.00     0.000 C 
BRANCH   3   4
ATOM      4  C   UNL     1      47.015  43.657  30.045  1.00  0.00     0.000 C 
BRANCH   4   5
ATOM      5  C   UNL     1      45.743  42.798  30.137  1.00  0.00     0.000 C 
BRANCH   5   6
ATOM      6  C   UNL     1      44.514  43.590  30.619  1.00  0.00     0.006 C 
BRANCH   6   7
ATOM      7  C   UNL     1      43.589  42.794  31.557  1.00  0.00     0.053 C 
BRANCH   7   8
ATOM      8  C   UNL     1      43.433  43.439  32.901  1.00  0.00     0.041 C 
ATOM      9  O   UNL     1      42.914  42.802  33.855  1.00  0.00    -0.550 OA
ATOM     10  O   UNL     1      43.888  44.735  33.107  1.00  0.00    -0.550 OA
ENDBRANCH   7   8
ENDBRANCH   6   7
ENDBRANCH   5   6
ENDBRANCH   4   5
ENDBRANCH   3   4
ENDBRANCH   2   3
ENDBRANCH   1   2
BRANCH   1  11
ATOM     11  C   UNL     1      46.974  42.941  33.808  1.00  0.00    -0.031 C 
ATOM     12  C   UNL     1      46.394  42.445  34.917  1.00  0.00    -0.027 C 
BRANCH  12  13
ATOM     13  C   UNL     1      45.764  43.285  35.998  1.00  0.00     0.054 C 
BRANCH  13  14
ATOM     14  C   UNL     1      46.129  42.773  37.364  1.00  0.00    -0.027 C 
ATOM     15  C   UNL     1      47.363  42.955  37.855  1.00  0.00    -0.031 C 
BRANCH  15  16
ATOM     16  C   UNL     1      47.748  42.463  39.226  1.00  0.00     0.027 C 
BRANCH  16  17
ATOM     17  C   UNL     1      48.524  41.139  39.177  1.00  0.00     0.004 C 
BRANCH  17  18
ATOM     18  C   UNL     1      47.588  39.918  39.220  1.00  0.00     0.000 C 
BRANCH  18  19
ATOM     19  C   UNL     1      48.066  38.776  38.310  1.00  0.00    -0.003 C 
ATOM     20  C   UNL     1      48.473  39.260  36.918  1.00  0.00     0.004 C 
ENDBRANCH  18  19
ENDBRANCH  17  18
ENDBRANCH  16  17
ENDBRANCH  15  16
ENDBRANCH  13  14
ENDBRANCH  12  13
ENDBRANCH   1  11
TORSDOF 14
ENDMDL
MODEL 5
REMARK VINA RESULT:    -4.589      4.384      8.960
REMARK INTER + INTRA:         -10.053
REMARK INTER:                  -8.613
REMARK INTRA:                  -1.440
REMARK UNBOUND:                -1.707
REMARK SMILES CCCCCC=CCC=CCCCCCCCC(=O)[O-]
REMARK SMILES IDX 11 1 12 2 13 3 14 4 15 5 16 6 17 7 18 8 19 9 20 10 10 11
REMARK SMILES IDX 9 12 8 13 7 14 6 15 5 16 4 17 3 18 2 19 1 20
REMARK H PARENT
REMARK Flexibility Score: inf
ROOT
ATOM      1  C   UNL     1      46.588  42.815  36.917  1.00  0.00     0.027 C 
ENDROOT
BRANCH   1   2
ATOM      2  C   UNL     1      45.850  43.024  35.587  1.00  0.00     0.004 C 
BRANCH   2   3
ATOM      3  C   UNL     1      46.822  43.233  34.413  1.00  0.00     0.000 C 
BRANCH   3   4
ATOM      4  C   UNL     1      46.499  44.495  33.598  1.00  0.00     0.000 C 
BRANCH   4   5
ATOM      5  C   UNL     1      47.723  45.045  32.846  1.00  0.00     0.000 C 
BRANCH   5   6
ATOM      6  C   UNL     1      47.864  44.474  31.424  1.00  0.00     0.006 C 
BRANCH   6   7
ATOM      7  C   UNL     1      46.559  44.508  30.607  1.00  0.00     0.053 C 
BRANCH   7   8
ATOM      8  C   UNL     1      46.142  43.152  30.126  1.00  0.00     0.041 C 
ATOM      9  O   UNL     1      44.929  42.904  29.895  1.00  0.00    -0.550 OA
ATOM     10  O   UNL     1      47.098  42.169  29.902  1.00  0.00    -0.550 OA
ENDBRANCH   7   8
ENDBRANCH   6   7
ENDBRANCH   5   6
ENDBRANCH   4   5
ENDBRANCH   3   4
ENDBRANCH   2   3
ENDBRANCH   1   2
BRANCH   1  11
ATOM     11  C   UNL     1      48.018  42.382  36.708  1.00  0.00    -0.031 C 
ATOM     12  C   UNL     1      48.567  41.277  37.247  1.00  0.00    -0.027 C 
BRANCH  12  13
ATOM     13  C   UNL     1      47.816  40.276  38.086  1.00  0.00     0.054 C 
BRANCH  13  14
ATOM     14  C   UNL     1      48.256  40.334  39.523  1.00  0.00    -0.027 C 
ATOM     15  C   UNL     1      47.391  40.073  40.514  1.00  0.00    -0.031 C 
BRANCH  15  16
ATOM     16  C   UNL     1      47.811  40.111  41.960  1.00  0.00     0.027 C 
BRANCH  16  17
ATOM     17  C   UNL     1      48.657  41.350  42.292  1.00  0.00     0.004 C 
BRANCH  17  18
ATOM     18  C   UNL     1      47.787  42.554  42.691  1.00  0.00     0.000 C 
BRANCH  18  19
ATOM     19  C   UNL     1      48.096  43.807  41.857  1.00  0.00    -0.003 C 
ATOM     20  C   UNL     1      47.453  43.768  40.471  1.00  0.00     0.004 C 
ENDBRANCH  18  19
ENDBRANCH  17  18
ENDBRANCH  16  17
ENDBRANCH  15  16
ENDBRANCH  13  14
ENDBRANCH  12  13
ENDBRANCH   1  11
TORSDOF 14
ENDMDL
MODEL 6
REMARK VINA RESULT:    -4.570      1.960      3.071
REMARK INTER + INTRA:         -10.018
REMARK INTER:                  -9.228
REMARK INTRA:                  -0.789
REMARK UNBOUND:                -1.707
REMARK SMILES CCCCCC=CCC=CCCCCCCCC(=O)[O-]
REMARK SMILES IDX 11 1 12 2 13 3 14 4 15 5 16 6 17 7 18 8 19 9 20 10 10 11
REMARK SMILES IDX 9 12 8 13 7 14 6 15 5 16 4 17 3 18 2 19 1 20
REMARK H PARENT
REMARK Flexibility Score: inf
ROOT
ATOM      1  C   UNL     1      47.974  40.175  39.296  1.00  0.00     0.027 C 
ENDROOT
BRANCH   1   2
ATOM      2  C   UNL     1      48.439  40.995  40.507  1.00  0.00     0.004 C 
BRANCH   2   3
ATOM      3  C   UNL     1      47.893  40.432  41.831  1.00  0.00     0.000 C 
BRANCH   3   4
ATOM      4  C   UNL     1      47.205  39.069  41.653  1.00  0.00     0.000 C 
BRANCH   4   5
ATOM      5  C   UNL     1      46.974  38.343  42.989  1.00  0.00     0.000 C 
BRANCH   5   6
ATOM      6  C   UNL     1      45.549  38.531  43.539  1.00  0.00     0.006 C 
BRANCH   6   7
ATOM      7  C   UNL     1      45.181  37.549  44.666  1.00  0.00     0.053 C 
BRANCH   7   8
ATOM      8  C   UNL     1      43.877  36.852  44.424  1.00  0.00     0.041 C 
ATOM      9  O   UNL     1      43.354  36.859  43.278  1.00  0.00    -0.550 OA
ATOM     10  O   UNL     1      43.252  36.167  45.459  1.00  0.00    -0.550 OA
ENDBRANCH   7   8
ENDBRANCH   6   7
ENDBRANCH   5   6
ENDBRANCH   4   5
ENDBRANCH   3   4
ENDBRANCH   2   3
ENDBRANCH   1   2
BRANCH   1  11
ATOM     11  C   UNL     1      48.739  40.531  38.045  1.00  0.00    -0.031 C 
ATOM     12  C   UNL     1      48.427  41.553  37.225  1.00  0.00    -0.027 C 
BRANCH  12  13
ATOM     13  C   UNL     1      47.307  42.531  37.472  1.00  0.00     0.054 C 
BRANCH  13  14
ATOM     14  C   UNL     1      46.730  43.032  36.177  1.00  0.00    -0.027 C 
ATOM     15  C   UNL     1      47.154  42.539  35.004  1.00  0.00    -0.031 C 
BRANCH  15  16
ATOM     16  C   UNL     1      46.582  43.014  33.694  1.00  0.00     0.027 C 
BRANCH  16  17
ATOM     17  C   UNL     1      46.876  44.499  33.431  1.00  0.00     0.004 C 
BRANCH  17  18
ATOM     18  C   UNL     1      47.742  44.703  32.176  1.00  0.00     0.000 C 
BRANCH  18  19
ATOM     19  C   UNL     1      46.905  44.812  30.893  1.00  0.00    -0.003 C 
ATOM     20  C   UNL     1      47.044  43.587  29.990  1.00  0.00     0.004 C 
ENDBRANCH  18  19
ENDBRANCH  17  18
ENDBRANCH  16  17
ENDBRANCH  15  16
ENDBRANCH  13  14
ENDBRANCH  12  13
ENDBRANCH   1  11
TORSDOF 14
ENDMDL
MODEL 7
REMARK VINA RESULT:    -4.538      3.960      8.186
REMARK INTER + INTRA:          -9.959
REMARK INTER:                  -7.833
REMARK INTRA:                  -2.126
REMARK UNBOUND:                -1.707
REMARK SMILES CCCCCC=CCC=CCCCCCCCC(=O)[O-]
REMARK SMILES IDX 11 1 12 2 13 3 14 4 15 5 16 6 17 7 18 8 19 9 20 10 10 11
REMARK SMILES IDX 9 12 8 13 7 14 6 15 5 16 4 17 3 18 2 19 1 20
REMARK H PARENT
REMARK Flexibility Score: inf
ROOT
ATOM      1  C   UNL     1      48.749  39.475  37.007  1.00  0.00     0.027 C 
ENDROOT
BRANCH   1   2
ATOM      2  C   UNL     1      48.859  40.719  37.899  1.00  0.00     0.004 C 
BRANCH   2   3
ATOM      3  C   UNL     1      47.521  41.470  38.012  1.00  0.00     0.000 C 
BRANCH   3   4
ATOM      4  C   UNL     1      47.591  42.891  37.428  1.00  0.00     0.000 C 
BRANCH   4   5
ATOM      5  C   UNL     1      47.706  42.896  35.894  1.00  0.00     0.000 C 
BRANCH   5   6
ATOM      6  C   UNL     1      46.344  42.772  35.187  1.00  0.00     0.006 C 
BRANCH   6   7
ATOM      7  C   UNL     1      45.996  43.975  34.291  1.00  0.00     0.053 C 
BRANCH   7   8
ATOM      8  C   UNL     1      46.972  44.163  33.170  1.00  0.00     0.041 C 
ATOM      9  O   UNL     1      47.773  45.136  33.179  1.00  0.00    -0.550 OA
ATOM     10  O   UNL     1      47.018  43.247  32.126  1.00  0.00    -0.550 OA
ENDBRANCH   7   8
ENDBRANCH   6   7
ENDBRANCH   5   6
ENDBRANCH   4   5
ENDBRANCH   3   4
ENDBRANCH   2   3
ENDBRANCH   1   2
BRANCH   1  11
ATOM     11  C   UNL     1      47.357  38.891  37.022  1.00  0.00    -0.031 C 
ATOM     12  C   UNL     1      46.996  37.798  37.722  1.00  0.00    -0.027 C 
BRANCH  12  13
ATOM     13  C   UNL     1      47.913  37.038  38.645  1.00  0.00     0.054 C 
BRANCH  13  14
ATOM     14  C   UNL     1      47.541  37.264  40.085  1.00  0.00    -0.027 C 
ATOM     15  C   UNL     1      47.463  38.506  40.583  1.00  0.00    -0.031 C 
BRANCH  15  16
ATOM     16  C   UNL     1      47.080  38.759  42.018  1.00  0.00     0.027 C 
BRANCH  16  17
ATOM     17  C   UNL     1      47.176  40.244  42.397  1.00  0.00     0.004 C 
BRANCH  17  18
ATOM     18  C   UNL     1      48.326  40.955  41.663  1.00  0.00     0.000 C 
BRANCH  18  19
ATOM     19  C   UNL     1      48.091  42.467  41.521  1.00  0.00    -0.003 C 
ATOM     20  C   UNL     1      46.612  42.823  41.370  1.00  0.00     0.004 C 
ENDBRANCH  18  19
ENDBRANCH  17  18
ENDBRANCH  16  17
ENDBRANCH  15  16
ENDBRANCH  13  14
ENDBRANCH  12  13
ENDBRANCH   1  11
TORSDOF 14
ENDMDL
MODEL 8
REMARK VINA RESULT:    -4.508      3.954      9.072
REMARK INTER + INTRA:          -9.904
REMARK INTER:                  -8.585
REMARK INTRA:                  -1.319
REMARK UNBOUND:                -1.707
REMARK SMILES CCCCCC=CCC=CCCCCCCCC(=O)[O-]
REMARK SMILES IDX 11 1 12 2 13 3 14 4 15 5 16 6 17 7 18 8 19 9 20 10 10 11
REMARK SMILES IDX 9 12 8 13 7 14 6 15 5 16 4 17 3 18 2 19 1 20
REMARK H PARENT
REMARK Flexibility Score: inf
ROOT
ATOM      1  C   UNL     1      45.887  43.207  34.402  1.00  0.00     0.027 C 
ENDROOT
BRANCH   1   2
ATOM      2  C   UNL     1      46.128  44.411  33.479  1.00  0.00     0.004 C 
BRANCH   2   3
ATOM      3  C   UNL     1      47.624  44.651  33.220  1.00  0.00     0.000 C 
BRANCH   3   4
ATOM      4  C   UNL     1      47.915  45.044  31.763  1.00  0.00     0.000 C 
BRANCH   4   5
ATOM      5  C   UNL     1      46.748  44.715  30.816  1.00  0.00     0.000 C 
BRANCH   5   6
ATOM      6  C   UNL     1      47.050  43.535  29.875  1.00  0.00     0.006 C 
BRANCH   6   7
ATOM      7  C   UNL     1      46.866  42.154  30.530  1.00  0.00     0.053 C 
BRANCH   7   8
ATOM      8  C   UNL     1      45.428  41.818  30.780  1.00  0.00     0.041 C 
ATOM      9  O   UNL     1      45.114  40.991  31.676  1.00  0.00    -0.550 OA
ATOM     10  O   UNL     1      44.429  42.441  30.041  1.00  0.00    -0.550 OA
ENDBRANCH   7   8
ENDBRANCH   6   7
ENDBRANCH   5   6
ENDBRANCH   4   5
ENDBRANCH   3   4
ENDBRANCH   2   3
ENDBRANCH   1   2
BRANCH   1  11
ATOM     11  C   UNL     1      47.179  42.548  34.819  1.00  0.00    -0.031 C 
ATOM     12  C   UNL     1      47.655  42.532  36.078  1.00  0.00    -0.027 C 
BRANCH  12  13
ATOM     13  C   UNL     1      46.936  43.115  37.268  1.00  0.00     0.054 C 
BRANCH  13  14
ATOM     14  C   UNL     1      47.360  42.437  38.542  1.00  0.00    -0.027 C 
ATOM     15  C   UNL     1      48.122  41.334  38.509  1.00  0.00    -0.031 C 
BRANCH  15  16
ATOM     16  C   UNL     1      48.571  40.646  39.771  1.00  0.00     0.027 C 
BRANCH  16  17
ATOM     17  C   UNL     1      47.392  40.238  40.667  1.00  0.00     0.004 C 
BRANCH  17  18
ATOM     18  C   UNL     1      47.363  38.723  40.931  1.00  0.00     0.000 C 
BRANCH  18  19
ATOM     19  C   UNL     1      46.818  38.378  42.325  1.00  0.00    -0.003 C 
ATOM     20  C   UNL     1      46.191  39.581  43.030  1.00  0.00     0.004 C 
ENDBRANCH  18  19
ENDBRANCH  17  18
ENDBRANCH  16  17
ENDBRANCH  15  16
ENDBRANCH  13  14
ENDBRANCH  12  13
ENDBRANCH   1  11
TORSDOF 14
ENDMDL
MODEL 9
REMARK VINA RESULT:    -4.476      2.891      4.122
REMARK INTER + INTRA:          -9.847
REMARK INTER:                  -8.631
REMARK INTRA:                  -1.215
REMARK UNBOUND:                -1.707
REMARK SMILES CCCCCC=CCC=CCCCCCCCC(=O)[O-]
REMARK SMILES IDX 11 1 12 2 13 3 14 4 15 5 16 6 17 7 18 8 19 9 20 10 10 11
REMARK SMILES IDX 9 12 8 13 7 14 6 15 5 16 4 17 3 18 2 19 1 20
REMARK H PARENT
REMARK Flexibility Score: inf
ROOT
ATOM      1  C   UNL     1      48.336  41.082  39.962  1.00  0.00     0.027 C 
ENDROOT
BRANCH   1   2
ATOM      2  C   UNL     1      47.620  40.024  40.815  1.00  0.00     0.004 C 
BRANCH   2   3
ATOM      3  C   UNL     1      47.654  40.368  42.313  1.00  0.00     0.000 C 
BRANCH   3   4
ATOM      4  C   UNL     1      48.781  41.352  42.667  1.00  0.00     0.000 C 
BRANCH   4   5
ATOM      5  C   UNL     1      48.267  42.607  43.393  1.00  0.00     0.000 C 
BRANCH   5   6
ATOM      6  C   UNL     1      46.840  43.003  42.974  1.00  0.00     0.006 C 
BRANCH   6   7
ATOM      7  C   UNL     1      46.789  44.039  41.837  1.00  0.00     0.053 C 
BRANCH   7   8
ATOM      8  C   UNL     1      47.679  45.219  42.088  1.00  0.00     0.041 C 
ATOM      9  O   UNL     1      47.502  45.945  43.101  1.00  0.00    -0.550 OA
ATOM     10  O   UNL     1      48.724  45.499  41.217  1.00  0.00    -0.550 OA
ENDBRANCH   7   8
ENDBRANCH   6   7
ENDBRANCH   5   6
ENDBRANCH   4   5
ENDBRANCH   3   4
ENDBRANCH   2   3
ENDBRANCH   1   2
BRANCH   1  11
ATOM     11  C   UNL     1      48.781  40.528  38.631  1.00  0.00    -0.031 C 
ATOM     12  C   UNL     1      48.520  41.101  37.441  1.00  0.00    -0.027 C 
BRANCH  12  13
ATOM     13  C   UNL     1      47.802  42.415  37.268  1.00  0.00     0.054 C 
BRANCH  13  14
ATOM     14  C   UNL     1      47.692  42.785  35.814  1.00  0.00    -0.027 C 
ATOM     15  C   UNL     1      46.529  42.651  35.161  1.00  0.00    -0.031 C 
BRANCH  15  16
ATOM     16  C   UNL     1      46.390  43.028  33.710  1.00  0.00     0.027 C 
BRANCH  16  17
ATOM     17  C   UNL     1      46.796  44.484  33.441  1.00  0.00     0.004 C 
BRANCH  17  18
ATOM     18  C   UNL     1      47.663  44.619  32.178  1.00  0.00     0.000 C 
BRANCH  18  19
ATOM     19  C   UNL     1      47.487  43.437  31.212  1.00  0.00    -0.003 C 
ATOM     20  C   UNL     1      46.865  43.850  29.878  1.00  0.00     0.004 C 
ENDBRANCH  18  19
ENDBRANCH  17  18
ENDBRANCH  16  17
ENDBRANCH  15  16
ENDBRANCH  13  14
ENDBRANCH  12  13
ENDBRANCH   1  11
TORSDOF 14
ENDMDL
