MODEL 1
REMARK VINA RESULT:    27.589      0.000      0.000
REMARK INTER + INTRA:          33.284
REMARK INTER:                  33.234
REMARK INTRA:                   0.051
REMARK UNBOUND:                 0.051
REMARK SMILES O=c1c(O)c(-c2ccc(O)c(O)c2)oc2cc(O)cc(O)c12
REMARK SMILES IDX 5 1 3 2 2 3 1 4 22 5 20 6 19 7 17 8 16 9 15 10 14 11 6 12
REMARK SMILES IDX 7 13 8 14 9 15 13 16 11 17 10 18 12 20 4 22 21 24 18 26
REMARK H PARENT 10 19 12 21 4 23 21 25 18 27
REMARK Flexibility Score: inf
ROOT
ATOM      1  C   UNL     1      14.283  50.257  23.995  1.00  0.00     0.180 A 
ATOM      2  C   UNL     1      14.623  51.619  23.907  1.00  0.00     0.208 A 
ATOM      3  C   UNL     1      15.680  52.109  24.692  1.00  0.00     0.238 A 
ATOM      4  O   UNL     1      15.944  53.338  24.649  1.00  0.00    -0.285 OA
ATOM      5  C   UNL     1      16.392  51.229  25.542  1.00  0.00     0.111 A 
ATOM      6  C   UNL     1      17.505  51.609  26.351  1.00  0.00     0.134 A 
ATOM      7  C   UNL     1      18.051  50.687  27.252  1.00  0.00     0.093 A 
ATOM      8  C   UNL     1      17.566  49.378  27.326  1.00  0.00     0.123 A 
ATOM      9  C   UNL     1      16.518  48.981  26.498  1.00  0.00     0.094 A 
ATOM     10  C   UNL     1      15.930  49.890  25.615  1.00  0.00     0.146 A 
ATOM     11  O   UNL     1      14.927  49.473  24.851  1.00  0.00    -0.452 OA
ENDROOT
BRANCH   1  12
ATOM     12  C   UNL     1      13.199  49.662  23.181  1.00  0.00     0.025 A 
ATOM     13  C   UNL     1      13.452  48.495  22.442  1.00  0.00     0.016 A 
ATOM     14  C   UNL     1      12.449  47.929  21.650  1.00  0.00     0.051 A 
ATOM     15  C   UNL     1      11.187  48.525  21.572  1.00  0.00     0.157 A 
ATOM     16  C   UNL     1      11.936  50.272  23.085  1.00  0.00     0.062 A 
ATOM     17  C   UNL     1      10.929  49.705  22.290  1.00  0.00     0.158 A 
BRANCH  15  18
ATOM     18  O   UNL     1      10.207  47.935  20.777  1.00  0.00    -0.504 OA
ATOM     19  H   UNL     1       9.390  47.486  21.173  1.00  0.00     0.293 HD
ENDBRANCH  15  18
BRANCH  17  20
ATOM     20  O   UNL     1       9.677  50.313  22.206  1.00  0.00    -0.504 OA
ATOM     21  H   UNL     1       9.438  51.117  22.773  1.00  0.00     0.293 HD
ENDBRANCH  17  20
ENDBRANCH   1  12
BRANCH   2  22
ATOM     22  O   UNL     1      13.892  52.473  23.077  1.00  0.00    -0.502 OA
ATOM     23  H   UNL     1      13.712  52.261  22.102  1.00  0.00     0.293 HD
ENDBRANCH   2  22
BRANCH   6  24
ATOM     24  O   UNL     1      18.125  52.861  26.288  1.00  0.00    -0.507 OA
ATOM     25  H   UNL     1      18.042  53.506  25.517  1.00  0.00     0.293 HD
ENDBRANCH   6  24
BRANCH   8  26
ATOM     26  O   UNL     1      18.125  48.462  28.215  1.00  0.00    -0.508 OA
ATOM     27  H   UNL     1      18.759  47.738  27.900  1.00  0.00     0.293 HD
ENDBRANCH   8  26
TORSDOF 6
ENDMDL
