MODEL 1
REMARK VINA RESULT:    -6.205      0.000      0.000
REMARK INTER + INTRA:          -7.585
REMARK INTER:                  -7.293
REMARK INTRA:                  -0.292
REMARK UNBOUND:                -0.292
REMARK SMILES O=c1cc(-c2ccc(O)c(O)c2)oc2cc(O)cc(O)c12
REMARK SMILES IDX 4 1 3 2 2 3 1 4 21 5 19 6 18 7 16 8 15 9 14 10 13 11 5 12
REMARK SMILES IDX 6 13 7 14 8 15 12 16 10 17 9 18 11 20 20 22 17 24
REMARK H PARENT 9 19 11 21 20 23 17 25
REMARK Flexibility Score: inf
ROOT
ATOM      1  C   UNL     1      27.094  22.970 -13.376  1.00  0.00     0.138 A 
ATOM      2  C   UNL     1      27.686  24.207 -13.681  1.00  0.00     0.100 A 
ATOM      3  C   UNL     1      27.818  25.172 -12.681  1.00  0.00     0.197 A 
ATOM      4  O   UNL     1      28.349  26.279 -12.965  1.00  0.00    -0.289 OA
ATOM      5  C   UNL     1      27.351  24.892 -11.381  1.00  0.00     0.107 A 
ATOM      6  C   UNL     1      27.446  25.813 -10.310  1.00  0.00     0.134 A 
ATOM      7  C   UNL     1      26.952  25.460  -9.045  1.00  0.00     0.093 A 
ATOM      8  C   UNL     1      26.366  24.207  -8.832  1.00  0.00     0.123 A 
ATOM      9  C   UNL     1      26.271  23.297  -9.886  1.00  0.00     0.094 A 
ATOM     10  C   UNL     1      26.757  23.628 -11.154  1.00  0.00     0.146 A 
ATOM     11  O   UNL     1      26.656  22.742 -12.139  1.00  0.00    -0.456 OA
ENDROOT
BRANCH   1  12
ATOM     12  C   UNL     1      26.928  21.907 -14.399  1.00  0.00     0.021 A 
ATOM     13  C   UNL     1      26.019  20.846 -14.222  1.00  0.00     0.016 A 
ATOM     14  C   UNL     1      25.875  19.864 -15.206  1.00  0.00     0.051 A 
ATOM     15  C   UNL     1      26.629  19.929 -16.385  1.00  0.00     0.157 A 
ATOM     16  C   UNL     1      27.670  21.972 -15.591  1.00  0.00     0.062 A 
ATOM     17  C   UNL     1      27.526  20.986 -16.578  1.00  0.00     0.158 A 
BRANCH  15  18
ATOM     18  O   UNL     1      26.489  18.951 -17.367  1.00  0.00    -0.504 OA
ATOM     19  H   UNL     1      25.712  18.301 -17.362  1.00  0.00     0.293 HD
ENDBRANCH  15  18
BRANCH  17  20
ATOM     20  O   UNL     1      28.273  21.050 -17.754  1.00  0.00    -0.504 OA
ATOM     21  H   UNL     1      29.196  20.638 -17.819  1.00  0.00     0.293 HD
ENDBRANCH  17  20
ENDBRANCH   1  12
BRANCH   6  22
ATOM     22  O   UNL     1      28.025  27.070 -10.493  1.00  0.00    -0.507 OA
ATOM     23  H   UNL     1      27.826  27.844  -9.870  1.00  0.00     0.293 HD
ENDBRANCH   6  22
BRANCH   8  24
ATOM     24  O   UNL     1      25.876  23.858  -7.577  1.00  0.00    -0.508 OA
ATOM     25  H   UNL     1      25.772  24.544  -6.838  1.00  0.00     0.293 HD
ENDBRANCH   8  24
TORSDOF 5
ENDMDL
MODEL 2
REMARK VINA RESULT:    -6.168      1.882      7.281
REMARK INTER + INTRA:          -7.541
REMARK INTER:                  -7.227
REMARK INTRA:                  -0.314
REMARK UNBOUND:                -0.292
REMARK SMILES O=c1cc(-c2ccc(O)c(O)c2)oc2cc(O)cc(O)c12
REMARK SMILES IDX 4 1 3 2 2 3 1 4 21 5 19 6 18 7 16 8 15 9 14 10 13 11 5 12
REMARK SMILES IDX 6 13 7 14 8 15 12 16 10 17 9 18 11 20 20 22 17 24
REMARK H PARENT 9 19 11 21 20 23 17 25
REMARK Flexibility Score: inf
ROOT
ATOM      1  C   UNL     1      27.664  22.814 -13.559  1.00  0.00     0.138 A 
ATOM      2  C   UNL     1      26.622  22.097 -14.171  1.00  0.00     0.100 A 
ATOM      3  C   UNL     1      26.838  21.497 -15.412  1.00  0.00     0.197 A 
ATOM      4  O   UNL     1      25.897  20.856 -15.954  1.00  0.00    -0.289 OA
ATOM      5  C   UNL     1      28.096  21.622 -16.036  1.00  0.00     0.107 A 
ATOM      6  C   UNL     1      28.398  21.044 -17.292  1.00  0.00     0.134 A 
ATOM      7  C   UNL     1      29.675  21.219 -17.847  1.00  0.00     0.093 A 
ATOM      8  C   UNL     1      30.651  21.960 -17.172  1.00  0.00     0.123 A 
ATOM      9  C   UNL     1      30.356  22.531 -15.933  1.00  0.00     0.094 A 
ATOM     10  C   UNL     1      29.091  22.368 -15.361  1.00  0.00     0.146 A 
ATOM     11  O   UNL     1      28.838  22.921 -14.179  1.00  0.00    -0.456 OA
ENDROOT
BRANCH   1  12
ATOM     12  C   UNL     1      27.492  23.474 -12.241  1.00  0.00     0.021 A 
ATOM     13  C   UNL     1      26.453  23.111 -11.361  1.00  0.00     0.016 A 
ATOM     14  C   UNL     1      26.321  23.742 -10.121  1.00  0.00     0.051 A 
ATOM     15  C   UNL     1      27.226  24.739  -9.736  1.00  0.00     0.157 A 
ATOM     16  C   UNL     1      28.403  24.466 -11.839  1.00  0.00     0.062 A 
ATOM     17  C   UNL     1      28.270  25.100 -10.595  1.00  0.00     0.158 A 
BRANCH  15  18
ATOM     18  O   UNL     1      27.095  25.371  -8.500  1.00  0.00    -0.504 OA
ATOM     19  H   UNL     1      27.895  25.536  -7.901  1.00  0.00     0.293 HD
ENDBRANCH  15  18
BRANCH  17  20
ATOM     20  O   UNL     1      29.171  26.091 -10.207  1.00  0.00    -0.504 OA
ATOM     21  H   UNL     1      29.422  26.227  -9.236  1.00  0.00     0.293 HD
ENDBRANCH  17  20
ENDBRANCH   1  12
BRANCH   6  22
ATOM     22  O   UNL     1      27.444  20.300 -17.988  1.00  0.00    -0.507 OA
ATOM     23  H   UNL     1      26.625  19.921 -17.529  1.00  0.00     0.293 HD
ENDBRANCH   6  22
BRANCH   8  24
ATOM     24  O   UNL     1      31.918  22.134 -17.724  1.00  0.00    -0.508 OA
ATOM     25  H   UNL     1      32.759  22.010 -17.172  1.00  0.00     0.293 HD
ENDBRANCH   8  24
TORSDOF 5
ENDMDL
MODEL 3
REMARK VINA RESULT:    -5.988      1.247      2.681
REMARK INTER + INTRA:          -7.329
REMARK INTER:                  -7.025
REMARK INTRA:                  -0.304
REMARK UNBOUND:                -0.292
REMARK SMILES O=c1cc(-c2ccc(O)c(O)c2)oc2cc(O)cc(O)c12
REMARK SMILES IDX 4 1 3 2 2 3 1 4 21 5 19 6 18 7 16 8 15 9 14 10 13 11 5 12
REMARK SMILES IDX 6 13 7 14 8 15 12 16 10 17 9 18 11 20 20 22 17 24
REMARK H PARENT 9 19 11 21 20 23 17 25
REMARK Flexibility Score: inf
ROOT
ATOM      1  C   UNL     1      26.822  22.753 -13.091  1.00  0.00     0.138 A 
ATOM      2  C   UNL     1      26.688  22.379 -11.744  1.00  0.00     0.100 A 
ATOM      3  C   UNL     1      26.755  23.357 -10.750  1.00  0.00     0.197 A 
ATOM      4  O   UNL     1      26.636  23.012  -9.543  1.00  0.00    -0.289 OA
ATOM      5  C   UNL     1      26.959  24.704 -11.112  1.00  0.00     0.107 A 
ATOM      6  C   UNL     1      27.038  25.756 -10.169  1.00  0.00     0.134 A 
ATOM      7  C   UNL     1      27.247  27.071 -10.611  1.00  0.00     0.093 A 
ATOM      8  C   UNL     1      27.381  27.352 -11.975  1.00  0.00     0.123 A 
ATOM      9  C   UNL     1      27.303  26.317 -12.908  1.00  0.00     0.094 A 
ATOM     10  C   UNL     1      27.094  24.999 -12.489  1.00  0.00     0.146 A 
ATOM     11  O   UNL     1      27.023  24.033 -13.399  1.00  0.00    -0.456 OA
ENDROOT
BRANCH   1  12
ATOM     12  C   UNL     1      26.760  21.757 -14.190  1.00  0.00     0.021 A 
ATOM     13  C   UNL     1      25.920  20.628 -14.119  1.00  0.00     0.016 A 
ATOM     14  C   UNL     1      25.875  19.711 -15.173  1.00  0.00     0.051 A 
ATOM     15  C   UNL     1      26.660  19.909 -16.317  1.00  0.00     0.157 A 
ATOM     16  C   UNL     1      27.533  21.954 -15.348  1.00  0.00     0.062 A 
ATOM     17  C   UNL     1      27.488  21.034 -16.405  1.00  0.00     0.158 A 
BRANCH  15  18
ATOM     18  O   UNL     1      26.617  18.996 -17.369  1.00  0.00    -0.504 OA
ATOM     19  H   UNL     1      27.015  19.211 -18.275  1.00  0.00     0.293 HD
ENDBRANCH  15  18
BRANCH  17  20
ATOM     20  O   UNL     1      28.265  21.231 -17.546  1.00  0.00    -0.504 OA
ATOM     21  H   UNL     1      28.456  20.475 -18.193  1.00  0.00     0.293 HD
ENDBRANCH  17  20
ENDBRANCH   1  12
BRANCH   6  22
ATOM     22  O   UNL     1      26.909  25.506  -8.801  1.00  0.00    -0.507 OA
ATOM     23  H   UNL     1      26.416  24.692  -8.453  1.00  0.00     0.293 HD
ENDBRANCH   6  22
BRANCH   8  24
ATOM     24  O   UNL     1      27.590  28.657 -12.414  1.00  0.00    -0.508 OA
ATOM     25  H   UNL     1      28.313  28.880 -13.088  1.00  0.00     0.293 HD
ENDBRANCH   8  24
TORSDOF 5
ENDMDL
MODEL 4
REMARK VINA RESULT:    -5.977      3.687      7.169
REMARK INTER + INTRA:          -7.317
REMARK INTER:                  -7.035
REMARK INTRA:                  -0.282
REMARK UNBOUND:                -0.292
REMARK SMILES O=c1cc(-c2ccc(O)c(O)c2)oc2cc(O)cc(O)c12
REMARK SMILES IDX 4 1 3 2 2 3 1 4 21 5 19 6 18 7 16 8 15 9 14 10 13 11 5 12
REMARK SMILES IDX 6 13 7 14 8 15 12 16 10 17 9 18 11 20 20 22 17 24
REMARK H PARENT 9 19 11 21 20 23 17 25
REMARK Flexibility Score: inf
ROOT
ATOM      1  C   UNL     1      29.551  24.333 -14.137  1.00  0.00     0.138 A 
ATOM      2  C   UNL     1      29.530  25.653 -14.617  1.00  0.00     0.100 A 
ATOM      3  C   UNL     1      30.284  25.986 -15.743  1.00  0.00     0.197 A 
ATOM      4  O   UNL     1      30.261  27.173 -16.167  1.00  0.00    -0.289 OA
ATOM      5  C   UNL     1      31.059  24.994 -16.380  1.00  0.00     0.107 A 
ATOM      6  C   UNL     1      31.850  25.247 -17.525  1.00  0.00     0.134 A 
ATOM      7  C   UNL     1      32.597  24.205 -18.097  1.00  0.00     0.093 A 
ATOM      8  C   UNL     1      32.567  22.920 -17.544  1.00  0.00     0.123 A 
ATOM      9  C   UNL     1      31.787  22.668 -16.414  1.00  0.00     0.094 A 
ATOM     10  C   UNL     1      31.035  23.691 -15.830  1.00  0.00     0.146 A 
ATOM     11  O   UNL     1      30.300  23.422 -14.755  1.00  0.00    -0.456 OA
ENDROOT
BRANCH   1  12
ATOM     12  C   UNL     1      28.769  23.922 -12.943  1.00  0.00     0.021 A 
ATOM     13  C   UNL     1      28.184  22.644 -12.846  1.00  0.00     0.016 A 
ATOM     14  C   UNL     1      27.462  22.280 -11.706  1.00  0.00     0.051 A 
ATOM     15  C   UNL     1      27.319  23.180 -10.643  1.00  0.00     0.157 A 
ATOM     16  C   UNL     1      28.632  24.813 -11.865  1.00  0.00     0.062 A 
ATOM     17  C   UNL     1      27.907  24.448 -10.721  1.00  0.00     0.158 A 
BRANCH  15  18
ATOM     18  O   UNL     1      26.598  22.820  -9.505  1.00  0.00    -0.504 OA
ATOM     19  H   UNL     1      26.301  21.865  -9.346  1.00  0.00     0.293 HD
ENDBRANCH  15  18
BRANCH  17  20
ATOM     20  O   UNL     1      27.766  25.341  -9.659  1.00  0.00    -0.504 OA
ATOM     21  H   UNL     1      28.001  26.321  -9.757  1.00  0.00     0.293 HD
ENDBRANCH  17  20
ENDBRANCH   1  12
BRANCH   6  22
ATOM     22  O   UNL     1      31.900  26.519 -18.098  1.00  0.00    -0.507 OA
ATOM     23  H   UNL     1      32.676  27.148 -17.931  1.00  0.00     0.293 HD
ENDBRANCH   6  22
BRANCH   8  24
ATOM     24  O   UNL     1      33.309  21.887 -18.111  1.00  0.00    -0.508 OA
ATOM     25  H   UNL     1      33.114  20.915 -17.897  1.00  0.00     0.293 HD
ENDBRANCH   8  24
TORSDOF 5
ENDMDL
MODEL 5
REMARK VINA RESULT:    -5.833      3.025      4.437
REMARK INTER + INTRA:          -7.148
REMARK INTER:                  -6.832
REMARK INTRA:                  -0.315
REMARK UNBOUND:                -0.292
REMARK SMILES O=c1cc(-c2ccc(O)c(O)c2)oc2cc(O)cc(O)c12
REMARK SMILES IDX 4 1 3 2 2 3 1 4 21 5 19 6 18 7 16 8 15 9 14 10 13 11 5 12
REMARK SMILES IDX 6 13 7 14 8 15 12 16 10 17 9 18 11 20 20 22 17 24
REMARK H PARENT 9 19 11 21 20 23 17 25
REMARK Flexibility Score: inf
ROOT
ATOM      1  C   UNL     1      29.567  23.714 -13.571  1.00  0.00     0.138 A 
ATOM      2  C   UNL     1      29.002  22.566 -12.991  1.00  0.00     0.100 A 
ATOM      3  C   UNL     1      28.163  22.697 -11.884  1.00  0.00     0.197 A 
ATOM      4  O   UNL     1      27.661  21.662 -11.369  1.00  0.00    -0.289 OA
ATOM      5  C   UNL     1      27.897  23.980 -11.361  1.00  0.00     0.107 A 
ATOM      6  C   UNL     1      27.059  24.201 -10.243  1.00  0.00     0.134 A 
ATOM      7  C   UNL     1      26.849  25.509  -9.780  1.00  0.00     0.093 A 
ATOM      8  C   UNL     1      27.463  26.596 -10.413  1.00  0.00     0.123 A 
ATOM      9  C   UNL     1      28.290  26.381 -11.516  1.00  0.00     0.094 A 
ATOM     10  C   UNL     1      28.512  25.086 -11.994  1.00  0.00     0.146 A 
ATOM     11  O   UNL     1      29.303  24.910 -13.047  1.00  0.00    -0.456 OA
ENDROOT
BRANCH   1  12
ATOM     12  C   UNL     1      30.467  23.635 -14.749  1.00  0.00     0.021 A 
ATOM     13  C   UNL     1      31.028  22.414 -15.171  1.00  0.00     0.016 A 
ATOM     14  C   UNL     1      31.864  22.367 -16.290  1.00  0.00     0.051 A 
ATOM     15  C   UNL     1      32.148  23.535 -17.010  1.00  0.00     0.157 A 
ATOM     16  C   UNL     1      30.746  24.799 -15.486  1.00  0.00     0.062 A 
ATOM     17  C   UNL     1      31.586  24.752 -16.608  1.00  0.00     0.158 A 
BRANCH  15  18
ATOM     18  O   UNL     1      32.982  23.490 -18.125  1.00  0.00    -0.504 OA
ATOM     19  H   UNL     1      32.627  23.262 -19.045  1.00  0.00     0.293 HD
ENDBRANCH  15  18
BRANCH  17  20
ATOM     20  O   UNL     1      31.867  25.912 -17.329  1.00  0.00    -0.504 OA
ATOM     21  H   UNL     1      31.804  26.829 -16.903  1.00  0.00     0.293 HD
ENDBRANCH  17  20
ENDBRANCH   1  12
BRANCH   6  22
ATOM     22  O   UNL     1      26.434  23.136  -9.591  1.00  0.00    -0.507 OA
ATOM     23  H   UNL     1      26.048  23.234  -8.660  1.00  0.00     0.293 HD
ENDBRANCH   6  22
BRANCH   8  24
ATOM     24  O   UNL     1      27.255  27.894  -9.953  1.00  0.00    -0.508 OA
ATOM     25  H   UNL     1      27.707  28.690 -10.389  1.00  0.00     0.293 HD
ENDBRANCH   8  24
TORSDOF 5
ENDMDL
MODEL 6
REMARK VINA RESULT:    -5.803      1.642      7.048
REMARK INTER + INTRA:          -7.113
REMARK INTER:                  -6.824
REMARK INTRA:                  -0.288
REMARK UNBOUND:                -0.292
REMARK SMILES O=c1cc(-c2ccc(O)c(O)c2)oc2cc(O)cc(O)c12
REMARK SMILES IDX 4 1 3 2 2 3 1 4 21 5 19 6 18 7 16 8 15 9 14 10 13 11 5 12
REMARK SMILES IDX 6 13 7 14 8 15 12 16 10 17 9 18 11 20 20 22 17 24
REMARK H PARENT 9 19 11 21 20 23 17 25
REMARK Flexibility Score: inf
ROOT
ATOM      1  C   UNL     1      28.241  23.437 -13.253  1.00  0.00     0.138 A 
ATOM      2  C   UNL     1      29.530  23.583 -13.791  1.00  0.00     0.100 A 
ATOM      3  C   UNL     1      29.860  22.919 -14.974  1.00  0.00     0.197 A 
ATOM      4  O   UNL     1      31.020  23.055 -15.449  1.00  0.00    -0.289 OA
ATOM      5  C   UNL     1      28.896  22.109 -15.608  1.00  0.00     0.107 A 
ATOM      6  C   UNL     1      29.148  21.403 -16.808  1.00  0.00     0.134 A 
ATOM      7  C   UNL     1      28.136  20.614 -17.375  1.00  0.00     0.093 A 
ATOM      8  C   UNL     1      26.881  20.517 -16.763  1.00  0.00     0.123 A 
ATOM      9  C   UNL     1      26.629  21.212 -15.579  1.00  0.00     0.094 A 
ATOM     10  C   UNL     1      27.624  22.005 -14.999  1.00  0.00     0.146 A 
ATOM     11  O   UNL     1      27.357  22.657 -13.872  1.00  0.00    -0.456 OA
ENDROOT
BRANCH   1  12
ATOM     12  C   UNL     1      27.835  24.118 -11.997  1.00  0.00     0.021 A 
ATOM     13  C   UNL     1      28.020  25.502 -11.813  1.00  0.00     0.016 A 
ATOM     14  C   UNL     1      27.619  26.119 -10.625  1.00  0.00     0.051 A 
ATOM     15  C   UNL     1      27.020  25.368  -9.606  1.00  0.00     0.157 A 
ATOM     16  C   UNL     1      27.221  23.375 -10.974  1.00  0.00     0.062 A 
ATOM     17  C   UNL     1      26.819  23.994  -9.781  1.00  0.00     0.158 A 
BRANCH  15  18
ATOM     18  O   UNL     1      26.621  25.981  -8.419  1.00  0.00    -0.504 OA
ATOM     19  H   UNL     1      26.169  26.887  -8.417  1.00  0.00     0.293 HD
ENDBRANCH  15  18
BRANCH  17  20
ATOM     20  O   UNL     1      26.220  23.249  -8.766  1.00  0.00    -0.504 OA
ATOM     21  H   UNL     1      25.798  23.695  -7.961  1.00  0.00     0.293 HD
ENDBRANCH  17  20
ENDBRANCH   1  12
BRANCH   6  22
ATOM     22  O   UNL     1      30.390  21.481 -17.441  1.00  0.00    -0.507 OA
ATOM     23  H   UNL     1      30.564  22.137 -18.194  1.00  0.00     0.293 HD
ENDBRANCH   6  22
BRANCH   8  24
ATOM     24  O   UNL     1      25.876  19.732 -17.325  1.00  0.00    -0.508 OA
ATOM     25  H   UNL     1      25.085  20.147 -17.804  1.00  0.00     0.293 HD
ENDBRANCH   8  24
TORSDOF 5
ENDMDL
MODEL 7
REMARK VINA RESULT:    -5.708      3.304      7.187
REMARK INTER + INTRA:          -7.000
REMARK INTER:                  -6.694
REMARK INTRA:                  -0.306
REMARK UNBOUND:                -0.292
REMARK SMILES O=c1cc(-c2ccc(O)c(O)c2)oc2cc(O)cc(O)c12
REMARK SMILES IDX 4 1 3 2 2 3 1 4 21 5 19 6 18 7 16 8 15 9 14 10 13 11 5 12
REMARK SMILES IDX 6 13 7 14 8 15 12 16 10 17 9 18 11 20 20 22 17 24
REMARK H PARENT 9 19 11 21 20 23 17 25
REMARK Flexibility Score: inf
ROOT
ATOM      1  C   UNL     1      29.361  23.601 -13.307  1.00  0.00     0.138 A 
ATOM      2  C   UNL     1      30.017  22.399 -13.619  1.00  0.00     0.100 A 
ATOM      3  C   UNL     1      30.871  22.350 -14.722  1.00  0.00     0.197 A 
ATOM      4  O   UNL     1      31.455  21.266 -14.996  1.00  0.00    -0.289 OA
ATOM      5  C   UNL     1      31.059  23.505 -15.508  1.00  0.00     0.107 A 
ATOM      6  C   UNL     1      31.907  23.540 -16.641  1.00  0.00     0.134 A 
ATOM      7  C   UNL     1      32.037  24.729 -17.374  1.00  0.00     0.093 A 
ATOM      8  C   UNL     1      31.335  25.880 -16.997  1.00  0.00     0.123 A 
ATOM      9  C   UNL     1      30.498  25.848 -15.880  1.00  0.00     0.094 A 
ATOM     10  C   UNL     1      30.355  24.674 -15.135  1.00  0.00     0.146 A 
ATOM     11  O   UNL     1      29.553  24.672 -14.075  1.00  0.00    -0.456 OA
ENDROOT
BRANCH   1  12
ATOM     12  C   UNL     1      28.441  23.713 -12.147  1.00  0.00     0.021 A 
ATOM     13  C   UNL     1      27.703  22.608 -11.679  1.00  0.00     0.016 A 
ATOM     14  C   UNL     1      26.851  22.739 -10.578  1.00  0.00     0.051 A 
ATOM     15  C   UNL     1      26.728  23.971  -9.923  1.00  0.00     0.157 A 
ATOM     16  C   UNL     1      28.321  24.941 -11.474  1.00  0.00     0.062 A 
ATOM     17  C   UNL     1      27.466  25.073 -10.370  1.00  0.00     0.158 A 
BRANCH  15  18
ATOM     18  O   UNL     1      25.879  24.104  -8.826  1.00  0.00    -0.504 OA
ATOM     19  H   UNL     1      25.670  23.321  -8.218  1.00  0.00     0.293 HD
ENDBRANCH  15  18
BRANCH  17  20
ATOM     20  O   UNL     1      27.344  26.297  -9.714  1.00  0.00    -0.504 OA
ATOM     21  H   UNL     1      26.813  27.062 -10.113  1.00  0.00     0.293 HD
ENDBRANCH  17  20
ENDBRANCH   1  12
BRANCH   6  22
ATOM     22  O   UNL     1      32.619  22.408 -17.041  1.00  0.00    -0.507 OA
ATOM     23  H   UNL     1      32.484  21.508 -16.595  1.00  0.00     0.293 HD
ENDBRANCH   6  22
BRANCH   8  24
ATOM     24  O   UNL     1      31.463  27.060 -17.725  1.00  0.00    -0.508 OA
ATOM     25  H   UNL     1      32.131  27.146 -18.483  1.00  0.00     0.293 HD
ENDBRANCH   8  24
TORSDOF 5
ENDMDL
MODEL 8
REMARK VINA RESULT:    -5.496      2.170      3.791
REMARK INTER + INTRA:          -6.751
REMARK INTER:                  -6.473
REMARK INTRA:                  -0.278
REMARK UNBOUND:                -0.292
REMARK SMILES O=c1cc(-c2ccc(O)c(O)c2)oc2cc(O)cc(O)c12
REMARK SMILES IDX 4 1 3 2 2 3 1 4 21 5 19 6 18 7 16 8 15 9 14 10 13 11 5 12
REMARK SMILES IDX 6 13 7 14 8 15 12 16 10 17 9 18 11 20 20 22 17 24
REMARK H PARENT 9 19 11 21 20 23 17 25
REMARK Flexibility Score: inf
ROOT
ATOM      1  C   UNL     1      29.000  23.602 -13.423  1.00  0.00     0.138 A 
ATOM      2  C   UNL     1      28.459  22.658 -12.535  1.00  0.00     0.100 A 
ATOM      3  C   UNL     1      27.782  23.095 -11.396  1.00  0.00     0.197 A 
ATOM      4  O   UNL     1      27.301  22.241 -10.604  1.00  0.00    -0.289 OA
ATOM      5  C   UNL     1      27.655  24.478 -11.151  1.00  0.00     0.107 A 
ATOM      6  C   UNL     1      26.985  25.006 -10.023  1.00  0.00     0.134 A 
ATOM      7  C   UNL     1      26.905  26.395  -9.849  1.00  0.00     0.093 A 
ATOM      8  C   UNL     1      27.484  27.265 -10.780  1.00  0.00     0.123 A 
ATOM      9  C   UNL     1      28.146  26.748 -11.895  1.00  0.00     0.094 A 
ATOM     10  C   UNL     1      28.236  25.366 -12.087  1.00  0.00     0.146 A 
ATOM     11  O   UNL     1      28.871  24.900 -13.158  1.00  0.00    -0.456 OA
ENDROOT
BRANCH   1  12
ATOM     12  C   UNL     1      29.731  23.195 -14.650  1.00  0.00     0.021 A 
ATOM     13  C   UNL     1      30.918  23.837 -15.052  1.00  0.00     0.016 A 
ATOM     14  C   UNL     1      31.591  23.426 -16.206  1.00  0.00     0.051 A 
ATOM     15  C   UNL     1      31.095  22.364 -16.973  1.00  0.00     0.157 A 
ATOM     16  C   UNL     1      29.249  22.121 -15.419  1.00  0.00     0.062 A 
ATOM     17  C   UNL     1      29.923  21.709 -16.577  1.00  0.00     0.158 A 
BRANCH  15  18
ATOM     18  O   UNL     1      31.764  21.953 -18.125  1.00  0.00    -0.504 OA
ATOM     19  H   UNL     1      31.334  21.325 -18.793  1.00  0.00     0.293 HD
ENDBRANCH  15  18
BRANCH  17  20
ATOM     20  O   UNL     1      29.434  20.650 -17.341  1.00  0.00    -0.504 OA
ATOM     21  H   UNL     1      28.442  20.455 -17.401  1.00  0.00     0.293 HD
ENDBRANCH  17  20
ENDBRANCH   1  12
BRANCH   6  22
ATOM     22  O   UNL     1      26.398  24.163  -9.076  1.00  0.00    -0.507 OA
ATOM     23  H   UNL     1      26.945  23.496  -8.545  1.00  0.00     0.293 HD
ENDBRANCH   6  22
BRANCH   8  24
ATOM     24  O   UNL     1      27.406  28.645 -10.607  1.00  0.00    -0.508 OA
ATOM     25  H   UNL     1      27.112  29.258 -11.359  1.00  0.00     0.293 HD
ENDBRANCH   8  24
TORSDOF 5
ENDMDL
MODEL 9
REMARK VINA RESULT:    -5.265      1.818      2.373
REMARK INTER + INTRA:          -6.480
REMARK INTER:                  -6.203
REMARK INTRA:                  -0.277
REMARK UNBOUND:                -0.292
REMARK SMILES O=c1cc(-c2ccc(O)c(O)c2)oc2cc(O)cc(O)c12
REMARK SMILES IDX 4 1 3 2 2 3 1 4 21 5 19 6 18 7 16 8 15 9 14 10 13 11 5 12
REMARK SMILES IDX 6 13 7 14 8 15 12 16 10 17 9 18 11 20 20 22 17 24
REMARK H PARENT 9 19 11 21 20 23 17 25
REMARK Flexibility Score: inf
ROOT
ATOM      1  C   UNL     1      28.630  23.825 -13.568  1.00  0.00     0.138 A 
ATOM      2  C   UNL     1      28.787  25.218 -13.480  1.00  0.00     0.100 A 
ATOM      3  C   UNL     1      28.327  25.890 -12.346  1.00  0.00     0.197 A 
ATOM      4  O   UNL     1      28.471  27.141 -12.276  1.00  0.00    -0.289 OA
ATOM      5  C   UNL     1      27.711  25.162 -11.308  1.00  0.00     0.107 A 
ATOM      6  C   UNL     1      27.219  25.765 -10.127  1.00  0.00     0.134 A 
ATOM      7  C   UNL     1      26.612  24.971  -9.142  1.00  0.00     0.093 A 
ATOM      8  C   UNL     1      26.488  23.588  -9.318  1.00  0.00     0.123 A 
ATOM      9  C   UNL     1      26.972  22.990 -10.483  1.00  0.00     0.094 A 
ATOM     10  C   UNL     1      27.580  23.763 -11.476  1.00  0.00     0.146 A 
ATOM     11  O   UNL     1      28.034  23.168 -12.574  1.00  0.00    -0.456 OA
ENDROOT
BRANCH   1  12
ATOM     12  C   UNL     1      29.098  23.057 -14.750  1.00  0.00     0.021 A 
ATOM     13  C   UNL     1      28.303  22.057 -15.345  1.00  0.00     0.016 A 
ATOM     14  C   UNL     1      28.765  21.357 -16.463  1.00  0.00     0.051 A 
ATOM     15  C   UNL     1      30.021  21.648 -17.010  1.00  0.00     0.157 A 
ATOM     16  C   UNL     1      30.351  23.351 -15.314  1.00  0.00     0.062 A 
ATOM     17  C   UNL     1      30.815  22.648 -16.436  1.00  0.00     0.158 A 
BRANCH  15  18
ATOM     18  O   UNL     1      30.484  20.950 -18.124  1.00  0.00    -0.504 OA
ATOM     19  H   UNL     1      30.505  21.373 -19.044  1.00  0.00     0.293 HD
ENDBRANCH  15  18
BRANCH  17  20
ATOM     20  O   UNL     1      32.063  22.937 -16.984  1.00  0.00    -0.504 OA
ATOM     21  H   UNL     1      32.163  23.233 -17.947  1.00  0.00     0.293 HD
ENDBRANCH  17  20
ENDBRANCH   1  12
BRANCH   6  22
ATOM     22  O   UNL     1      27.328  27.142  -9.923  1.00  0.00    -0.507 OA
ATOM     23  H   UNL     1      28.171  27.559  -9.546  1.00  0.00     0.293 HD
ENDBRANCH   6  22
BRANCH   8  24
ATOM     24  O   UNL     1      25.885  22.799  -8.341  1.00  0.00    -0.508 OA
ATOM     25  H   UNL     1      25.360  23.210  -7.578  1.00  0.00     0.293 HD
ENDBRANCH   8  24
TORSDOF 5
ENDMDL
