MODEL 1
REMARK VINA RESULT:    -3.240      0.000      0.000
REMARK INTER + INTRA:          -4.887
REMARK INTER:                  -4.377
REMARK INTRA:                  -0.510
REMARK UNBOUND:                -0.510
REMARK SMILES [NH3+]CCCC[C@@H]([NH3+])C(=O)[O-]
REMARK SMILES IDX 4 1 3 2 2 3 1 4 5 8 6 9 7 10 8 14 9 15 10 16
REMARK H PARENT 1 5 1 6 1 7 7 11 7 12 7 13
REMARK Flexibility Score: inf
ROOT
ATOM      1  C   UNL     1      18.944   8.826  21.941  1.00  0.00     0.012 C 
ENDROOT
BRANCH   1   2
ATOM      2  C   UNL     1      18.373   8.343  20.602  1.00  0.00     0.061 C 
BRANCH   2   3
ATOM      3  C   UNL     1      18.044   6.844  20.651  1.00  0.00     0.258 C 
BRANCH   3   4
ATOM      4  N   UNL     1      18.922   6.147  21.589  1.00  0.00    -0.358 N 
ATOM      5  H   UNL     1      19.767   6.736  21.767  1.00  0.00     0.344 HD
ATOM      6  H   UNL     1      19.225   5.231  21.185  1.00  0.00     0.344 HD
ATOM      7  H   UNL     1      18.425   5.987  22.495  1.00  0.00     0.344 HD
ENDBRANCH   3   4
ENDBRANCH   2   3
ENDBRANCH   1   2
BRANCH   1   8
ATOM      8  C   UNL     1      17.840   9.424  22.827  1.00  0.00     0.072 C 
BRANCH   8   9
ATOM      9  C   UNL     1      17.844   8.843  24.257  1.00  0.00     0.227 C 
BRANCH   9  10
ATOM     10  N   UNL     1      17.382   9.826  25.247  1.00  0.00    -0.350 N 
ATOM     11  H   UNL     1      18.035   9.867  26.064  1.00  0.00     0.345 HD
ATOM     12  H   UNL     1      16.424   9.580  25.580  1.00  0.00     0.345 HD
ATOM     13  H   UNL     1      17.328  10.775  24.807  1.00  0.00     0.345 HD
ENDBRANCH   9  10
BRANCH   9  14
ATOM     14  C   UNL     1      16.970   7.617  24.303  1.00  0.00     0.099 C 
ATOM     15  O   UNL     1      15.716   7.734  24.314  1.00  0.00    -0.544 OA
ATOM     16  O   UNL     1      17.541   6.351  24.353  1.00  0.00    -0.544 OA
ENDBRANCH   9  14
ENDBRANCH   8   9
ENDBRANCH   1   8
TORSDOF 7
ENDMDL
MODEL 2
REMARK VINA RESULT:    -3.223      4.235      6.037
REMARK INTER + INTRA:          -4.863
REMARK INTER:                  -4.317
REMARK INTRA:                  -0.546
REMARK UNBOUND:                -0.510
REMARK SMILES [NH3+]CCCC[C@@H]([NH3+])C(=O)[O-]
REMARK SMILES IDX 4 1 3 2 2 3 1 4 5 8 6 9 7 10 8 14 9 15 10 16
REMARK H PARENT 1 5 1 6 1 7 7 11 7 12 7 13
REMARK Flexibility Score: inf
ROOT
ATOM      1  C   UNL     1      18.107   4.823  20.527  1.00  0.00     0.012 C 
ENDROOT
BRANCH   1   2
ATOM      2  C   UNL     1      18.112   5.829  21.685  1.00  0.00     0.061 C 
BRANCH   2   3
ATOM      3  C   UNL     1      18.410   5.134  23.020  1.00  0.00     0.258 C 
BRANCH   3   4
ATOM      4  N   UNL     1      19.793   5.366  23.433  1.00  0.00    -0.358 N 
ATOM      5  H   UNL     1      20.242   6.033  22.764  1.00  0.00     0.344 HD
ATOM      6  H   UNL     1      20.327   4.466  23.424  1.00  0.00     0.344 HD
ATOM      7  H   UNL     1      19.817   5.783  24.392  1.00  0.00     0.344 HD
ENDBRANCH   3   4
ENDBRANCH   2   3
ENDBRANCH   1   2
BRANCH   1   8
ATOM      8  C   UNL     1      19.375   4.962  19.671  1.00  0.00     0.072 C 
BRANCH   8   9
ATOM      9  C   UNL     1      20.058   3.605  19.394  1.00  0.00     0.227 C 
BRANCH   9  10
ATOM     10  N   UNL     1      21.242   3.756  18.537  1.00  0.00    -0.350 N 
ATOM     11  H   UNL     1      21.455   4.767  18.370  1.00  0.00     0.345 HD
ATOM     12  H   UNL     1      21.087   3.279  17.620  1.00  0.00     0.345 HD
ATOM     13  H   UNL     1      22.070   3.303  18.990  1.00  0.00     0.345 HD
ENDBRANCH   9  10
BRANCH   9  14
ATOM     14  C   UNL     1      20.447   2.964  20.700  1.00  0.00     0.099 C 
ATOM     15  O   UNL     1      19.942   1.861  21.039  1.00  0.00    -0.544 OA
ATOM     16  O   UNL     1      21.348   3.594  21.550  1.00  0.00    -0.544 OA
ENDBRANCH   9  14
ENDBRANCH   8   9
ENDBRANCH   1   8
TORSDOF 7
ENDMDL
MODEL 3
REMARK VINA RESULT:    -3.191      2.179      2.538
REMARK INTER + INTRA:          -4.820
REMARK INTER:                  -4.308
REMARK INTRA:                  -0.512
REMARK UNBOUND:                -0.510
REMARK SMILES [NH3+]CCCC[C@@H]([NH3+])C(=O)[O-]
REMARK SMILES IDX 4 1 3 2 2 3 1 4 5 8 6 9 7 10 8 14 9 15 10 16
REMARK H PARENT 1 5 1 6 1 7 7 11 7 12 7 13
REMARK Flexibility Score: inf
ROOT
ATOM      1  C   UNL     1      18.219   7.717  22.040  1.00  0.00     0.012 C 
ENDROOT
BRANCH   1   2
ATOM      2  C   UNL     1      17.158   8.537  21.296  1.00  0.00     0.061 C 
BRANCH   2   3
ATOM      3  C   UNL     1      15.778   7.873  21.394  1.00  0.00     0.258 C 
BRANCH   3   4
ATOM      4  N   UNL     1      14.842   8.721  22.131  1.00  0.00    -0.358 N 
ATOM      5  H   UNL     1      14.418   8.165  22.908  1.00  0.00     0.344 HD
ATOM      6  H   UNL     1      14.079   9.052  21.495  1.00  0.00     0.344 HD
ATOM      7  H   UNL     1      15.345   9.543  22.539  1.00  0.00     0.344 HD
ENDBRANCH   3   4
ENDBRANCH   2   3
ENDBRANCH   1   2
BRANCH   1   8
ATOM      8  C   UNL     1      18.279   8.110  23.524  1.00  0.00     0.072 C 
BRANCH   8   9
ATOM      9  C   UNL     1      17.700   7.020  24.453  1.00  0.00     0.227 C 
BRANCH   9  10
ATOM     10  N   UNL     1      18.652   6.638  25.505  1.00  0.00    -0.350 N 
ATOM     11  H   UNL     1      19.637   6.700  25.156  1.00  0.00     0.345 HD
ATOM     12  H   UNL     1      18.460   5.664  25.829  1.00  0.00     0.345 HD
ATOM     13  H   UNL     1      18.543   7.272  26.330  1.00  0.00     0.345 HD
ENDBRANCH   9  10
BRANCH   9  14
ATOM     14  C   UNL     1      16.420   7.517  25.072  1.00  0.00     0.099 C 
ATOM     15  O   UNL     1      15.697   6.735  25.744  1.00  0.00    -0.544 OA
ATOM     16  O   UNL     1      16.018   8.835  24.888  1.00  0.00    -0.544 OA
ENDBRANCH   9  14
ENDBRANCH   8   9
ENDBRANCH   1   8
TORSDOF 7
ENDMDL
MODEL 4
REMARK VINA RESULT:    -3.188      1.918      3.491
REMARK INTER + INTRA:          -4.816
REMARK INTER:                  -4.236
REMARK INTRA:                  -0.580
REMARK UNBOUND:                -0.510
REMARK SMILES [NH3+]CCCC[C@@H]([NH3+])C(=O)[O-]
REMARK SMILES IDX 4 1 3 2 2 3 1 4 5 8 6 9 7 10 8 14 9 15 10 16
REMARK H PARENT 1 5 1 6 1 7 7 11 7 12 7 13
REMARK Flexibility Score: inf
ROOT
ATOM      1  C   UNL     1      17.853   8.986  22.721  1.00  0.00     0.012 C 
ENDROOT
BRANCH   1   2
ATOM      2  C   UNL     1      17.952   8.767  24.235  1.00  0.00     0.061 C 
BRANCH   2   3
ATOM      3  C   UNL     1      19.068   7.770  24.577  1.00  0.00     0.258 C 
BRANCH   3   4
ATOM      4  N   UNL     1      18.562   6.689  25.421  1.00  0.00    -0.358 N 
ATOM      5  H   UNL     1      18.149   5.946  24.812  1.00  0.00     0.344 HD
ATOM      6  H   UNL     1      17.820   7.051  26.064  1.00  0.00     0.344 HD
ATOM      7  H   UNL     1      19.342   6.272  25.979  1.00  0.00     0.344 HD
ENDBRANCH   3   4
ENDBRANCH   2   3
ENDBRANCH   1   2
BRANCH   1   8
ATOM      8  C   UNL     1      16.738   8.122  22.111  1.00  0.00     0.072 C 
BRANCH   8   9
ATOM      9  C   UNL     1      17.285   6.890  21.357  1.00  0.00     0.227 C 
BRANCH   9  10
ATOM     10  N   UNL     1      18.699   7.056  20.996  1.00  0.00    -0.350 N 
ATOM     11  H   UNL     1      19.320   6.600  21.705  1.00  0.00     0.345 HD
ATOM     12  H   UNL     1      18.938   8.070  20.928  1.00  0.00     0.345 HD
ATOM     13  H   UNL     1      18.880   6.626  20.059  1.00  0.00     0.345 HD
ENDBRANCH   9  10
BRANCH   9  14
ATOM     14  C   UNL     1      17.111   5.662  22.210  1.00  0.00     0.099 C 
ATOM     15  O   UNL     1      17.615   4.565  21.852  1.00  0.00    -0.544 OA
ATOM     16  O   UNL     1      16.376   5.725  23.388  1.00  0.00    -0.544 OA
ENDBRANCH   9  14
ENDBRANCH   8   9
ENDBRANCH   1   8
TORSDOF 7
ENDMDL
MODEL 5
REMARK VINA RESULT:    -3.173      1.874      2.384
REMARK INTER + INTRA:          -4.796
REMARK INTER:                  -4.220
REMARK INTRA:                  -0.575
REMARK UNBOUND:                -0.510
REMARK SMILES [NH3+]CCCC[C@@H]([NH3+])C(=O)[O-]
REMARK SMILES IDX 4 1 3 2 2 3 1 4 5 8 6 9 7 10 8 14 9 15 10 16
REMARK H PARENT 1 5 1 6 1 7 7 11 7 12 7 13
REMARK Flexibility Score: inf
ROOT
ATOM      1  C   UNL     1      18.356   6.337  22.526  1.00  0.00     0.012 C 
ENDROOT
BRANCH   1   2
ATOM      2  C   UNL     1      17.827   7.029  21.263  1.00  0.00     0.061 C 
BRANCH   2   3
ATOM      3  C   UNL     1      18.513   8.385  21.047  1.00  0.00     0.258 C 
BRANCH   3   4
ATOM      4  N   UNL     1      19.400   8.706  22.165  1.00  0.00    -0.358 N 
ATOM      5  H   UNL     1      18.959   8.377  23.055  1.00  0.00     0.344 HD
ATOM      6  H   UNL     1      19.547   9.740  22.222  1.00  0.00     0.344 HD
ATOM      7  H   UNL     1      20.319   8.222  22.046  1.00  0.00     0.344 HD
ENDBRANCH   3   4
ENDBRANCH   2   3
ENDBRANCH   1   2
BRANCH   1   8
ATOM      8  C   UNL     1      17.209   5.991  23.486  1.00  0.00     0.072 C 
BRANCH   8   9
ATOM      9  C   UNL     1      17.297   6.760  24.822  1.00  0.00     0.227 C 
BRANCH   9  10
ATOM     10  N   UNL     1      18.675   6.812  25.331  1.00  0.00    -0.350 N 
ATOM     11  H   UNL     1      19.327   7.185  24.602  1.00  0.00     0.345 HD
ATOM     12  H   UNL     1      18.988   5.859  25.621  1.00  0.00     0.345 HD
ATOM     13  H   UNL     1      18.719   7.428  26.176  1.00  0.00     0.345 HD
ENDBRANCH   9  10
BRANCH   9  14
ATOM     14  C   UNL     1      16.765   8.156  24.632  1.00  0.00     0.099 C 
ATOM     15  O   UNL     1      15.531   8.348  24.472  1.00  0.00    -0.544 OA
ATOM     16  O   UNL     1      17.635   9.241  24.612  1.00  0.00    -0.544 OA
ENDBRANCH   9  14
ENDBRANCH   8   9
ENDBRANCH   1   8
TORSDOF 7
ENDMDL
MODEL 6
REMARK VINA RESULT:    -3.169      2.592      4.425
REMARK INTER + INTRA:          -4.790
REMARK INTER:                  -4.312
REMARK INTRA:                  -0.478
REMARK UNBOUND:                -0.510
REMARK SMILES [NH3+]CCCC[C@@H]([NH3+])C(=O)[O-]
REMARK SMILES IDX 4 1 3 2 2 3 1 4 5 8 6 9 7 10 8 14 9 15 10 16
REMARK H PARENT 1 5 1 6 1 7 7 11 7 12 7 13
REMARK Flexibility Score: inf
ROOT
ATOM      1  C   UNL     1      18.229   8.610  20.423  1.00  0.00     0.012 C 
ENDROOT
BRANCH   1   2
ATOM      2  C   UNL     1      19.036   8.994  21.669  1.00  0.00     0.061 C 
BRANCH   2   3
ATOM      3  C   UNL     1      18.556   8.216  22.901  1.00  0.00     0.258 C 
BRANCH   3   4
ATOM      4  N   UNL     1      19.626   7.379  23.441  1.00  0.00    -0.358 N 
ATOM      5  H   UNL     1      20.142   7.916  24.176  1.00  0.00     0.344 HD
ATOM      6  H   UNL     1      20.296   7.116  22.681  1.00  0.00     0.344 HD
ATOM      7  H   UNL     1      19.225   6.516  23.874  1.00  0.00     0.344 HD
ENDBRANCH   3   4
ENDBRANCH   2   3
ENDBRANCH   1   2
BRANCH   1   8
ATOM      8  C   UNL     1      17.346   7.383  20.696  1.00  0.00     0.072 C 
BRANCH   8   9
ATOM      9  C   UNL     1      17.558   6.254  19.664  1.00  0.00     0.227 C 
BRANCH   9  10
ATOM     10  N   UNL     1      17.893   6.787  18.336  1.00  0.00    -0.350 N 
ATOM     11  H   UNL     1      18.917   6.991  18.264  1.00  0.00     0.345 HD
ATOM     12  H   UNL     1      17.352   7.661  18.150  1.00  0.00     0.345 HD
ATOM     13  H   UNL     1      17.632   6.093  17.598  1.00  0.00     0.345 HD
ENDBRANCH   9  10
BRANCH   9  14
ATOM     14  C   UNL     1      18.653   5.337  20.142  1.00  0.00     0.099 C 
ATOM     15  O   UNL     1      19.429   4.792  19.314  1.00  0.00    -0.544 OA
ATOM     16  O   UNL     1      18.801   5.071  21.498  1.00  0.00    -0.544 OA
ENDBRANCH   9  14
ENDBRANCH   8   9
ENDBRANCH   1   8
TORSDOF 7
ENDMDL
MODEL 7
REMARK VINA RESULT:    -3.162      2.051      2.555
REMARK INTER + INTRA:          -4.781
REMARK INTER:                  -4.196
REMARK INTRA:                  -0.585
REMARK UNBOUND:                -0.510
REMARK SMILES [NH3+]CCCC[C@@H]([NH3+])C(=O)[O-]
REMARK SMILES IDX 4 1 3 2 2 3 1 4 5 8 6 9 7 10 8 14 9 15 10 16
REMARK H PARENT 1 5 1 6 1 7 7 11 7 12 7 13
REMARK Flexibility Score: inf
ROOT
ATOM      1  C   UNL     1      17.810   9.179  22.606  1.00  0.00     0.012 C 
ENDROOT
BRANCH   1   2
ATOM      2  C   UNL     1      16.891   8.608  21.520  1.00  0.00     0.061 C 
BRANCH   2   3
ATOM      3  C   UNL     1      15.526   8.216  22.101  1.00  0.00     0.258 C 
BRANCH   3   4
ATOM      4  N   UNL     1      15.422   8.613  23.504  1.00  0.00    -0.358 N 
ATOM      5  H   UNL     1      16.335   9.019  23.812  1.00  0.00     0.344 HD
ATOM      6  H   UNL     1      15.205   7.779  24.098  1.00  0.00     0.344 HD
ATOM      7  H   UNL     1      14.675   9.335  23.620  1.00  0.00     0.344 HD
ENDBRANCH   3   4
ENDBRANCH   2   3
ENDBRANCH   1   2
BRANCH   1   8
ATOM      8  C   UNL     1      19.077   8.323  22.763  1.00  0.00     0.072 C 
BRANCH   8   9
ATOM      9  C   UNL     1      19.111   7.549  24.099  1.00  0.00     0.227 C 
BRANCH   9  10
ATOM     10  N   UNL     1      18.693   8.392  25.228  1.00  0.00    -0.350 N 
ATOM     11  H   UNL     1      19.117   8.054  26.122  1.00  0.00     0.345 HD
ATOM     12  H   UNL     1      17.652   8.389  25.315  1.00  0.00     0.345 HD
ATOM     13  H   UNL     1      18.991   9.382  25.062  1.00  0.00     0.345 HD
ENDBRANCH   9  10
BRANCH   9  14
ATOM     14  C   UNL     1      18.218   6.341  24.001  1.00  0.00     0.099 C 
ATOM     15  O   UNL     1      18.518   5.393  23.228  1.00  0.00    -0.544 OA
ATOM     16  O   UNL     1      17.047   6.272  24.747  1.00  0.00    -0.544 OA
ENDBRANCH   9  14
ENDBRANCH   8   9
ENDBRANCH   1   8
TORSDOF 7
ENDMDL
MODEL 8
REMARK VINA RESULT:    -3.134      2.423      3.031
REMARK INTER + INTRA:          -4.743
REMARK INTER:                  -4.304
REMARK INTRA:                  -0.439
REMARK UNBOUND:                -0.510
REMARK SMILES [NH3+]CCCC[C@@H]([NH3+])C(=O)[O-]
REMARK SMILES IDX 4 1 3 2 2 3 1 4 5 8 6 9 7 10 8 14 9 15 10 16
REMARK H PARENT 1 5 1 6 1 7 7 11 7 12 7 13
REMARK Flexibility Score: inf
ROOT
ATOM      1  C   UNL     1      18.327   8.641  22.309  1.00  0.00     0.012 C 
ENDROOT
BRANCH   1   2
ATOM      2  C   UNL     1      18.301   8.660  23.842  1.00  0.00     0.061 C 
BRANCH   2   3
ATOM      3  C   UNL     1      19.243   7.598  24.424  1.00  0.00     0.258 C 
BRANCH   3   4
ATOM      4  N   UNL     1      18.539   6.740  25.377  1.00  0.00    -0.358 N 
ATOM      5  H   UNL     1      17.514   6.773  25.172  1.00  0.00     0.344 HD
ATOM      6  H   UNL     1      18.700   7.079  26.353  1.00  0.00     0.344 HD
ATOM      7  H   UNL     1      18.870   5.753  25.284  1.00  0.00     0.344 HD
ENDBRANCH   3   4
ENDBRANCH   2   3
ENDBRANCH   1   2
BRANCH   1   8
ATOM      8  C   UNL     1      16.902   8.653  21.733  1.00  0.00     0.072 C 
BRANCH   8   9
ATOM      9  C   UNL     1      15.855   8.103  22.725  1.00  0.00     0.227 C 
BRANCH   9  10
ATOM     10  N   UNL     1      14.528   8.694  22.500  1.00  0.00    -0.350 N 
ATOM     11  H   UNL     1      14.487   9.174  21.571  1.00  0.00     0.345 HD
ATOM     12  H   UNL     1      14.305   9.380  23.255  1.00  0.00     0.345 HD
ATOM     13  H   UNL     1      13.796   7.946  22.529  1.00  0.00     0.345 HD
ENDBRANCH   9  10
BRANCH   9  14
ATOM     14  C   UNL     1      15.780   6.605  22.596  1.00  0.00     0.099 C 
ATOM     15  O   UNL     1      16.121   5.868  23.559  1.00  0.00    -0.544 OA
ATOM     16  O   UNL     1      15.355   6.025  21.407  1.00  0.00    -0.544 OA
ENDBRANCH   9  14
ENDBRANCH   8   9
ENDBRANCH   1   8
TORSDOF 7
ENDMDL
MODEL 9
REMARK VINA RESULT:    -3.077      2.514      3.653
REMARK INTER + INTRA:          -4.666
REMARK INTER:                  -4.151
REMARK INTRA:                  -0.515
REMARK UNBOUND:                -0.510
REMARK SMILES [NH3+]CCCC[C@@H]([NH3+])C(=O)[O-]
REMARK SMILES IDX 4 1 3 2 2 3 1 4 5 8 6 9 7 10 8 14 9 15 10 16
REMARK H PARENT 1 5 1 6 1 7 7 11 7 12 7 13
REMARK Flexibility Score: inf
ROOT
ATOM      1  C   UNL     1      16.137   8.104  25.284  1.00  0.00     0.012 C 
ENDROOT
BRANCH   1   2
ATOM      2  C   UNL     1      14.868   8.641  24.611  1.00  0.00     0.061 C 
BRANCH   2   3
ATOM      3  C   UNL     1      14.581   7.897  23.299  1.00  0.00     0.258 C 
BRANCH   3   4
ATOM      4  N   UNL     1      14.888   8.739  22.144  1.00  0.00    -0.358 N 
ATOM      5  H   UNL     1      14.100   8.680  21.459  1.00  0.00     0.344 HD
ATOM      6  H   UNL     1      15.766   8.407  21.680  1.00  0.00     0.344 HD
ATOM      7  H   UNL     1      15.001   9.734  22.444  1.00  0.00     0.344 HD
ENDBRANCH   3   4
ENDBRANCH   2   3
ENDBRANCH   1   2
BRANCH   1   8
ATOM      8  C   UNL     1      17.388   8.822  24.753  1.00  0.00     0.072 C 
BRANCH   8   9
ATOM      9  C   UNL     1      18.535   7.845  24.412  1.00  0.00     0.227 C 
BRANCH   9  10
ATOM     10  N   UNL     1      18.636   6.759  25.396  1.00  0.00    -0.350 N 
ATOM     11  H   UNL     1      18.489   7.121  26.367  1.00  0.00     0.345 HD
ATOM     12  H   UNL     1      19.574   6.303  25.334  1.00  0.00     0.345 HD
ATOM     13  H   UNL     1      17.916   6.027  25.193  1.00  0.00     0.345 HD
ENDBRANCH   9  10
BRANCH   9  14
ATOM     14  C   UNL     1      18.314   7.275  23.036  1.00  0.00     0.099 C 
ATOM     15  O   UNL     1      18.533   6.055  22.813  1.00  0.00    -0.544 OA
ATOM     16  O   UNL     1      17.888   8.095  21.998  1.00  0.00    -0.544 OA
ENDBRANCH   9  14
ENDBRANCH   8   9
ENDBRANCH   1   8
TORSDOF 7
ENDMDL
