MODEL 1
REMARK VINA RESULT:    -3.035      0.000      0.000
REMARK INTER + INTRA:          -3.329
REMARK INTER:                  -3.301
REMARK INTRA:                  -0.028
REMARK UNBOUND:                -0.028
REMARK SMILES CC(=O)[C@@H]1CC[C@@H]2[C@@H]3CC=C4C[C@H](O)CC[C@@]4(C)[C@@H]3CC[C@@]21C
REMARK SMILES IDX 4 1 5 2 6 3 7 4 22 5 21 6 20 7 19 8 8 9 9 10 10 11 11 12
REMARK SMILES IDX 17 13 16 14 15 15 13 16 12 17 18 18 23 19 2 20 1 21 3 22
REMARK SMILES IDX 14 23
REMARK H PARENT 14 24
REMARK Flexibility Score: inf
ROOT
ATOM      1  C   UNL     1      30.367  57.291   8.912  1.00  0.00     0.062 C 
ATOM      2  C   UNL     1      30.963  55.927   9.273  1.00  0.00     0.012 C 
ATOM      3  C   UNL     1      30.959  55.878  10.786  1.00  0.00     0.005 C 
ATOM      4  C   UNL     1      31.294  57.307  11.221  1.00  0.00    -0.001 C 
ATOM      5  C   UNL     1      30.731  58.250  10.109  1.00  0.00    -0.020 C 
ATOM      6  C   UNL     1      29.530  59.083  10.636  1.00  0.00     0.008 C 
ATOM      7  C   UNL     1      29.796  59.830  11.963  1.00  0.00     0.005 C 
ATOM      8  C   UNL     1      30.878  59.193  12.893  1.00  0.00     0.003 C 
ATOM      9  C   UNL     1      30.920  57.660  12.700  1.00  0.00     0.000 C 
ATOM     10  C   UNL     1      29.626  57.024  13.252  1.00  0.00     0.031 C 
ATOM     11  C   UNL     1      29.292  57.520  14.633  1.00  0.00    -0.027 C 
ATOM     12  C   UNL     1      29.735  58.689  15.150  1.00  0.00    -0.065 C 
ATOM     13  C   UNL     1      30.732  59.591  14.417  1.00  0.00    -0.008 C 
ATOM     14  C   UNL     1      32.107  59.433  15.146  1.00  0.00     0.014 C 
ATOM     15  C   UNL     1      32.026  59.596  16.683  1.00  0.00     0.033 C 
ATOM     16  C   UNL     1      30.940  58.705  17.315  1.00  0.00     0.118 C 
ATOM     17  C   UNL     1      29.576  58.921  16.636  1.00  0.00     0.063 C 
ATOM     18  C   UNL     1      30.293  61.082  14.532  1.00  0.00     0.016 C 
ATOM     19  C   UNL     1      31.828  59.232   9.611  1.00  0.00     0.012 C 
ENDROOT
BRANCH   1  20
ATOM     20  C   UNL     1      28.882  57.172   8.593  1.00  0.00     0.133 C 
ATOM     21  C   UNL     1      28.068  56.035   9.136  1.00  0.00     0.088 C 
ATOM     22  O   UNL     1      28.335  57.999   7.879  1.00  0.00    -0.300 OA
ENDBRANCH   1  20
BRANCH  16  23
ATOM     23  O   UNL     1      30.843  59.002  18.684  1.00  0.00    -0.393 OA
ATOM     24  H   UNL     1      29.901  58.829  18.948  1.00  0.00     0.210 HD
ENDBRANCH  16  23
TORSDOF 2
ENDMDL
MODEL 2
REMARK VINA RESULT:    -2.691      1.368      6.778
REMARK INTER + INTRA:          -2.955
REMARK INTER:                  -2.879
REMARK INTRA:                  -0.076
REMARK UNBOUND:                -0.028
REMARK SMILES CC(=O)[C@@H]1CC[C@@H]2[C@@H]3CC=C4C[C@H](O)CC[C@@]4(C)[C@@H]3CC[C@@]21C
REMARK SMILES IDX 4 1 5 2 6 3 7 4 22 5 21 6 20 7 19 8 8 9 9 10 10 11 11 12
REMARK SMILES IDX 17 13 16 14 15 15 13 16 12 17 18 18 23 19 2 20 1 21 3 22
REMARK SMILES IDX 14 23
REMARK H PARENT 14 24
REMARK Flexibility Score: inf
ROOT
ATOM      1  C   UNL     1      29.973  58.765  17.422  1.00  0.00     0.062 C 
ATOM      2  C   UNL     1      29.145  57.489  17.610  1.00  0.00     0.012 C 
ATOM      3  C   UNL     1      29.203  56.777  16.275  1.00  0.00     0.005 C 
ATOM      4  C   UNL     1      29.162  57.900  15.236  1.00  0.00    -0.001 C 
ATOM      5  C   UNL     1      29.846  59.139  15.897  1.00  0.00    -0.020 C 
ATOM      6  C   UNL     1      31.204  59.461  15.212  1.00  0.00     0.008 C 
ATOM      7  C   UNL     1      31.138  59.577  13.672  1.00  0.00     0.005 C 
ATOM      8  C   UNL     1      29.994  58.766  12.981  1.00  0.00     0.003 C 
ATOM      9  C   UNL     1      29.656  57.503  13.803  1.00  0.00     0.000 C 
ATOM     10  C   UNL     1      30.828  56.500  13.735  1.00  0.00     0.031 C 
ATOM     11  C   UNL     1      31.306  56.278  12.325  1.00  0.00    -0.027 C 
ATOM     12  C   UNL     1      31.113  57.151  11.309  1.00  0.00    -0.065 C 
ATOM     13  C   UNL     1      30.276  58.424  11.462  1.00  0.00    -0.008 C 
ATOM     14  C   UNL     1      28.926  58.171  10.712  1.00  0.00     0.014 C 
ATOM     15  C   UNL     1      29.099  57.624   9.274  1.00  0.00     0.033 C 
ATOM     16  C   UNL     1      30.023  56.393   9.218  1.00  0.00     0.118 C 
ATOM     17  C   UNL     1      31.374  56.676   9.898  1.00  0.00     0.063 C 
ATOM     18  C   UNL     1      30.992  59.625  10.776  1.00  0.00     0.016 C 
ATOM     19  C   UNL     1      28.935  60.394  15.792  1.00  0.00     0.012 C 
ENDROOT
BRANCH   1  20
ATOM     20  C   UNL     1      31.394  58.574  17.937  1.00  0.00     0.133 C 
ATOM     21  C   UNL     1      32.125  59.696  18.613  1.00  0.00     0.088 C 
ATOM     22  O   UNL     1      31.964  57.502  17.795  1.00  0.00    -0.300 OA
ENDBRANCH   1  20
BRANCH  16  23
ATOM     23  O   UNL     1      30.229  56.036   7.876  1.00  0.00    -0.393 OA
ATOM     24  H   UNL     1      29.505  56.469   7.351  1.00  0.00     0.210 HD
ENDBRANCH  16  23
TORSDOF 2
ENDMDL
MODEL 3
REMARK VINA RESULT:    -2.682      1.544      3.093
REMARK INTER + INTRA:          -2.945
REMARK INTER:                  -2.881
REMARK INTRA:                  -0.063
REMARK UNBOUND:                -0.028
REMARK SMILES CC(=O)[C@@H]1CC[C@@H]2[C@@H]3CC=C4C[C@H](O)CC[C@@]4(C)[C@@H]3CC[C@@]21C
REMARK SMILES IDX 4 1 5 2 6 3 7 4 22 5 21 6 20 7 19 8 8 9 9 10 10 11 11 12
REMARK SMILES IDX 17 13 16 14 15 15 13 16 12 17 18 18 23 19 2 20 1 21 3 22
REMARK SMILES IDX 14 23
REMARK H PARENT 14 24
REMARK Flexibility Score: inf
ROOT
ATOM      1  C   UNL     1      29.869  57.502   9.619  1.00  0.00     0.062 C 
ATOM      2  C   UNL     1      29.216  58.888   9.593  1.00  0.00     0.012 C 
ATOM      3  C   UNL     1      29.429  59.455  10.981  1.00  0.00     0.005 C 
ATOM      4  C   UNL     1      29.282  58.254  11.917  1.00  0.00    -0.001 C 
ATOM      5  C   UNL     1      29.760  57.003  11.110  1.00  0.00    -0.020 C 
ATOM      6  C   UNL     1      31.090  56.441  11.685  1.00  0.00     0.008 C 
ATOM      7  C   UNL     1      31.078  56.188  13.210  1.00  0.00     0.005 C 
ATOM      8  C   UNL     1      30.087  57.073  14.034  1.00  0.00     0.003 C 
ATOM      9  C   UNL     1      29.889  58.443  13.348  1.00  0.00     0.000 C 
ATOM     10  C   UNL     1      31.189  59.271  13.439  1.00  0.00     0.031 C 
ATOM     11  C   UNL     1      31.755  59.292  14.833  1.00  0.00    -0.027 C 
ATOM     12  C   UNL     1      31.490  58.359  15.776  1.00  0.00    -0.065 C 
ATOM     13  C   UNL     1      30.480  57.228  15.559  1.00  0.00    -0.008 C 
ATOM     14  C   UNL     1      29.213  57.584  16.405  1.00  0.00     0.014 C 
ATOM     15  C   UNL     1      29.523  57.963  17.873  1.00  0.00     0.033 C 
ATOM     16  C   UNL     1      30.608  59.051  17.985  1.00  0.00     0.118 C 
ATOM     17  C   UNL     1      31.876  58.658  17.207  1.00  0.00     0.063 C 
ATOM     18  C   UNL     1      31.056  55.883  16.094  1.00  0.00     0.016 C 
ATOM     19  C   UNL     1      28.691  55.876  11.155  1.00  0.00     0.012 C 
ENDROOT
BRANCH   1  20
ATOM     20  C   UNL     1      31.278  57.552   9.044  1.00  0.00     0.133 C 
ATOM     21  C   UNL     1      31.866  56.362   8.345  1.00  0.00     0.088 C 
ATOM     22  O   UNL     1      31.955  58.563   9.154  1.00  0.00    -0.300 OA
ENDBRANCH   1  20
BRANCH  16  23
ATOM     23  O   UNL     1      30.921  59.247  19.340  1.00  0.00    -0.393 OA
ATOM     24  H   UNL     1      30.393  60.031  19.645  1.00  0.00     0.210 HD
ENDBRANCH  16  23
TORSDOF 2
ENDMDL
MODEL 4
REMARK VINA RESULT:    -2.618      2.575      3.551
REMARK INTER + INTRA:          -2.875
REMARK INTER:                  -2.811
REMARK INTRA:                  -0.064
REMARK UNBOUND:                -0.028
REMARK SMILES CC(=O)[C@@H]1CC[C@@H]2[C@@H]3CC=C4C[C@H](O)CC[C@@]4(C)[C@@H]3CC[C@@]21C
REMARK SMILES IDX 4 1 5 2 6 3 7 4 22 5 21 6 20 7 19 8 8 9 9 10 10 11 11 12
REMARK SMILES IDX 17 13 16 14 15 15 13 16 12 17 18 18 23 19 2 20 1 21 3 22
REMARK SMILES IDX 14 23
REMARK H PARENT 14 24
REMARK Flexibility Score: inf
ROOT
ATOM      1  C   UNL     1      30.454  56.480  10.665  1.00  0.00     0.062 C 
ATOM      2  C   UNL     1      31.059  55.963  11.974  1.00  0.00     0.012 C 
ATOM      3  C   UNL     1      31.043  57.148  12.916  1.00  0.00     0.005 C 
ATOM      4  C   UNL     1      31.362  58.353  12.028  1.00  0.00    -0.001 C 
ATOM      5  C   UNL     1      30.800  58.017  10.609  1.00  0.00    -0.020 C 
ATOM      6  C   UNL     1      29.587  58.923  10.257  1.00  0.00     0.008 C 
ATOM      7  C   UNL     1      29.836  60.437  10.449  1.00  0.00     0.005 C 
ATOM      8  C   UNL     1      30.916  60.815  11.513  1.00  0.00     0.003 C 
ATOM      9  C   UNL     1      30.973  59.747  12.627  1.00  0.00     0.000 C 
ATOM     10  C   UNL     1      29.681  59.795  13.470  1.00  0.00     0.031 C 
ATOM     11  C   UNL     1      29.330  61.195  13.898  1.00  0.00    -0.027 C 
ATOM     12  C   UNL     1      29.760  62.313  13.267  1.00  0.00    -0.065 C 
ATOM     13  C   UNL     1      30.754  62.275  12.103  1.00  0.00    -0.008 C 
ATOM     14  C   UNL     1      32.124  62.781  12.662  1.00  0.00     0.014 C 
ATOM     15  C   UNL     1      32.030  64.111  13.448  1.00  0.00     0.033 C 
ATOM     16  C   UNL     1      30.946  64.074  14.543  1.00  0.00     0.118 C 
ATOM     17  C   UNL     1      29.586  63.641  13.967  1.00  0.00     0.063 C 
ATOM     18  C   UNL     1      30.301  63.251  10.976  1.00  0.00     0.016 C 
ATOM     19  C   UNL     1      31.892  58.216   9.521  1.00  0.00     0.012 C 
ENDROOT
BRANCH   1  20
ATOM     20  C   UNL     1      28.973  56.136  10.574  1.00  0.00     0.133 C 
ATOM     21  C   UNL     1      28.323  55.877   9.247  1.00  0.00     0.088 C 
ATOM     22  O   UNL     1      28.290  56.076  11.586  1.00  0.00    -0.300 OA
ENDBRANCH   1  20
BRANCH  16  23
ATOM     23  O   UNL     1      30.836  65.348  15.121  1.00  0.00    -0.393 OA
ATOM     24  H   UNL     1      30.054  65.318  15.733  1.00  0.00     0.210 HD
ENDBRANCH  16  23
TORSDOF 2
ENDMDL
MODEL 5
REMARK VINA RESULT:    -2.565      1.529      2.683
REMARK INTER + INTRA:          -2.817
REMARK INTER:                  -2.755
REMARK INTRA:                  -0.062
REMARK UNBOUND:                -0.028
REMARK SMILES CC(=O)[C@@H]1CC[C@@H]2[C@@H]3CC=C4C[C@H](O)CC[C@@]4(C)[C@@H]3CC[C@@]21C
REMARK SMILES IDX 4 1 5 2 6 3 7 4 22 5 21 6 20 7 19 8 8 9 9 10 10 11 11 12
REMARK SMILES IDX 17 13 16 14 15 15 13 16 12 17 18 18 23 19 2 20 1 21 3 22
REMARK SMILES IDX 14 23
REMARK H PARENT 14 24
REMARK Flexibility Score: inf
ROOT
ATOM      1  C   UNL     1      29.289  58.606   9.173  1.00  0.00     0.062 C 
ATOM      2  C   UNL     1      30.614  59.371   9.090  1.00  0.00     0.012 C 
ATOM      3  C   UNL     1      31.338  59.055  10.381  1.00  0.00     0.005 C 
ATOM      4  C   UNL     1      30.235  58.999  11.440  1.00  0.00    -0.001 C 
ATOM      5  C   UNL     1      28.944  58.510  10.707  1.00  0.00    -0.020 C 
ATOM      6  C   UNL     1      28.541  57.083  11.174  1.00  0.00     0.008 C 
ATOM      7  C   UNL     1      28.451  56.908  12.708  1.00  0.00     0.005 C 
ATOM      8  C   UNL     1      29.344  57.872  13.553  1.00  0.00     0.003 C 
ATOM      9  C   UNL     1      30.616  58.257  12.765  1.00  0.00     0.000 C 
ATOM     10  C   UNL     1      31.540  57.028  12.623  1.00  0.00     0.031 C 
ATOM     11  C   UNL     1      31.749  56.317  13.932  1.00  0.00    -0.027 C 
ATOM     12  C   UNL     1      30.904  56.399  14.986  1.00  0.00    -0.065 C 
ATOM     13  C   UNL     1      29.687  57.329  14.999  1.00  0.00    -0.008 C 
ATOM     14  C   UNL     1      30.039  58.521  15.949  1.00  0.00     0.014 C 
ATOM     15  C   UNL     1      30.592  58.085  17.327  1.00  0.00     0.033 C 
ATOM     16  C   UNL     1      31.760  57.088  17.206  1.00  0.00     0.118 C 
ATOM     17  C   UNL     1      31.379  55.885  16.326  1.00  0.00     0.063 C 
ATOM     18  C   UNL     1      28.450  56.589  15.590  1.00  0.00     0.016 C 
ATOM     19  C   UNL     1      27.754  59.470  10.985  1.00  0.00     0.012 C 
ENDROOT
BRANCH   1  20
ATOM     20  C   UNL     1      29.378  57.277   8.434  1.00  0.00     0.133 C 
ATOM     21  C   UNL     1      30.671  56.519   8.367  1.00  0.00     0.088 C 
ATOM     22  O   UNL     1      28.395  56.814   7.875  1.00  0.00    -0.300 OA
ENDBRANCH   1  20
BRANCH  16  23
ATOM     23  O   UNL     1      32.119  56.647  18.489  1.00  0.00    -0.393 OA
ATOM     24  H   UNL     1      31.836  55.696  18.554  1.00  0.00     0.210 HD
ENDBRANCH  16  23
TORSDOF 2
ENDMDL
MODEL 6
REMARK VINA RESULT:    -2.481      1.685      6.728
REMARK INTER + INTRA:          -2.726
REMARK INTER:                  -2.657
REMARK INTRA:                  -0.070
REMARK UNBOUND:                -0.028
REMARK SMILES CC(=O)[C@@H]1CC[C@@H]2[C@@H]3CC=C4C[C@H](O)CC[C@@]4(C)[C@@H]3CC[C@@]21C
REMARK SMILES IDX 4 1 5 2 6 3 7 4 22 5 21 6 20 7 19 8 8 9 9 10 10 11 11 12
REMARK SMILES IDX 17 13 16 14 15 15 13 16 12 17 18 18 23 19 2 20 1 21 3 22
REMARK SMILES IDX 14 23
REMARK H PARENT 14 24
REMARK Flexibility Score: inf
ROOT
ATOM      1  C   UNL     1      29.562  59.539  17.165  1.00  0.00     0.062 C 
ATOM      2  C   UNL     1      31.073  59.734  17.332  1.00  0.00     0.012 C 
ATOM      3  C   UNL     1      31.652  59.563  15.943  1.00  0.00     0.005 C 
ATOM      4  C   UNL     1      30.810  58.455  15.307  1.00  0.00    -0.001 C 
ATOM      5  C   UNL     1      29.386  58.560  15.943  1.00  0.00    -0.020 C 
ATOM      6  C   UNL     1      28.339  59.037  14.898  1.00  0.00     0.008 C 
ATOM      7  C   UNL     1      28.336  58.235  13.576  1.00  0.00     0.005 C 
ATOM      8  C   UNL     1      29.691  57.558  13.193  1.00  0.00     0.003 C 
ATOM      9  C   UNL     1      30.879  58.377  13.744  1.00  0.00     0.000 C 
ATOM     10  C   UNL     1      30.985  59.722  12.994  1.00  0.00     0.031 C 
ATOM     11  C   UNL     1      30.922  59.548  11.500  1.00  0.00    -0.027 C 
ATOM     12  C   UNL     1      30.371  58.479  10.881  1.00  0.00    -0.065 C 
ATOM     13  C   UNL     1      29.846  57.261  11.646  1.00  0.00    -0.008 C 
ATOM     14  C   UNL     1      30.879  56.107  11.423  1.00  0.00     0.014 C 
ATOM     15  C   UNL     1      31.260  55.881   9.941  1.00  0.00     0.033 C 
ATOM     16  C   UNL     1      31.697  57.182   9.239  1.00  0.00     0.118 C 
ATOM     17  C   UNL     1      30.641  58.288   9.405  1.00  0.00     0.063 C 
ATOM     18  C   UNL     1      28.477  56.804  11.058  1.00  0.00     0.016 C 
ATOM     19  C   UNL     1      28.929  57.184  16.502  1.00  0.00     0.012 C 
ENDROOT
BRANCH   1  20
ATOM     20  C   UNL     1      28.849  60.880  17.041  1.00  0.00     0.133 C 
ATOM     21  C   UNL     1      29.505  62.039  16.350  1.00  0.00     0.088 C 
ATOM     22  O   UNL     1      27.732  61.032  17.514  1.00  0.00    -0.300 OA
ENDBRANCH   1  20
BRANCH  16  23
ATOM     23  O   UNL     1      31.902  56.919   7.875  1.00  0.00    -0.393 OA
ATOM     24  H   UNL     1      31.003  56.873   7.455  1.00  0.00     0.210 HD
ENDBRANCH  16  23
TORSDOF 2
ENDMDL
MODEL 7
REMARK VINA RESULT:    -2.427      1.927      3.753
REMARK INTER + INTRA:          -2.668
REMARK INTER:                  -2.614
REMARK INTRA:                  -0.054
REMARK UNBOUND:                -0.028
REMARK SMILES CC(=O)[C@@H]1CC[C@@H]2[C@@H]3CC=C4C[C@H](O)CC[C@@]4(C)[C@@H]3CC[C@@]21C
REMARK SMILES IDX 4 1 5 2 6 3 7 4 22 5 21 6 20 7 19 8 8 9 9 10 10 11 11 12
REMARK SMILES IDX 17 13 16 14 15 15 13 16 12 17 18 18 23 19 2 20 1 21 3 22
REMARK SMILES IDX 14 23
REMARK H PARENT 14 24
REMARK Flexibility Score: inf
ROOT
ATOM      1  C   UNL     1      29.164  60.626   9.555  1.00  0.00     0.062 C 
ATOM      2  C   UNL     1      28.262  61.543  10.387  1.00  0.00     0.012 C 
ATOM      3  C   UNL     1      28.587  61.218  11.830  1.00  0.00     0.005 C 
ATOM      4  C   UNL     1      28.827  59.707  11.842  1.00  0.00    -0.001 C 
ATOM      5  C   UNL     1      29.398  59.339  10.434  1.00  0.00    -0.020 C 
ATOM      6  C   UNL     1      30.886  58.903  10.529  1.00  0.00     0.008 C 
ATOM      7  C   UNL     1      31.172  57.810  11.585  1.00  0.00     0.005 C 
ATOM      8  C   UNL     1      30.179  57.757  12.790  1.00  0.00     0.003 C 
ATOM      9  C   UNL     1      29.612  59.164  13.083  1.00  0.00     0.000 C 
ATOM     10  C   UNL     1      30.726  60.075  13.643  1.00  0.00     0.031 C 
ATOM     11  C   UNL     1      31.499  59.415  14.754  1.00  0.00    -0.027 C 
ATOM     12  C   UNL     1      31.574  58.076  14.936  1.00  0.00    -0.065 C 
ATOM     13  C   UNL     1      30.778  57.080  14.088  1.00  0.00    -0.008 C 
ATOM     14  C   UNL     1      29.622  56.539  14.992  1.00  0.00     0.014 C 
ATOM     15  C   UNL     1      30.089  56.046  16.383  1.00  0.00     0.033 C 
ATOM     16  C   UNL     1      30.950  57.089  17.121  1.00  0.00     0.118 C 
ATOM     17  C   UNL     1      32.125  57.563  16.247  1.00  0.00     0.063 C 
ATOM     18  C   UNL     1      31.681  55.875  13.684  1.00  0.00     0.016 C 
ATOM     19  C   UNL     1      28.586  58.177   9.796  1.00  0.00     0.012 C 
ENDROOT
BRANCH   1  20
ATOM     20  C   UNL     1      30.424  61.356   9.110  1.00  0.00     0.133 C 
ATOM     21  C   UNL     1      31.146  62.284  10.042  1.00  0.00     0.088 C 
ATOM     22  O   UNL     1      30.860  61.203   7.978  1.00  0.00    -0.300 OA
ENDBRANCH   1  20
BRANCH  16  23
ATOM     23  O   UNL     1      31.437  56.523  18.310  1.00  0.00    -0.393 OA
ATOM     24  H   UNL     1      31.950  57.235  18.776  1.00  0.00     0.210 HD
ENDBRANCH  16  23
TORSDOF 2
ENDMDL
