MODEL 1
REMARK VINA RESULT:    -4.354      0.000      0.000
REMARK INTER + INTRA:          -4.481
REMARK INTER:                  -4.481
REMARK INTRA:                   0.000
REMARK UNBOUND:                 0.000
REMARK SMILES Nc1ncnc2nc[nH]c12
REMARK SMILES IDX 8 1 7 2 6 3 5 4 4 5 3 6 2 7 10 8 9 9 1 11
REMARK H PARENT 9 10 1 12 1 13
REMARK Flexibility Score: inf
ROOT
ATOM      1  C   UNL     1      95.092  21.332 337.462  1.00  0.00     0.199 A 
ATOM      2  N   UNL     1      95.475  20.726 338.619  1.00  0.00    -0.217 NA
ATOM      3  C   UNL     1      94.406  19.965 338.908  1.00  0.00     0.182 A 
ATOM      4  N   UNL     1      94.264  19.146 339.978  1.00  0.00    -0.215 NA
ATOM      5  C   UNL     1      93.095  18.447 340.104  1.00  0.00     0.226 A 
ATOM      6  N   UNL     1      92.100  18.578 339.168  1.00  0.00    -0.217 NA
ATOM      7  C   UNL     1      92.243  19.405 338.089  1.00  0.00     0.152 A 
ATOM      8  C   UNL     1      93.438  20.109 337.975  1.00  0.00     0.127 A 
ATOM      9  N   UNL     1      93.852  20.975 337.042  1.00  0.00    -0.340 N 
ATOM     10  H   UNL     1      93.350  21.307 336.189  1.00  0.00     0.168 HD
ENDROOT
BRANCH   7  11
ATOM     11  N   UNL     1      91.193  19.526 337.128  1.00  0.00    -0.382 N 
ATOM     12  H   UNL     1      91.416  19.518 336.108  1.00  0.00     0.158 HD
ATOM     13  H   UNL     1      90.196  19.623 337.420  1.00  0.00     0.158 HD
ENDBRANCH   7  11
TORSDOF 1
ENDMDL
MODEL 2
REMARK VINA RESULT:    -4.224      9.756     11.133
REMARK INTER + INTRA:          -4.347
REMARK INTER:                  -4.347
REMARK INTRA:                   0.000
REMARK UNBOUND:                 0.000
REMARK SMILES Nc1ncnc2nc[nH]c12
REMARK SMILES IDX 8 1 7 2 6 3 5 4 4 5 3 6 2 7 10 8 9 9 1 11
REMARK H PARENT 9 10 1 12 1 13
REMARK Flexibility Score: inf
ROOT
ATOM      1  C   UNL     1      98.552  27.298 332.241  1.00  0.00     0.199 A 
ATOM      2  N   UNL     1      98.050  26.112 332.683  1.00  0.00    -0.217 NA
ATOM      3  C   UNL     1      98.309  25.292 331.652  1.00  0.00     0.182 A 
ATOM      4  N   UNL     1      98.008  23.973 331.574  1.00  0.00    -0.215 NA
ATOM      5  C   UNL     1      98.352  23.299 330.435  1.00  0.00     0.226 A 
ATOM      6  N   UNL     1      98.985  23.949 329.405  1.00  0.00    -0.217 NA
ATOM      7  C   UNL     1      99.288  25.279 329.483  1.00  0.00     0.152 A 
ATOM      8  C   UNL     1      98.931  25.951 330.648  1.00  0.00     0.127 A 
ATOM      9  N   UNL     1      99.098  27.232 331.001  1.00  0.00    -0.340 N 
ATOM     10  H   UNL     1      99.540  28.007 330.459  1.00  0.00     0.168 HD
ENDROOT
BRANCH   7  11
ATOM     11  N   UNL     1      99.947  25.935 328.398  1.00  0.00    -0.382 N 
ATOM     12  H   UNL     1      99.396  26.512 327.725  1.00  0.00     0.158 HD
ATOM     13  H   UNL     1     100.977  25.853 328.258  1.00  0.00     0.158 HD
ENDBRANCH   7  11
TORSDOF 1
ENDMDL
MODEL 3
REMARK VINA RESULT:    -4.070      5.431      6.464
REMARK INTER + INTRA:          -4.189
REMARK INTER:                  -4.189
REMARK INTRA:                   0.000
REMARK UNBOUND:                 0.000
REMARK SMILES Nc1ncnc2nc[nH]c12
REMARK SMILES IDX 8 1 7 2 6 3 5 4 4 5 3 6 2 7 10 8 9 9 1 11
REMARK H PARENT 9 10 1 12 1 13
REMARK Flexibility Score: inf
ROOT
ATOM      1  C   UNL     1      99.969  15.871 337.046  1.00  0.00     0.199 A 
ATOM      2  N   UNL     1     100.625  16.115 338.214  1.00  0.00    -0.217 NA
ATOM      3  C   UNL     1     100.007  17.221 338.661  1.00  0.00     0.182 A 
ATOM      4  N   UNL     1     100.281  17.891 339.806  1.00  0.00    -0.215 NA
ATOM      5  C   UNL     1      99.540  19.004 340.095  1.00  0.00     0.226 A 
ATOM      6  N   UNL     1      98.549  19.421 339.243  1.00  0.00    -0.217 NA
ATOM      7  C   UNL     1      98.272  18.746 338.088  1.00  0.00     0.152 A 
ATOM      8  C   UNL     1      99.035  17.616 337.808  1.00  0.00     0.127 A 
ATOM      9  N   UNL     1      98.991  16.771 336.770  1.00  0.00    -0.340 N 
ATOM     10  H   UNL     1      98.360  16.788 335.939  1.00  0.00     0.168 HD
ENDROOT
BRANCH   7  11
ATOM     11  N   UNL     1      97.236  19.199 337.215  1.00  0.00    -0.382 N 
ATOM     12  H   UNL     1      97.294  19.006 336.192  1.00  0.00     0.158 HD
ATOM     13  H   UNL     1      96.411  19.725 337.578  1.00  0.00     0.158 HD
ENDBRANCH   7  11
TORSDOF 1
ENDMDL
MODEL 4
REMARK VINA RESULT:    -4.055      5.768      6.958
REMARK INTER + INTRA:          -4.173
REMARK INTER:                  -4.173
REMARK INTRA:                   0.000
REMARK UNBOUND:                 0.000
REMARK SMILES Nc1ncnc2nc[nH]c12
REMARK SMILES IDX 8 1 7 2 6 3 5 4 4 5 3 6 2 7 10 8 9 9 1 11
REMARK H PARENT 9 10 1 12 1 13
REMARK Flexibility Score: inf
ROOT
ATOM      1  C   UNL     1      97.583  18.413 339.901  1.00  0.00     0.199 A 
ATOM      2  N   UNL     1      98.819  18.959 340.069  1.00  0.00    -0.217 NA
ATOM      3  C   UNL     1      99.598  18.121 339.365  1.00  0.00     0.182 A 
ATOM      4  N   UNL     1     100.941  18.211 339.204  1.00  0.00    -0.215 NA
ATOM      5  C   UNL     1     101.564  17.257 338.448  1.00  0.00     0.226 A 
ATOM      6  N   UNL     1     100.842  16.242 337.873  1.00  0.00    -0.217 NA
ATOM      7  C   UNL     1      99.489  16.150 338.036  1.00  0.00     0.152 A 
ATOM      8  C   UNL     1      98.869  17.128 338.808  1.00  0.00     0.127 A 
ATOM      9  N   UNL     1      97.580  17.293 339.135  1.00  0.00    -0.340 N 
ATOM     10  H   UNL     1      96.759  16.706 338.870  1.00  0.00     0.168 HD
ENDROOT
BRANCH   7  11
ATOM     11  N   UNL     1      98.758  15.084 337.428  1.00  0.00    -0.382 N 
ATOM     12  H   UNL     1      97.830  14.802 337.812  1.00  0.00     0.158 HD
ATOM     13  H   UNL     1      99.131  14.572 336.599  1.00  0.00     0.158 HD
ENDBRANCH   7  11
TORSDOF 1
ENDMDL
MODEL 5
REMARK VINA RESULT:    -3.975      4.943      6.154
REMARK INTER + INTRA:          -4.091
REMARK INTER:                  -4.091
REMARK INTRA:                   0.000
REMARK UNBOUND:                 0.000
REMARK SMILES Nc1ncnc2nc[nH]c12
REMARK SMILES IDX 8 1 7 2 6 3 5 4 4 5 3 6 2 7 10 8 9 9 1 11
REMARK H PARENT 9 10 1 12 1 13
REMARK Flexibility Score: inf
ROOT
ATOM      1  C   UNL     1      97.121  19.878 337.833  1.00  0.00     0.199 A 
ATOM      2  N   UNL     1      97.893  20.092 338.934  1.00  0.00    -0.217 NA
ATOM      3  C   UNL     1      98.830  19.138 338.814  1.00  0.00     0.182 A 
ATOM      4  N   UNL     1      99.860  18.905 339.663  1.00  0.00    -0.215 NA
ATOM      5  C   UNL     1     100.718  17.881 339.372  1.00  0.00     0.226 A 
ATOM      6  N   UNL     1     100.532  17.115 338.249  1.00  0.00    -0.217 NA
ATOM      7  C   UNL     1      99.494  17.348 337.392  1.00  0.00     0.152 A 
ATOM      8  C   UNL     1      98.629  18.394 337.702  1.00  0.00     0.127 A 
ATOM      9  N   UNL     1      97.546  18.847 337.060  1.00  0.00    -0.340 N 
ATOM     10  H   UNL     1      97.118  18.499 336.174  1.00  0.00     0.168 HD
ENDROOT
BRANCH   7  11
ATOM     11  N   UNL     1      99.321  16.537 336.229  1.00  0.00    -0.382 N 
ATOM     12  H   UNL     1      98.776  16.900 335.416  1.00  0.00     0.158 HD
ATOM     13  H   UNL     1      99.730  15.579 336.167  1.00  0.00     0.158 HD
ENDBRANCH   7  11
TORSDOF 1
ENDMDL
MODEL 6
REMARK VINA RESULT:    -3.949      9.041     10.750
REMARK INTER + INTRA:          -4.064
REMARK INTER:                  -4.064
REMARK INTRA:                   0.000
REMARK UNBOUND:                 0.000
REMARK SMILES Nc1ncnc2nc[nH]c12
REMARK SMILES IDX 8 1 7 2 6 3 5 4 4 5 3 6 2 7 10 8 9 9 1 11
REMARK H PARENT 9 10 1 12 1 13
REMARK Flexibility Score: inf
ROOT
ATOM      1  C   UNL     1      99.050  24.601 328.922  1.00  0.00     0.199 A 
ATOM      2  N   UNL     1      98.986  23.812 330.029  1.00  0.00    -0.217 NA
ATOM      3  C   UNL     1      98.407  24.626 330.926  1.00  0.00     0.182 A 
ATOM      4  N   UNL     1      98.109  24.328 332.213  1.00  0.00    -0.215 NA
ATOM      5  C   UNL     1      97.517  25.294 332.979  1.00  0.00     0.226 A 
ATOM      6  N   UNL     1      97.238  26.528 332.449  1.00  0.00    -0.217 NA
ATOM      7  C   UNL     1      97.539  26.831 331.151  1.00  0.00     0.152 A 
ATOM      8  C   UNL     1      98.141  25.837 330.385  1.00  0.00     0.127 A 
ATOM      9  N   UNL     1      98.541  25.846 329.107  1.00  0.00    -0.340 N 
ATOM     10  H   UNL     1      98.483  26.619 328.409  1.00  0.00     0.168 HD
ENDROOT
BRANCH   7  11
ATOM     11  N   UNL     1      97.239  28.123 330.622  1.00  0.00    -0.382 N 
ATOM     12  H   UNL     1      97.578  28.389 329.671  1.00  0.00     0.158 HD
ATOM     13  H   UNL     1      96.683  28.819 331.166  1.00  0.00     0.158 HD
ENDBRANCH   7  11
TORSDOF 1
ENDMDL
MODEL 7
REMARK VINA RESULT:    -3.910      7.049      7.921
REMARK INTER + INTRA:          -4.025
REMARK INTER:                  -4.025
REMARK INTRA:                   0.000
REMARK UNBOUND:                 0.000
REMARK SMILES Nc1ncnc2nc[nH]c12
REMARK SMILES IDX 8 1 7 2 6 3 5 4 4 5 3 6 2 7 10 8 9 9 1 11
REMARK H PARENT 9 10 1 12 1 13
REMARK Flexibility Score: inf
ROOT
ATOM      1  C   UNL     1     103.033  17.336 338.928  1.00  0.00     0.199 A 
ATOM      2  N   UNL     1     102.538  16.485 339.868  1.00  0.00    -0.217 NA
ATOM      3  C   UNL     1     101.248  16.384 339.509  1.00  0.00     0.182 A 
ATOM      4  N   UNL     1     100.293  15.645 340.125  1.00  0.00    -0.215 NA
ATOM      5  C   UNL     1      99.027  15.669 339.610  1.00  0.00     0.226 A 
ATOM      6  N   UNL     1      98.740  16.423 338.500  1.00  0.00    -0.217 NA
ATOM      7  C   UNL     1      99.701  17.169 337.879  1.00  0.00     0.152 A 
ATOM      8  C   UNL     1     100.985  17.135 338.415  1.00  0.00     0.127 A 
ATOM      9  N   UNL     1     102.108  17.751 338.025  1.00  0.00    -0.340 N 
ATOM     10  H   UNL     1     102.252  18.400 337.221  1.00  0.00     0.168 HD
ENDROOT
BRANCH   7  11
ATOM     11  N   UNL     1      99.379  17.947 336.725  1.00  0.00    -0.382 N 
ATOM     12  H   UNL     1      99.995  17.912 335.884  1.00  0.00     0.158 HD
ATOM     13  H   UNL     1      98.533  18.558 336.699  1.00  0.00     0.158 HD
ENDBRANCH   7  11
TORSDOF 1
ENDMDL
MODEL 8
REMARK VINA RESULT:    -3.806      9.738     11.421
REMARK INTER + INTRA:          -3.918
REMARK INTER:                  -3.918
REMARK INTRA:                   0.000
REMARK UNBOUND:                 0.000
REMARK SMILES Nc1ncnc2nc[nH]c12
REMARK SMILES IDX 8 1 7 2 6 3 5 4 4 5 3 6 2 7 10 8 9 9 1 11
REMARK H PARENT 9 10 1 12 1 13
REMARK Flexibility Score: inf
ROOT
ATOM      1  C   UNL     1     101.164  27.387 330.780  1.00  0.00     0.199 A 
ATOM      2  N   UNL     1     100.472  27.248 331.944  1.00  0.00    -0.217 NA
ATOM      3  C   UNL     1      99.580  26.293 331.632  1.00  0.00     0.182 A 
ATOM      4  N   UNL     1      98.634  25.773 332.451  1.00  0.00    -0.215 NA
ATOM      5  C   UNL     1      97.812  24.802 331.951  1.00  0.00     0.226 A 
ATOM      6  N   UNL     1      97.949  24.373 330.655  1.00  0.00    -0.217 NA
ATOM      7  C   UNL     1      98.901  24.897 329.828  1.00  0.00     0.152 A 
ATOM      8  C   UNL     1      99.731  25.885 330.352  1.00  0.00     0.127 A 
ATOM      9  N   UNL     1     100.735  26.567 329.787  1.00  0.00    -0.340 N 
ATOM     10  H   UNL     1     101.109  26.496 328.815  1.00  0.00     0.168 HD
ENDROOT
BRANCH   7  11
ATOM     11  N   UNL     1      99.025  24.434 328.482  1.00  0.00    -0.382 N 
ATOM     12  H   UNL     1      99.777  23.756 328.230  1.00  0.00     0.158 HD
ATOM     13  H   UNL     1      98.375  24.759 327.733  1.00  0.00     0.158 HD
ENDBRANCH   7  11
TORSDOF 1
ENDMDL
MODEL 9
REMARK VINA RESULT:    -3.753      0.969      2.991
REMARK INTER + INTRA:          -3.863
REMARK INTER:                  -3.863
REMARK INTRA:                   0.000
REMARK UNBOUND:                 0.000
REMARK SMILES Nc1ncnc2nc[nH]c12
REMARK SMILES IDX 8 1 7 2 6 3 5 4 4 5 3 6 2 7 10 8 9 9 1 11
REMARK H PARENT 9 10 1 12 1 13
REMARK Flexibility Score: inf
ROOT
ATOM      1  C   UNL     1      91.500  19.111 338.642  1.00  0.00     0.199 A 
ATOM      2  N   UNL     1      92.299  18.472 339.541  1.00  0.00    -0.217 NA
ATOM      3  C   UNL     1      93.507  18.989 339.265  1.00  0.00     0.182 A 
ATOM      4  N   UNL     1      94.675  18.686 339.882  1.00  0.00    -0.215 NA
ATOM      5  C   UNL     1      95.811  19.320 339.460  1.00  0.00     0.226 A 
ATOM      6  N   UNL     1      95.759  20.236 338.439  1.00  0.00    -0.217 NA
ATOM      7  C   UNL     1      94.582  20.541 337.816  1.00  0.00     0.152 A 
ATOM      8  C   UNL     1      93.435  19.887 338.257  1.00  0.00     0.127 A 
ATOM      9  N   UNL     1      92.165  19.983 337.843  1.00  0.00    -0.340 N 
ATOM     10  H   UNL     1      91.768  20.581 337.086  1.00  0.00     0.168 HD
ENDROOT
BRANCH   7  11
ATOM     11  N   UNL     1      94.553  21.497 336.754  1.00  0.00    -0.382 N 
ATOM     12  H   UNL     1      94.294  22.488 336.953  1.00  0.00     0.158 HD
ATOM     13  H   UNL     1      94.786  21.229 335.773  1.00  0.00     0.158 HD
ENDBRANCH   7  11
TORSDOF 1
ENDMDL
