MODEL 1
REMARK VINA RESULT:     0.415      0.000      0.000
REMARK INTER + INTRA:           0.506
REMARK INTER:                   0.584
REMARK INTRA:                  -0.079
REMARK UNBOUND:                -0.079
REMARK SMILES CC1=CCC(=C(C)C)C(=O)CC(C)=CCC1
REMARK SMILES IDX 12 1 14 2 13 3 15 4 16 5 2 6 1 7 3 8 11 10 9 11 10 12 5 13
REMARK SMILES IDX 6 14 7 15 8 16 4 17
REMARK H PARENT
REMARK Flexibility Score: 60.00
ROOT
ATOM      1  C   UNL     1      -1.887  -7.032 -14.777  1.00  0.00    -0.070 C 
ATOM      2  C   UNL     1      -2.085  -5.902 -14.057  1.00  0.00    -0.027 C 
ATOM      3  C   UNL     1      -2.705  -8.242 -14.395  1.00  0.00     0.039 C 
ENDROOT
BRANCH   2   4
ATOM      4  C   UNL     1      -1.419  -4.569 -14.283  1.00  0.00     0.032 C 
BRANCH   4   5
ATOM      5  C   UNL     1      -1.797  -3.861 -15.606  1.00  0.00     0.034 C 
BRANCH   5   6
ATOM      6  C   UNL     1      -3.272  -3.899 -15.975  1.00  0.00    -0.077 C 
ATOM      7  C   UNL     1      -4.221  -3.065 -15.149  1.00  0.00     0.039 C 
ATOM      8  C   UNL     1      -3.819  -4.673 -16.955  1.00  0.00    -0.023 CG0
ATOM      9  G   UNL     1      -3.139  -5.499 -18.037  1.00  0.00     0.000 G0
ENDBRANCH   5   6
ENDBRANCH   4   5
ENDBRANCH   2   4
BRANCH   1  10
ATOM     10  C   UNL     1      -0.940  -7.158 -15.966  1.00  0.00     0.111 C 
BRANCH  10  11
ATOM     11  C   UNL     1      -1.570  -7.481 -17.301  1.00  0.00     0.163 C 
ATOM     12  O   UNL     1      -0.896  -8.216 -18.074  1.00  0.00    -0.294 OA
BRANCH  11  13
ATOM     13  C   UNL     1      -2.931  -6.990 -17.729  1.00  0.00    -0.002 C 
ATOM     14  C   UNL     1      -4.013  -7.828 -17.813  1.00  0.00    -0.069 C 
ATOM     15  C   UNL     1      -5.397  -7.298 -18.125  1.00  0.00     0.039 C 
ATOM     16  C   UNL     1      -3.890  -9.325 -17.638  1.00  0.00     0.039 C 
BRANCH  13  17
ATOM     17  C   UNL     1      -3.102  -5.506 -18.012  1.00  0.00     0.066 CG0
ATOM     18  G   UNL     1      -3.831  -4.686 -16.957  1.00  0.00     0.000 G0
ENDBRANCH  13  17
ENDBRANCH  11  13
ENDBRANCH  10  11
ENDBRANCH   1  10
TORSDOF 0
ENDMDL
MODEL 2
REMARK VINA RESULT:     2.288      1.797      4.417
REMARK INTER + INTRA:           3.146
REMARK INTER:                   3.076
REMARK INTRA:                   0.071
REMARK UNBOUND:                -0.079
REMARK SMILES CC1=CCC(=C(C)C)C(=O)CC(C)=CCC1
REMARK SMILES IDX 12 1 14 2 13 3 15 4 16 5 2 6 1 7 3 8 11 10 9 11 10 12 5 13
REMARK SMILES IDX 6 14 7 15 8 16 4 17
REMARK H PARENT
REMARK Flexibility Score: 60.00
ROOT
ATOM      1  C   UNL     1      -4.269  -3.790 -15.205  1.00  0.00    -0.070 C 
ATOM      2  C   UNL     1      -4.989  -4.273 -16.244  1.00  0.00    -0.027 C 
ATOM      3  C   UNL     1      -4.831  -4.007 -13.820  1.00  0.00     0.039 C 
ENDROOT
BRANCH   2   4
ATOM      4  C   UNL     1      -4.608  -4.214 -17.701  1.00  0.00     0.032 C 
BRANCH   4   5
ATOM      5  C   UNL     1      -3.479  -5.183 -18.125  1.00  0.00     0.034 C 
BRANCH   5   6
ATOM      6  C   UNL     1      -3.544  -6.576 -17.516  1.00  0.00    -0.077 C 
ATOM      7  C   UNL     1      -4.704  -7.458 -17.910  1.00  0.00     0.039 C 
ATOM      8  C   UNL     1      -2.671  -7.074 -16.596  1.00  0.00    -0.023 CG0
ATOM      9  G   UNL     1      -1.346  -6.511 -16.105  1.00  0.00     0.000 G0
ENDBRANCH   5   6
ENDBRANCH   4   5
ENDBRANCH   2   4
BRANCH   1  10
ATOM     10  C   UNL     1      -2.919  -3.092 -15.325  1.00  0.00     0.111 C 
BRANCH  10  11
ATOM     11  C   UNL     1      -1.743  -3.955 -15.720  1.00  0.00     0.163 C 
ATOM     12  O   UNL     1      -0.955  -3.468 -16.577  1.00  0.00    -0.294 OA
BRANCH  11  13
ATOM     13  C   UNL     1      -1.472  -5.321 -15.141  1.00  0.00    -0.002 C 
ATOM     14  C   UNL     1      -1.370  -5.532 -13.791  1.00  0.00    -0.069 C 
ATOM     15  C   UNL     1      -1.221  -6.927 -13.220  1.00  0.00     0.039 C 
ATOM     16  C   UNL     1      -1.364  -4.394 -12.794  1.00  0.00     0.039 C 
BRANCH  13  17
ATOM     17  C   UNL     1      -1.373  -6.499 -16.098  1.00  0.00     0.066 CG0
ATOM     18  G   UNL     1      -2.683  -7.080 -16.608  1.00  0.00     0.000 G0
ENDBRANCH  13  17
ENDBRANCH  11  13
ENDBRANCH  10  11
ENDBRANCH   1  10
TORSDOF 0
ENDMDL
