MODEL 1
REMARK VINA RESULT:    -8.969      0.000      0.000
REMARK INTER + INTRA:         -11.377
REMARK INTER:                 -11.066
REMARK INTRA:                  -0.311
REMARK UNBOUND:                -0.311
REMARK SMILES O=c1c(O)c(-c2cc(O)c(O)c(O)c2)oc2cc(O)cc(O)c12
REMARK SMILES IDX 5 1 3 2 2 3 1 4 23 5 21 6 20 7 18 8 17 9 16 10 15 11 6 12
REMARK SMILES IDX 7 13 8 14 14 15 10 16 12 17 9 18 11 20 13 22 4 24 22 26
REMARK SMILES IDX 19 28
REMARK H PARENT 9 19 11 21 13 23 4 25 22 27 19 29
REMARK Flexibility Score: inf
ROOT
ATOM      1  C   UNL     1      -2.973  -0.196   9.654  1.00  0.00     0.180 A 
ATOM      2  C   UNL     1      -3.258  -1.546   9.377  1.00  0.00     0.208 A 
ATOM      3  C   UNL     1      -3.767  -2.356  10.404  1.00  0.00     0.238 A 
ATOM      4  O   UNL     1      -4.037  -3.565  10.165  1.00  0.00    -0.285 OA
ATOM      5  C   UNL     1      -3.962  -1.812  11.690  1.00  0.00     0.111 A 
ATOM      6  C   UNL     1      -4.465  -2.561  12.781  1.00  0.00     0.134 A 
ATOM      7  C   UNL     1      -4.621  -1.948  14.032  1.00  0.00     0.093 A 
ATOM      8  C   UNL     1      -4.282  -0.603  14.215  1.00  0.00     0.123 A 
ATOM      9  C   UNL     1      -3.786   0.140  13.143  1.00  0.00     0.094 A 
ATOM     10  C   UNL     1      -3.625  -0.451  11.885  1.00  0.00     0.146 A 
ATOM     11  O   UNL     1      -3.155   0.280  10.883  1.00  0.00    -0.452 OA
ENDROOT
BRANCH   1  12
ATOM     12  C   UNL     1      -2.453   0.727   8.618  1.00  0.00     0.029 A 
ATOM     13  C   UNL     1      -3.326   1.236   7.646  1.00  0.00     0.062 A 
ATOM     14  C   UNL     1      -2.866   2.093   6.641  1.00  0.00     0.162 A 
ATOM     15  C   UNL     1      -1.092   1.059   8.553  1.00  0.00     0.062 A 
ATOM     16  C   UNL     1      -1.494   2.442   6.595  1.00  0.00     0.200 A 
ATOM     17  C   UNL     1      -0.615   1.915   7.552  1.00  0.00     0.162 A 
BRANCH  14  18
ATOM     18  O   UNL     1      -3.797   2.570   5.715  1.00  0.00    -0.504 OA
ATOM     19  H   UNL     1      -4.493   1.993   5.266  1.00  0.00     0.293 HD
ENDBRANCH  14  18
BRANCH  16  20
ATOM     20  O   UNL     1      -0.969   3.297   5.623  1.00  0.00    -0.502 OA
ATOM     21  H   UNL     1      -0.225   3.958   5.793  1.00  0.00     0.293 HD
ENDBRANCH  16  20
BRANCH  17  22
ATOM     22  O   UNL     1       0.737   2.246   7.499  1.00  0.00    -0.504 OA
ATOM     23  H   UNL     1       1.163   2.609   6.653  1.00  0.00     0.293 HD
ENDBRANCH  17  22
ENDBRANCH   1  12
BRANCH   2  24
ATOM     24  O   UNL     1      -3.011  -2.074   8.106  1.00  0.00    -0.502 OA
ATOM     25  H   UNL     1      -3.674  -2.674   7.630  1.00  0.00     0.293 HD
ENDBRANCH   2  24
BRANCH   6  26
ATOM     26  O   UNL     1      -4.811  -3.905  12.629  1.00  0.00    -0.507 OA
ATOM     27  H   UNL     1      -5.029  -4.492  13.426  1.00  0.00     0.293 HD
ENDBRANCH   6  26
BRANCH   8  28
ATOM     28  O   UNL     1      -4.437   0.005  15.458  1.00  0.00    -0.508 OA
ATOM     29  H   UNL     1      -4.543   1.009  15.547  1.00  0.00     0.293 HD
ENDBRANCH   8  28
TORSDOF 7
ENDMDL
MODEL 2
REMARK VINA RESULT:    -8.954      1.882      2.982
REMARK INTER + INTRA:         -11.359
REMARK INTER:                 -11.099
REMARK INTRA:                  -0.260
REMARK UNBOUND:                -0.311
REMARK SMILES O=c1c(O)c(-c2cc(O)c(O)c(O)c2)oc2cc(O)cc(O)c12
REMARK SMILES IDX 5 1 3 2 2 3 1 4 23 5 21 6 20 7 18 8 17 9 16 10 15 11 6 12
REMARK SMILES IDX 7 13 8 14 14 15 10 16 12 17 9 18 11 20 13 22 4 24 22 26
REMARK SMILES IDX 19 28
REMARK H PARENT 9 19 11 21 13 23 4 25 22 27 19 29
REMARK Flexibility Score: inf
ROOT
ATOM      1  C   UNL     1      -2.764   0.217  10.164  1.00  0.00     0.180 A 
ATOM      2  C   UNL     1      -2.131  -0.201  11.349  1.00  0.00     0.208 A 
ATOM      3  C   UNL     1      -2.823  -1.054  12.222  1.00  0.00     0.238 A 
ATOM      4  O   UNL     1      -2.262  -1.445  13.282  1.00  0.00    -0.285 OA
ATOM      5  C   UNL     1      -4.137  -1.457  11.909  1.00  0.00     0.111 A 
ATOM      6  C   UNL     1      -4.905  -2.310  12.737  1.00  0.00     0.134 A 
ATOM      7  C   UNL     1      -6.211  -2.657  12.359  1.00  0.00     0.093 A 
ATOM      8  C   UNL     1      -6.763  -2.166  11.171  1.00  0.00     0.123 A 
ATOM      9  C   UNL     1      -6.010  -1.324  10.351  1.00  0.00     0.094 A 
ATOM     10  C   UNL     1      -4.706  -0.968  10.708  1.00  0.00     0.146 A 
ATOM     11  O   UNL     1      -4.011  -0.170   9.907  1.00  0.00    -0.452 OA
ENDROOT
BRANCH   1  12
ATOM     12  C   UNL     1      -2.092   1.101   9.183  1.00  0.00     0.029 A 
ATOM     13  C   UNL     1      -1.029   0.601   8.418  1.00  0.00     0.062 A 
ATOM     14  C   UNL     1      -0.358   1.413   7.497  1.00  0.00     0.162 A 
ATOM     15  C   UNL     1      -2.459   2.448   9.042  1.00  0.00     0.062 A 
ATOM     16  C   UNL     1      -0.749   2.765   7.344  1.00  0.00     0.200 A 
ATOM     17  C   UNL     1      -1.797   3.274   8.126  1.00  0.00     0.162 A 
BRANCH  14  18
ATOM     18  O   UNL     1       0.683   0.841   6.762  1.00  0.00    -0.504 OA
ATOM     19  H   UNL     1       1.312   0.140   7.125  1.00  0.00     0.293 HD
ENDBRANCH  14  18
BRANCH  16  20
ATOM     20  O   UNL     1      -0.126   3.629   6.440  1.00  0.00    -0.502 OA
ATOM     21  H   UNL     1      -0.181   3.533   5.436  1.00  0.00     0.293 HD
ENDBRANCH  16  20
BRANCH  17  22
ATOM     22  O   UNL     1      -2.172   4.609   7.987  1.00  0.00    -0.504 OA
ATOM     23  H   UNL     1      -2.548   5.139   8.764  1.00  0.00     0.293 HD
ENDBRANCH  17  22
ENDBRANCH   1  12
BRANCH   2  24
ATOM     24  O   UNL     1      -0.845   0.250  11.660  1.00  0.00    -0.502 OA
ATOM     25  H   UNL     1      -0.327   0.873  11.051  1.00  0.00     0.293 HD
ENDBRANCH   2  24
BRANCH   6  26
ATOM     26  O   UNL     1      -4.382  -2.815  13.929  1.00  0.00    -0.507 OA
ATOM     27  H   UNL     1      -4.974  -3.242  14.632  1.00  0.00     0.293 HD
ENDBRANCH   6  26
BRANCH   8  28
ATOM     28  O   UNL     1      -8.059  -2.509  10.796  1.00  0.00    -0.508 OA
ATOM     29  H   UNL     1      -8.741  -1.805  10.541  1.00  0.00     0.293 HD
ENDBRANCH   8  28
TORSDOF 7
ENDMDL
MODEL 3
REMARK VINA RESULT:    -8.950      1.901      2.788
REMARK INTER + INTRA:         -11.354
REMARK INTER:                 -11.001
REMARK INTRA:                  -0.353
REMARK UNBOUND:                -0.311
REMARK SMILES O=c1c(O)c(-c2cc(O)c(O)c(O)c2)oc2cc(O)cc(O)c12
REMARK SMILES IDX 5 1 3 2 2 3 1 4 23 5 21 6 20 7 18 8 17 9 16 10 15 11 6 12
REMARK SMILES IDX 7 13 8 14 14 15 10 16 12 17 9 18 11 20 13 22 4 24 22 26
REMARK SMILES IDX 19 28
REMARK H PARENT 9 19 11 21 13 23 4 25 22 27 19 29
REMARK Flexibility Score: inf
ROOT
ATOM      1  C   UNL     1      -2.707   0.395  10.310  1.00  0.00     0.180 A 
ATOM      2  C   UNL     1      -2.129   0.099  11.560  1.00  0.00     0.208 A 
ATOM      3  C   UNL     1      -2.840  -0.708  12.461  1.00  0.00     0.238 A 
ATOM      4  O   UNL     1      -2.328  -0.990  13.579  1.00  0.00    -0.285 OA
ATOM      5  C   UNL     1      -4.118  -1.188  12.110  1.00  0.00     0.111 A 
ATOM      6  C   UNL     1      -4.902  -2.002  12.963  1.00  0.00     0.134 A 
ATOM      7  C   UNL     1      -6.170  -2.431  12.543  1.00  0.00     0.093 A 
ATOM      8  C   UNL     1      -6.669  -2.059  11.290  1.00  0.00     0.123 A 
ATOM      9  C   UNL     1      -5.901  -1.257  10.446  1.00  0.00     0.094 A 
ATOM     10  C   UNL     1      -4.633  -0.820  10.844  1.00  0.00     0.146 A 
ATOM     11  O   UNL     1      -3.922  -0.062  10.019  1.00  0.00    -0.452 OA
ENDROOT
BRANCH   1  12
ATOM     12  C   UNL     1      -2.012   1.223   9.298  1.00  0.00     0.029 A 
ATOM     13  C   UNL     1      -2.366   2.572   9.149  1.00  0.00     0.062 A 
ATOM     14  C   UNL     1      -1.745   3.379   8.190  1.00  0.00     0.162 A 
ATOM     15  C   UNL     1      -1.045   0.673   8.443  1.00  0.00     0.062 A 
ATOM     16  C   UNL     1      -0.753   2.823   7.346  1.00  0.00     0.200 A 
ATOM     17  C   UNL     1      -0.415   1.468   7.477  1.00  0.00     0.162 A 
BRANCH  14  18
ATOM     18  O   UNL     1      -2.141   4.716   8.109  1.00  0.00    -0.504 OA
ATOM     19  H   UNL     1      -1.500   5.493   8.057  1.00  0.00     0.293 HD
ENDBRANCH  14  18
BRANCH  16  20
ATOM     20  O   UNL     1      -0.090   3.573   6.371  1.00  0.00    -0.502 OA
ATOM     21  H   UNL     1      -0.003   3.294   5.404  1.00  0.00     0.293 HD
ENDBRANCH  16  20
BRANCH  17  22
ATOM     22  O   UNL     1       0.550   0.917   6.637  1.00  0.00    -0.504 OA
ATOM     23  H   UNL     1       1.054   1.482   5.963  1.00  0.00     0.293 HD
ENDBRANCH  17  22
ENDBRANCH   1  12
BRANCH   2  24
ATOM     24  O   UNL     1      -0.881   0.626  11.902  1.00  0.00    -0.502 OA
ATOM     25  H   UNL     1      -0.265   0.172  12.566  1.00  0.00     0.293 HD
ENDBRANCH   2  24
BRANCH   6  26
ATOM     26  O   UNL     1      -4.431  -2.388  14.219  1.00  0.00    -0.507 OA
ATOM     27  H   UNL     1      -3.554  -2.039  14.589  1.00  0.00     0.293 HD
ENDBRANCH   6  26
BRANCH   8  28
ATOM     28  O   UNL     1      -7.929  -2.484  10.874  1.00  0.00    -0.508 OA
ATOM     29  H   UNL     1      -8.402  -2.051  10.090  1.00  0.00     0.293 HD
ENDBRANCH   8  28
TORSDOF 7
ENDMDL
MODEL 4
REMARK VINA RESULT:    -8.913      0.141      1.765
REMARK INTER + INTRA:         -11.309
REMARK INTER:                 -10.958
REMARK INTRA:                  -0.351
REMARK UNBOUND:                -0.311
REMARK SMILES O=c1c(O)c(-c2cc(O)c(O)c(O)c2)oc2cc(O)cc(O)c12
REMARK SMILES IDX 5 1 3 2 2 3 1 4 23 5 21 6 20 7 18 8 17 9 16 10 15 11 6 12
REMARK SMILES IDX 7 13 8 14 14 15 10 16 12 17 9 18 11 20 13 22 4 24 22 26
REMARK SMILES IDX 19 28
REMARK H PARENT 9 19 11 21 13 23 4 25 22 27 19 29
REMARK Flexibility Score: inf
ROOT
ATOM      1  C   UNL     1      -2.902  -0.280   9.591  1.00  0.00     0.180 A 
ATOM      2  C   UNL     1      -3.120  -1.649   9.348  1.00  0.00     0.208 A 
ATOM      3  C   UNL     1      -3.593  -2.456  10.394  1.00  0.00     0.238 A 
ATOM      4  O   UNL     1      -3.803  -3.682  10.186  1.00  0.00    -0.285 OA
ATOM      5  C   UNL     1      -3.820  -1.889  11.665  1.00  0.00     0.111 A 
ATOM      6  C   UNL     1      -4.292  -2.633  12.773  1.00  0.00     0.134 A 
ATOM      7  C   UNL     1      -4.483  -1.996  14.008  1.00  0.00     0.093 A 
ATOM      8  C   UNL     1      -4.211  -0.632  14.156  1.00  0.00     0.123 A 
ATOM      9  C   UNL     1      -3.746   0.106  13.067  1.00  0.00     0.094 A 
ATOM     10  C   UNL     1      -3.550  -0.509  11.826  1.00  0.00     0.146 A 
ATOM     11  O   UNL     1      -3.112   0.218  10.806  1.00  0.00    -0.452 OA
ENDROOT
BRANCH   1  12
ATOM     12  C   UNL     1      -2.421   0.640   8.533  1.00  0.00     0.029 A 
ATOM     13  C   UNL     1      -1.071   1.017   8.508  1.00  0.00     0.062 A 
ATOM     14  C   UNL     1      -0.587   1.900   7.536  1.00  0.00     0.162 A 
ATOM     15  C   UNL     1      -3.301   1.190   7.589  1.00  0.00     0.062 A 
ATOM     16  C   UNL     1      -1.476   2.433   6.572  1.00  0.00     0.200 A 
ATOM     17  C   UNL     1      -2.832   2.076   6.611  1.00  0.00     0.162 A 
BRANCH  14  18
ATOM     18  O   UNL     1       0.772   2.218   7.566  1.00  0.00    -0.504 OA
ATOM     19  H   UNL     1       1.352   2.303   6.744  1.00  0.00     0.293 HD
ENDBRANCH  14  18
BRANCH  16  20
ATOM     20  O   UNL     1      -1.059   3.314   5.572  1.00  0.00    -0.502 OA
ATOM     21  H   UNL     1      -1.116   3.116   4.583  1.00  0.00     0.293 HD
ENDBRANCH  16  20
BRANCH  17  22
ATOM     22  O   UNL     1      -3.711   2.612   5.672  1.00  0.00    -0.504 OA
ATOM     23  H   UNL     1      -4.510   2.089   5.333  1.00  0.00     0.293 HD
ENDBRANCH  17  22
ENDBRANCH   1  12
BRANCH   2  24
ATOM     24  O   UNL     1      -2.841  -2.197   8.093  1.00  0.00    -0.502 OA
ATOM     25  H   UNL     1      -3.385  -2.957   7.700  1.00  0.00     0.293 HD
ENDBRANCH   2  24
BRANCH   6  26
ATOM     26  O   UNL     1      -4.572  -3.996  12.655  1.00  0.00    -0.507 OA
ATOM     27  H   UNL     1      -4.066  -4.589  12.008  1.00  0.00     0.293 HD
ENDBRANCH   6  26
BRANCH   8  28
ATOM     28  O   UNL     1      -4.400  -0.000  15.383  1.00  0.00    -0.508 OA
ATOM     29  H   UNL     1      -5.322   0.271  15.703  1.00  0.00     0.293 HD
ENDBRANCH   8  28
TORSDOF 7
ENDMDL
MODEL 5
REMARK VINA RESULT:    -8.898      1.888      3.034
REMARK INTER + INTRA:         -11.290
REMARK INTER:                 -10.967
REMARK INTRA:                  -0.323
REMARK UNBOUND:                -0.311
REMARK SMILES O=c1c(O)c(-c2cc(O)c(O)c(O)c2)oc2cc(O)cc(O)c12
REMARK SMILES IDX 5 1 3 2 2 3 1 4 23 5 21 6 20 7 18 8 17 9 16 10 15 11 6 12
REMARK SMILES IDX 7 13 8 14 14 15 10 16 12 17 9 18 11 20 13 22 4 24 22 26
REMARK SMILES IDX 19 28
REMARK H PARENT 9 19 11 21 13 23 4 25 22 27 19 29
REMARK Flexibility Score: inf
ROOT
ATOM      1  C   UNL     1      -3.501   0.410   9.759  1.00  0.00     0.180 A 
ATOM      2  C   UNL     1      -4.769   0.635  10.327  1.00  0.00     0.208 A 
ATOM      3  C   UNL     1      -5.306  -0.331  11.190  1.00  0.00     0.238 A 
ATOM      4  O   UNL     1      -6.437  -0.136  11.714  1.00  0.00    -0.285 OA
ATOM      5  C   UNL     1      -4.582  -1.512  11.455  1.00  0.00     0.111 A 
ATOM      6  C   UNL     1      -5.054  -2.537  12.309  1.00  0.00     0.134 A 
ATOM      7  C   UNL     1      -4.276  -3.686  12.512  1.00  0.00     0.093 A 
ATOM      8  C   UNL     1      -3.037  -3.830  11.879  1.00  0.00     0.123 A 
ATOM      9  C   UNL     1      -2.566  -2.822  11.036  1.00  0.00     0.094 A 
ATOM     10  C   UNL     1      -3.325  -1.667  10.821  1.00  0.00     0.146 A 
ATOM     11  O   UNL     1      -2.851  -0.722  10.019  1.00  0.00    -0.452 OA
ENDROOT
BRANCH   1  12
ATOM     12  C   UNL     1      -2.858   1.391   8.854  1.00  0.00     0.029 A 
ATOM     13  C   UNL     1      -2.242   2.528   9.396  1.00  0.00     0.062 A 
ATOM     14  C   UNL     1      -1.643   3.487   8.570  1.00  0.00     0.162 A 
ATOM     15  C   UNL     1      -2.902   1.237   7.461  1.00  0.00     0.062 A 
ATOM     16  C   UNL     1      -1.671   3.313   7.165  1.00  0.00     0.200 A 
ATOM     17  C   UNL     1      -2.308   2.188   6.621  1.00  0.00     0.162 A 
BRANCH  14  18
ATOM     18  O   UNL     1      -1.038   4.586   9.183  1.00  0.00    -0.504 OA
ATOM     19  H   UNL     1      -1.203   4.861  10.140  1.00  0.00     0.293 HD
ENDBRANCH  14  18
BRANCH  16  20
ATOM     20  O   UNL     1      -1.089   4.227   6.285  1.00  0.00    -0.502 OA
ATOM     21  H   UNL     1      -1.474   4.469   5.383  1.00  0.00     0.293 HD
ENDBRANCH  16  20
BRANCH  17  22
ATOM     22  O   UNL     1      -2.349   2.025   5.238  1.00  0.00    -0.504 OA
ATOM     23  H   UNL     1      -3.210   1.792   4.756  1.00  0.00     0.293 HD
ENDBRANCH  17  22
ENDBRANCH   1  12
BRANCH   2  24
ATOM     24  O   UNL     1      -5.488   1.791  10.011  1.00  0.00    -0.502 OA
ATOM     25  H   UNL     1      -5.814   2.438  10.721  1.00  0.00     0.293 HD
ENDBRANCH   2  24
BRANCH   6  26
ATOM     26  O   UNL     1      -6.286  -2.423  12.954  1.00  0.00    -0.507 OA
ATOM     27  H   UNL     1      -6.777  -1.538  13.011  1.00  0.00     0.293 HD
ENDBRANCH   6  26
BRANCH   8  28
ATOM     28  O   UNL     1      -2.265  -4.971  12.081  1.00  0.00    -0.508 OA
ATOM     29  H   UNL     1      -1.573  -5.270  11.403  1.00  0.00     0.293 HD
ENDBRANCH   8  28
TORSDOF 7
ENDMDL
MODEL 6
REMARK VINA RESULT:    -7.988      1.198      2.842
REMARK INTER + INTRA:         -10.167
REMARK INTER:                  -9.801
REMARK INTRA:                  -0.366
REMARK UNBOUND:                -0.311
REMARK SMILES O=c1c(O)c(-c2cc(O)c(O)c(O)c2)oc2cc(O)cc(O)c12
REMARK SMILES IDX 5 1 3 2 2 3 1 4 23 5 21 6 20 7 18 8 17 9 16 10 15 11 6 12
REMARK SMILES IDX 7 13 8 14 14 15 10 16 12 17 9 18 11 20 13 22 4 24 22 26
REMARK SMILES IDX 19 28
REMARK H PARENT 9 19 11 21 13 23 4 25 22 27 19 29
REMARK Flexibility Score: inf
ROOT
ATOM      1  C   UNL     1      -3.164   0.796  10.465  1.00  0.00     0.180 A 
ATOM      2  C   UNL     1      -3.603   1.611  11.526  1.00  0.00     0.208 A 
ATOM      3  C   UNL     1      -4.086   1.000  12.693  1.00  0.00     0.238 A 
ATOM      4  O   UNL     1      -4.472   1.719  13.655  1.00  0.00    -0.285 OA
ATOM      5  C   UNL     1      -4.143  -0.406  12.774  1.00  0.00     0.111 A 
ATOM      6  C   UNL     1      -4.621  -1.100  13.912  1.00  0.00     0.134 A 
ATOM      7  C   UNL     1      -4.654  -2.502  13.909  1.00  0.00     0.093 A 
ATOM      8  C   UNL     1      -4.220  -3.223  12.792  1.00  0.00     0.123 A 
ATOM      9  C   UNL     1      -3.748  -2.545  11.667  1.00  0.00     0.094 A 
ATOM     10  C   UNL     1      -3.705  -1.147  11.650  1.00  0.00     0.146 A 
ATOM     11  O   UNL     1      -3.246  -0.528  10.569  1.00  0.00    -0.452 OA
ENDROOT
BRANCH   1  12
ATOM     12  C   UNL     1      -2.623   1.365   9.208  1.00  0.00     0.029 A 
ATOM     13  C   UNL     1      -3.490   1.616   8.135  1.00  0.00     0.062 A 
ATOM     14  C   UNL     1      -3.011   2.134   6.927  1.00  0.00     0.162 A 
ATOM     15  C   UNL     1      -1.250   1.604   9.047  1.00  0.00     0.062 A 
ATOM     16  C   UNL     1      -1.627   2.395   6.779  1.00  0.00     0.200 A 
ATOM     17  C   UNL     1      -0.755   2.121   7.843  1.00  0.00     0.162 A 
BRANCH  14  18
ATOM     18  O   UNL     1      -3.936   2.370   5.908  1.00  0.00    -0.504 OA
ATOM     19  H   UNL     1      -4.288   3.284   5.665  1.00  0.00     0.293 HD
ENDBRANCH  14  18
BRANCH  16  20
ATOM     20  O   UNL     1      -1.083   2.915   5.603  1.00  0.00    -0.502 OA
ATOM     21  H   UNL     1      -0.780   3.873   5.495  1.00  0.00     0.293 HD
ENDBRANCH  16  20
BRANCH  17  22
ATOM     22  O   UNL     1       0.609   2.363   7.693  1.00  0.00    -0.504 OA
ATOM     23  H   UNL     1       1.045   3.196   8.072  1.00  0.00     0.293 HD
ENDBRANCH  17  22
ENDBRANCH   1  12
BRANCH   2  24
ATOM     24  O   UNL     1      -3.582   3.002  11.403  1.00  0.00    -0.502 OA
ATOM     25  H   UNL     1      -3.611   3.618  12.207  1.00  0.00     0.293 HD
ENDBRANCH   2  24
BRANCH   6  26
ATOM     26  O   UNL     1      -5.061  -0.407  15.041  1.00  0.00    -0.507 OA
ATOM     27  H   UNL     1      -5.714  -0.819  15.697  1.00  0.00     0.293 HD
ENDBRANCH   6  26
BRANCH   8  28
ATOM     28  O   UNL     1      -4.254  -4.615  12.789  1.00  0.00    -0.508 OA
ATOM     29  H   UNL     1      -5.038  -5.127  13.175  1.00  0.00     0.293 HD
ENDBRANCH   8  28
TORSDOF 7
ENDMDL
MODEL 7
REMARK VINA RESULT:    -7.950      1.914      7.215
REMARK INTER + INTRA:         -10.120
REMARK INTER:                  -9.762
REMARK INTRA:                  -0.358
REMARK UNBOUND:                -0.311
REMARK SMILES O=c1c(O)c(-c2cc(O)c(O)c(O)c2)oc2cc(O)cc(O)c12
REMARK SMILES IDX 5 1 3 2 2 3 1 4 23 5 21 6 20 7 18 8 17 9 16 10 15 11 6 12
REMARK SMILES IDX 7 13 8 14 14 15 10 16 12 17 9 18 11 20 13 22 4 24 22 26
REMARK SMILES IDX 19 28
REMARK H PARENT 9 19 11 21 13 23 4 25 22 27 19 29
REMARK Flexibility Score: inf
ROOT
ATOM      1  C   UNL     1      -3.079   0.070  10.981  1.00  0.00     0.180 A 
ATOM      2  C   UNL     1      -2.693   1.211  11.709  1.00  0.00     0.208 A 
ATOM      3  C   UNL     1      -2.272   2.352  11.008  1.00  0.00     0.238 A 
ATOM      4  O   UNL     1      -1.935   3.385  11.649  1.00  0.00    -0.285 OA
ATOM      5  C   UNL     1      -2.224   2.327   9.599  1.00  0.00     0.111 A 
ATOM      6  C   UNL     1      -1.807   3.432   8.818  1.00  0.00     0.134 A 
ATOM      7  C   UNL     1      -1.778   3.323   7.420  1.00  0.00     0.093 A 
ATOM      8  C   UNL     1      -2.156   2.133   6.789  1.00  0.00     0.123 A 
ATOM      9  C   UNL     1      -2.567   1.041   7.555  1.00  0.00     0.094 A 
ATOM     10  C   UNL     1      -2.606   1.129   8.950  1.00  0.00     0.146 A 
ATOM     11  O   UNL     1      -3.006   0.077   9.653  1.00  0.00    -0.452 OA
ENDROOT
BRANCH   1  12
ATOM     12  C   UNL     1      -3.553  -1.165  11.648  1.00  0.00     0.029 A 
ATOM     13  C   UNL     1      -4.920  -1.322  11.919  1.00  0.00     0.062 A 
ATOM     14  C   UNL     1      -5.401  -2.466  12.565  1.00  0.00     0.162 A 
ATOM     15  C   UNL     1      -2.656  -2.159  12.067  1.00  0.00     0.062 A 
ATOM     16  C   UNL     1      -4.492  -3.476  12.965  1.00  0.00     0.200 A 
ATOM     17  C   UNL     1      -3.122  -3.309  12.716  1.00  0.00     0.162 A 
BRANCH  14  18
ATOM     18  O   UNL     1      -6.776  -2.557  12.790  1.00  0.00    -0.504 OA
ATOM     19  H   UNL     1      -7.227  -3.351  13.219  1.00  0.00     0.293 HD
ENDBRANCH  14  18
BRANCH  16  20
ATOM     20  O   UNL     1      -4.904  -4.644  13.609  1.00  0.00    -0.502 OA
ATOM     21  H   UNL     1      -4.273  -5.333  13.992  1.00  0.00     0.293 HD
ENDBRANCH  16  20
BRANCH  17  22
ATOM     22  O   UNL     1      -2.225  -4.296  13.123  1.00  0.00    -0.504 OA
ATOM     23  H   UNL     1      -1.379  -4.068  13.633  1.00  0.00     0.293 HD
ENDBRANCH  17  22
ENDBRANCH   1  12
BRANCH   2  24
ATOM     24  O   UNL     1      -2.704   1.194  13.106  1.00  0.00    -0.502 OA
ATOM     25  H   UNL     1      -3.503   1.506  13.646  1.00  0.00     0.293 HD
ENDBRANCH   2  24
BRANCH   6  26
ATOM     26  O   UNL     1      -1.424   4.632   9.419  1.00  0.00    -0.507 OA
ATOM     27  H   UNL     1      -2.059   5.418   9.491  1.00  0.00     0.293 HD
ENDBRANCH   6  26
BRANCH   8  28
ATOM     28  O   UNL     1      -2.126   2.025   5.401  1.00  0.00    -0.508 OA
ATOM     29  H   UNL     1      -1.364   2.410   4.856  1.00  0.00     0.293 HD
ENDBRANCH   8  28
TORSDOF 7
ENDMDL
MODEL 8
REMARK VINA RESULT:    -7.875      1.752      6.940
REMARK INTER + INTRA:         -10.028
REMARK INTER:                  -9.672
REMARK INTRA:                  -0.356
REMARK UNBOUND:                -0.311
REMARK SMILES O=c1c(O)c(-c2cc(O)c(O)c(O)c2)oc2cc(O)cc(O)c12
REMARK SMILES IDX 5 1 3 2 2 3 1 4 23 5 21 6 20 7 18 8 17 9 16 10 15 11 6 12
REMARK SMILES IDX 7 13 8 14 14 15 10 16 12 17 9 18 11 20 13 22 4 24 22 26
REMARK SMILES IDX 19 28
REMARK H PARENT 9 19 11 21 13 23 4 25 22 27 19 29
REMARK Flexibility Score: inf
ROOT
ATOM      1  C   UNL     1      -3.115  -0.872  10.124  1.00  0.00     0.180 A 
ATOM      2  C   UNL     1      -2.022  -1.560   9.563  1.00  0.00     0.208 A 
ATOM      3  C   UNL     1      -1.113  -0.851   8.763  1.00  0.00     0.238 A 
ATOM      4  O   UNL     1      -0.124  -1.455   8.264  1.00  0.00    -0.285 OA
ATOM      5  C   UNL     1      -1.320   0.522   8.520  1.00  0.00     0.111 A 
ATOM      6  C   UNL     1      -0.454   1.308   7.722  1.00  0.00     0.134 A 
ATOM      7  C   UNL     1      -0.735   2.667   7.521  1.00  0.00     0.093 A 
ATOM      8  C   UNL     1      -1.865   3.255   8.101  1.00  0.00     0.123 A 
ATOM      9  C   UNL     1      -2.721   2.485   8.889  1.00  0.00     0.094 A 
ATOM     10  C   UNL     1      -2.458   1.128   9.104  1.00  0.00     0.146 A 
ATOM     11  O   UNL     1      -3.287   0.421   9.861  1.00  0.00    -0.452 OA
ENDROOT
BRANCH   1  12
ATOM     12  C   UNL     1      -4.106  -1.545  10.994  1.00  0.00     0.029 A 
ATOM     13  C   UNL     1      -3.903  -1.569  12.381  1.00  0.00     0.062 A 
ATOM     14  C   UNL     1      -4.808  -2.214  13.232  1.00  0.00     0.162 A 
ATOM     15  C   UNL     1      -5.217  -2.212  10.456  1.00  0.00     0.062 A 
ATOM     16  C   UNL     1      -5.939  -2.865  12.684  1.00  0.00     0.200 A 
ATOM     17  C   UNL     1      -6.131  -2.862  11.294  1.00  0.00     0.162 A 
BRANCH  14  18
ATOM     18  O   UNL     1      -4.545  -2.185  14.603  1.00  0.00    -0.504 OA
ATOM     19  H   UNL     1      -3.807  -1.641  15.026  1.00  0.00     0.293 HD
ENDBRANCH  14  18
BRANCH  16  20
ATOM     20  O   UNL     1      -6.884  -3.522  13.475  1.00  0.00    -0.502 OA
ATOM     21  H   UNL     1      -7.387  -3.087  14.235  1.00  0.00     0.293 HD
ENDBRANCH  16  20
BRANCH  17  22
ATOM     22  O   UNL     1      -7.236  -3.516  10.753  1.00  0.00    -0.504 OA
ATOM     23  H   UNL     1      -8.176  -3.152  10.863  1.00  0.00     0.293 HD
ENDBRANCH  17  22
ENDBRANCH   1  12
BRANCH   2  24
ATOM     24  O   UNL     1      -1.866  -2.932   9.779  1.00  0.00    -0.502 OA
ATOM     25  H   UNL     1      -2.379  -3.429  10.498  1.00  0.00     0.293 HD
ENDBRANCH   2  24
BRANCH   6  26
ATOM     26  O   UNL     1       0.680   0.749   7.130  1.00  0.00    -0.507 OA
ATOM     27  H   UNL     1       0.611   0.019   6.430  1.00  0.00     0.293 HD
ENDBRANCH   6  26
BRANCH   8  28
ATOM     28  O   UNL     1      -2.144   4.604   7.901  1.00  0.00    -0.508 OA
ATOM     29  H   UNL     1      -2.846   4.908   7.236  1.00  0.00     0.293 HD
ENDBRANCH   8  28
TORSDOF 7
ENDMDL
MODEL 9
REMARK VINA RESULT:    -7.850      1.378      7.093
REMARK INTER + INTRA:          -9.996
REMARK INTER:                  -9.637
REMARK INTRA:                  -0.359
REMARK UNBOUND:                -0.311
REMARK SMILES O=c1c(O)c(-c2cc(O)c(O)c(O)c2)oc2cc(O)cc(O)c12
REMARK SMILES IDX 5 1 3 2 2 3 1 4 23 5 21 6 20 7 18 8 17 9 16 10 15 11 6 12
REMARK SMILES IDX 7 13 8 14 14 15 10 16 12 17 9 18 11 20 13 22 4 24 22 26
REMARK SMILES IDX 19 28
REMARK H PARENT 9 19 11 21 13 23 4 25 22 27 19 29
REMARK Flexibility Score: inf
ROOT
ATOM      1  C   UNL     1      -4.089  -0.109  10.236  1.00  0.00     0.180 A 
ATOM      2  C   UNL     1      -5.094   0.133   9.280  1.00  0.00     0.208 A 
ATOM      3  C   UNL     1      -4.756   0.810   8.098  1.00  0.00     0.238 A 
ATOM      4  O   UNL     1      -5.645   1.023   7.229  1.00  0.00    -0.285 OA
ATOM      5  C   UNL     1      -3.431   1.250   7.900  1.00  0.00     0.111 A 
ATOM      6  C   UNL     1      -3.009   1.942   6.740  1.00  0.00     0.134 A 
ATOM      7  C   UNL     1      -1.674   2.355   6.623  1.00  0.00     0.093 A 
ATOM      8  C   UNL     1      -0.754   2.091   7.643  1.00  0.00     0.123 A 
ATOM      9  C   UNL     1      -1.165   1.408   8.789  1.00  0.00     0.094 A 
ATOM     10  C   UNL     1      -2.491   0.986   8.925  1.00  0.00     0.146 A 
ATOM     11  O   UNL     1      -2.853   0.334  10.023  1.00  0.00    -0.452 OA
ENDROOT
BRANCH   1  12
ATOM     12  C   UNL     1      -4.363  -0.833  11.499  1.00  0.00     0.029 A 
ATOM     13  C   UNL     1      -4.257  -2.231  11.530  1.00  0.00     0.062 A 
ATOM     14  C   UNL     1      -4.528  -2.949  12.700  1.00  0.00     0.162 A 
ATOM     15  C   UNL     1      -4.782  -0.155  12.654  1.00  0.00     0.062 A 
ATOM     16  C   UNL     1      -4.929  -2.256  13.868  1.00  0.00     0.200 A 
ATOM     17  C   UNL     1      -5.058  -0.860  13.832  1.00  0.00     0.162 A 
BRANCH  14  18
ATOM     18  O   UNL     1      -4.389  -4.338  12.657  1.00  0.00    -0.504 OA
ATOM     19  H   UNL     1      -3.526  -4.826  12.844  1.00  0.00     0.293 HD
ENDBRANCH  14  18
BRANCH  16  20
ATOM     20  O   UNL     1      -5.209  -2.910  15.069  1.00  0.00    -0.502 OA
ATOM     21  H   UNL     1      -6.131  -2.977  15.476  1.00  0.00     0.293 HD
ENDBRANCH  16  20
BRANCH  17  22
ATOM     22  O   UNL     1      -5.466  -0.179  14.976  1.00  0.00    -0.504 OA
ATOM     23  H   UNL     1      -6.424   0.130  15.098  1.00  0.00     0.293 HD
ENDBRANCH  17  22
ENDBRANCH   1  12
BRANCH   2  24
ATOM     24  O   UNL     1      -6.410  -0.271   9.522  1.00  0.00    -0.502 OA
ATOM     25  H   UNL     1      -7.053  -0.500   8.773  1.00  0.00     0.293 HD
ENDBRANCH   2  24
BRANCH   6  26
ATOM     26  O   UNL     1      -3.905   2.221   5.706  1.00  0.00    -0.507 OA
ATOM     27  H   UNL     1      -3.604   2.266   4.739  1.00  0.00     0.293 HD
ENDBRANCH   6  26
BRANCH   8  28
ATOM     28  O   UNL     1       0.571   2.501   7.527  1.00  0.00    -0.508 OA
ATOM     29  H   UNL     1       0.991   2.690   6.625  1.00  0.00     0.293 HD
ENDBRANCH   8  28
TORSDOF 7
ENDMDL
