MODEL 1
REMARK VINA RESULT:    -5.092      0.000      0.000
REMARK INTER + INTRA:          -9.938
REMARK INTER:                  -7.921
REMARK INTRA:                  -2.018
REMARK UNBOUND:                -2.018
REMARK SMILES COc1cc(CNC(=O)CCCCC=CC(C)C)ccc1O
REMARK SMILES IDX 11 1 12 2 13 3 14 4 15 5 16 6 17 7 18 8 10 9 8 10 9 11 7 12
REMARK SMILES IDX 6 14 5 15 4 16 19 17 3 18 20 19 21 20 2 21 1 22 22 23
REMARK H PARENT 7 13 22 24
REMARK Flexibility Score: inf
ROOT
ATOM      1  C   UNL     1      -0.352   0.030   2.578  1.00  0.00     0.010 C 
ENDROOT
BRANCH   1   2
ATOM      2  C   UNL     1      -0.204   1.014   1.408  1.00  0.00     0.005 C 
BRANCH   2   3
ATOM      3  C   UNL     1       0.679   0.457   0.280  1.00  0.00     0.027 C 
BRANCH   3   4
ATOM      4  C   UNL     1      -0.080   0.392  -1.021  1.00  0.00    -0.031 C 
ATOM      5  C   UNL     1      -0.454  -0.743  -1.641  1.00  0.00    -0.028 C 
BRANCH   5   6
ATOM      6  C   UNL     1      -0.199  -2.145  -1.126  1.00  0.00     0.005 C 
ATOM      7  C   UNL     1      -1.500  -2.736  -0.576  1.00  0.00     0.012 C 
ATOM      8  C   UNL     1       0.353  -3.017  -2.259  1.00  0.00     0.012 C 
ENDBRANCH   5   6
ENDBRANCH   3   4
ENDBRANCH   2   3
ENDBRANCH   1   2
BRANCH   1   9
ATOM      9  C   UNL     1       0.725  -1.063   2.573  1.00  0.00     0.100 C 
BRANCH   9  10
ATOM     10  C   UNL     1       0.087  -2.412   2.694  1.00  0.00     0.220 C 
ATOM     11  O   UNL     1      -1.036  -2.520   3.256  1.00  0.00    -0.275 OA
ATOM     12  N   UNL     1       0.776  -3.577   2.221  1.00  0.00    -0.352 N 
ATOM     13  H   UNL     1       1.686  -3.459   1.719  1.00  0.00     0.163 HD
BRANCH  12  14
ATOM     14  C   UNL     1       0.349  -4.931   2.563  1.00  0.00     0.151 C 
BRANCH  14  15
ATOM     15  C   UNL     1      -0.399  -5.534   1.405  1.00  0.00    -0.025 A 
ATOM     16  C   UNL     1       0.283  -5.853   0.220  1.00  0.00     0.056 A 
ATOM     17  C   UNL     1      -1.762  -5.841   1.522  1.00  0.00     0.009 A 
ATOM     18  C   UNL     1      -0.396  -6.456  -0.858  1.00  0.00     0.160 A 
ATOM     19  C   UNL     1      -2.440  -6.442   0.460  1.00  0.00     0.050 A 
ATOM     20  C   UNL     1      -1.766  -6.748  -0.728  1.00  0.00     0.157 A 
BRANCH  18  21
ATOM     21  O   UNL     1       0.256  -6.774  -2.061  1.00  0.00    -0.493 OA
ATOM     22  C   UNL     1       1.618  -6.468  -2.347  1.00  0.00     0.278 C 
ENDBRANCH  18  21
BRANCH  20  23
ATOM     23  O   UNL     1      -2.477  -7.346  -1.769  1.00  0.00    -0.504 OA
ATOM     24  H   UNL     1      -2.054  -7.546  -2.668  1.00  0.00     0.293 HD
ENDBRANCH  20  23
ENDBRANCH  14  15
ENDBRANCH  12  14
ENDBRANCH   9  10
ENDBRANCH   1   9
TORSDOF 10
ENDMDL
MODEL 2
REMARK VINA RESULT:    -4.934      2.050      6.628
REMARK INTER + INTRA:          -9.691
REMARK INTER:                  -7.806
REMARK INTRA:                  -1.885
REMARK UNBOUND:                -2.018
REMARK SMILES COc1cc(CNC(=O)CCCCC=CC(C)C)ccc1O
REMARK SMILES IDX 11 1 12 2 13 3 14 4 15 5 16 6 17 7 18 8 10 9 8 10 9 11 7 12
REMARK SMILES IDX 6 14 5 15 4 16 19 17 3 18 20 19 21 20 2 21 1 22 22 23
REMARK H PARENT 7 13 22 24
REMARK Flexibility Score: inf
ROOT
ATOM      1  C   UNL     1      -0.432  -6.265  -1.633  1.00  0.00     0.010 C 
ENDROOT
BRANCH   1   2
ATOM      2  C   UNL     1      -0.311  -7.472  -0.690  1.00  0.00     0.005 C 
BRANCH   2   3
ATOM      3  C   UNL     1      -1.354  -7.445   0.437  1.00  0.00     0.027 C 
BRANCH   3   4
ATOM      4  C   UNL     1      -1.935  -6.065   0.606  1.00  0.00    -0.031 C 
ATOM      5  C   UNL     1      -1.524  -5.160   1.515  1.00  0.00    -0.028 C 
BRANCH   5   6
ATOM      6  C   UNL     1      -0.394  -5.364   2.502  1.00  0.00     0.005 C 
ATOM      7  C   UNL     1       0.877  -4.689   1.978  1.00  0.00     0.012 C 
ATOM      8  C   UNL     1      -0.789  -4.784   3.864  1.00  0.00     0.012 C 
ENDBRANCH   5   6
ENDBRANCH   3   4
ENDBRANCH   2   3
ENDBRANCH   1   2
BRANCH   1   9
ATOM      9  C   UNL     1       0.861  -5.441  -1.708  1.00  0.00     0.100 C 
BRANCH   9  10
ATOM     10  C   UNL     1       0.554  -4.046  -2.156  1.00  0.00     0.220 C 
ATOM     11  O   UNL     1       1.463  -3.348  -2.682  1.00  0.00    -0.275 OA
ATOM     12  N   UNL     1      -0.750  -3.492  -1.937  1.00  0.00    -0.352 N 
ATOM     13  H   UNL     1      -1.500  -4.103  -1.539  1.00  0.00     0.163 HD
BRANCH  12  14
ATOM     14  C   UNL     1      -1.029  -2.066  -2.082  1.00  0.00     0.151 C 
BRANCH  14  15
ATOM     15  C   UNL     1      -0.669  -1.348  -0.809  1.00  0.00    -0.025 A 
ATOM     16  C   UNL     1      -1.209  -1.777   0.414  1.00  0.00     0.056 A 
ATOM     17  C   UNL     1       0.253  -0.292  -0.823  1.00  0.00     0.009 A 
ATOM     18  C   UNL     1      -0.850  -1.141   1.620  1.00  0.00     0.160 A 
ATOM     19  C   UNL     1       0.616   0.340   0.367  1.00  0.00     0.050 A 
ATOM     20  C   UNL     1       0.070  -0.076   1.586  1.00  0.00     0.157 A 
BRANCH  18  21
ATOM     21  O   UNL     1      -1.384  -1.539   2.857  1.00  0.00    -0.493 OA
ATOM     22  C   UNL     1      -2.711  -1.259   3.292  1.00  0.00     0.278 C 
ENDBRANCH  18  21
BRANCH  20  23
ATOM     23  O   UNL     1       0.454   0.581   2.755  1.00  0.00    -0.504 OA
ATOM     24  H   UNL     1       1.364   0.442   3.179  1.00  0.00     0.293 HD
ENDBRANCH  20  23
ENDBRANCH  14  15
ENDBRANCH  12  14
ENDBRANCH   9  10
ENDBRANCH   1   9
TORSDOF 10
ENDMDL
MODEL 3
REMARK VINA RESULT:    -4.882     10.443     11.816
REMARK INTER + INTRA:          -9.612
REMARK INTER:                  -8.265
REMARK INTRA:                  -1.347
REMARK UNBOUND:                -2.018
REMARK SMILES COc1cc(CNC(=O)CCCCC=CC(C)C)ccc1O
REMARK SMILES IDX 11 1 12 2 13 3 14 4 15 5 16 6 17 7 18 8 10 9 8 10 9 11 7 12
REMARK SMILES IDX 6 14 5 15 4 16 19 17 3 18 20 19 21 20 2 21 1 22 22 23
REMARK H PARENT 7 13 22 24
REMARK Flexibility Score: inf
ROOT
ATOM      1  C   UNL     1      -6.793   7.099   1.272  1.00  0.00     0.010 C 
ENDROOT
BRANCH   1   2
ATOM      2  C   UNL     1      -5.266   7.245   1.357  1.00  0.00     0.005 C 
BRANCH   2   3
ATOM      3  C   UNL     1      -4.785   8.643   0.941  1.00  0.00     0.027 C 
BRANCH   3   4
ATOM      4  C   UNL     1      -5.063   8.902  -0.518  1.00  0.00    -0.031 C 
ATOM      5  C   UNL     1      -4.173   8.736  -1.514  1.00  0.00    -0.028 C 
BRANCH   5   6
ATOM      6  C   UNL     1      -2.752   8.240  -1.344  1.00  0.00     0.005 C 
ATOM      7  C   UNL     1      -2.632   6.819  -1.902  1.00  0.00     0.012 C 
ATOM      8  C   UNL     1      -1.786   9.186  -2.066  1.00  0.00     0.012 C 
ENDBRANCH   5   6
ENDBRANCH   3   4
ENDBRANCH   2   3
ENDBRANCH   1   2
BRANCH   1   9
ATOM      9  C   UNL     1      -7.226   5.806   0.569  1.00  0.00     0.100 C 
BRANCH   9  10
ATOM     10  C   UNL     1      -7.480   6.072  -0.882  1.00  0.00     0.220 C 
ATOM     11  O   UNL     1      -8.059   7.139  -1.226  1.00  0.00    -0.275 OA
ATOM     12  N   UNL     1      -7.116   5.095  -1.866  1.00  0.00    -0.352 N 
ATOM     13  H   UNL     1      -6.599   4.239  -1.563  1.00  0.00     0.163 HD
BRANCH  12  14
ATOM     14  C   UNL     1      -7.590   5.161  -3.246  1.00  0.00     0.151 C 
BRANCH  14  15
ATOM     15  C   UNL     1      -6.426   5.020  -4.189  1.00  0.00    -0.025 A 
ATOM     16  C   UNL     1      -6.128   3.770  -4.753  1.00  0.00     0.056 A 
ATOM     17  C   UNL     1      -5.673   6.142  -4.562  1.00  0.00     0.009 A 
ATOM     18  C   UNL     1      -5.066   3.630  -5.669  1.00  0.00     0.160 A 
ATOM     19  C   UNL     1      -4.622   6.013  -5.471  1.00  0.00     0.050 A 
ATOM     20  C   UNL     1      -4.313   4.765  -6.024  1.00  0.00     0.157 A 
BRANCH  18  21
ATOM     21  O   UNL     1      -4.736   2.389  -6.239  1.00  0.00    -0.493 OA
ATOM     22  C   UNL     1      -5.567   1.670  -7.145  1.00  0.00     0.278 C 
ENDBRANCH  18  21
BRANCH  20  23
ATOM     23  O   UNL     1      -3.254   4.673  -6.928  1.00  0.00    -0.504 OA
ATOM     24  H   UNL     1      -3.332   4.166  -7.802  1.00  0.00     0.293 HD
ENDBRANCH  20  23
ENDBRANCH  14  15
ENDBRANCH  12  14
ENDBRANCH   9  10
ENDBRANCH   1   9
TORSDOF 10
ENDMDL
MODEL 4
REMARK VINA RESULT:    -4.832      1.945      3.873
REMARK INTER + INTRA:          -9.534
REMARK INTER:                  -7.743
REMARK INTRA:                  -1.791
REMARK UNBOUND:                -2.018
REMARK SMILES COc1cc(CNC(=O)CCCCC=CC(C)C)ccc1O
REMARK SMILES IDX 11 1 12 2 13 3 14 4 15 5 16 6 17 7 18 8 10 9 8 10 9 11 7 12
REMARK SMILES IDX 6 14 5 15 4 16 19 17 3 18 20 19 21 20 2 21 1 22 22 23
REMARK H PARENT 7 13 22 24
REMARK Flexibility Score: inf
ROOT
ATOM      1  C   UNL     1       0.369   0.073   2.140  1.00  0.00     0.010 C 
ENDROOT
BRANCH   1   2
ATOM      2  C   UNL     1      -1.054   0.510   2.520  1.00  0.00     0.005 C 
BRANCH   2   3
ATOM      3  C   UNL     1      -1.779  -0.533   3.383  1.00  0.00     0.027 C 
BRANCH   3   4
ATOM      4  C   UNL     1      -2.282  -1.679   2.542  1.00  0.00    -0.031 C 
ATOM      5  C   UNL     1      -1.724  -2.904   2.496  1.00  0.00    -0.028 C 
BRANCH   5   6
ATOM      6  C   UNL     1      -0.517  -3.347   3.296  1.00  0.00     0.005 C 
ATOM      7  C   UNL     1      -0.863  -4.606   4.097  1.00  0.00     0.012 C 
ATOM      8  C   UNL     1       0.657  -3.617   2.349  1.00  0.00     0.012 C 
ENDBRANCH   5   6
ENDBRANCH   3   4
ENDBRANCH   2   3
ENDBRANCH   1   2
BRANCH   1   9
ATOM      9  C   UNL     1       0.872   0.746   0.856  1.00  0.00     0.100 C 
BRANCH   9  10
ATOM     10  C   UNL     1       0.259   0.089  -0.341  1.00  0.00     0.220 C 
ATOM     11  O   UNL     1      -0.117   0.798  -1.315  1.00  0.00    -0.275 OA
ATOM     12  N   UNL     1       0.053  -1.329  -0.355  1.00  0.00    -0.352 N 
ATOM     13  H   UNL     1       0.412  -1.902   0.443  1.00  0.00     0.163 HD
BRANCH  12  14
ATOM     14  C   UNL     1      -0.790  -1.988  -1.350  1.00  0.00     0.151 C 
BRANCH  14  15
ATOM     15  C   UNL     1      -0.584  -3.477  -1.282  1.00  0.00    -0.025 A 
ATOM     16  C   UNL     1      -1.569  -4.295  -0.707  1.00  0.00     0.056 A 
ATOM     17  C   UNL     1       0.556  -4.064  -1.848  1.00  0.00     0.009 A 
ATOM     18  C   UNL     1      -1.410  -5.695  -0.673  1.00  0.00     0.160 A 
ATOM     19  C   UNL     1       0.719  -5.450  -1.822  1.00  0.00     0.050 A 
ATOM     20  C   UNL     1      -0.254  -6.267  -1.236  1.00  0.00     0.157 A 
BRANCH  18  21
ATOM     21  O   UNL     1      -2.372  -6.538  -0.092  1.00  0.00    -0.493 OA
ATOM     22  C   UNL     1      -2.337  -6.995   1.257  1.00  0.00     0.278 C 
ENDBRANCH  18  21
BRANCH  20  23
ATOM     23  O   UNL     1      -0.056  -7.648  -1.226  1.00  0.00    -0.504 OA
ATOM     24  H   UNL     1      -0.680  -8.280  -0.739  1.00  0.00     0.293 HD
ENDBRANCH  20  23
ENDBRANCH  14  15
ENDBRANCH  12  14
ENDBRANCH   9  10
ENDBRANCH   1   9
TORSDOF 10
ENDMDL
MODEL 5
REMARK VINA RESULT:    -4.828      1.780      4.924
REMARK INTER + INTRA:          -9.527
REMARK INTER:                  -8.159
REMARK INTRA:                  -1.368
REMARK UNBOUND:                -2.018
REMARK SMILES COc1cc(CNC(=O)CCCCC=CC(C)C)ccc1O
REMARK SMILES IDX 11 1 12 2 13 3 14 4 15 5 16 6 17 7 18 8 10 9 8 10 9 11 7 12
REMARK SMILES IDX 6 14 5 15 4 16 19 17 3 18 20 19 21 20 2 21 1 22 22 23
REMARK H PARENT 7 13 22 24
REMARK Flexibility Score: inf
ROOT
ATOM      1  C   UNL     1       1.280  -4.033   3.133  1.00  0.00     0.010 C 
ENDROOT
BRANCH   1   2
ATOM      2  C   UNL     1       0.580  -4.974   4.125  1.00  0.00     0.005 C 
BRANCH   2   3
ATOM      3  C   UNL     1      -0.496  -5.842   3.454  1.00  0.00     0.027 C 
BRANCH   3   4
ATOM      4  C   UNL     1      -1.134  -5.116   2.296  1.00  0.00    -0.031 C 
ATOM      5  C   UNL     1      -1.823  -5.707   1.301  1.00  0.00    -0.028 C 
BRANCH   5   6
ATOM      6  C   UNL     1      -2.096  -7.193   1.188  1.00  0.00     0.005 C 
ATOM      7  C   UNL     1      -3.441  -7.418   0.491  1.00  0.00     0.012 C 
ATOM      8  C   UNL     1      -0.964  -7.866   0.406  1.00  0.00     0.012 C 
ENDBRANCH   5   6
ENDBRANCH   3   4
ENDBRANCH   2   3
ENDBRANCH   1   2
BRANCH   1   9
ATOM      9  C   UNL     1       1.560  -2.647   3.729  1.00  0.00     0.100 C 
BRANCH   9  10
ATOM     10  C   UNL     1       0.598  -1.645   3.170  1.00  0.00     0.220 C 
ATOM     11  O   UNL     1      -0.542  -1.519   3.694  1.00  0.00    -0.275 OA
ATOM     12  N   UNL     1       0.955  -0.875   2.015  1.00  0.00    -0.352 N 
ATOM     13  H   UNL     1       1.920  -0.964   1.624  1.00  0.00     0.163 HD
BRANCH  12  14
ATOM     14  C   UNL     1      -0.026  -0.103   1.256  1.00  0.00     0.151 C 
BRANCH  14  15
ATOM     15  C   UNL     1      -0.276  -0.768  -0.071  1.00  0.00    -0.025 A 
ATOM     16  C   UNL     1      -0.374  -2.166  -0.148  1.00  0.00     0.056 A 
ATOM     17  C   UNL     1      -0.477   0.002  -1.225  1.00  0.00     0.009 A 
ATOM     18  C   UNL     1      -0.648  -2.801  -1.376  1.00  0.00     0.160 A 
ATOM     19  C   UNL     1      -0.752  -0.619  -2.445  1.00  0.00     0.050 A 
ATOM     20  C   UNL     1      -0.837  -2.013  -2.527  1.00  0.00     0.157 A 
BRANCH  18  21
ATOM     21  O   UNL     1      -0.739  -4.198  -1.486  1.00  0.00    -0.493 OA
ATOM     22  C   UNL     1       0.373  -5.067  -1.682  1.00  0.00     0.278 C 
ENDBRANCH  18  21
BRANCH  20  23
ATOM     23  O   UNL     1      -1.111  -2.599  -3.763  1.00  0.00    -0.504 OA
ATOM     24  H   UNL     1      -0.546  -3.348  -4.144  1.00  0.00     0.293 HD
ENDBRANCH  20  23
ENDBRANCH  14  15
ENDBRANCH  12  14
ENDBRANCH   9  10
ENDBRANCH   1   9
TORSDOF 10
ENDMDL
MODEL 6
REMARK VINA RESULT:    -4.798      2.167      3.821
REMARK INTER + INTRA:          -9.481
REMARK INTER:                  -7.341
REMARK INTRA:                  -2.140
REMARK UNBOUND:                -2.018
REMARK SMILES COc1cc(CNC(=O)CCCCC=CC(C)C)ccc1O
REMARK SMILES IDX 11 1 12 2 13 3 14 4 15 5 16 6 17 7 18 8 10 9 8 10 9 11 7 12
REMARK SMILES IDX 6 14 5 15 4 16 19 17 3 18 20 19 21 20 2 21 1 22 22 23
REMARK H PARENT 7 13 22 24
REMARK Flexibility Score: inf
ROOT
ATOM      1  C   UNL     1       0.439   0.125  -0.216  1.00  0.00     0.010 C 
ENDROOT
BRANCH   1   2
ATOM      2  C   UNL     1       0.060   1.127   0.886  1.00  0.00     0.005 C 
BRANCH   2   3
ATOM      3  C   UNL     1      -0.074   0.461   2.264  1.00  0.00     0.027 C 
BRANCH   3   4
ATOM      4  C   UNL     1       0.767  -0.787   2.348  1.00  0.00    -0.031 C 
ATOM      5  C   UNL     1       0.322  -1.990   2.759  1.00  0.00    -0.028 C 
BRANCH   5   6
ATOM      6  C   UNL     1      -1.099  -2.300   3.180  1.00  0.00     0.005 C 
ATOM      7  C   UNL     1      -1.954  -2.582   1.941  1.00  0.00     0.012 C 
ATOM      8  C   UNL     1      -1.105  -3.507   4.125  1.00  0.00     0.012 C 
ENDBRANCH   5   6
ENDBRANCH   3   4
ENDBRANCH   2   3
ENDBRANCH   1   2
BRANCH   1   9
ATOM      9  C   UNL     1      -0.775  -0.350  -1.026  1.00  0.00     0.100 C 
BRANCH   9  10
ATOM     10  C   UNL     1      -0.478  -1.670  -1.667  1.00  0.00     0.220 C 
ATOM     11  O   UNL     1      -0.915  -1.911  -2.825  1.00  0.00    -0.275 OA
ATOM     12  N   UNL     1       0.251  -2.672  -0.945  1.00  0.00    -0.352 N 
ATOM     13  H   UNL     1       0.640  -2.435  -0.004  1.00  0.00     0.163 HD
BRANCH  12  14
ATOM     14  C   UNL     1       0.322  -4.061  -1.390  1.00  0.00     0.151 C 
BRANCH  14  15
ATOM     15  C   UNL     1      -0.213  -4.966  -0.314  1.00  0.00    -0.025 A 
ATOM     16  C   UNL     1       0.594  -5.304   0.784  1.00  0.00     0.056 A 
ATOM     17  C   UNL     1      -1.537  -5.425  -0.364  1.00  0.00     0.009 A 
ATOM     18  C   UNL     1       0.094  -6.118   1.820  1.00  0.00     0.160 A 
ATOM     19  C   UNL     1      -2.041  -6.228   0.660  1.00  0.00     0.050 A 
ATOM     20  C   UNL     1      -1.234  -6.578   1.749  1.00  0.00     0.157 A 
BRANCH  18  21
ATOM     21  O   UNL     1       0.882  -6.482   2.924  1.00  0.00    -0.493 OA
ATOM     22  C   UNL     1       1.872  -5.650   3.520  1.00  0.00     0.278 C 
ENDBRANCH  18  21
BRANCH  20  23
ATOM     23  O   UNL     1      -1.771  -7.384   2.753  1.00  0.00    -0.504 OA
ATOM     24  H   UNL     1      -2.758  -7.609   2.796  1.00  0.00     0.293 HD
ENDBRANCH  20  23
ENDBRANCH  14  15
ENDBRANCH  12  14
ENDBRANCH   9  10
ENDBRANCH   1   9
TORSDOF 10
ENDMDL
MODEL 7
REMARK VINA RESULT:    -4.732      1.700      2.926
REMARK INTER + INTRA:          -9.379
REMARK INTER:                  -7.398
REMARK INTRA:                  -1.980
REMARK UNBOUND:                -2.018
REMARK SMILES COc1cc(CNC(=O)CCCCC=CC(C)C)ccc1O
REMARK SMILES IDX 11 1 12 2 13 3 14 4 15 5 16 6 17 7 18 8 10 9 8 10 9 11 7 12
REMARK SMILES IDX 6 14 5 15 4 16 19 17 3 18 20 19 21 20 2 21 1 22 22 23
REMARK H PARENT 7 13 22 24
REMARK Flexibility Score: inf
ROOT
ATOM      1  C   UNL     1      -0.798   0.227  -0.520  1.00  0.00     0.010 C 
ENDROOT
BRANCH   1   2
ATOM      2  C   UNL     1      -0.438   0.585  -1.970  1.00  0.00     0.005 C 
BRANCH   2   3
ATOM      3  C   UNL     1       0.718  -0.266  -2.517  1.00  0.00     0.027 C 
BRANCH   3   4
ATOM      4  C   UNL     1       0.212  -1.322  -3.467  1.00  0.00    -0.031 C 
ATOM      5  C   UNL     1      -0.165  -2.564  -3.110  1.00  0.00    -0.028 C 
BRANCH   5   6
ATOM      6  C   UNL     1      -0.170  -3.103  -1.695  1.00  0.00     0.005 C 
ATOM      7  C   UNL     1      -1.613  -3.353  -1.244  1.00  0.00     0.012 C 
ATOM      8  C   UNL     1       0.645  -4.399  -1.635  1.00  0.00     0.012 C 
ENDBRANCH   5   6
ENDBRANCH   3   4
ENDBRANCH   2   3
ENDBRANCH   1   2
BRANCH   1   9
ATOM      9  C   UNL     1       0.438   0.096   0.381  1.00  0.00     0.100 C 
BRANCH   9  10
ATOM     10  C   UNL     1       0.078  -0.628   1.641  1.00  0.00     0.220 C 
ATOM     11  O   UNL     1       0.838  -0.543   2.645  1.00  0.00    -0.275 OA
ATOM     12  N   UNL     1      -1.093  -1.453   1.687  1.00  0.00    -0.352 N 
ATOM     13  H   UNL     1      -1.731  -1.474   0.859  1.00  0.00     0.163 HD
BRANCH  12  14
ATOM     14  C   UNL     1      -1.341  -2.400   2.770  1.00  0.00     0.151 C 
BRANCH  14  15
ATOM     15  C   UNL     1      -0.904  -3.777   2.349  1.00  0.00    -0.025 A 
ATOM     16  C   UNL     1      -1.845  -4.686   1.839  1.00  0.00     0.056 A 
ATOM     17  C   UNL     1       0.449  -4.141   2.401  1.00  0.00     0.009 A 
ATOM     18  C   UNL     1      -1.444  -5.965   1.402  1.00  0.00     0.160 A 
ATOM     19  C   UNL     1       0.854  -5.405   1.967  1.00  0.00     0.050 A 
ATOM     20  C   UNL     1      -0.084  -6.317   1.471  1.00  0.00     0.157 A 
BRANCH  18  21
ATOM     21  O   UNL     1      -2.365  -6.899   0.899  1.00  0.00    -0.493 OA
ATOM     22  C   UNL     1      -2.660  -7.079  -0.482  1.00  0.00     0.278 C 
ENDBRANCH  18  21
BRANCH  20  23
ATOM     23  O   UNL     1       0.357  -7.572   1.049  1.00  0.00    -0.504 OA
ATOM     24  H   UNL     1      -0.215  -8.181   0.476  1.00  0.00     0.293 HD
ENDBRANCH  20  23
ENDBRANCH  14  15
ENDBRANCH  12  14
ENDBRANCH   9  10
ENDBRANCH   1   9
TORSDOF 10
ENDMDL
MODEL 8
REMARK VINA RESULT:    -4.694     11.050     13.685
REMARK INTER + INTRA:          -9.319
REMARK INTER:                  -6.981
REMARK INTRA:                  -2.337
REMARK UNBOUND:                -2.018
REMARK SMILES COc1cc(CNC(=O)CCCCC=CC(C)C)ccc1O
REMARK SMILES IDX 11 1 12 2 13 3 14 4 15 5 16 6 17 7 18 8 10 9 8 10 9 11 7 12
REMARK SMILES IDX 6 14 5 15 4 16 19 17 3 18 20 19 21 20 2 21 1 22 22 23
REMARK H PARENT 7 13 22 24
REMARK Flexibility Score: inf
ROOT
ATOM      1  C   UNL     1      -2.421   6.400  -3.779  1.00  0.00     0.010 C 
ENDROOT
BRANCH   1   2
ATOM      2  C   UNL     1      -2.097   6.284  -2.282  1.00  0.00     0.005 C 
BRANCH   2   3
ATOM      3  C   UNL     1      -2.477   7.549  -1.499  1.00  0.00     0.027 C 
BRANCH   3   4
ATOM      4  C   UNL     1      -1.862   8.778  -2.120  1.00  0.00    -0.031 C 
ATOM      5  C   UNL     1      -2.555   9.809  -2.639  1.00  0.00    -0.028 C 
BRANCH   5   6
ATOM      6  C   UNL     1      -4.065   9.922  -2.666  1.00  0.00     0.005 C 
ATOM      7  C   UNL     1      -4.492  11.262  -2.058  1.00  0.00     0.012 C 
ATOM      8  C   UNL     1      -4.565   9.802  -4.109  1.00  0.00     0.012 C 
ENDBRANCH   5   6
ENDBRANCH   3   4
ENDBRANCH   2   3
ENDBRANCH   1   2
BRANCH   1   9
ATOM      9  C   UNL     1      -3.422   5.337  -4.252  1.00  0.00     0.100 C 
BRANCH   9  10
ATOM     10  C   UNL     1      -4.793   5.931  -4.348  1.00  0.00     0.220 C 
ATOM     11  O   UNL     1      -5.205   6.369  -5.456  1.00  0.00    -0.275 OA
ATOM     12  N   UNL     1      -5.609   6.049  -3.174  1.00  0.00    -0.352 N 
ATOM     13  H   UNL     1      -5.265   5.640  -2.275  1.00  0.00     0.163 HD
BRANCH  12  14
ATOM     14  C   UNL     1      -6.817   6.869  -3.141  1.00  0.00     0.151 C 
BRANCH  14  15
ATOM     15  C   UNL     1      -6.820   7.716  -1.897  1.00  0.00    -0.025 A 
ATOM     16  C   UNL     1      -5.937   7.422  -0.846  1.00  0.00     0.056 A 
ATOM     17  C   UNL     1      -7.652   8.840  -1.805  1.00  0.00     0.009 A 
ATOM     18  C   UNL     1      -5.899   8.231   0.307  1.00  0.00     0.160 A 
ATOM     19  C   UNL     1      -7.618   9.649  -0.667  1.00  0.00     0.050 A 
ATOM     20  C   UNL     1      -6.749   9.350   0.388  1.00  0.00     0.157 A 
BRANCH  18  21
ATOM     21  O   UNL     1      -5.036   7.953   1.381  1.00  0.00    -0.493 OA
ATOM     22  C   UNL     1      -5.267   6.950   2.365  1.00  0.00     0.278 C 
ENDBRANCH  18  21
BRANCH  20  23
ATOM     23  O   UNL     1      -6.744  10.179   1.510  1.00  0.00    -0.504 OA
ATOM     24  H   UNL     1      -7.597  10.455   1.982  1.00  0.00     0.293 HD
ENDBRANCH  20  23
ENDBRANCH  14  15
ENDBRANCH  12  14
ENDBRANCH   9  10
ENDBRANCH   1   9
TORSDOF 10
ENDMDL
MODEL 9
REMARK VINA RESULT:    -4.622     11.386     14.033
REMARK INTER + INTRA:          -9.206
REMARK INTER:                  -6.919
REMARK INTRA:                  -2.287
REMARK UNBOUND:                -2.018
REMARK SMILES COc1cc(CNC(=O)CCCCC=CC(C)C)ccc1O
REMARK SMILES IDX 11 1 12 2 13 3 14 4 15 5 16 6 17 7 18 8 10 9 8 10 9 11 7 12
REMARK SMILES IDX 6 14 5 15 4 16 19 17 3 18 20 19 21 20 2 21 1 22 22 23
REMARK H PARENT 7 13 22 24
REMARK Flexibility Score: inf
ROOT
ATOM      1  C   UNL     1      -6.959   6.760  -3.784  1.00  0.00     0.010 C 
ENDROOT
BRANCH   1   2
ATOM      2  C   UNL     1      -6.291   5.839  -4.816  1.00  0.00     0.005 C 
BRANCH   2   3
ATOM      3  C   UNL     1      -5.511   6.620  -5.884  1.00  0.00     0.027 C 
BRANCH   3   4
ATOM      4  C   UNL     1      -4.780   7.790  -5.275  1.00  0.00    -0.031 C 
ATOM      5  C   UNL     1      -3.487   7.780  -4.899  1.00  0.00    -0.028 C 
BRANCH   5   6
ATOM      6  C   UNL     1      -2.542   6.605  -5.046  1.00  0.00     0.005 C 
ATOM      7  C   UNL     1      -1.113   7.116  -5.250  1.00  0.00     0.012 C 
ATOM      8  C   UNL     1      -2.625   5.719  -3.799  1.00  0.00     0.012 C 
ENDBRANCH   5   6
ENDBRANCH   3   4
ENDBRANCH   2   3
ENDBRANCH   1   2
BRANCH   1   9
ATOM      9  C   UNL     1      -7.208   6.061  -2.440  1.00  0.00     0.100 C 
BRANCH   9  10
ATOM     10  C   UNL     1      -6.510   6.800  -1.341  1.00  0.00     0.220 C 
ATOM     11  O   UNL     1      -7.192   7.397  -0.464  1.00  0.00    -0.275 OA
ATOM     12  N   UNL     1      -5.079   6.872  -1.320  1.00  0.00    -0.352 N 
ATOM     13  H   UNL     1      -4.534   6.334  -2.032  1.00  0.00     0.163 HD
BRANCH  12  14
ATOM     14  C   UNL     1      -4.355   7.803  -0.458  1.00  0.00     0.151 C 
BRANCH  14  15
ATOM     15  C   UNL     1      -3.580   8.777  -1.303  1.00  0.00    -0.025 A 
ATOM     16  C   UNL     1      -4.223   9.899  -1.849  1.00  0.00     0.056 A 
ATOM     17  C   UNL     1      -2.202   8.609  -1.498  1.00  0.00     0.009 A 
ATOM     18  C   UNL     1      -3.501  10.842  -2.609  1.00  0.00     0.160 A 
ATOM     19  C   UNL     1      -1.479   9.541  -2.246  1.00  0.00     0.050 A 
ATOM     20  C   UNL     1      -2.121  10.653  -2.803  1.00  0.00     0.157 A 
BRANCH  18  21
ATOM     21  O   UNL     1      -4.121  11.967  -3.178  1.00  0.00    -0.493 OA
ATOM     22  C   UNL     1      -4.833  11.959  -4.412  1.00  0.00     0.278 C 
ENDBRANCH  18  21
BRANCH  20  23
ATOM     23  O   UNL     1      -1.367  11.561  -3.547  1.00  0.00    -0.504 OA
ATOM     24  H   UNL     1      -0.449  11.872  -3.251  1.00  0.00     0.293 HD
ENDBRANCH  20  23
ENDBRANCH  14  15
ENDBRANCH  12  14
ENDBRANCH   9  10
ENDBRANCH   1   9
TORSDOF 10
ENDMDL
