MODEL 1
REMARK VINA RESULT:    -4.423      0.000      0.000
REMARK INTER + INTRA:         -11.087
REMARK INTER:                  -8.561
REMARK INTRA:                  -2.526
REMARK UNBOUND:                -2.526
REMARK SMILES CCCCCCCCCCCCCCCCCC(=O)[O-]
REMARK SMILES IDX 10 1 11 2 12 3 13 4 14 5 15 6 16 7 17 8 18 9 19 10 20 11
REMARK SMILES IDX 9 12 8 13 7 14 6 15 5 16 4 17 3 18 2 19 1 20
REMARK H PARENT
REMARK Flexibility Score: inf
ROOT
ATOM      1  C   UNL     1      11.181  54.004  36.901  1.00  0.00     0.000 C 
ENDROOT
BRANCH   1   2
ATOM      2  C   UNL     1      11.486  54.503  35.477  1.00  0.00     0.000 C 
BRANCH   2   3
ATOM      3  C   UNL     1      12.232  55.850  35.405  1.00  0.00     0.000 C 
BRANCH   3   4
ATOM      4  C   UNL     1      13.239  55.981  34.245  1.00  0.00     0.000 C 
BRANCH   4   5
ATOM      5  C   UNL     1      14.537  56.731  34.593  1.00  0.00     0.000 C 
BRANCH   5   6
ATOM      6  C   UNL     1      15.757  56.196  33.829  1.00  0.00     0.000 C 
BRANCH   6   7
ATOM      7  C   UNL     1      16.845  57.274  33.708  1.00  0.00     0.006 C 
BRANCH   7   8
ATOM      8  C   UNL     1      16.721  58.348  34.798  1.00  0.00     0.053 C 
BRANCH   8   9
ATOM      9  C   UNL     1      16.624  59.724  34.211  1.00  0.00     0.041 C 
ATOM     10  O   UNL     1      16.296  60.700  34.936  1.00  0.00    -0.550 OA
ATOM     11  O   UNL     1      16.859  59.920  32.857  1.00  0.00    -0.550 OA
ENDBRANCH   8   9
ENDBRANCH   7   8
ENDBRANCH   6   7
ENDBRANCH   5   6
ENDBRANCH   4   5
ENDBRANCH   3   4
ENDBRANCH   2   3
ENDBRANCH   1   2
BRANCH   1  12
ATOM     12  C   UNL     1      12.362  54.189  37.864  1.00  0.00     0.000 C 
BRANCH  12  13
ATOM     13  C   UNL     1      13.500  53.212  37.531  1.00  0.00    -0.000 C 
BRANCH  13  14
ATOM     14  C   UNL     1      14.802  53.928  37.141  1.00  0.00    -0.000 C 
BRANCH  14  15
ATOM     15  C   UNL     1      15.575  53.194  36.035  1.00  0.00    -0.000 C 
BRANCH  15  16
ATOM     16  C   UNL     1      15.069  51.753  35.878  1.00  0.00    -0.000 C 
BRANCH  16  17
ATOM     17  C   UNL     1      14.720  51.397  34.423  1.00  0.00    -0.000 C 
BRANCH  17  18
ATOM     18  C   UNL     1      14.364  52.601  33.530  1.00  0.00    -0.000 C 
BRANCH  18  19
ATOM     19  C   UNL     1      12.978  52.490  32.860  1.00  0.00    -0.003 C 
ATOM     20  C   UNL     1      12.893  53.280  31.553  1.00  0.00     0.004 C 
ENDBRANCH  18  19
ENDBRANCH  17  18
ENDBRANCH  16  17
ENDBRANCH  15  16
ENDBRANCH  14  15
ENDBRANCH  13  14
ENDBRANCH  12  13
ENDBRANCH   1  12
TORSDOF 16
ENDMDL
MODEL 2
REMARK VINA RESULT:    -4.357      4.177      6.794
REMARK INTER + INTRA:         -10.959
REMARK INTER:                  -8.635
REMARK INTRA:                  -2.324
REMARK UNBOUND:                -2.526
REMARK SMILES CCCCCCCCCCCCCCCCCC(=O)[O-]
REMARK SMILES IDX 10 1 11 2 12 3 13 4 14 5 15 6 16 7 17 8 18 9 19 10 20 11
REMARK SMILES IDX 9 12 8 13 7 14 6 15 5 16 4 17 3 18 2 19 1 20
REMARK H PARENT
REMARK Flexibility Score: inf
ROOT
ATOM      1  C   UNL     1      13.126  53.294  37.713  1.00  0.00     0.000 C 
ENDROOT
BRANCH   1   2
ATOM      2  C   UNL     1      14.475  53.995  37.471  1.00  0.00     0.000 C 
BRANCH   2   3
ATOM      3  C   UNL     1      15.461  53.219  36.573  1.00  0.00     0.000 C 
BRANCH   3   4
ATOM      4  C   UNL     1      14.895  51.935  35.936  1.00  0.00     0.000 C 
BRANCH   4   5
ATOM      5  C   UNL     1      15.039  51.850  34.406  1.00  0.00     0.000 C 
BRANCH   5   6
ATOM      6  C   UNL     1      13.829  51.189  33.729  1.00  0.00     0.000 C 
BRANCH   6   7
ATOM      7  C   UNL     1      14.137  49.731  33.359  1.00  0.00     0.006 C 
BRANCH   7   8
ATOM      8  C   UNL     1      15.445  49.598  32.565  1.00  0.00     0.053 C 
BRANCH   8   9
ATOM      9  C   UNL     1      15.698  48.181  32.148  1.00  0.00     0.041 C 
ATOM     10  O   UNL     1      15.175  47.229  32.786  1.00  0.00    -0.550 OA
ATOM     11  O   UNL     1      16.540  47.912  31.077  1.00  0.00    -0.550 OA
ENDBRANCH   8   9
ENDBRANCH   7   8
ENDBRANCH   6   7
ENDBRANCH   5   6
ENDBRANCH   4   5
ENDBRANCH   3   4
ENDBRANCH   2   3
ENDBRANCH   1   2
BRANCH   1  12
ATOM     12  C   UNL     1      11.922  54.205  37.433  1.00  0.00     0.000 C 
BRANCH  12  13
ATOM     13  C   UNL     1      12.190  55.110  36.221  1.00  0.00    -0.000 C 
BRANCH  13  14
ATOM     14  C   UNL     1      11.835  54.435  34.887  1.00  0.00    -0.000 C 
BRANCH  14  15
ATOM     15  C   UNL     1      12.836  54.767  33.769  1.00  0.00    -0.000 C 
BRANCH  15  16
ATOM     16  C   UNL     1      13.918  55.732  34.273  1.00  0.00    -0.000 C 
BRANCH  16  17
ATOM     17  C   UNL     1      15.296  55.468  33.642  1.00  0.00    -0.000 C 
BRANCH  17  18
ATOM     18  C   UNL     1      16.317  56.608  33.815  1.00  0.00    -0.000 C 
BRANCH  18  19
ATOM     19  C   UNL     1      15.777  57.813  34.614  1.00  0.00    -0.003 C 
ATOM     20  C   UNL     1      16.815  58.924  34.772  1.00  0.00     0.004 C 
ENDBRANCH  18  19
ENDBRANCH  17  18
ENDBRANCH  16  17
ENDBRANCH  15  16
ENDBRANCH  14  15
ENDBRANCH  13  14
ENDBRANCH  12  13
ENDBRANCH   1  12
TORSDOF 16
ENDMDL
MODEL 3
REMARK VINA RESULT:    -4.323      1.815      3.154
REMARK INTER + INTRA:         -10.893
REMARK INTER:                  -8.719
REMARK INTRA:                  -2.174
REMARK UNBOUND:                -2.526
REMARK SMILES CCCCCCCCCCCCCCCCCC(=O)[O-]
REMARK SMILES IDX 10 1 11 2 12 3 13 4 14 5 15 6 16 7 17 8 18 9 19 10 20 11
REMARK SMILES IDX 9 12 8 13 7 14 6 15 5 16 4 17 3 18 2 19 1 20
REMARK H PARENT
REMARK Flexibility Score: inf
ROOT
ATOM      1  C   UNL     1      13.703  52.992  37.516  1.00  0.00     0.000 C 
ENDROOT
BRANCH   1   2
ATOM      2  C   UNL     1      12.580  53.995  37.833  1.00  0.00     0.000 C 
BRANCH   2   3
ATOM      3  C   UNL     1      11.410  54.001  36.828  1.00  0.00     0.000 C 
BRANCH   3   4
ATOM      4  C   UNL     1      11.788  54.383  35.383  1.00  0.00     0.000 C 
BRANCH   4   5
ATOM      5  C   UNL     1      12.508  55.735  35.236  1.00  0.00     0.000 C 
BRANCH   5   6
ATOM      6  C   UNL     1      13.597  55.715  34.153  1.00  0.00     0.000 C 
BRANCH   6   7
ATOM      7  C   UNL     1      14.881  56.394  34.654  1.00  0.00     0.006 C 
BRANCH   7   8
ATOM      8  C   UNL     1      16.070  56.151  33.714  1.00  0.00     0.053 C 
BRANCH   8   9
ATOM      9  C   UNL     1      16.778  57.427  33.374  1.00  0.00     0.041 C 
ATOM     10  O   UNL     1      17.805  57.772  34.015  1.00  0.00    -0.550 OA
ATOM     11  O   UNL     1      16.281  58.252  32.373  1.00  0.00    -0.550 OA
ENDBRANCH   8   9
ENDBRANCH   7   8
ENDBRANCH   6   7
ENDBRANCH   5   6
ENDBRANCH   4   5
ENDBRANCH   3   4
ENDBRANCH   2   3
ENDBRANCH   1   2
BRANCH   1  12
ATOM     12  C   UNL     1      14.984  53.672  37.010  1.00  0.00     0.000 C 
BRANCH  12  13
ATOM     13  C   UNL     1      15.719  52.775  36.002  1.00  0.00    -0.000 C 
BRANCH  13  14
ATOM     14  C   UNL     1      14.784  51.773  35.308  1.00  0.00    -0.000 C 
BRANCH  14  15
ATOM     15  C   UNL     1      14.418  52.196  33.878  1.00  0.00    -0.000 C 
BRANCH  15  16
ATOM     16  C   UNL     1      13.532  51.138  33.203  1.00  0.00    -0.000 C 
BRANCH  16  17
ATOM     17  C   UNL     1      14.125  49.721  33.286  1.00  0.00    -0.000 C 
BRANCH  17  18
ATOM     18  C   UNL     1      15.359  49.482  32.394  1.00  0.00    -0.000 C 
BRANCH  18  19
ATOM     19  C   UNL     1      15.735  47.994  32.237  1.00  0.00    -0.003 C 
ATOM     20  C   UNL     1      14.710  47.059  32.879  1.00  0.00     0.004 C 
ENDBRANCH  18  19
ENDBRANCH  17  18
ENDBRANCH  16  17
ENDBRANCH  15  16
ENDBRANCH  14  15
ENDBRANCH  13  14
ENDBRANCH  12  13
ENDBRANCH   1  12
TORSDOF 16
ENDMDL
MODEL 4
REMARK VINA RESULT:    -4.303      3.516      6.358
REMARK INTER + INTRA:         -10.854
REMARK INTER:                  -8.626
REMARK INTRA:                  -2.228
REMARK UNBOUND:                -2.526
REMARK SMILES CCCCCCCCCCCCCCCCCC(=O)[O-]
REMARK SMILES IDX 10 1 11 2 12 3 13 4 14 5 15 6 16 7 17 8 18 9 19 10 20 11
REMARK SMILES IDX 9 12 8 13 7 14 6 15 5 16 4 17 3 18 2 19 1 20
REMARK H PARENT
REMARK Flexibility Score: inf
ROOT
ATOM      1  C   UNL     1      11.925  54.302  35.126  1.00  0.00     0.000 C 
ENDROOT
BRANCH   1   2
ATOM      2  C   UNL     1      11.376  54.033  36.538  1.00  0.00     0.000 C 
BRANCH   2   3
ATOM      3  C   UNL     1      12.436  54.025  37.658  1.00  0.00     0.000 C 
BRANCH   3   4
ATOM      4  C   UNL     1      13.598  53.033  37.454  1.00  0.00     0.000 C 
BRANCH   4   5
ATOM      5  C   UNL     1      14.944  53.678  37.078  1.00  0.00     0.000 C 
BRANCH   5   6
ATOM      6  C   UNL     1      15.717  52.872  36.024  1.00  0.00     0.000 C 
BRANCH   6   7
ATOM      7  C   UNL     1      14.865  51.710  35.488  1.00  0.00     0.006 C 
BRANCH   7   8
ATOM      8  C   UNL     1      14.509  51.888  34.005  1.00  0.00     0.053 C 
BRANCH   8   9
ATOM      9  C   UNL     1      14.312  50.570  33.321  1.00  0.00     0.041 C 
ATOM     10  O   UNL     1      15.307  49.879  32.979  1.00  0.00    -0.550 OA
ATOM     11  O   UNL     1      13.030  50.123  33.029  1.00  0.00    -0.550 OA
ENDBRANCH   8   9
ENDBRANCH   7   8
ENDBRANCH   6   7
ENDBRANCH   5   6
ENDBRANCH   4   5
ENDBRANCH   3   4
ENDBRANCH   2   3
ENDBRANCH   1   2
BRANCH   1  12
ATOM     12  C   UNL     1      11.917  55.793  34.756  1.00  0.00     0.000 C 
BRANCH  12  13
ATOM     13  C   UNL     1      13.327  56.393  34.867  1.00  0.00    -0.000 C 
BRANCH  13  14
ATOM     14  C   UNL     1      14.376  55.590  34.082  1.00  0.00    -0.000 C 
BRANCH  14  15
ATOM     15  C   UNL     1      15.775  56.221  34.147  1.00  0.00    -0.000 C 
BRANCH  15  16
ATOM     16  C   UNL     1      16.006  57.165  32.958  1.00  0.00    -0.000 C 
BRANCH  16  17
ATOM     17  C   UNL     1      16.904  58.362  33.311  1.00  0.00    -0.000 C 
BRANCH  17  18
ATOM     18  C   UNL     1      16.923  58.739  34.805  1.00  0.00    -0.000 C 
BRANCH  18  19
ATOM     19  C   UNL     1      16.492  60.194  35.085  1.00  0.00    -0.003 C 
ATOM     20  C   UNL     1      15.111  60.517  34.515  1.00  0.00     0.004 C 
ENDBRANCH  18  19
ENDBRANCH  17  18
ENDBRANCH  16  17
ENDBRANCH  15  16
ENDBRANCH  14  15
ENDBRANCH  13  14
ENDBRANCH  12  13
ENDBRANCH   1  12
TORSDOF 16
ENDMDL
MODEL 5
REMARK VINA RESULT:    -4.285      1.611      2.430
REMARK INTER + INTRA:         -10.820
REMARK INTER:                  -8.866
REMARK INTRA:                  -1.954
REMARK UNBOUND:                -2.526
REMARK SMILES CCCCCCCCCCCCCCCCCC(=O)[O-]
REMARK SMILES IDX 10 1 11 2 12 3 13 4 14 5 15 6 16 7 17 8 18 9 19 10 20 11
REMARK SMILES IDX 9 12 8 13 7 14 6 15 5 16 4 17 3 18 2 19 1 20
REMARK H PARENT
REMARK Flexibility Score: inf
ROOT
ATOM      1  C   UNL     1      12.880  53.886  37.923  1.00  0.00     0.000 C 
ENDROOT
BRANCH   1   2
ATOM      2  C   UNL     1      11.574  53.982  37.115  1.00  0.00     0.000 C 
BRANCH   2   3
ATOM      3  C   UNL     1      11.748  54.414  35.645  1.00  0.00     0.000 C 
BRANCH   3   4
ATOM      4  C   UNL     1      12.476  55.756  35.437  1.00  0.00     0.000 C 
BRANCH   4   5
ATOM      5  C   UNL     1      13.454  55.789  34.249  1.00  0.00     0.000 C 
BRANCH   5   6
ATOM      6  C   UNL     1      14.891  56.128  34.670  1.00  0.00     0.000 C 
BRANCH   6   7
ATOM      7  C   UNL     1      15.536  57.110  33.680  1.00  0.00     0.006 C 
BRANCH   7   8
ATOM      8  C   UNL     1      15.572  58.544  34.226  1.00  0.00     0.053 C 
BRANCH   8   9
ATOM      9  C   UNL     1      16.973  59.066  34.322  1.00  0.00     0.041 C 
ATOM     10  O   UNL     1      17.188  60.306  34.335  1.00  0.00    -0.550 OA
ATOM     11  O   UNL     1      18.043  58.181  34.359  1.00  0.00    -0.550 OA
ENDBRANCH   8   9
ENDBRANCH   7   8
ENDBRANCH   6   7
ENDBRANCH   5   6
ENDBRANCH   4   5
ENDBRANCH   3   4
ENDBRANCH   2   3
ENDBRANCH   1   2
BRANCH   1  12
ATOM     12  C   UNL     1      13.813  52.774  37.421  1.00  0.00     0.000 C 
BRANCH  12  13
ATOM     13  C   UNL     1      15.139  53.359  36.914  1.00  0.00    -0.000 C 
BRANCH  13  14
ATOM     14  C   UNL     1      15.762  52.523  35.785  1.00  0.00    -0.000 C 
BRANCH  14  15
ATOM     15  C   UNL     1      14.741  51.609  35.091  1.00  0.00    -0.000 C 
BRANCH  15  16
ATOM     16  C   UNL     1      14.268  52.223  33.766  1.00  0.00    -0.000 C 
BRANCH  16  17
ATOM     17  C   UNL     1      13.972  51.166  32.689  1.00  0.00    -0.000 C 
BRANCH  17  18
ATOM     18  C   UNL     1      14.431  49.738  33.040  1.00  0.00    -0.000 C 
BRANCH  18  19
ATOM     19  C   UNL     1      15.631  49.245  32.204  1.00  0.00    -0.003 C 
ATOM     20  C   UNL     1      15.757  47.721  32.201  1.00  0.00     0.004 C 
ENDBRANCH  18  19
ENDBRANCH  17  18
ENDBRANCH  16  17
ENDBRANCH  15  16
ENDBRANCH  14  15
ENDBRANCH  13  14
ENDBRANCH  12  13
ENDBRANCH   1  12
TORSDOF 16
ENDMDL
MODEL 6
REMARK VINA RESULT:    -4.275      1.169      2.042
REMARK INTER + INTRA:         -10.800
REMARK INTER:                  -8.466
REMARK INTRA:                  -2.333
REMARK UNBOUND:                -2.526
REMARK SMILES CCCCCCCCCCCCCCCCCC(=O)[O-]
REMARK SMILES IDX 10 1 11 2 12 3 13 4 14 5 15 6 16 7 17 8 18 9 19 10 20 11
REMARK SMILES IDX 9 12 8 13 7 14 6 15 5 16 4 17 3 18 2 19 1 20
REMARK H PARENT
REMARK Flexibility Score: inf
ROOT
ATOM      1  C   UNL     1      11.847  54.333  34.974  1.00  0.00     0.000 C 
ENDROOT
BRANCH   1   2
ATOM      2  C   UNL     1      12.904  54.771  33.945  1.00  0.00     0.000 C 
BRANCH   2   3
ATOM      3  C   UNL     1      13.782  55.962  34.379  1.00  0.00     0.000 C 
BRANCH   3   4
ATOM      4  C   UNL     1      15.299  55.759  34.198  1.00  0.00     0.000 C 
BRANCH   4   5
ATOM      5  C   UNL     1      15.879  56.325  32.889  1.00  0.00     0.000 C 
BRANCH   5   6
ATOM      6  C   UNL     1      16.843  57.498  33.124  1.00  0.00     0.000 C 
BRANCH   6   7
ATOM      7  C   UNL     1      16.857  57.909  34.603  1.00  0.00     0.006 C 
BRANCH   7   8
ATOM      8  C   UNL     1      16.727  59.429  34.784  1.00  0.00     0.053 C 
BRANCH   8   9
ATOM      9  C   UNL     1      15.524  59.970  34.074  1.00  0.00     0.041 C 
ATOM     10  O   UNL     1      15.648  60.901  33.236  1.00  0.00    -0.550 OA
ATOM     11  O   UNL     1      14.262  59.470  34.366  1.00  0.00    -0.550 OA
ENDBRANCH   8   9
ENDBRANCH   7   8
ENDBRANCH   6   7
ENDBRANCH   5   6
ENDBRANCH   4   5
ENDBRANCH   3   4
ENDBRANCH   2   3
ENDBRANCH   1   2
BRANCH   1  12
ATOM     12  C   UNL     1      12.019  55.022  36.336  1.00  0.00     0.000 C 
BRANCH  12  13
ATOM     13  C   UNL     1      11.877  54.011  37.484  1.00  0.00    -0.000 C 
BRANCH  13  14
ATOM     14  C   UNL     1      13.137  53.153  37.677  1.00  0.00    -0.000 C 
BRANCH  14  15
ATOM     15  C   UNL     1      14.434  53.944  37.453  1.00  0.00    -0.000 C 
BRANCH  15  16
ATOM     16  C   UNL     1      15.450  53.115  36.654  1.00  0.00    -0.000 C 
BRANCH  16  17
ATOM     17  C   UNL     1      14.810  51.911  35.942  1.00  0.00    -0.000 C 
BRANCH  17  18
ATOM     18  C   UNL     1      14.873  51.959  34.403  1.00  0.00    -0.000 C 
BRANCH  18  19
ATOM     19  C   UNL     1      14.026  50.872  33.711  1.00  0.00    -0.003 C 
ATOM     20  C   UNL     1      14.879  49.875  32.926  1.00  0.00     0.004 C 
ENDBRANCH  18  19
ENDBRANCH  17  18
ENDBRANCH  16  17
ENDBRANCH  15  16
ENDBRANCH  14  15
ENDBRANCH  13  14
ENDBRANCH  12  13
ENDBRANCH   1  12
TORSDOF 16
ENDMDL
MODEL 7
REMARK VINA RESULT:    -4.272      0.991      3.559
REMARK INTER + INTRA:         -10.793
REMARK INTER:                  -8.354
REMARK INTRA:                  -2.440
REMARK UNBOUND:                -2.526
REMARK SMILES CCCCCCCCCCCCCCCCCC(=O)[O-]
REMARK SMILES IDX 10 1 11 2 12 3 13 4 14 5 15 6 16 7 17 8 18 9 19 10 20 11
REMARK SMILES IDX 9 12 8 13 7 14 6 15 5 16 4 17 3 18 2 19 1 20
REMARK H PARENT
REMARK Flexibility Score: inf
ROOT
ATOM      1  C   UNL     1      12.820  52.230  33.224  1.00  0.00     0.000 C 
ENDROOT
BRANCH   1   2
ATOM      2  C   UNL     1      14.213  52.770  32.854  1.00  0.00     0.000 C 
BRANCH   2   3
ATOM      3  C   UNL     1      14.209  54.045  31.986  1.00  0.00     0.000 C 
BRANCH   3   4
ATOM      4  C   UNL     1      15.124  55.181  32.485  1.00  0.00     0.000 C 
BRANCH   4   5
ATOM      5  C   UNL     1      15.357  55.207  34.006  1.00  0.00     0.000 C 
BRANCH   5   6
ATOM      6  C   UNL     1      15.309  56.626  34.591  1.00  0.00     0.000 C 
BRANCH   6   7
ATOM      7  C   UNL     1      16.379  57.522  33.948  1.00  0.00     0.006 C 
BRANCH   7   8
ATOM      8  C   UNL     1      16.830  58.651  34.885  1.00  0.00     0.053 C 
BRANCH   8   9
ATOM      9  C   UNL     1      16.510  60.002  34.319  1.00  0.00     0.041 C 
ATOM     10  O   UNL     1      16.925  60.323  33.174  1.00  0.00    -0.550 OA
ATOM     11  O   UNL     1      15.786  60.917  35.071  1.00  0.00    -0.550 OA
ENDBRANCH   8   9
ENDBRANCH   7   8
ENDBRANCH   6   7
ENDBRANCH   5   6
ENDBRANCH   4   5
ENDBRANCH   3   4
ENDBRANCH   2   3
ENDBRANCH   1   2
BRANCH   1  12
ATOM     12  C   UNL     1      11.704  53.263  33.011  1.00  0.00     0.000 C 
BRANCH  12  13
ATOM     13  C   UNL     1      11.170  53.778  34.356  1.00  0.00    -0.000 C 
BRANCH  13  14
ATOM     14  C   UNL     1      11.834  55.094  34.792  1.00  0.00    -0.000 C 
BRANCH  14  15
ATOM     15  C   UNL     1      11.749  55.327  36.308  1.00  0.00    -0.000 C 
BRANCH  15  16
ATOM     16  C   UNL     1      11.614  53.994  37.060  1.00  0.00    -0.000 C 
BRANCH  16  17
ATOM     17  C   UNL     1      12.869  53.637  37.874  1.00  0.00    -0.000 C 
BRANCH  17  18
ATOM     18  C   UNL     1      14.184  53.641  37.071  1.00  0.00    -0.000 C 
BRANCH  18  19
ATOM     19  C   UNL     1      14.608  52.246  36.564  1.00  0.00    -0.003 C 
ATOM     20  C   UNL     1      16.025  52.238  35.989  1.00  0.00     0.004 C 
ENDBRANCH  18  19
ENDBRANCH  17  18
ENDBRANCH  16  17
ENDBRANCH  15  16
ENDBRANCH  14  15
ENDBRANCH  13  14
ENDBRANCH  12  13
ENDBRANCH   1  12
TORSDOF 16
ENDMDL
MODEL 8
REMARK VINA RESULT:    -4.256      3.101      6.189
REMARK INTER + INTRA:         -10.763
REMARK INTER:                  -8.484
REMARK INTRA:                  -2.280
REMARK UNBOUND:                -2.526
REMARK SMILES CCCCCCCCCCCCCCCCCC(=O)[O-]
REMARK SMILES IDX 10 1 11 2 12 3 13 4 14 5 15 6 16 7 17 8 18 9 19 10 20 11
REMARK SMILES IDX 9 12 8 13 7 14 6 15 5 16 4 17 3 18 2 19 1 20
REMARK H PARENT
REMARK Flexibility Score: inf
ROOT
ATOM      1  C   UNL     1      12.864  57.115  34.819  1.00  0.00     0.000 C 
ENDROOT
BRANCH   1   2
ATOM      2  C   UNL     1      11.643  56.269  35.223  1.00  0.00     0.000 C 
BRANCH   2   3
ATOM      3  C   UNL     1      11.161  56.471  36.674  1.00  0.00     0.000 C 
BRANCH   3   4
ATOM      4  C   UNL     1      10.999  55.178  37.497  1.00  0.00     0.000 C 
BRANCH   4   5
ATOM      5  C   UNL     1      11.732  53.950  36.929  1.00  0.00     0.000 C 
BRANCH   5   6
ATOM      6  C   UNL     1      12.908  53.498  37.807  1.00  0.00     0.000 C 
BRANCH   6   7
ATOM      7  C   UNL     1      14.242  54.009  37.244  1.00  0.00     0.006 C 
BRANCH   7   8
ATOM      8  C   UNL     1      14.384  53.726  35.741  1.00  0.00     0.053 C 
BRANCH   8   9
ATOM      9  C   UNL     1      15.091  52.430  35.486  1.00  0.00     0.041 C 
ATOM     10  O   UNL     1      16.255  52.246  35.926  1.00  0.00    -0.550 OA
ATOM     11  O   UNL     1      14.475  51.440  34.731  1.00  0.00    -0.550 OA
ENDBRANCH   8   9
ENDBRANCH   7   8
ENDBRANCH   6   7
ENDBRANCH   5   6
ENDBRANCH   4   5
ENDBRANCH   3   4
ENDBRANCH   2   3
ENDBRANCH   1   2
BRANCH   1  12
ATOM     12  C   UNL     1      12.863  57.490  33.330  1.00  0.00     0.000 C 
BRANCH  12  13
ATOM     13  C   UNL     1      13.454  58.892  33.118  1.00  0.00    -0.000 C 
BRANCH  13  14
ATOM     14  C   UNL     1      14.068  59.477  34.399  1.00  0.00    -0.000 C 
BRANCH  14  15
ATOM     15  C   UNL     1      15.231  60.439  34.113  1.00  0.00    -0.000 C 
BRANCH  15  16
ATOM     16  C   UNL     1      16.467  60.065  34.945  1.00  0.00    -0.000 C 
BRANCH  16  17
ATOM     17  C   UNL     1      16.740  58.552  34.963  1.00  0.00    -0.000 C 
BRANCH  17  18
ATOM     18  C   UNL     1      17.670  58.047  33.842  1.00  0.00    -0.000 C 
BRANCH  18  19
ATOM     19  C   UNL     1      16.993  57.059  32.870  1.00  0.00    -0.003 C 
ATOM     20  C   UNL     1      16.129  56.025  33.591  1.00  0.00     0.004 C 
ENDBRANCH  18  19
ENDBRANCH  17  18
ENDBRANCH  16  17
ENDBRANCH  15  16
ENDBRANCH  14  15
ENDBRANCH  13  14
ENDBRANCH  12  13
ENDBRANCH   1  12
TORSDOF 16
ENDMDL
MODEL 9
REMARK VINA RESULT:    -4.203      2.802      5.879
REMARK INTER + INTRA:         -10.661
REMARK INTER:                  -8.223
REMARK INTRA:                  -2.438
REMARK UNBOUND:                -2.526
REMARK SMILES CCCCCCCCCCCCCCCCCC(=O)[O-]
REMARK SMILES IDX 10 1 11 2 12 3 13 4 14 5 15 6 16 7 17 8 18 9 19 10 20 11
REMARK SMILES IDX 9 12 8 13 7 14 6 15 5 16 4 17 3 18 2 19 1 20
REMARK H PARENT
REMARK Flexibility Score: inf
ROOT
ATOM      1  C   UNL     1      13.710  52.983  37.216  1.00  0.00     0.000 C 
ENDROOT
BRANCH   1   2
ATOM      2  C   UNL     1      12.723  53.913  37.943  1.00  0.00     0.000 C 
BRANCH   2   3
ATOM      3  C   UNL     1      11.339  54.044  37.276  1.00  0.00     0.000 C 
BRANCH   3   4
ATOM      4  C   UNL     1      11.156  55.289  36.386  1.00  0.00     0.000 C 
BRANCH   4   5
ATOM      5  C   UNL     1      10.905  54.992  34.896  1.00  0.00     0.000 C 
BRANCH   5   6
ATOM      6  C   UNL     1      11.199  53.531  34.523  1.00  0.00     0.000 C 
BRANCH   6   7
ATOM      7  C   UNL     1      12.036  53.452  33.237  1.00  0.00     0.006 C 
BRANCH   7   8
ATOM      8  C   UNL     1      12.581  52.038  32.986  1.00  0.00     0.053 C 
BRANCH   8   9
ATOM      9  C   UNL     1      13.772  52.057  32.077  1.00  0.00     0.041 C 
ATOM     10  O   UNL     1      14.489  51.030  31.951  1.00  0.00    -0.550 OA
ATOM     11  O   UNL     1      14.108  53.220  31.397  1.00  0.00    -0.550 OA
ENDBRANCH   8   9
ENDBRANCH   7   8
ENDBRANCH   6   7
ENDBRANCH   5   6
ENDBRANCH   4   5
ENDBRANCH   3   4
ENDBRANCH   2   3
ENDBRANCH   1   2
BRANCH   1  12
ATOM     12  C   UNL     1      14.966  53.715  36.722  1.00  0.00     0.000 C 
BRANCH  12  13
ATOM     13  C   UNL     1      15.233  53.407  35.241  1.00  0.00    -0.000 C 
BRANCH  13  14
ATOM     14  C   UNL     1      15.294  54.674  34.374  1.00  0.00    -0.000 C 
BRANCH  14  15
ATOM     15  C   UNL     1      14.510  55.847  34.981  1.00  0.00    -0.000 C 
BRANCH  15  16
ATOM     16  C   UNL     1      15.099  57.192  34.529  1.00  0.00    -0.000 C 
BRANCH  16  17
ATOM     17  C   UNL     1      16.476  57.047  33.861  1.00  0.00    -0.000 C 
BRANCH  17  18
ATOM     18  C   UNL     1      17.498  58.137  34.238  1.00  0.00    -0.000 C 
BRANCH  18  19
ATOM     19  C   UNL     1      16.900  59.287  35.076  1.00  0.00    -0.003 C 
ATOM     20  C   UNL     1      16.761  60.583  34.277  1.00  0.00     0.004 C 
ENDBRANCH  18  19
ENDBRANCH  17  18
ENDBRANCH  16  17
ENDBRANCH  15  16
ENDBRANCH  14  15
ENDBRANCH  13  14
ENDBRANCH  12  13
ENDBRANCH   1  12
TORSDOF 16
ENDMDL
