MODEL 1
REMARK VINA RESULT:    -4.752      0.000      0.000
REMARK INTER + INTRA:          -6.436
REMARK INTER:                  -6.280
REMARK INTRA:                  -0.156
REMARK UNBOUND:                -0.156
REMARK SMILES C=C[C@H](O)CCCCC
REMARK SMILES IDX 6 1 7 2 8 3 9 4 5 5 3 6 2 7 1 8 4 9
REMARK H PARENT 4 10
REMARK Flexibility Score: inf
ROOT
ATOM      1  C   UNL     1     135.617 124.054 140.178  1.00  0.00     0.003 C 
ENDROOT
BRANCH   1   2
ATOM      2  C   UNL     1     135.919 124.921 138.946  1.00  0.00    -0.000 C 
BRANCH   2   3
ATOM      3  C   UNL     1     136.416 124.095 137.750  1.00  0.00    -0.003 C 
ATOM      4  C   UNL     1     137.890 123.707 137.868  1.00  0.00     0.004 C 
ENDBRANCH   2   3
ENDBRANCH   1   2
BRANCH   1   5
ATOM      5  C   UNL     1     134.887 124.874 141.257  1.00  0.00     0.036 C 
BRANCH   5   6
ATOM      6  C   UNL     1     135.243 124.448 142.694  1.00  0.00     0.136 C 
BRANCH   6   7
ATOM      7  C   UNL     1     134.096 123.729 143.369  1.00  0.00    -0.004 C 
ATOM      8  C   UNL     1     132.841 123.856 142.929  1.00  0.00     0.007 C 
ENDBRANCH   6   7
BRANCH   6   9
ATOM      9  O   UNL     1     135.618 125.576 143.445  1.00  0.00    -0.389 OA
ATOM     10  H   UNL     1     136.137 125.249 144.227  1.00  0.00     0.211 HD
ENDBRANCH   6   9
ENDBRANCH   5   6
ENDBRANCH   1   5
TORSDOF 6
ENDMDL
MODEL 2
REMARK VINA RESULT:    -4.651      1.327      1.875
REMARK INTER + INTRA:          -6.302
REMARK INTER:                  -6.090
REMARK INTRA:                  -0.213
REMARK UNBOUND:                -0.156
REMARK SMILES C=C[C@H](O)CCCCC
REMARK SMILES IDX 6 1 7 2 8 3 9 4 5 5 3 6 2 7 1 8 4 9
REMARK H PARENT 4 10
REMARK Flexibility Score: inf
ROOT
ATOM      1  C   UNL     1     135.823 124.046 140.675  1.00  0.00     0.003 C 
ENDROOT
BRANCH   1   2
ATOM      2  C   UNL     1     135.992 124.882 139.397  1.00  0.00    -0.000 C 
BRANCH   2   3
ATOM      3  C   UNL     1     137.418 124.817 138.832  1.00  0.00    -0.003 C 
ATOM      4  C   UNL     1     137.584 123.738 137.762  1.00  0.00     0.004 C 
ENDBRANCH   2   3
ENDBRANCH   1   2
BRANCH   1   5
ATOM      5  C   UNL     1     134.543 124.450 141.428  1.00  0.00     0.036 C 
BRANCH   5   6
ATOM      6  C   UNL     1     134.783 124.761 142.918  1.00  0.00     0.136 C 
BRANCH   6   7
ATOM      7  C   UNL     1     136.204 124.455 143.335  1.00  0.00    -0.004 C 
ATOM      8  C   UNL     1     136.577 124.490 144.617  1.00  0.00     0.007 C 
ENDBRANCH   6   7
BRANCH   6   9
ATOM      9  O   UNL     1     133.878 124.030 143.708  1.00  0.00    -0.389 OA
ATOM     10  H   UNL     1     133.030 123.963 143.196  1.00  0.00     0.211 HD
ENDBRANCH   6   9
ENDBRANCH   5   6
ENDBRANCH   1   5
TORSDOF 6
ENDMDL
MODEL 3
REMARK VINA RESULT:    -4.629      1.628      4.937
REMARK INTER + INTRA:          -6.273
REMARK INTER:                  -6.033
REMARK INTRA:                  -0.241
REMARK UNBOUND:                -0.156
REMARK SMILES C=C[C@H](O)CCCCC
REMARK SMILES IDX 6 1 7 2 8 3 9 4 5 5 3 6 2 7 1 8 4 9
REMARK H PARENT 4 10
REMARK Flexibility Score: inf
ROOT
ATOM      1  C   UNL     1     135.879 124.074 141.110  1.00  0.00     0.003 C 
ENDROOT
BRANCH   1   2
ATOM      2  C   UNL     1     135.261 124.822 142.301  1.00  0.00    -0.000 C 
BRANCH   2   3
ATOM      3  C   UNL     1     133.730 124.905 142.217  1.00  0.00    -0.003 C 
ATOM      4  C   UNL     1     133.032 123.776 142.976  1.00  0.00     0.004 C 
ENDBRANCH   2   3
ENDBRANCH   1   2
BRANCH   1   5
ATOM      5  C   UNL     1     135.169 124.452 139.798  1.00  0.00     0.036 C 
BRANCH   5   6
ATOM      6  C   UNL     1     136.126 124.996 138.719  1.00  0.00     0.136 C 
BRANCH   6   7
ATOM      7  C   UNL     1     136.565 123.912 137.760  1.00  0.00    -0.004 C 
ATOM      8  C   UNL     1     137.844 123.537 137.671  1.00  0.00     0.007 C 
ENDBRANCH   6   7
BRANCH   6   9
ATOM      9  O   UNL     1     137.246 125.585 139.331  1.00  0.00    -0.389 OA
ATOM     10  H   UNL     1     137.902 125.785 138.612  1.00  0.00     0.211 HD
ENDBRANCH   6   9
ENDBRANCH   5   6
ENDBRANCH   1   5
TORSDOF 6
ENDMDL
MODEL 4
REMARK VINA RESULT:    -4.626      2.010      5.116
REMARK INTER + INTRA:          -6.270
REMARK INTER:                  -6.019
REMARK INTRA:                  -0.251
REMARK UNBOUND:                -0.156
REMARK SMILES C=C[C@H](O)CCCCC
REMARK SMILES IDX 6 1 7 2 8 3 9 4 5 5 3 6 2 7 1 8 4 9
REMARK H PARENT 4 10
REMARK Flexibility Score: inf
ROOT
ATOM      1  C   UNL     1     135.892 123.953 140.751  1.00  0.00     0.003 C 
ENDROOT
BRANCH   1   2
ATOM      2  C   UNL     1     134.828 124.770 141.500  1.00  0.00    -0.000 C 
BRANCH   2   3
ATOM      3  C   UNL     1     134.502 124.189 142.884  1.00  0.00    -0.003 C 
ATOM      4  C   UNL     1     133.038 123.771 143.022  1.00  0.00     0.004 C 
ENDBRANCH   2   3
ENDBRANCH   1   2
BRANCH   1   5
ATOM      5  C   UNL     1     135.260 123.166 139.589  1.00  0.00     0.036 C 
BRANCH   5   6
ATOM      6  C   UNL     1     135.513 123.805 138.210  1.00  0.00     0.136 C 
BRANCH   6   7
ATOM      7  C   UNL     1     136.880 124.447 138.130  1.00  0.00    -0.004 C 
ATOM      8  C   UNL     1     137.957 123.747 137.762  1.00  0.00     0.007 C 
ENDBRANCH   6   7
BRANCH   6   9
ATOM      9  O   UNL     1     134.514 124.755 137.935  1.00  0.00    -0.389 OA
ATOM     10  H   UNL     1     134.568 124.967 136.967  1.00  0.00     0.211 HD
ENDBRANCH   6   9
ENDBRANCH   5   6
ENDBRANCH   1   5
TORSDOF 6
ENDMDL
MODEL 5
REMARK VINA RESULT:    -4.585      1.813      4.927
REMARK INTER + INTRA:          -6.215
REMARK INTER:                  -5.941
REMARK INTRA:                  -0.275
REMARK UNBOUND:                -0.156
REMARK SMILES C=C[C@H](O)CCCCC
REMARK SMILES IDX 6 1 7 2 8 3 9 4 5 5 3 6 2 7 1 8 4 9
REMARK H PARENT 4 10
REMARK Flexibility Score: inf
ROOT
ATOM      1  C   UNL     1     135.238 124.756 141.101  1.00  0.00     0.003 C 
ENDROOT
BRANCH   1   2
ATOM      2  C   UNL     1     135.006 124.886 142.614  1.00  0.00    -0.000 C 
BRANCH   2   3
ATOM      3  C   UNL     1     134.220 123.702 143.196  1.00  0.00    -0.003 C 
ATOM      4  C   UNL     1     132.708 123.856 143.033  1.00  0.00     0.004 C 
ENDBRANCH   2   3
ENDBRANCH   1   2
BRANCH   1   5
ATOM      5  C   UNL     1     136.443 123.844 140.809  1.00  0.00     0.036 C 
BRANCH   5   6
ATOM      6  C   UNL     1     136.151 122.765 139.749  1.00  0.00     0.136 C 
BRANCH   6   7
ATOM      7  C   UNL     1     136.059 123.354 138.359  1.00  0.00    -0.004 C 
ATOM      8  C   UNL     1     137.138 123.831 137.732  1.00  0.00     0.007 C 
ENDBRANCH   6   7
BRANCH   6   9
ATOM      9  O   UNL     1     134.959 122.092 140.071  1.00  0.00    -0.389 OA
ATOM     10  H   UNL     1     134.325 122.243 139.321  1.00  0.00     0.211 HD
ENDBRANCH   6   9
ENDBRANCH   5   6
ENDBRANCH   1   5
TORSDOF 6
ENDMDL
MODEL 6
REMARK VINA RESULT:    -4.534      7.501      8.395
REMARK INTER + INTRA:          -6.147
REMARK INTER:                  -6.039
REMARK INTRA:                  -0.108
REMARK UNBOUND:                -0.156
REMARK SMILES C=C[C@H](O)CCCCC
REMARK SMILES IDX 6 1 7 2 8 3 9 4 5 5 3 6 2 7 1 8 4 9
REMARK H PARENT 4 10
REMARK Flexibility Score: inf
ROOT
ATOM      1  C   UNL     1     131.107 130.663 137.985  1.00  0.00     0.003 C 
ENDROOT
BRANCH   1   2
ATOM      2  C   UNL     1     131.560 131.691 136.936  1.00  0.00    -0.000 C 
BRANCH   2   3
ATOM      3  C   UNL     1     132.471 132.777 137.528  1.00  0.00    -0.003 C 
ATOM      4  C   UNL     1     131.918 134.188 137.329  1.00  0.00     0.004 C 
ENDBRANCH   2   3
ENDBRANCH   1   2
BRANCH   1   5
ATOM      5  C   UNL     1     131.582 129.249 137.604  1.00  0.00     0.036 C 
BRANCH   5   6
ATOM      6  C   UNL     1     130.895 128.135 138.416  1.00  0.00     0.136 C 
BRANCH   6   7
ATOM      7  C   UNL     1     131.311 126.758 137.946  1.00  0.00    -0.004 C 
ATOM      8  C   UNL     1     131.186 126.392 136.668  1.00  0.00     0.007 C 
ENDBRANCH   6   7
BRANCH   6   9
ATOM      9  O   UNL     1     129.499 128.275 138.330  1.00  0.00    -0.389 OA
ATOM     10  H   UNL     1     129.189 127.684 137.595  1.00  0.00     0.211 HD
ENDBRANCH   6   9
ENDBRANCH   5   6
ENDBRANCH   1   5
TORSDOF 6
ENDMDL
MODEL 7
REMARK VINA RESULT:    -4.505      2.520      3.557
REMARK INTER + INTRA:          -6.110
REMARK INTER:                  -5.623
REMARK INTRA:                  -0.487
REMARK UNBOUND:                -0.156
REMARK SMILES C=C[C@H](O)CCCCC
REMARK SMILES IDX 6 1 7 2 8 3 9 4 5 5 3 6 2 7 1 8 4 9
REMARK H PARENT 4 10
REMARK Flexibility Score: inf
ROOT
ATOM      1  C   UNL     1     137.207 123.864 137.865  1.00  0.00     0.003 C 
ENDROOT
BRANCH   1   2
ATOM      2  C   UNL     1     138.110 124.483 138.943  1.00  0.00    -0.000 C 
BRANCH   2   3
ATOM      3  C   UNL     1     138.946 123.432 139.689  1.00  0.00    -0.003 C 
ATOM      4  C   UNL     1     138.793 123.522 141.208  1.00  0.00     0.004 C 
ENDBRANCH   2   3
ENDBRANCH   1   2
BRANCH   1   5
ATOM      5  C   UNL     1     135.727 124.183 138.142  1.00  0.00     0.036 C 
BRANCH   5   6
ATOM      6  C   UNL     1     135.044 123.158 139.068  1.00  0.00     0.136 C 
BRANCH   6   7
ATOM      7  C   UNL     1     135.167 123.547 140.525  1.00  0.00    -0.004 C 
ATOM      8  C   UNL     1     134.825 124.765 140.951  1.00  0.00     0.007 C 
ENDBRANCH   6   7
BRANCH   6   9
ATOM      9  O   UNL     1     135.599 121.883 138.858  1.00  0.00    -0.389 OA
ATOM     10  H   UNL     1     134.843 121.243 138.786  1.00  0.00     0.211 HD
ENDBRANCH   6   9
ENDBRANCH   5   6
ENDBRANCH   1   5
TORSDOF 6
ENDMDL
MODEL 8
REMARK VINA RESULT:    -4.475      3.474      5.290
REMARK INTER + INTRA:          -6.070
REMARK INTER:                  -5.913
REMARK INTRA:                  -0.157
REMARK UNBOUND:                -0.156
REMARK SMILES C=C[C@H](O)CCCCC
REMARK SMILES IDX 6 1 7 2 8 3 9 4 5 5 3 6 2 7 1 8 4 9
REMARK H PARENT 4 10
REMARK Flexibility Score: inf
ROOT
ATOM      1  C   UNL     1     134.138 125.467 137.935  1.00  0.00     0.003 C 
ENDROOT
BRANCH   1   2
ATOM      2  C   UNL     1     132.776 126.048 138.342  1.00  0.00    -0.000 C 
BRANCH   2   3
ATOM      3  C   UNL     1     132.272 127.118 137.363  1.00  0.00    -0.003 C 
ATOM      4  C   UNL     1     130.826 126.887 136.923  1.00  0.00     0.004 C 
ENDBRANCH   2   3
ENDBRANCH   1   2
BRANCH   1   5
ATOM      5  C   UNL     1     134.866 124.872 139.153  1.00  0.00     0.036 C 
BRANCH   5   6
ATOM      6  C   UNL     1     135.650 123.586 138.829  1.00  0.00     0.136 C 
BRANCH   6   7
ATOM      7  C   UNL     1     136.684 123.814 137.749  1.00  0.00    -0.004 C 
ATOM      8  C   UNL     1     137.985 123.895 138.036  1.00  0.00     0.007 C 
ENDBRANCH   6   7
BRANCH   6   9
ATOM      9  O   UNL     1     134.759 122.571 138.442  1.00  0.00    -0.389 OA
ATOM     10  H   UNL     1     135.270 121.930 137.881  1.00  0.00     0.211 HD
ENDBRANCH   6   9
ENDBRANCH   5   6
ENDBRANCH   1   5
TORSDOF 6
ENDMDL
MODEL 9
REMARK VINA RESULT:    -4.099      1.694      2.020
REMARK INTER + INTRA:          -5.573
REMARK INTER:                  -5.225
REMARK INTRA:                  -0.348
REMARK UNBOUND:                -0.156
REMARK SMILES C=C[C@H](O)CCCCC
REMARK SMILES IDX 6 1 7 2 8 3 9 4 5 5 3 6 2 7 1 8 4 9
REMARK H PARENT 4 10
REMARK Flexibility Score: inf
ROOT
ATOM      1  C   UNL     1     136.196 122.562 139.823  1.00  0.00     0.003 C 
ENDROOT
BRANCH   1   2
ATOM      2  C   UNL     1     137.388 123.467 140.167  1.00  0.00    -0.000 C 
BRANCH   2   3
ATOM      3  C   UNL     1     138.021 124.110 138.924  1.00  0.00    -0.003 C 
ATOM      4  C   UNL     1     137.220 123.847 137.648  1.00  0.00     0.004 C 
ENDBRANCH   2   3
ENDBRANCH   1   2
BRANCH   1   5
ATOM      5  C   UNL     1     134.959 122.945 140.655  1.00  0.00     0.036 C 
BRANCH   5   6
ATOM      6  C   UNL     1     134.914 124.439 141.030  1.00  0.00     0.136 C 
BRANCH   6   7
ATOM      7  C   UNL     1     134.060 124.686 142.253  1.00  0.00    -0.004 C 
ATOM      8  C   UNL     1     133.727 123.693 143.082  1.00  0.00     0.007 C 
ENDBRANCH   6   7
BRANCH   6   9
ATOM      9  O   UNL     1     134.431 125.187 139.942  1.00  0.00    -0.389 OA
ATOM     10  H   UNL     1     133.526 125.513 140.188  1.00  0.00     0.211 HD
ENDBRANCH   6   9
ENDBRANCH   5   6
ENDBRANCH   1   5
TORSDOF 6
ENDMDL
