MODEL 1
REMARK VINA RESULT:    -2.779      0.000      0.000
REMARK INTER + INTRA:          -3.022
REMARK INTER:                  -3.022
REMARK INTRA:                   0.000
REMARK UNBOUND:                 0.000
REMARK SMILES [NH3+]CC(=O)[O-]
REMARK SMILES IDX 2 1 1 2 3 6 4 7 5 8
REMARK H PARENT 1 3 1 4 1 5
REMARK Flexibility Score: inf
ROOT
ATOM      1  C   UNL     1     109.963 136.737 121.937  1.00  0.00     0.312 C 
ENDROOT
BRANCH   1   2
ATOM      2  N   UNL     1     109.653 138.143 122.187  1.00  0.00    -0.353 N 
ATOM      3  H   UNL     1     108.958 138.207 122.967  1.00  0.00     0.344 HD
ATOM      4  H   UNL     1     109.240 138.577 121.329  1.00  0.00     0.344 HD
ATOM      5  H   UNL     1     110.520 138.659 122.463  1.00  0.00     0.344 HD
ENDBRANCH   1   2
BRANCH   1   6
ATOM      6  C   UNL     1     110.285 136.031 123.218  1.00  0.00     0.096 C 
ATOM      7  O   UNL     1     110.397 136.684 124.289  1.00  0.00    -0.544 OA
ATOM      8  O   UNL     1     110.412 134.649 123.237  1.00  0.00    -0.544 OA
ENDBRANCH   1   6
TORSDOF 2
ENDMDL
MODEL 2
REMARK VINA RESULT:    -2.720      1.786      2.002
REMARK INTER + INTRA:          -2.958
REMARK INTER:                  -2.958
REMARK INTRA:                   0.000
REMARK UNBOUND:                 0.000
REMARK SMILES [NH3+]CC(=O)[O-]
REMARK SMILES IDX 2 1 1 2 3 6 4 7 5 8
REMARK H PARENT 1 3 1 4 1 5
REMARK Flexibility Score: inf
ROOT
ATOM      1  C   UNL     1     110.269 136.752 122.807  1.00  0.00     0.312 C 
ENDROOT
BRANCH   1   2
ATOM      2  N   UNL     1     109.668 137.957 122.239  1.00  0.00    -0.353 N 
ATOM      3  H   UNL     1     108.627 137.854 122.240  1.00  0.00     0.344 HD
ATOM      4  H   UNL     1     109.994 138.091 121.254  1.00  0.00     0.344 HD
ATOM      5  H   UNL     1     109.926 138.793 122.814  1.00  0.00     0.344 HD
ENDBRANCH   1   2
BRANCH   1   6
ATOM      6  C   UNL     1     109.971 135.560 121.951  1.00  0.00     0.096 C 
ATOM      7  O   UNL     1     110.908 134.821 121.548  1.00  0.00    -0.544 OA
ATOM      8  O   UNL     1     108.657 135.238 121.640  1.00  0.00    -0.544 OA
ENDBRANCH   1   6
TORSDOF 2
ENDMDL
MODEL 3
REMARK VINA RESULT:    -2.573     16.103     16.187
REMARK INTER + INTRA:          -2.799
REMARK INTER:                  -2.799
REMARK INTRA:                   0.000
REMARK UNBOUND:                 0.000
REMARK SMILES [NH3+]CC(=O)[O-]
REMARK SMILES IDX 2 1 1 2 3 6 4 7 5 8
REMARK H PARENT 1 3 1 4 1 5
REMARK Flexibility Score: inf
ROOT
ATOM      1  C   UNL     1      96.532 130.575 129.705  1.00  0.00     0.312 C 
ENDROOT
BRANCH   1   2
ATOM      2  N   UNL     1      97.388 131.518 128.987  1.00  0.00    -0.353 N 
ATOM      3  H   UNL     1      96.947 132.466 129.007  1.00  0.00     0.344 HD
ATOM      4  H   UNL     1      97.497 131.217 127.990  1.00  0.00     0.344 HD
ATOM      5  H   UNL     1      98.328 131.571 129.445  1.00  0.00     0.344 HD
ENDBRANCH   1   2
BRANCH   1   6
ATOM      6  C   UNL     1      96.811 129.170 129.267  1.00  0.00     0.096 C 
ATOM      7  O   UNL     1      97.236 128.322 130.095  1.00  0.00    -0.544 OA
ATOM      8  O   UNL     1      96.553 128.786 127.958  1.00  0.00    -0.544 OA
ENDBRANCH   1   6
TORSDOF 2
ENDMDL
MODEL 4
REMARK VINA RESULT:    -2.560     12.671     13.035
REMARK INTER + INTRA:          -2.785
REMARK INTER:                  -2.785
REMARK INTRA:                   0.000
REMARK UNBOUND:                 0.000
REMARK SMILES [NH3+]CC(=O)[O-]
REMARK SMILES IDX 2 1 1 2 3 6 4 7 5 8
REMARK H PARENT 1 3 1 4 1 5
REMARK Flexibility Score: inf
ROOT
ATOM      1  C   UNL     1     100.911 134.516 115.237  1.00  0.00     0.312 C 
ENDROOT
BRANCH   1   2
ATOM      2  N   UNL     1     100.921 135.444 116.366  1.00  0.00    -0.353 N 
ATOM      3  H   UNL     1     100.374 135.029 117.155  1.00  0.00     0.344 HD
ATOM      4  H   UNL     1     100.479 136.351 116.088  1.00  0.00     0.344 HD
ATOM      5  H   UNL     1     101.903 135.612 116.685  1.00  0.00     0.344 HD
ENDBRANCH   1   2
BRANCH   1   6
ATOM      6  C   UNL     1     100.506 135.219 113.978  1.00  0.00     0.096 C 
ATOM      7  O   UNL     1      99.363 135.738 113.884  1.00  0.00    -0.544 OA
ATOM      8  O   UNL     1     101.409 135.344 112.930  1.00  0.00    -0.544 OA
ENDBRANCH   1   6
TORSDOF 2
ENDMDL
MODEL 5
REMARK VINA RESULT:    -2.493      1.956      2.237
REMARK INTER + INTRA:          -2.712
REMARK INTER:                  -2.712
REMARK INTRA:                   0.000
REMARK UNBOUND:                 0.000
REMARK SMILES [NH3+]CC(=O)[O-]
REMARK SMILES IDX 2 1 1 2 3 6 4 7 5 8
REMARK H PARENT 1 3 1 4 1 5
REMARK Flexibility Score: inf
ROOT
ATOM      1  C   UNL     1     111.103 135.264 122.467  1.00  0.00     0.312 C 
ENDROOT
BRANCH   1   2
ATOM      2  N   UNL     1     110.821 135.129 121.040  1.00  0.00    -0.353 N 
ATOM      3  H   UNL     1     110.052 135.788 120.778  1.00  0.00     0.344 HD
ATOM      4  H   UNL     1     110.516 134.151 120.825  1.00  0.00     0.344 HD
ATOM      5  H   UNL     1     111.674 135.364 120.481  1.00  0.00     0.344 HD
ENDBRANCH   1   2
BRANCH   1   6
ATOM      6  C   UNL     1     110.420 136.474 123.028  1.00  0.00     0.096 C 
ATOM      7  O   UNL     1     110.322 136.624 124.274  1.00  0.00    -0.544 OA
ATOM      8  O   UNL     1     109.938 137.457 122.175  1.00  0.00    -0.544 OA
ENDBRANCH   1   6
TORSDOF 2
ENDMDL
MODEL 6
REMARK VINA RESULT:    -2.443      2.287      2.400
REMARK INTER + INTRA:          -2.657
REMARK INTER:                  -2.657
REMARK INTRA:                   0.000
REMARK UNBOUND:                 0.000
REMARK SMILES [NH3+]CC(=O)[O-]
REMARK SMILES IDX 2 1 1 2 3 6 4 7 5 8
REMARK H PARENT 1 3 1 4 1 5
REMARK Flexibility Score: inf
ROOT
ATOM      1  C   UNL     1     109.675 134.718 121.915  1.00  0.00     0.312 C 
ENDROOT
BRANCH   1   2
ATOM      2  N   UNL     1     108.285 134.656 121.466  1.00  0.00    -0.353 N 
ATOM      3  H   UNL     1     107.983 133.655 121.426  1.00  0.00     0.344 HD
ATOM      4  H   UNL     1     108.198 135.075 120.511  1.00  0.00     0.344 HD
ATOM      5  H   UNL     1     107.667 135.170 122.136  1.00  0.00     0.344 HD
ENDBRANCH   1   2
BRANCH   1   6
ATOM      6  C   UNL     1     109.983 136.065 122.494  1.00  0.00     0.096 C 
ATOM      7  O   UNL     1     109.917 137.094 121.772  1.00  0.00    -0.544 OA
ATOM      8  O   UNL     1     110.292 136.188 123.842  1.00  0.00    -0.544 OA
ENDBRANCH   1   6
TORSDOF 2
ENDMDL
MODEL 7
REMARK VINA RESULT:    -2.395      9.339      9.818
REMARK INTER + INTRA:          -2.605
REMARK INTER:                  -2.605
REMARK INTRA:                   0.000
REMARK UNBOUND:                 0.000
REMARK SMILES [NH3+]CC(=O)[O-]
REMARK SMILES IDX 2 1 1 2 3 6 4 7 5 8
REMARK H PARENT 1 3 1 4 1 5
REMARK Flexibility Score: inf
ROOT
ATOM      1  C   UNL     1     104.725 127.802 121.325  1.00  0.00     0.312 C 
ENDROOT
BRANCH   1   2
ATOM      2  N   UNL     1     104.005 128.911 121.949  1.00  0.00    -0.353 N 
ATOM      3  H   UNL     1     103.975 129.718 121.284  1.00  0.00     0.344 HD
ATOM      4  H   UNL     1     104.495 129.211 122.823  1.00  0.00     0.344 HD
ATOM      5  H   UNL     1     103.025 128.622 122.174  1.00  0.00     0.344 HD
ENDBRANCH   1   2
BRANCH   1   6
ATOM      6  C   UNL     1     106.118 127.705 121.868  1.00  0.00     0.096 C 
ATOM      7  O   UNL     1     106.635 126.579 122.086  1.00  0.00    -0.544 OA
ATOM      8  O   UNL     1     106.860 128.859 122.084  1.00  0.00    -0.544 OA
ENDBRANCH   1   6
TORSDOF 2
ENDMDL
MODEL 8
REMARK VINA RESULT:    -2.370     10.151     10.169
REMARK INTER + INTRA:          -2.578
REMARK INTER:                  -2.578
REMARK INTRA:                   0.000
REMARK UNBOUND:                 0.000
REMARK SMILES [NH3+]CC(=O)[O-]
REMARK SMILES IDX 2 1 1 2 3 6 4 7 5 8
REMARK H PARENT 1 3 1 4 1 5
REMARK Flexibility Score: inf
ROOT
ATOM      1  C   UNL     1     104.326 128.143 123.030  1.00  0.00     0.312 C 
ENDROOT
BRANCH   1   2
ATOM      2  N   UNL     1     103.962 128.450 121.648  1.00  0.00    -0.353 N 
ATOM      3  H   UNL     1     104.794 128.851 121.156  1.00  0.00     0.344 HD
ATOM      4  H   UNL     1     103.187 129.153 121.629  1.00  0.00     0.344 HD
ATOM      5  H   UNL     1     103.662 127.579 121.153  1.00  0.00     0.344 HD
ENDBRANCH   1   2
BRANCH   1   6
ATOM      6  C   UNL     1     105.628 127.404 123.081  1.00  0.00     0.096 C 
ATOM      7  O   UNL     1     106.146 127.111 124.190  1.00  0.00    -0.544 OA
ATOM      8  O   UNL     1     106.242 126.996 121.904  1.00  0.00    -0.544 OA
ENDBRANCH   1   6
TORSDOF 2
ENDMDL
