MODEL 1
REMARK VINA RESULT:    -4.535      0.000      0.000
REMARK INTER + INTRA:         -14.552
REMARK INTER:                 -11.427
REMARK INTRA:                  -3.125
REMARK UNBOUND:                -3.125
REMARK SMILES CCCCCCCCCCCCCCCCCCCCCCCCCCCC(=O)[O-]
REMARK SMILES IDX 15 1 16 2 17 3 18 4 19 5 20 6 21 7 22 8 23 9 24 10 25 11
REMARK SMILES IDX 26 12 27 13 28 14 29 15 30 16 14 17 13 18 12 19 11 20 10 21
REMARK SMILES IDX 9 22 8 23 7 24 6 25 5 26 4 27 3 28 2 29 1 30
REMARK H PARENT
REMARK Flexibility Score: inf
ROOT
ATOM      1  C   UNL     1      -8.055   5.517  -7.178  1.00  0.00     0.000 C 
ENDROOT
BRANCH   1   2
ATOM      2  C   UNL     1      -9.284   5.599  -8.107  1.00  0.00     0.000 C 
BRANCH   2   3
ATOM      3  C   UNL     1      -9.277   4.528  -9.213  1.00  0.00     0.000 C 
BRANCH   3   4
ATOM      4  C   UNL     1      -9.589   5.101 -10.606  1.00  0.00     0.000 C 
BRANCH   4   5
ATOM      5  C   UNL     1      -8.359   5.178 -11.538  1.00  0.00     0.000 C 
BRANCH   5   6
ATOM      6  C   UNL     1      -8.597   4.444 -12.871  1.00  0.00     0.000 C 
BRANCH   6   7
ATOM      7  C   UNL     1      -7.285   4.144 -13.624  1.00  0.00     0.000 C 
BRANCH   7   8
ATOM      8  C   UNL     1      -6.128   5.100 -13.274  1.00  0.00     0.000 C 
BRANCH   8   9
ATOM      9  C   UNL     1      -5.299   5.553 -14.491  1.00  0.00     0.000 C 
BRANCH   9  10
ATOM     10  C   UNL     1      -5.281   4.508 -15.616  1.00  0.00     0.000 C 
BRANCH  10  11
ATOM     11  C   UNL     1      -5.944   5.061 -16.883  1.00  0.00     0.000 C 
BRANCH  11  12
ATOM     12  C   UNL     1      -6.497   6.475 -16.650  1.00  0.00     0.006 C 
BRANCH  12  13
ATOM     13  C   UNL     1      -8.031   6.510 -16.698  1.00  0.00     0.053 C 
BRANCH  13  14
ATOM     14  C   UNL     1      -8.543   6.588 -18.104  1.00  0.00     0.041 C 
ATOM     15  O   UNL     1      -8.172   7.523 -18.863  1.00  0.00    -0.550 OA
ATOM     16  O   UNL     1      -9.413   5.618 -18.584  1.00  0.00    -0.550 OA
ENDBRANCH  13  14
ENDBRANCH  12  13
ENDBRANCH  11  12
ENDBRANCH  10  11
ENDBRANCH   9  10
ENDBRANCH   8   9
ENDBRANCH   7   8
ENDBRANCH   6   7
ENDBRANCH   5   6
ENDBRANCH   4   5
ENDBRANCH   3   4
ENDBRANCH   2   3
ENDBRANCH   1   2
BRANCH   1  17
ATOM     17  C   UNL     1      -6.797   6.213  -7.732  1.00  0.00     0.000 C 
BRANCH  17  18
ATOM     18  C   UNL     1      -6.009   7.059  -6.715  1.00  0.00     0.000 C 
BRANCH  18  19
ATOM     19  C   UNL     1      -6.875   7.869  -5.728  1.00  0.00     0.000 C 
BRANCH  19  20
ATOM     20  C   UNL     1      -6.197   8.190  -4.381  1.00  0.00     0.000 C 
BRANCH  20  21
ATOM     21  C   UNL     1      -4.806   7.555  -4.187  1.00  0.00     0.000 C 
BRANCH  21  22
ATOM     22  C   UNL     1      -4.728   6.486  -3.079  1.00  0.00    -0.000 C 
BRANCH  22  23
ATOM     23  C   UNL     1      -4.853   5.031  -3.567  1.00  0.00    -0.000 C 
BRANCH  23  24
ATOM     24  C   UNL     1      -6.311   4.576  -3.728  1.00  0.00    -0.000 C 
BRANCH  24  25
ATOM     25  C   UNL     1      -6.883   4.084  -2.391  1.00  0.00    -0.000 C 
BRANCH  25  26
ATOM     26  C   UNL     1      -8.082   4.922  -1.918  1.00  0.00    -0.000 C 
BRANCH  26  27
ATOM     27  C   UNL     1      -8.681   5.784  -3.042  1.00  0.00    -0.000 C 
BRANCH  27  28
ATOM     28  C   UNL     1      -9.250   7.118  -2.515  1.00  0.00    -0.000 C 
BRANCH  28  29
ATOM     29  C   UNL     1      -9.896   7.989  -3.606  1.00  0.00    -0.003 C 
ATOM     30  C   UNL     1     -10.953   8.948  -3.059  1.00  0.00     0.004 C 
ENDBRANCH  28  29
ENDBRANCH  27  28
ENDBRANCH  26  27
ENDBRANCH  25  26
ENDBRANCH  24  25
ENDBRANCH  23  24
ENDBRANCH  22  23
ENDBRANCH  21  22
ENDBRANCH  20  21
ENDBRANCH  19  20
ENDBRANCH  18  19
ENDBRANCH  17  18
ENDBRANCH   1  17
TORSDOF 26
ENDMDL
MODEL 2
REMARK VINA RESULT:    -4.523      1.522      3.130
REMARK INTER + INTRA:         -14.523
REMARK INTER:                 -12.506
REMARK INTRA:                  -2.018
REMARK UNBOUND:                -3.125
REMARK SMILES CCCCCCCCCCCCCCCCCCCCCCCCCCCC(=O)[O-]
REMARK SMILES IDX 15 1 16 2 17 3 18 4 19 5 20 6 21 7 22 8 23 9 24 10 25 11
REMARK SMILES IDX 26 12 27 13 28 14 29 15 30 16 14 17 13 18 12 19 11 20 10 21
REMARK SMILES IDX 9 22 8 23 7 24 6 25 5 26 4 27 3 28 2 29 1 30
REMARK H PARENT
REMARK Flexibility Score: inf
ROOT
ATOM      1  C   UNL     1      -9.112   5.576  -8.174  1.00  0.00     0.000 C 
ENDROOT
BRANCH   1   2
ATOM      2  C   UNL     1      -9.403   4.538  -9.280  1.00  0.00     0.000 C 
BRANCH   2   3
ATOM      3  C   UNL     1      -9.525   5.167 -10.680  1.00  0.00     0.000 C 
BRANCH   3   4
ATOM      4  C   UNL     1      -8.338   4.826 -11.597  1.00  0.00     0.000 C 
BRANCH   4   5
ATOM      5  C   UNL     1      -8.751   4.453 -13.038  1.00  0.00     0.000 C 
BRANCH   5   6
ATOM      6  C   UNL     1      -8.051   5.337 -14.087  1.00  0.00     0.000 C 
BRANCH   6   7
ATOM      7  C   UNL     1      -6.735   4.719 -14.600  1.00  0.00     0.000 C 
BRANCH   7   8
ATOM      8  C   UNL     1      -5.471   5.485 -14.164  1.00  0.00     0.000 C 
BRANCH   8   9
ATOM      9  C   UNL     1      -4.748   6.210 -15.315  1.00  0.00     0.000 C 
BRANCH   9  10
ATOM     10  C   UNL     1      -5.573   6.230 -16.611  1.00  0.00     0.000 C 
BRANCH  10  11
ATOM     11  C   UNL     1      -6.159   7.624 -16.862  1.00  0.00     0.000 C 
BRANCH  11  12
ATOM     12  C   UNL     1      -7.690   7.571 -16.983  1.00  0.00     0.006 C 
BRANCH  12  13
ATOM     13  C   UNL     1      -8.168   6.302 -17.702  1.00  0.00     0.053 C 
BRANCH  13  14
ATOM     14  C   UNL     1      -9.213   6.606 -18.732  1.00  0.00     0.041 C 
ATOM     15  O   UNL     1      -9.724   5.675 -19.411  1.00  0.00    -0.550 OA
ATOM     16  O   UNL     1      -9.638   7.913 -18.929  1.00  0.00    -0.550 OA
ENDBRANCH  13  14
ENDBRANCH  12  13
ENDBRANCH  11  12
ENDBRANCH  10  11
ENDBRANCH   9  10
ENDBRANCH   8   9
ENDBRANCH   7   8
ENDBRANCH   6   7
ENDBRANCH   5   6
ENDBRANCH   4   5
ENDBRANCH   3   4
ENDBRANCH   2   3
ENDBRANCH   1   2
BRANCH   1  17
ATOM     17  C   UNL     1      -7.658   5.564  -7.666  1.00  0.00     0.000 C 
BRANCH  17  18
ATOM     18  C   UNL     1      -7.461   6.056  -6.220  1.00  0.00     0.000 C 
BRANCH  18  19
ATOM     19  C   UNL     1      -7.633   4.975  -5.132  1.00  0.00     0.000 C 
BRANCH  19  20
ATOM     20  C   UNL     1      -6.916   5.274  -3.800  1.00  0.00     0.000 C 
BRANCH  20  21
ATOM     21  C   UNL     1      -7.830   5.279  -2.559  1.00  0.00     0.000 C 
BRANCH  21  22
ATOM     22  C   UNL     1      -8.010   6.656  -1.889  1.00  0.00    -0.000 C 
BRANCH  22  23
ATOM     23  C   UNL     1      -8.068   7.850  -2.859  1.00  0.00    -0.000 C 
BRANCH  23  24
ATOM     24  C   UNL     1      -9.501   8.230  -3.257  1.00  0.00    -0.000 C 
BRANCH  24  25
ATOM     25  C   UNL     1     -10.487   7.922  -2.121  1.00  0.00    -0.000 C 
BRANCH  25  26
ATOM     26  C   UNL     1     -11.374   9.127  -1.767  1.00  0.00    -0.000 C 
BRANCH  26  27
ATOM     27  C   UNL     1     -11.396  10.192  -2.877  1.00  0.00    -0.000 C 
BRANCH  27  28
ATOM     28  C   UNL     1     -12.781  10.307  -3.548  1.00  0.00    -0.000 C 
BRANCH  28  29
ATOM     29  C   UNL     1     -13.560  11.571  -3.146  1.00  0.00    -0.003 C 
ATOM     30  C   UNL     1     -12.842  12.864  -3.532  1.00  0.00     0.004 C 
ENDBRANCH  28  29
ENDBRANCH  27  28
ENDBRANCH  26  27
ENDBRANCH  25  26
ENDBRANCH  24  25
ENDBRANCH  23  24
ENDBRANCH  22  23
ENDBRANCH  21  22
ENDBRANCH  20  21
ENDBRANCH  19  20
ENDBRANCH  18  19
ENDBRANCH  17  18
ENDBRANCH   1  17
TORSDOF 26
ENDMDL
MODEL 3
REMARK VINA RESULT:    -4.514      1.668      3.894
REMARK INTER + INTRA:         -14.501
REMARK INTER:                 -12.087
REMARK INTRA:                  -2.414
REMARK UNBOUND:                -3.125
REMARK SMILES CCCCCCCCCCCCCCCCCCCCCCCCCCCC(=O)[O-]
REMARK SMILES IDX 15 1 16 2 17 3 18 4 19 5 20 6 21 7 22 8 23 9 24 10 25 11
REMARK SMILES IDX 26 12 27 13 28 14 29 15 30 16 14 17 13 18 12 19 11 20 10 21
REMARK SMILES IDX 9 22 8 23 7 24 6 25 5 26 4 27 3 28 2 29 1 30
REMARK H PARENT
REMARK Flexibility Score: inf
ROOT
ATOM      1  C   UNL     1      -7.947   6.242  -4.330  1.00  0.00     0.000 C 
ENDROOT
BRANCH   1   2
ATOM      2  C   UNL     1      -8.292   6.723  -5.756  1.00  0.00     0.000 C 
BRANCH   2   3
ATOM      3  C   UNL     1      -7.140   6.519  -6.757  1.00  0.00     0.000 C 
BRANCH   3   4
ATOM      4  C   UNL     1      -7.519   5.596  -7.928  1.00  0.00     0.000 C 
BRANCH   4   5
ATOM      5  C   UNL     1      -9.041   5.491  -8.170  1.00  0.00     0.000 C 
BRANCH   5   6
ATOM      6  C   UNL     1      -9.383   4.468  -9.269  1.00  0.00     0.000 C 
BRANCH   6   7
ATOM      7  C   UNL     1      -9.557   5.121 -10.655  1.00  0.00     0.000 C 
BRANCH   7   8
ATOM      8  C   UNL     1      -8.316   5.006 -11.562  1.00  0.00     0.000 C 
BRANCH   8   9
ATOM      9  C   UNL     1      -8.614   4.435 -12.962  1.00  0.00     0.000 C 
BRANCH   9  10
ATOM     10  C   UNL     1      -7.336   4.096 -13.745  1.00  0.00     0.000 C 
BRANCH  10  11
ATOM     11  C   UNL     1      -6.229   5.115 -13.449  1.00  0.00     0.000 C 
BRANCH  11  12
ATOM     12  C   UNL     1      -5.581   5.625 -14.744  1.00  0.00     0.006 C 
BRANCH  12  13
ATOM     13  C   UNL     1      -6.620   5.912 -15.836  1.00  0.00     0.053 C 
BRANCH  13  14
ATOM     14  C   UNL     1      -6.333   5.148 -17.093  1.00  0.00     0.041 C 
ATOM     15  O   UNL     1      -6.759   5.568 -18.202  1.00  0.00    -0.550 OA
ATOM     16  O   UNL     1      -5.576   3.985 -17.044  1.00  0.00    -0.550 OA
ENDBRANCH  13  14
ENDBRANCH  12  13
ENDBRANCH  11  12
ENDBRANCH  10  11
ENDBRANCH   9  10
ENDBRANCH   8   9
ENDBRANCH   7   8
ENDBRANCH   6   7
ENDBRANCH   5   6
ENDBRANCH   4   5
ENDBRANCH   3   4
ENDBRANCH   2   3
ENDBRANCH   1   2
BRANCH   1  17
ATOM     17  C   UNL     1      -7.231   4.879  -4.280  1.00  0.00     0.000 C 
BRANCH  17  18
ATOM     18  C   UNL     1      -5.965   4.831  -3.405  1.00  0.00     0.000 C 
BRANCH  18  19
ATOM     19  C   UNL     1      -5.970   5.785  -2.193  1.00  0.00     0.000 C 
BRANCH  19  20
ATOM     20  C   UNL     1      -6.057   5.092  -0.819  1.00  0.00     0.000 C 
BRANCH  20  21
ATOM     21  C   UNL     1      -7.398   5.277  -0.083  1.00  0.00     0.000 C 
BRANCH  21  22
ATOM     22  C   UNL     1      -8.611   4.608  -0.761  1.00  0.00    -0.000 C 
BRANCH  22  23
ATOM     23  C   UNL     1      -9.584   5.576  -1.458  1.00  0.00    -0.000 C 
BRANCH  23  24
ATOM     24  C   UNL     1      -9.542   6.994  -0.870  1.00  0.00    -0.000 C 
BRANCH  24  25
ATOM     25  C   UNL     1     -10.736   7.826  -1.360  1.00  0.00    -0.000 C 
BRANCH  25  26
ATOM     26  C   UNL     1     -10.491   8.452  -2.743  1.00  0.00    -0.000 C 
BRANCH  26  27
ATOM     27  C   UNL     1     -10.206   9.962  -2.667  1.00  0.00    -0.000 C 
BRANCH  27  28
ATOM     28  C   UNL     1     -11.501  10.797  -2.590  1.00  0.00    -0.000 C 
BRANCH  28  29
ATOM     29  C   UNL     1     -12.689  10.166  -3.337  1.00  0.00    -0.003 C 
ATOM     30  C   UNL     1     -13.804  11.166  -3.641  1.00  0.00     0.004 C 
ENDBRANCH  28  29
ENDBRANCH  27  28
ENDBRANCH  26  27
ENDBRANCH  25  26
ENDBRANCH  24  25
ENDBRANCH  23  24
ENDBRANCH  22  23
ENDBRANCH  21  22
ENDBRANCH  20  21
ENDBRANCH  19  20
ENDBRANCH  18  19
ENDBRANCH  17  18
ENDBRANCH   1  17
TORSDOF 26
ENDMDL
MODEL 4
REMARK VINA RESULT:    -4.450      1.297      2.819
REMARK INTER + INTRA:         -14.340
REMARK INTER:                 -10.747
REMARK INTRA:                  -3.592
REMARK UNBOUND:                -3.125
REMARK SMILES CCCCCCCCCCCCCCCCCCCCCCCCCCCC(=O)[O-]
REMARK SMILES IDX 15 1 16 2 17 3 18 4 19 5 20 6 21 7 22 8 23 9 24 10 25 11
REMARK SMILES IDX 26 12 27 13 28 14 29 15 30 16 14 17 13 18 12 19 11 20 10 21
REMARK SMILES IDX 9 22 8 23 7 24 6 25 5 26 4 27 3 28 2 29 1 30
REMARK H PARENT
REMARK Flexibility Score: inf
ROOT
ATOM      1  C   UNL     1      -9.000   6.271  -4.695  1.00  0.00     0.000 C 
ENDROOT
BRANCH   1   2
ATOM      2  C   UNL     1      -9.176   5.968  -6.199  1.00  0.00     0.000 C 
BRANCH   2   3
ATOM      3  C   UNL     1      -7.854   5.603  -6.899  1.00  0.00     0.000 C 
BRANCH   3   4
ATOM      4  C   UNL     1      -8.020   5.367  -8.410  1.00  0.00     0.000 C 
BRANCH   4   5
ATOM      5  C   UNL     1      -9.438   4.907  -8.816  1.00  0.00     0.000 C 
BRANCH   5   6
ATOM      6  C   UNL     1      -9.719   5.151 -10.310  1.00  0.00     0.000 C 
BRANCH   6   7
ATOM      7  C   UNL     1      -8.500   4.838 -11.202  1.00  0.00     0.000 C 
BRANCH   7   8
ATOM      8  C   UNL     1      -8.858   4.550 -12.673  1.00  0.00     0.000 C 
BRANCH   8   9
ATOM      9  C   UNL     1      -7.634   4.354 -13.589  1.00  0.00     0.000 C 
BRANCH   9  10
ATOM     10  C   UNL     1      -6.456   5.261 -13.204  1.00  0.00     0.000 C 
BRANCH  10  11
ATOM     11  C   UNL     1      -5.497   5.440 -14.387  1.00  0.00     0.000 C 
BRANCH  11  12
ATOM     12  C   UNL     1      -6.076   4.826 -15.671  1.00  0.00     0.006 C 
BRANCH  12  13
ATOM     13  C   UNL     1      -6.319   5.881 -16.758  1.00  0.00     0.053 C 
BRANCH  13  14
ATOM     14  C   UNL     1      -7.758   6.296 -16.820  1.00  0.00     0.041 C 
ATOM     15  O   UNL     1      -8.257   6.995 -15.898  1.00  0.00    -0.550 OA
ATOM     16  O   UNL     1      -8.543   5.930 -17.906  1.00  0.00    -0.550 OA
ENDBRANCH  13  14
ENDBRANCH  12  13
ENDBRANCH  11  12
ENDBRANCH  10  11
ENDBRANCH   9  10
ENDBRANCH   8   9
ENDBRANCH   7   8
ENDBRANCH   6   7
ENDBRANCH   5   6
ENDBRANCH   4   5
ENDBRANCH   3   4
ENDBRANCH   2   3
ENDBRANCH   1   2
BRANCH   1  17
ATOM     17  C   UNL     1      -8.492   7.693  -4.394  1.00  0.00     0.000 C 
BRANCH  17  18
ATOM     18  C   UNL     1      -7.323   7.778  -3.394  1.00  0.00     0.000 C 
BRANCH  18  19
ATOM     19  C   UNL     1      -5.981   7.218  -3.909  1.00  0.00     0.000 C 
BRANCH  19  20
ATOM     20  C   UNL     1      -5.408   6.045  -3.090  1.00  0.00     0.000 C 
BRANCH  20  21
ATOM     21  C   UNL     1      -5.764   4.644  -3.627  1.00  0.00     0.000 C 
BRANCH  21  22
ATOM     22  C   UNL     1      -6.841   3.892  -2.820  1.00  0.00    -0.000 C 
BRANCH  22  23
ATOM     23  C   UNL     1      -7.218   4.538  -1.475  1.00  0.00    -0.000 C 
BRANCH  23  24
ATOM     24  C   UNL     1      -8.724   4.807  -1.340  1.00  0.00    -0.000 C 
BRANCH  24  25
ATOM     25  C   UNL     1      -8.982   6.133  -0.610  1.00  0.00    -0.000 C 
BRANCH  25  26
ATOM     26  C   UNL     1     -10.379   6.705  -0.900  1.00  0.00    -0.000 C 
BRANCH  26  27
ATOM     27  C   UNL     1     -10.379   8.239  -1.008  1.00  0.00    -0.000 C 
BRANCH  27  28
ATOM     28  C   UNL     1     -11.174   8.738  -2.233  1.00  0.00    -0.000 C 
BRANCH  28  29
ATOM     29  C   UNL     1     -10.719  10.116  -2.745  1.00  0.00    -0.003 C 
ATOM     30  C   UNL     1      -9.422  10.597  -2.097  1.00  0.00     0.004 C 
ENDBRANCH  28  29
ENDBRANCH  27  28
ENDBRANCH  26  27
ENDBRANCH  25  26
ENDBRANCH  24  25
ENDBRANCH  23  24
ENDBRANCH  22  23
ENDBRANCH  21  22
ENDBRANCH  20  21
ENDBRANCH  19  20
ENDBRANCH  18  19
ENDBRANCH  17  18
ENDBRANCH   1  17
TORSDOF 26
ENDMDL
MODEL 5
REMARK VINA RESULT:    -4.404      4.401     11.901
REMARK INTER + INTRA:         -14.224
REMARK INTER:                 -11.644
REMARK INTRA:                  -2.580
REMARK UNBOUND:                -3.125
REMARK SMILES CCCCCCCCCCCCCCCCCCCCCCCCCCCC(=O)[O-]
REMARK SMILES IDX 15 1 16 2 17 3 18 4 19 5 20 6 21 7 22 8 23 9 24 10 25 11
REMARK SMILES IDX 26 12 27 13 28 14 29 15 30 16 14 17 13 18 12 19 11 20 10 21
REMARK SMILES IDX 9 22 8 23 7 24 6 25 5 26 4 27 3 28 2 29 1 30
REMARK H PARENT
REMARK Flexibility Score: inf
ROOT
ATOM      1  C   UNL     1      -9.111   5.557  -8.058  1.00  0.00     0.000 C 
ENDROOT
BRANCH   1   2
ATOM      2  C   UNL     1      -7.793   5.557  -7.253  1.00  0.00     0.000 C 
BRANCH   2   3
ATOM      3  C   UNL     1      -7.378   6.960  -6.777  1.00  0.00     0.000 C 
BRANCH   3   4
ATOM      4  C   UNL     1      -5.940   7.007  -6.232  1.00  0.00     0.000 C 
BRANCH   4   5
ATOM      5  C   UNL     1      -5.792   7.835  -4.935  1.00  0.00     0.000 C 
BRANCH   5   6
ATOM      6  C   UNL     1      -5.745   6.942  -3.682  1.00  0.00     0.000 C 
BRANCH   6   7
ATOM      7  C   UNL     1      -5.827   5.440  -4.020  1.00  0.00     0.000 C 
BRANCH   7   8
ATOM      8  C   UNL     1      -7.029   4.718  -3.379  1.00  0.00     0.000 C 
BRANCH   8   9
ATOM      9  C   UNL     1      -8.363   5.478  -3.518  1.00  0.00     0.000 C 
BRANCH   9  10
ATOM     10  C   UNL     1      -9.044   5.727  -2.163  1.00  0.00     0.000 C 
BRANCH  10  11
ATOM     11  C   UNL     1      -9.058   7.224  -1.828  1.00  0.00     0.000 C 
BRANCH  11  12
ATOM     12  C   UNL     1      -9.240   8.076  -3.094  1.00  0.00     0.006 C 
BRANCH  12  13
ATOM     13  C   UNL     1     -10.709   8.452  -3.330  1.00  0.00     0.053 C 
BRANCH  13  14
ATOM     14  C   UNL     1     -11.009   9.845  -2.866  1.00  0.00     0.041 C 
ATOM     15  O   UNL     1     -10.097  10.714  -2.838  1.00  0.00    -0.550 OA
ATOM     16  O   UNL     1     -12.299  10.191  -2.486  1.00  0.00    -0.550 OA
ENDBRANCH  13  14
ENDBRANCH  12  13
ENDBRANCH  11  12
ENDBRANCH  10  11
ENDBRANCH   9  10
ENDBRANCH   8   9
ENDBRANCH   7   8
ENDBRANCH   6   7
ENDBRANCH   5   6
ENDBRANCH   4   5
ENDBRANCH   3   4
ENDBRANCH   2   3
ENDBRANCH   1   2
BRANCH   1  17
ATOM     17  C   UNL     1      -9.152   4.526  -9.202  1.00  0.00     0.000 C 
BRANCH  17  18
ATOM     18  C   UNL     1      -9.489   5.097 -10.592  1.00  0.00     0.000 C 
BRANCH  18  19
ATOM     19  C   UNL     1      -8.319   5.103 -11.598  1.00  0.00     0.000 C 
BRANCH  19  20
ATOM     20  C   UNL     1      -8.638   4.473 -12.969  1.00  0.00     0.000 C 
BRANCH  20  21
ATOM     21  C   UNL     1      -7.408   4.194 -13.856  1.00  0.00     0.000 C 
BRANCH  21  22
ATOM     22  C   UNL     1      -6.085   4.797 -13.343  1.00  0.00    -0.000 C 
BRANCH  22  23
ATOM     23  C   UNL     1      -5.367   5.730 -14.335  1.00  0.00    -0.000 C 
BRANCH  23  24
ATOM     24  C   UNL     1      -6.049   5.782 -15.710  1.00  0.00    -0.000 C 
BRANCH  24  25
ATOM     25  C   UNL     1      -5.532   6.970 -16.534  1.00  0.00    -0.000 C 
BRANCH  25  26
ATOM     26  C   UNL     1      -6.665   7.890 -17.018  1.00  0.00    -0.000 C 
BRANCH  26  27
ATOM     27  C   UNL     1      -8.042   7.206 -16.974  1.00  0.00    -0.000 C 
BRANCH  27  28
ATOM     28  C   UNL     1      -8.764   7.259 -18.337  1.00  0.00    -0.000 C 
BRANCH  28  29
ATOM     29  C   UNL     1      -9.351   5.908 -18.779  1.00  0.00    -0.003 C 
ATOM     30  C   UNL     1      -8.303   4.963 -19.366  1.00  0.00     0.004 C 
ENDBRANCH  28  29
ENDBRANCH  27  28
ENDBRANCH  26  27
ENDBRANCH  25  26
ENDBRANCH  24  25
ENDBRANCH  23  24
ENDBRANCH  22  23
ENDBRANCH  21  22
ENDBRANCH  20  21
ENDBRANCH  19  20
ENDBRANCH  18  19
ENDBRANCH  17  18
ENDBRANCH   1  17
TORSDOF 26
ENDMDL
MODEL 6
REMARK VINA RESULT:    -4.394      1.340      2.558
REMARK INTER + INTRA:         -14.199
REMARK INTER:                 -11.203
REMARK INTRA:                  -2.996
REMARK UNBOUND:                -3.125
REMARK SMILES CCCCCCCCCCCCCCCCCCCCCCCCCCCC(=O)[O-]
REMARK SMILES IDX 15 1 16 2 17 3 18 4 19 5 20 6 21 7 22 8 23 9 24 10 25 11
REMARK SMILES IDX 26 12 27 13 28 14 29 15 30 16 14 17 13 18 12 19 11 20 10 21
REMARK SMILES IDX 9 22 8 23 7 24 6 25 5 26 4 27 3 28 2 29 1 30
REMARK H PARENT
REMARK Flexibility Score: inf
ROOT
ATOM      1  C   UNL     1      -8.580   6.524  -5.596  1.00  0.00     0.000 C 
ENDROOT
BRANCH   1   2
ATOM      2  C   UNL     1      -7.394   6.613  -6.580  1.00  0.00     0.000 C 
BRANCH   2   3
ATOM      3  C   UNL     1      -7.629   5.822  -7.880  1.00  0.00     0.000 C 
BRANCH   3   4
ATOM      4  C   UNL     1      -9.120   5.585  -8.178  1.00  0.00     0.000 C 
BRANCH   4   5
ATOM      5  C   UNL     1      -9.377   4.501  -9.247  1.00  0.00     0.000 C 
BRANCH   5   6
ATOM      6  C   UNL     1      -9.584   5.107 -10.647  1.00  0.00     0.000 C 
BRANCH   6   7
ATOM      7  C   UNL     1      -8.365   4.900 -11.569  1.00  0.00     0.000 C 
BRANCH   7   8
ATOM      8  C   UNL     1      -8.732   4.503 -13.013  1.00  0.00     0.000 C 
BRANCH   8   9
ATOM      9  C   UNL     1      -8.087   5.395 -14.092  1.00  0.00     0.000 C 
BRANCH   9  10
ATOM     10  C   UNL     1      -6.626   5.014 -14.376  1.00  0.00     0.000 C 
BRANCH  10  11
ATOM     11  C   UNL     1      -6.075   5.816 -15.561  1.00  0.00     0.000 C 
BRANCH  11  12
ATOM     12  C   UNL     1      -7.209   6.465 -16.369  1.00  0.00     0.006 C 
BRANCH  12  13
ATOM     13  C   UNL     1      -7.402   5.794 -17.736  1.00  0.00     0.053 C 
BRANCH  13  14
ATOM     14  C   UNL     1      -8.709   6.173 -18.363  1.00  0.00     0.041 C 
ATOM     15  O   UNL     1      -9.366   5.323 -19.022  1.00  0.00    -0.550 OA
ATOM     16  O   UNL     1      -9.213   7.457 -18.204  1.00  0.00    -0.550 OA
ENDBRANCH  13  14
ENDBRANCH  12  13
ENDBRANCH  11  12
ENDBRANCH  10  11
ENDBRANCH   9  10
ENDBRANCH   8   9
ENDBRANCH   7   8
ENDBRANCH   6   7
ENDBRANCH   5   6
ENDBRANCH   4   5
ENDBRANCH   3   4
ENDBRANCH   2   3
ENDBRANCH   1   2
BRANCH   1  17
ATOM     17  C   UNL     1      -8.474   5.367  -4.584  1.00  0.00     0.000 C 
BRANCH  17  18
ATOM     18  C   UNL     1      -7.248   4.452  -4.755  1.00  0.00     0.000 C 
BRANCH  18  19
ATOM     19  C   UNL     1      -6.559   4.030  -3.440  1.00  0.00     0.000 C 
BRANCH  19  20
ATOM     20  C   UNL     1      -5.175   4.663  -3.199  1.00  0.00     0.000 C 
BRANCH  20  21
ATOM     21  C   UNL     1      -4.925   5.983  -3.954  1.00  0.00     0.000 C 
BRANCH  21  22
ATOM     22  C   UNL     1      -5.061   7.259  -3.099  1.00  0.00    -0.000 C 
BRANCH  22  23
ATOM     23  C   UNL     1      -6.501   7.621  -2.694  1.00  0.00    -0.000 C 
BRANCH  23  24
ATOM     24  C   UNL     1      -6.751   7.488  -1.185  1.00  0.00    -0.000 C 
BRANCH  24  25
ATOM     25  C   UNL     1      -7.592   6.241  -0.876  1.00  0.00    -0.000 C 
BRANCH  25  26
ATOM     26  C   UNL     1      -8.955   6.587  -0.254  1.00  0.00    -0.000 C 
BRANCH  26  27
ATOM     27  C   UNL     1     -10.084   6.643  -1.297  1.00  0.00    -0.000 C 
BRANCH  27  28
ATOM     28  C   UNL     1     -11.071   7.799  -1.028  1.00  0.00    -0.000 C 
BRANCH  28  29
ATOM     29  C   UNL     1     -11.192   8.792  -2.197  1.00  0.00    -0.003 C 
ATOM     30  C   UNL     1      -9.862   9.050  -2.903  1.00  0.00     0.004 C 
ENDBRANCH  28  29
ENDBRANCH  27  28
ENDBRANCH  26  27
ENDBRANCH  25  26
ENDBRANCH  24  25
ENDBRANCH  23  24
ENDBRANCH  22  23
ENDBRANCH  21  22
ENDBRANCH  20  21
ENDBRANCH  19  20
ENDBRANCH  18  19
ENDBRANCH  17  18
ENDBRANCH   1  17
TORSDOF 26
ENDMDL
MODEL 7
REMARK VINA RESULT:    -4.346      2.295      6.332
REMARK INTER + INTRA:         -14.077
REMARK INTER:                 -11.560
REMARK INTRA:                  -2.517
REMARK UNBOUND:                -3.125
REMARK SMILES CCCCCCCCCCCCCCCCCCCCCCCCCCCC(=O)[O-]
REMARK SMILES IDX 15 1 16 2 17 3 18 4 19 5 20 6 21 7 22 8 23 9 24 10 25 11
REMARK SMILES IDX 26 12 27 13 28 14 29 15 30 16 14 17 13 18 12 19 11 20 10 21
REMARK SMILES IDX 9 22 8 23 7 24 6 25 5 26 4 27 3 28 2 29 1 30
REMARK H PARENT
REMARK Flexibility Score: inf
ROOT
ATOM      1  C   UNL     1      -6.497   3.063  -2.583  1.00  0.00     0.000 C 
ENDROOT
BRANCH   1   2
ATOM      2  C   UNL     1      -5.259   3.964  -2.785  1.00  0.00     0.000 C 
BRANCH   2   3
ATOM      3  C   UNL     1      -5.610   5.460  -2.877  1.00  0.00     0.000 C 
BRANCH   3   4
ATOM      4  C   UNL     1      -6.000   5.898  -4.299  1.00  0.00     0.000 C 
BRANCH   4   5
ATOM      5  C   UNL     1      -7.521   5.869  -4.565  1.00  0.00     0.000 C 
BRANCH   5   6
ATOM      6  C   UNL     1      -7.961   6.984  -5.531  1.00  0.00     0.000 C 
BRANCH   6   7
ATOM      7  C   UNL     1      -7.291   6.870  -6.915  1.00  0.00     0.000 C 
BRANCH   7   8
ATOM      8  C   UNL     1      -7.642   5.577  -7.676  1.00  0.00     0.000 C 
BRANCH   8   9
ATOM      9  C   UNL     1      -9.113   5.496  -8.130  1.00  0.00     0.000 C 
BRANCH   9  10
ATOM     10  C   UNL     1      -9.327   4.479  -9.261  1.00  0.00     0.000 C 
BRANCH  10  11
ATOM     11  C   UNL     1      -9.649   5.193 -10.580  1.00  0.00     0.000 C 
BRANCH  11  12
ATOM     12  C   UNL     1      -8.414   5.265 -11.490  1.00  0.00     0.006 C 
BRANCH  12  13
ATOM     13  C   UNL     1      -8.483   4.249 -12.639  1.00  0.00     0.053 C 
BRANCH  13  14
ATOM     14  C   UNL     1      -7.650   4.675 -13.810  1.00  0.00     0.041 C 
ATOM     15  O   UNL     1      -6.496   4.197 -13.974  1.00  0.00    -0.550 OA
ATOM     16  O   UNL     1      -8.155   5.583 -14.731  1.00  0.00    -0.550 OA
ENDBRANCH  13  14
ENDBRANCH  12  13
ENDBRANCH  11  12
ENDBRANCH  10  11
ENDBRANCH   9  10
ENDBRANCH   8   9
ENDBRANCH   7   8
ENDBRANCH   6   7
ENDBRANCH   5   6
ENDBRANCH   4   5
ENDBRANCH   3   4
ENDBRANCH   2   3
ENDBRANCH   1   2
BRANCH   1  17
ATOM     17  C   UNL     1      -6.847   2.793  -1.107  1.00  0.00     0.000 C 
BRANCH  17  18
ATOM     18  C   UNL     1      -8.336   2.941  -0.744  1.00  0.00     0.000 C 
BRANCH  18  19
ATOM     19  C   UNL     1      -8.767   4.359  -0.316  1.00  0.00     0.000 C 
BRANCH  19  20
ATOM     20  C   UNL     1      -9.485   5.178  -1.406  1.00  0.00     0.000 C 
BRANCH  20  21
ATOM     21  C   UNL     1      -9.777   6.644  -1.030  1.00  0.00     0.000 C 
BRANCH  21  22
ATOM     22  C   UNL     1      -9.592   7.660  -2.175  1.00  0.00    -0.000 C 
BRANCH  22  23
ATOM     23  C   UNL     1      -8.330   8.535  -2.072  1.00  0.00    -0.000 C 
BRANCH  23  24
ATOM     24  C   UNL     1      -8.473   9.880  -2.799  1.00  0.00    -0.000 C 
BRANCH  24  25
ATOM     25  C   UNL     1      -8.673  11.027  -1.798  1.00  0.00    -0.000 C 
BRANCH  25  26
ATOM     26  C   UNL     1      -9.789  11.994  -2.223  1.00  0.00    -0.000 C 
BRANCH  26  27
ATOM     27  C   UNL     1     -10.918  11.292  -2.997  1.00  0.00    -0.000 C 
BRANCH  27  28
ATOM     28  C   UNL     1     -12.072  12.254  -3.347  1.00  0.00    -0.000 C 
BRANCH  28  29
ATOM     29  C   UNL     1     -13.442  11.795  -2.819  1.00  0.00    -0.003 C 
ATOM     30  C   UNL     1     -14.111  10.755  -3.717  1.00  0.00     0.004 C 
ENDBRANCH  28  29
ENDBRANCH  27  28
ENDBRANCH  26  27
ENDBRANCH  25  26
ENDBRANCH  24  25
ENDBRANCH  23  24
ENDBRANCH  22  23
ENDBRANCH  21  22
ENDBRANCH  20  21
ENDBRANCH  19  20
ENDBRANCH  18  19
ENDBRANCH  17  18
ENDBRANCH   1  17
TORSDOF 26
ENDMDL
MODEL 8
REMARK VINA RESULT:    -4.338      1.450      2.135
REMARK INTER + INTRA:         -14.057
REMARK INTER:                 -11.309
REMARK INTRA:                  -2.748
REMARK UNBOUND:                -3.125
REMARK SMILES CCCCCCCCCCCCCCCCCCCCCCCCCCCC(=O)[O-]
REMARK SMILES IDX 15 1 16 2 17 3 18 4 19 5 20 6 21 7 22 8 23 9 24 10 25 11
REMARK SMILES IDX 26 12 27 13 28 14 29 15 30 16 14 17 13 18 12 19 11 20 10 21
REMARK SMILES IDX 9 22 8 23 7 24 6 25 5 26 4 27 3 28 2 29 1 30
REMARK H PARENT
REMARK Flexibility Score: inf
ROOT
ATOM      1  C   UNL     1      -9.005   5.573  -8.121  1.00  0.00     0.000 C 
ENDROOT
BRANCH   1   2
ATOM      2  C   UNL     1      -9.392   4.548  -9.208  1.00  0.00     0.000 C 
BRANCH   2   3
ATOM      3  C   UNL     1      -9.535   5.176 -10.606  1.00  0.00     0.000 C 
BRANCH   3   4
ATOM      4  C   UNL     1      -8.348   4.857 -11.532  1.00  0.00     0.000 C 
BRANCH   4   5
ATOM      5  C   UNL     1      -8.764   4.499 -12.976  1.00  0.00     0.000 C 
BRANCH   5   6
ATOM      6  C   UNL     1      -7.904   5.230 -14.023  1.00  0.00     0.000 C 
BRANCH   6   7
ATOM      7  C   UNL     1      -6.405   5.235 -13.662  1.00  0.00     0.000 C 
BRANCH   7   8
ATOM      8  C   UNL     1      -5.547   4.300 -14.535  1.00  0.00     0.000 C 
BRANCH   8   9
ATOM      9  C   UNL     1      -4.940   4.982 -15.777  1.00  0.00     0.000 C 
BRANCH   9  10
ATOM     10  C   UNL     1      -4.824   6.505 -15.616  1.00  0.00     0.000 C 
BRANCH  10  11
ATOM     11  C   UNL     1      -5.185   7.220 -16.924  1.00  0.00     0.000 C 
BRANCH  11  12
ATOM     12  C   UNL     1      -6.707   7.356 -17.083  1.00  0.00     0.006 C 
BRANCH  12  13
ATOM     13  C   UNL     1      -7.277   6.334 -18.076  1.00  0.00     0.053 C 
BRANCH  13  14
ATOM     14  C   UNL     1      -8.726   6.587 -18.365  1.00  0.00     0.041 C 
ATOM     15  O   UNL     1      -9.224   7.725 -18.159  1.00  0.00    -0.550 OA
ATOM     16  O   UNL     1      -9.521   5.572 -18.883  1.00  0.00    -0.550 OA
ENDBRANCH  13  14
ENDBRANCH  12  13
ENDBRANCH  11  12
ENDBRANCH  10  11
ENDBRANCH   9  10
ENDBRANCH   8   9
ENDBRANCH   7   8
ENDBRANCH   6   7
ENDBRANCH   5   6
ENDBRANCH   4   5
ENDBRANCH   3   4
ENDBRANCH   2   3
ENDBRANCH   1   2
BRANCH   1  17
ATOM     17  C   UNL     1      -7.599   5.364  -7.527  1.00  0.00     0.000 C 
BRANCH  17  18
ATOM     18  C   UNL     1      -6.689   6.606  -7.532  1.00  0.00     0.000 C 
BRANCH  18  19
ATOM     19  C   UNL     1      -6.160   7.035  -6.148  1.00  0.00     0.000 C 
BRANCH  19  20
ATOM     20  C   UNL     1      -6.857   8.268  -5.539  1.00  0.00     0.000 C 
BRANCH  20  21
ATOM     21  C   UNL     1      -7.772   7.967  -4.335  1.00  0.00     0.000 C 
BRANCH  21  22
ATOM     22  C   UNL     1      -9.032   7.143  -4.665  1.00  0.00    -0.000 C 
BRANCH  22  23
ATOM     23  C   UNL     1      -9.000   5.682  -4.181  1.00  0.00    -0.000 C 
BRANCH  23  24
ATOM     24  C   UNL     1      -8.213   5.500  -2.875  1.00  0.00    -0.000 C 
BRANCH  24  25
ATOM     25  C   UNL     1      -9.161   5.253  -1.693  1.00  0.00    -0.000 C 
BRANCH  25  26
ATOM     26  C   UNL     1      -8.649   5.878  -0.384  1.00  0.00    -0.000 C 
BRANCH  26  27
ATOM     27  C   UNL     1      -9.252   7.267  -0.116  1.00  0.00    -0.000 C 
BRANCH  27  28
ATOM     28  C   UNL     1     -10.791   7.223  -0.001  1.00  0.00    -0.000 C 
BRANCH  28  29
ATOM     29  C   UNL     1     -11.510   8.199  -0.948  1.00  0.00    -0.003 C 
ATOM     30  C   UNL     1     -10.558   8.910  -1.909  1.00  0.00     0.004 C 
ENDBRANCH  28  29
ENDBRANCH  27  28
ENDBRANCH  26  27
ENDBRANCH  25  26
ENDBRANCH  24  25
ENDBRANCH  23  24
ENDBRANCH  22  23
ENDBRANCH  21  22
ENDBRANCH  20  21
ENDBRANCH  19  20
ENDBRANCH  18  19
ENDBRANCH  17  18
ENDBRANCH   1  17
TORSDOF 26
ENDMDL
MODEL 9
REMARK VINA RESULT:    -4.330      1.185      3.218
REMARK INTER + INTRA:         -14.037
REMARK INTER:                 -10.827
REMARK INTRA:                  -3.210
REMARK UNBOUND:                -3.125
REMARK SMILES CCCCCCCCCCCCCCCCCCCCCCCCCCCC(=O)[O-]
REMARK SMILES IDX 15 1 16 2 17 3 18 4 19 5 20 6 21 7 22 8 23 9 24 10 25 11
REMARK SMILES IDX 26 12 27 13 28 14 29 15 30 16 14 17 13 18 12 19 11 20 10 21
REMARK SMILES IDX 9 22 8 23 7 24 6 25 5 26 4 27 3 28 2 29 1 30
REMARK H PARENT
REMARK Flexibility Score: inf
ROOT
ATOM      1  C   UNL     1      -9.509   5.947  -5.623  1.00  0.00     0.000 C 
ENDROOT
BRANCH   1   2
ATOM      2  C   UNL     1      -8.148   5.263  -5.872  1.00  0.00     0.000 C 
BRANCH   2   3
ATOM      3  C   UNL     1      -7.731   5.270  -7.354  1.00  0.00     0.000 C 
BRANCH   3   4
ATOM      4  C   UNL     1      -8.890   5.622  -8.302  1.00  0.00     0.000 C 
BRANCH   4   5
ATOM      5  C   UNL     1      -9.166   4.545  -9.375  1.00  0.00     0.000 C 
BRANCH   5   6
ATOM      6  C   UNL     1      -9.551   5.166 -10.731  1.00  0.00     0.000 C 
BRANCH   6   7
ATOM      7  C   UNL     1      -8.812   4.509 -11.914  1.00  0.00     0.000 C 
BRANCH   7   8
ATOM      8  C   UNL     1      -7.555   5.275 -12.372  1.00  0.00     0.000 C 
BRANCH   8   9
ATOM      9  C   UNL     1      -7.524   5.584 -13.881  1.00  0.00     0.000 C 
BRANCH   9  10
ATOM     10  C   UNL     1      -6.493   4.733 -14.637  1.00  0.00     0.000 C 
BRANCH  10  11
ATOM     11  C   UNL     1      -6.196   5.336 -16.016  1.00  0.00     0.000 C 
BRANCH  11  12
ATOM     12  C   UNL     1      -7.211   6.432 -16.375  1.00  0.00     0.006 C 
BRANCH  12  13
ATOM     13  C   UNL     1      -8.171   5.988 -17.488  1.00  0.00     0.053 C 
BRANCH  13  14
ATOM     14  C   UNL     1      -8.516   7.119 -18.409  1.00  0.00     0.041 C 
ATOM     15  O   UNL     1      -7.671   8.020 -18.652  1.00  0.00    -0.550 OA
ATOM     16  O   UNL     1      -9.765   7.166 -19.016  1.00  0.00    -0.550 OA
ENDBRANCH  13  14
ENDBRANCH  12  13
ENDBRANCH  11  12
ENDBRANCH  10  11
ENDBRANCH   9  10
ENDBRANCH   8   9
ENDBRANCH   7   8
ENDBRANCH   6   7
ENDBRANCH   5   6
ENDBRANCH   4   5
ENDBRANCH   3   4
ENDBRANCH   2   3
ENDBRANCH   1   2
BRANCH   1  17
ATOM     17  C   UNL     1      -9.452   7.126  -4.634  1.00  0.00     0.000 C 
BRANCH  17  18
ATOM     18  C   UNL     1      -8.884   6.792  -3.242  1.00  0.00     0.000 C 
BRANCH  18  19
ATOM     19  C   UNL     1      -8.514   8.014  -2.376  1.00  0.00     0.000 C 
BRANCH  19  20
ATOM     20  C   UNL     1      -7.028   8.420  -2.426  1.00  0.00     0.000 C 
BRANCH  20  21
ATOM     21  C   UNL     1      -6.709   9.604  -3.360  1.00  0.00     0.000 C 
BRANCH  21  22
ATOM     22  C   UNL     1      -5.595   9.338  -4.392  1.00  0.00    -0.000 C 
BRANCH  22  23
ATOM     23  C   UNL     1      -5.988   8.399  -5.547  1.00  0.00    -0.000 C 
BRANCH  23  24
ATOM     24  C   UNL     1      -5.103   7.147  -5.629  1.00  0.00    -0.000 C 
BRANCH  24  25
ATOM     25  C   UNL     1      -4.120   7.091  -4.451  1.00  0.00    -0.000 C 
BRANCH  25  26
ATOM     26  C   UNL     1      -4.193   5.760  -3.685  1.00  0.00    -0.000 C 
BRANCH  26  27
ATOM     27  C   UNL     1      -5.635   5.247  -3.524  1.00  0.00    -0.000 C 
BRANCH  27  28
ATOM     28  C   UNL     1      -5.689   3.724  -3.284  1.00  0.00    -0.000 C 
BRANCH  28  29
ATOM     29  C   UNL     1      -6.639   3.312  -2.146  1.00  0.00    -0.003 C 
ATOM     30  C   UNL     1      -6.903   4.440  -1.149  1.00  0.00     0.004 C 
ENDBRANCH  28  29
ENDBRANCH  27  28
ENDBRANCH  26  27
ENDBRANCH  25  26
ENDBRANCH  24  25
ENDBRANCH  23  24
ENDBRANCH  22  23
ENDBRANCH  21  22
ENDBRANCH  20  21
ENDBRANCH  19  20
ENDBRANCH  18  19
ENDBRANCH  17  18
ENDBRANCH   1  17
TORSDOF 26
ENDMDL
