MODEL 1
REMARK VINA RESULT:    -4.727      0.000      0.000
REMARK INTER + INTRA:          -5.757
REMARK INTER:                  -5.695
REMARK INTRA:                  -0.062
REMARK UNBOUND:                -0.062
REMARK SMILES OCCc1ccc(O)c(O)c1
REMARK SMILES IDX 3 1 4 2 5 3 6 4 7 5 11 6 9 7 8 8 10 10 2 12 1 13
REMARK H PARENT 8 9 10 11 1 14
REMARK Flexibility Score: inf
ROOT
ATOM      1  C   UNL     1     175.633 173.246 177.459  1.00  0.00     0.064 C 
ENDROOT
BRANCH   1   2
ATOM      2  C   UNL     1     174.560 173.187 178.514  1.00  0.00    -0.042 A 
ATOM      3  C   UNL     1     174.904 173.081 179.869  1.00  0.00     0.008 A 
ATOM      4  C   UNL     1     173.910 173.058 180.848  1.00  0.00     0.050 A 
ATOM      5  C   UNL     1     172.559 173.151 180.495  1.00  0.00     0.157 A 
ATOM      6  C   UNL     1     173.208 173.294 178.155  1.00  0.00     0.054 A 
ATOM      7  C   UNL     1     172.202 173.273 179.131  1.00  0.00     0.157 A 
BRANCH   5   8
ATOM      8  O   UNL     1     171.612 173.118 181.522  1.00  0.00    -0.504 OA
ATOM      9  H   UNL     1     170.730 173.608 181.492  1.00  0.00     0.293 HD
ENDBRANCH   5   8
BRANCH   7  10
ATOM     10  O   UNL     1     170.878 173.379 178.703  1.00  0.00    -0.504 OA
ATOM     11  H   UNL     1     170.347 174.238 178.717  1.00  0.00     0.293 HD
ENDBRANCH   7  10
ENDBRANCH   1   2
BRANCH   1  12
ATOM     12  C   UNL     1     175.491 174.513 176.614  1.00  0.00     0.161 C 
BRANCH  12  13
ATOM     13  O   UNL     1     176.691 175.238 176.626  1.00  0.00    -0.396 OA
ATOM     14  H   UNL     1     176.806 175.581 177.549  1.00  0.00     0.210 HD
ENDBRANCH  12  13
ENDBRANCH   1  12
TORSDOF 5
ENDMDL
MODEL 2
REMARK VINA RESULT:    -4.714      2.132      4.013
REMARK INTER + INTRA:          -5.740
REMARK INTER:                  -5.679
REMARK INTRA:                  -0.061
REMARK UNBOUND:                -0.062
REMARK SMILES OCCc1ccc(O)c(O)c1
REMARK SMILES IDX 3 1 4 2 5 3 6 4 7 5 11 6 9 7 8 8 10 10 2 12 1 13
REMARK H PARENT 8 9 10 11 1 14
REMARK Flexibility Score: inf
ROOT
ATOM      1  C   UNL     1     170.721 173.100 177.510  1.00  0.00     0.064 C 
ENDROOT
BRANCH   1   2
ATOM      2  C   UNL     1     171.802 173.170 178.556  1.00  0.00    -0.042 A 
ATOM      3  C   UNL     1     171.469 173.317 179.909  1.00  0.00     0.008 A 
ATOM      4  C   UNL     1     172.470 173.350 180.881  1.00  0.00     0.050 A 
ATOM      5  C   UNL     1     173.818 173.227 180.522  1.00  0.00     0.157 A 
ATOM      6  C   UNL     1     173.149 173.032 178.191  1.00  0.00     0.054 A 
ATOM      7  C   UNL     1     174.162 173.063 179.159  1.00  0.00     0.157 A 
BRANCH   5   8
ATOM      8  O   UNL     1     174.772 173.272 181.541  1.00  0.00    -0.504 OA
ATOM      9  H   UNL     1     175.645 173.774 181.475  1.00  0.00     0.293 HD
ENDBRANCH   5   8
BRANCH   7  10
ATOM     10  O   UNL     1     175.482 172.925 178.725  1.00  0.00    -0.504 OA
ATOM     11  H   UNL     1     176.096 172.178 179.017  1.00  0.00     0.293 HD
ENDBRANCH   7  10
ENDBRANCH   1   2
BRANCH   1  12
ATOM     12  C   UNL     1     170.882 171.847 176.648  1.00  0.00     0.161 C 
BRANCH  12  13
ATOM     13  O   UNL     1     169.668 171.151 176.575  1.00  0.00    -0.396 OA
ATOM     14  H   UNL     1     169.868 170.207 176.804  1.00  0.00     0.210 HD
ENDBRANCH  12  13
ENDBRANCH   1  12
TORSDOF 5
ENDMDL
MODEL 3
REMARK VINA RESULT:    -4.681      0.944      2.025
REMARK INTER + INTRA:          -5.701
REMARK INTER:                  -5.605
REMARK INTRA:                  -0.096
REMARK UNBOUND:                -0.062
REMARK SMILES OCCc1ccc(O)c(O)c1
REMARK SMILES IDX 3 1 4 2 5 3 6 4 7 5 11 6 9 7 8 8 10 10 2 12 1 13
REMARK H PARENT 8 9 10 11 1 14
REMARK Flexibility Score: inf
ROOT
ATOM      1  C   UNL     1     175.673 173.507 177.253  1.00  0.00     0.064 C 
ENDROOT
BRANCH   1   2
ATOM      2  C   UNL     1     174.573 173.521 178.282  1.00  0.00    -0.042 A 
ATOM      3  C   UNL     1     173.322 174.071 177.971  1.00  0.00     0.008 A 
ATOM      4  C   UNL     1     172.293 174.056 178.914  1.00  0.00     0.050 A 
ATOM      5  C   UNL     1     172.490 173.484 180.176  1.00  0.00     0.157 A 
ATOM      6  C   UNL     1     174.772 172.934 179.539  1.00  0.00     0.054 A 
ATOM      7  C   UNL     1     173.745 172.912 180.493  1.00  0.00     0.157 A 
BRANCH   5   8
ATOM      8  O   UNL     1     171.421 173.504 181.076  1.00  0.00    -0.504 OA
ATOM      9  H   UNL     1     170.641 172.864 181.040  1.00  0.00     0.293 HD
ENDBRANCH   5   8
BRANCH   7  10
ATOM     10  O   UNL     1     174.014 172.316 181.726  1.00  0.00    -0.504 OA
ATOM     11  H   UNL     1     174.010 172.812 182.605  1.00  0.00     0.293 HD
ENDBRANCH   7  10
ENDBRANCH   1   2
BRANCH   1  12
ATOM     12  C   UNL     1     175.380 174.509 176.136  1.00  0.00     0.161 C 
BRANCH  12  13
ATOM     13  O   UNL     1     176.139 175.674 176.318  1.00  0.00    -0.396 OA
ATOM     14  H   UNL     1     176.406 175.983 175.414  1.00  0.00     0.210 HD
ENDBRANCH  12  13
ENDBRANCH   1  12
TORSDOF 5
ENDMDL
MODEL 4
REMARK VINA RESULT:    -4.631      2.342      3.911
REMARK INTER + INTRA:          -5.640
REMARK INTER:                  -5.578
REMARK INTRA:                  -0.063
REMARK UNBOUND:                -0.062
REMARK SMILES OCCc1ccc(O)c(O)c1
REMARK SMILES IDX 3 1 4 2 5 3 6 4 7 5 11 6 9 7 8 8 10 10 2 12 1 13
REMARK H PARENT 8 9 10 11 1 14
REMARK Flexibility Score: inf
ROOT
ATOM      1  C   UNL     1     170.989 172.948 177.160  1.00  0.00     0.064 C 
ENDROOT
BRANCH   1   2
ATOM      2  C   UNL     1     172.019 172.939 178.259  1.00  0.00    -0.042 A 
ATOM      3  C   UNL     1     173.333 172.527 177.993  1.00  0.00     0.008 A 
ATOM      4  C   UNL     1     174.295 172.548 179.004  1.00  0.00     0.050 A 
ATOM      5  C   UNL     1     173.968 172.989 180.291  1.00  0.00     0.157 A 
ATOM      6  C   UNL     1     171.689 173.395 179.543  1.00  0.00     0.054 A 
ATOM      7  C   UNL     1     172.648 173.421 180.565  1.00  0.00     0.157 A 
BRANCH   5   8
ATOM      8  O   UNL     1     174.976 172.983 181.259  1.00  0.00    -0.504 OA
ATOM      9  H   UNL     1     174.924 172.465 182.124  1.00  0.00     0.293 HD
ENDBRANCH   5   8
BRANCH   7  10
ATOM     10  O   UNL     1     172.250 173.883 181.821  1.00  0.00    -0.504 OA
ATOM     11  H   UNL     1     172.733 174.604 182.336  1.00  0.00     0.293 HD
ENDBRANCH   7  10
ENDBRANCH   1   2
BRANCH   1  12
ATOM     12  C   UNL     1     170.877 171.566 176.515  1.00  0.00     0.161 C 
BRANCH  12  13
ATOM     13  O   UNL     1     169.560 171.095 176.606  1.00  0.00    -0.396 OA
ATOM     14  H   UNL     1     169.598 170.115 176.456  1.00  0.00     0.210 HD
ENDBRANCH  12  13
ENDBRANCH   1  12
TORSDOF 5
ENDMDL
MODEL 5
REMARK VINA RESULT:    -4.453      1.439      4.415
REMARK INTER + INTRA:          -5.426
REMARK INTER:                  -5.344
REMARK INTRA:                  -0.082
REMARK UNBOUND:                -0.062
REMARK SMILES OCCc1ccc(O)c(O)c1
REMARK SMILES IDX 3 1 4 2 5 3 6 4 7 5 11 6 9 7 8 8 10 10 2 12 1 13
REMARK H PARENT 8 9 10 11 1 14
REMARK Flexibility Score: inf
ROOT
ATOM      1  C   UNL     1     171.903 173.370 179.573  1.00  0.00     0.064 C 
ENDROOT
BRANCH   1   2
ATOM      2  C   UNL     1     173.079 173.720 178.700  1.00  0.00    -0.042 A 
ATOM      3  C   UNL     1     174.285 173.015 178.822  1.00  0.00     0.008 A 
ATOM      4  C   UNL     1     175.364 173.318 177.991  1.00  0.00     0.050 A 
ATOM      5  C   UNL     1     175.258 174.320 177.019  1.00  0.00     0.157 A 
ATOM      6  C   UNL     1     172.961 174.715 177.719  1.00  0.00     0.054 A 
ATOM      7  C   UNL     1     174.039 175.027 176.879  1.00  0.00     0.157 A 
BRANCH   5   8
ATOM      8  O   UNL     1     176.375 174.578 176.222  1.00  0.00    -0.504 OA
ATOM      9  H   UNL     1     177.083 175.262 176.446  1.00  0.00     0.293 HD
ENDBRANCH   5   8
BRANCH   7  10
ATOM     10  O   UNL     1     173.854 176.032 175.928  1.00  0.00    -0.504 OA
ATOM     11  H   UNL     1     172.951 176.390 175.654  1.00  0.00     0.293 HD
ENDBRANCH   7  10
ENDBRANCH   1   2
BRANCH   1  12
ATOM     12  C   UNL     1     172.331 173.270 181.039  1.00  0.00     0.161 C 
BRANCH  12  13
ATOM     13  O   UNL     1     172.780 174.516 181.498  1.00  0.00    -0.396 OA
ATOM     14  H   UNL     1     173.342 174.899 180.775  1.00  0.00     0.210 HD
ENDBRANCH  12  13
ENDBRANCH   1  12
TORSDOF 5
ENDMDL
MODEL 6
REMARK VINA RESULT:    -4.445      2.661      4.025
REMARK INTER + INTRA:          -5.416
REMARK INTER:                  -5.328
REMARK INTRA:                  -0.088
REMARK UNBOUND:                -0.062
REMARK SMILES OCCc1ccc(O)c(O)c1
REMARK SMILES IDX 3 1 4 2 5 3 6 4 7 5 11 6 9 7 8 8 10 10 2 12 1 13
REMARK H PARENT 8 9 10 11 1 14
REMARK Flexibility Score: inf
ROOT
ATOM      1  C   UNL     1     174.526 173.023 179.402  1.00  0.00     0.064 C 
ENDROOT
BRANCH   1   2
ATOM      2  C   UNL     1     173.333 172.646 178.565  1.00  0.00    -0.042 A 
ATOM      3  C   UNL     1     172.133 173.363 178.680  1.00  0.00     0.008 A 
ATOM      4  C   UNL     1     171.038 173.033 177.881  1.00  0.00     0.050 A 
ATOM      5  C   UNL     1     171.121 171.993 176.949  1.00  0.00     0.157 A 
ATOM      6  C   UNL     1     173.427 171.612 177.623  1.00  0.00     0.054 A 
ATOM      7  C   UNL     1     172.333 171.274 176.815  1.00  0.00     0.157 A 
BRANCH   5   8
ATOM      8  O   UNL     1     169.988 171.711 176.182  1.00  0.00    -0.504 OA
ATOM      9  H   UNL     1     169.094 171.450 176.572  1.00  0.00     0.293 HD
ENDBRANCH   5   8
BRANCH   7  10
ATOM     10  O   UNL     1     172.495 170.231 175.901  1.00  0.00    -0.504 OA
ATOM     11  H   UNL     1     171.731 169.697 175.513  1.00  0.00     0.293 HD
ENDBRANCH   7  10
ENDBRANCH   1   2
BRANCH   1  12
ATOM     12  C   UNL     1     174.099 173.353 180.833  1.00  0.00     0.161 C 
BRANCH  12  13
ATOM     13  O   UNL     1     173.726 172.182 181.509  1.00  0.00    -0.396 OA
ATOM     14  H   UNL     1     174.333 171.465 181.190  1.00  0.00     0.210 HD
ENDBRANCH  12  13
ENDBRANCH   1  12
TORSDOF 5
ENDMDL
MODEL 7
REMARK VINA RESULT:    -4.416      2.326      3.784
REMARK INTER + INTRA:          -5.382
REMARK INTER:                  -5.300
REMARK INTRA:                  -0.082
REMARK UNBOUND:                -0.062
REMARK SMILES OCCc1ccc(O)c(O)c1
REMARK SMILES IDX 3 1 4 2 5 3 6 4 7 5 11 6 9 7 8 8 10 10 2 12 1 13
REMARK H PARENT 8 9 10 11 1 14
REMARK Flexibility Score: inf
ROOT
ATOM      1  C   UNL     1     172.739 171.595 176.304  1.00  0.00     0.064 C 
ENDROOT
BRANCH   1   2
ATOM      2  C   UNL     1     172.749 172.289 177.640  1.00  0.00    -0.042 A 
ATOM      3  C   UNL     1     171.591 172.916 178.121  1.00  0.00     0.008 A 
ATOM      4  C   UNL     1     171.592 173.533 179.372  1.00  0.00     0.050 A 
ATOM      5  C   UNL     1     172.742 173.527 180.170  1.00  0.00     0.157 A 
ATOM      6  C   UNL     1     173.901 172.268 178.440  1.00  0.00     0.054 A 
ATOM      7  C   UNL     1     173.912 172.883 179.699  1.00  0.00     0.157 A 
BRANCH   5   8
ATOM      8  O   UNL     1     172.680 174.165 181.411  1.00  0.00    -0.504 OA
ATOM      9  H   UNL     1     171.858 174.179 181.997  1.00  0.00     0.293 HD
ENDBRANCH   5   8
BRANCH   7  10
ATOM     10  O   UNL     1     175.094 172.828 180.441  1.00  0.00    -0.504 OA
ATOM     11  H   UNL     1     175.720 173.610 180.565  1.00  0.00     0.293 HD
ENDBRANCH   7  10
ENDBRANCH   1   2
BRANCH   1  12
ATOM     12  C   UNL     1     171.865 170.340 176.355  1.00  0.00     0.161 C 
BRANCH  12  13
ATOM     13  O   UNL     1     170.678 170.549 175.639  1.00  0.00    -0.396 OA
ATOM     14  H   UNL     1     170.728 171.468 175.268  1.00  0.00     0.210 HD
ENDBRANCH  12  13
ENDBRANCH   1  12
TORSDOF 5
ENDMDL
MODEL 8
REMARK VINA RESULT:    -4.389      1.503      4.617
REMARK INTER + INTRA:          -5.349
REMARK INTER:                  -5.270
REMARK INTRA:                  -0.079
REMARK UNBOUND:                -0.062
REMARK SMILES OCCc1ccc(O)c(O)c1
REMARK SMILES IDX 3 1 4 2 5 3 6 4 7 5 11 6 9 7 8 8 10 10 2 12 1 13
REMARK H PARENT 8 9 10 11 1 14
REMARK Flexibility Score: inf
ROOT
ATOM      1  C   UNL     1     173.751 172.370 179.783  1.00  0.00     0.064 C 
ENDROOT
BRANCH   1   2
ATOM      2  C   UNL     1     173.863 173.375 178.667  1.00  0.00    -0.042 A 
ATOM      3  C   UNL     1     172.788 174.226 178.371  1.00  0.00     0.008 A 
ATOM      4  C   UNL     1     172.903 175.177 177.357  1.00  0.00     0.050 A 
ATOM      5  C   UNL     1     174.092 175.305 176.628  1.00  0.00     0.157 A 
ATOM      6  C   UNL     1     175.061 173.507 177.950  1.00  0.00     0.054 A 
ATOM      7  C   UNL     1     175.186 174.460 176.931  1.00  0.00     0.157 A 
BRANCH   5   8
ATOM      8  O   UNL     1     174.141 176.274 175.624  1.00  0.00    -0.504 OA
ATOM      9  H   UNL     1     174.928 176.407 175.006  1.00  0.00     0.293 HD
ENDBRANCH   5   8
BRANCH   7  10
ATOM     10  O   UNL     1     176.406 174.534 176.255  1.00  0.00    -0.504 OA
ATOM     11  H   UNL     1     177.304 174.581 176.714  1.00  0.00     0.293 HD
ENDBRANCH   7  10
ENDBRANCH   1   2
BRANCH   1  12
ATOM     12  C   UNL     1     174.102 173.013 181.125  1.00  0.00     0.161 C 
BRANCH  12  13
ATOM     13  O   UNL     1     172.933 173.386 181.804  1.00  0.00    -0.396 OA
ATOM     14  H   UNL     1     173.219 173.935 182.579  1.00  0.00     0.210 HD
ENDBRANCH  12  13
ENDBRANCH   1  12
TORSDOF 5
ENDMDL
MODEL 9
REMARK VINA RESULT:    -4.343      2.769      4.242
REMARK INTER + INTRA:          -5.294
REMARK INTER:                  -5.215
REMARK INTRA:                  -0.079
REMARK UNBOUND:                -0.062
REMARK SMILES OCCc1ccc(O)c(O)c1
REMARK SMILES IDX 3 1 4 2 5 3 6 4 7 5 11 6 9 7 8 8 10 10 2 12 1 13
REMARK H PARENT 8 9 10 11 1 14
REMARK Flexibility Score: inf
ROOT
ATOM      1  C   UNL     1     172.636 174.021 179.772  1.00  0.00     0.064 C 
ENDROOT
BRANCH   1   2
ATOM      2  C   UNL     1     172.535 173.012 178.660  1.00  0.00    -0.042 A 
ATOM      3  C   UNL     1     173.615 172.164 178.374  1.00  0.00     0.008 A 
ATOM      4  C   UNL     1     173.510 171.208 177.363  1.00  0.00     0.050 A 
ATOM      5  C   UNL     1     172.326 171.072 176.628  1.00  0.00     0.157 A 
ATOM      6  C   UNL     1     171.342 172.871 177.937  1.00  0.00     0.054 A 
ATOM      7  C   UNL     1     171.226 171.913 176.921  1.00  0.00     0.157 A 
BRANCH   5   8
ATOM      8  O   UNL     1     172.287 170.098 175.628  1.00  0.00    -0.504 OA
ATOM      9  H   UNL     1     171.892 169.178 175.752  1.00  0.00     0.293 HD
ENDBRANCH   5   8
BRANCH   7  10
ATOM     10  O   UNL     1     170.011 171.831 176.238  1.00  0.00    -0.504 OA
ATOM     11  H   UNL     1     169.550 170.962 176.010  1.00  0.00     0.293 HD
ENDBRANCH   7  10
ENDBRANCH   1   2
BRANCH   1  12
ATOM     12  C   UNL     1     172.281 173.382 181.116  1.00  0.00     0.161 C 
BRANCH  12  13
ATOM     13  O   UNL     1     173.449 173.013 181.799  1.00  0.00    -0.396 OA
ATOM     14  H   UNL     1     173.486 172.022 181.781  1.00  0.00     0.210 HD
ENDBRANCH  12  13
ENDBRANCH   1  12
TORSDOF 5
ENDMDL
