MODEL 1
REMARK VINA RESULT:    -5.842      0.000      0.000
REMARK INTER + INTRA:         -10.006
REMARK INTER:                  -9.087
REMARK INTRA:                  -0.919
REMARK UNBOUND:                -0.919
REMARK SMILES COc1cc(CNC(=O)CCCCC=CC(C)C)ccc1O
REMARK SMILES IDX 11 1 12 2 13 3 14 4 15 5 16 6 17 7 18 8 10 9 8 10 9 11 7 12
REMARK SMILES IDX 6 14 5 15 4 16 19 17 3 18 20 19 21 20 2 21 1 22 22 23
REMARK H PARENT 7 13 22 24
REMARK Flexibility Score: inf
ROOT
ATOM      1  C   UNL     1       8.238 -11.967  68.609  1.00  0.00     0.010 C 
ENDROOT
BRANCH   1   2
ATOM      2  C   UNL     1       7.952 -13.154  69.547  1.00  0.00     0.005 C 
BRANCH   2   3
ATOM      3  C   UNL     1       7.207 -14.290  68.832  1.00  0.00     0.027 C 
BRANCH   3   4
ATOM      4  C   UNL     1       8.036 -14.890  67.724  1.00  0.00    -0.031 C 
ATOM      5  C   UNL     1       9.097 -15.715  67.862  1.00  0.00    -0.028 C 
BRANCH   5   6
ATOM      6  C   UNL     1       9.664 -16.314  69.139  1.00  0.00     0.005 C 
ATOM      7  C   UNL     1      10.069 -17.787  69.007  1.00  0.00     0.012 C 
ATOM      8  C   UNL     1      10.776 -15.450  69.747  1.00  0.00     0.012 C 
ENDBRANCH   5   6
ENDBRANCH   3   4
ENDBRANCH   2   3
ENDBRANCH   1   2
BRANCH   1   9
ATOM      9  C   UNL     1       9.592 -11.308  68.900  1.00  0.00     0.100 C 
BRANCH   9  10
ATOM     10  C   UNL     1       9.483  -9.811  68.953  1.00  0.00     0.220 C 
ATOM     11  O   UNL     1       9.974  -9.188  69.933  1.00  0.00    -0.275 OA
ATOM     12  N   UNL     1       8.862  -9.095  67.876  1.00  0.00    -0.352 N 
ATOM     13  H   UNL     1       8.498  -9.627  67.055  1.00  0.00     0.163 HD
BRANCH  12  14
ATOM     14  C   UNL     1       8.761  -7.637  67.859  1.00  0.00     0.151 C 
BRANCH  14  15
ATOM     15  C   UNL     1       7.326  -7.212  68.020  1.00  0.00    -0.025 A 
ATOM     16  C   UNL     1       6.688  -6.456  67.022  1.00  0.00     0.056 A 
ATOM     17  C   UNL     1       6.622  -7.550  69.184  1.00  0.00     0.009 A 
ATOM     18  C   UNL     1       5.351  -6.043  67.183  1.00  0.00     0.160 A 
ATOM     19  C   UNL     1       5.297  -7.142  69.350  1.00  0.00     0.050 A 
ATOM     20  C   UNL     1       4.661  -6.390  68.353  1.00  0.00     0.157 A 
BRANCH  18  21
ATOM     21  O   UNL     1       4.678  -5.290  66.208  1.00  0.00    -0.493 OA
ATOM     22  C   UNL     1       4.586  -3.868  66.209  1.00  0.00     0.278 C 
ENDBRANCH  18  21
BRANCH  20  23
ATOM     23  O   UNL     1       3.338  -5.980  68.520  1.00  0.00    -0.504 OA
ATOM     24  H   UNL     1       2.754  -5.736  67.728  1.00  0.00     0.293 HD
ENDBRANCH  20  23
ENDBRANCH  14  15
ENDBRANCH  12  14
ENDBRANCH   9  10
ENDBRANCH   1   9
TORSDOF 10
ENDMDL
MODEL 2
REMARK VINA RESULT:    -5.690      1.163      1.837
REMARK INTER + INTRA:          -9.769
REMARK INTER:                  -8.664
REMARK INTRA:                  -1.105
REMARK UNBOUND:                -0.919
REMARK SMILES COc1cc(CNC(=O)CCCCC=CC(C)C)ccc1O
REMARK SMILES IDX 11 1 12 2 13 3 14 4 15 5 16 6 17 7 18 8 10 9 8 10 9 11 7 12
REMARK SMILES IDX 6 14 5 15 4 16 19 17 3 18 20 19 21 20 2 21 1 22 22 23
REMARK H PARENT 7 13 22 24
REMARK Flexibility Score: inf
ROOT
ATOM      1  C   UNL     1       8.312 -12.456  68.393  1.00  0.00     0.010 C 
ENDROOT
BRANCH   1   2
ATOM      2  C   UNL     1       7.477 -13.382  69.295  1.00  0.00     0.005 C 
BRANCH   2   3
ATOM      3  C   UNL     1       6.974 -14.623  68.543  1.00  0.00     0.027 C 
BRANCH   3   4
ATOM      4  C   UNL     1       7.944 -15.058  67.475  1.00  0.00    -0.031 C 
ATOM      5  C   UNL     1       9.031 -15.846  67.638  1.00  0.00    -0.028 C 
BRANCH   5   6
ATOM      6  C   UNL     1       9.495 -16.557  68.898  1.00  0.00     0.005 C 
ATOM      7  C   UNL     1      10.000 -17.985  68.654  1.00  0.00     0.012 C 
ATOM      8  C   UNL     1      10.483 -15.716  69.716  1.00  0.00     0.012 C 
ENDBRANCH   5   6
ENDBRANCH   3   4
ENDBRANCH   2   3
ENDBRANCH   1   2
BRANCH   1   9
ATOM      9  C   UNL     1       9.683 -12.132  69.001  1.00  0.00     0.100 C 
BRANCH   9  10
ATOM     10  C   UNL     1       9.831 -10.666  69.292  1.00  0.00     0.220 C 
ATOM     11  O   UNL     1      10.961 -10.121  69.168  1.00  0.00    -0.275 OA
ATOM     12  N   UNL     1       8.687  -9.886  69.668  1.00  0.00    -0.352 N 
ATOM     13  H   UNL     1       7.753 -10.350  69.727  1.00  0.00     0.163 HD
BRANCH  12  14
ATOM     14  C   UNL     1       8.767  -8.451  69.928  1.00  0.00     0.151 C 
BRANCH  14  15
ATOM     15  C   UNL     1       7.809  -7.704  69.039  1.00  0.00    -0.025 A 
ATOM     16  C   UNL     1       6.821  -6.873  69.592  1.00  0.00     0.056 A 
ATOM     17  C   UNL     1       7.885  -7.855  67.647  1.00  0.00     0.009 A 
ATOM     18  C   UNL     1       5.913  -6.190  68.759  1.00  0.00     0.160 A 
ATOM     19  C   UNL     1       6.986  -7.182  66.817  1.00  0.00     0.050 A 
ATOM     20  C   UNL     1       6.002  -6.351  67.368  1.00  0.00     0.157 A 
BRANCH  18  21
ATOM     21  O   UNL     1       4.913  -5.349  69.273  1.00  0.00    -0.493 OA
ATOM     22  C   UNL     1       3.589  -5.768  69.587  1.00  0.00     0.278 C 
ENDBRANCH  18  21
BRANCH  20  23
ATOM     23  O   UNL     1       5.103  -5.681  66.539  1.00  0.00    -0.504 OA
ATOM     24  H   UNL     1       4.174  -5.428  66.857  1.00  0.00     0.293 HD
ENDBRANCH  20  23
ENDBRANCH  14  15
ENDBRANCH  12  14
ENDBRANCH   9  10
ENDBRANCH   1   9
TORSDOF 10
ENDMDL
MODEL 3
REMARK VINA RESULT:    -5.644      1.805      2.175
REMARK INTER + INTRA:          -9.698
REMARK INTER:                  -9.073
REMARK INTRA:                  -0.625
REMARK UNBOUND:                -0.919
REMARK SMILES COc1cc(CNC(=O)CCCCC=CC(C)C)ccc1O
REMARK SMILES IDX 11 1 12 2 13 3 14 4 15 5 16 6 17 7 18 8 10 9 8 10 9 11 7 12
REMARK SMILES IDX 6 14 5 15 4 16 19 17 3 18 20 19 21 20 2 21 1 22 22 23
REMARK H PARENT 7 13 22 24
REMARK Flexibility Score: inf
ROOT
ATOM      1  C   UNL     1       6.605 -11.674  69.017  1.00  0.00     0.010 C 
ENDROOT
BRANCH   1   2
ATOM      2  C   UNL     1       7.751 -12.474  69.661  1.00  0.00     0.005 C 
BRANCH   2   3
ATOM      3  C   UNL     1       7.555 -13.989  69.512  1.00  0.00     0.027 C 
BRANCH   3   4
ATOM      4  C   UNL     1       8.061 -14.488  68.182  1.00  0.00    -0.031 C 
ATOM      5  C   UNL     1       8.909 -15.520  67.972  1.00  0.00    -0.028 C 
BRANCH   5   6
ATOM      6  C   UNL     1       9.491 -16.482  68.995  1.00  0.00     0.005 C 
ATOM      7  C   UNL     1       9.850 -17.857  68.420  1.00  0.00     0.012 C 
ATOM      8  C   UNL     1      10.643 -15.860  69.796  1.00  0.00     0.012 C 
ENDBRANCH   5   6
ENDBRANCH   3   4
ENDBRANCH   2   3
ENDBRANCH   1   2
BRANCH   1   9
ATOM      9  C   UNL     1       6.253 -10.413  69.816  1.00  0.00     0.100 C 
BRANCH   9  10
ATOM     10  C   UNL     1       6.521  -9.162  69.030  1.00  0.00     0.220 C 
ATOM     11  O   UNL     1       6.599  -9.225  67.773  1.00  0.00    -0.275 OA
ATOM     12  N   UNL     1       6.644  -7.900  69.702  1.00  0.00    -0.352 N 
ATOM     13  H   UNL     1       6.536  -7.865  70.740  1.00  0.00     0.163 HD
BRANCH  12  14
ATOM     14  C   UNL     1       6.869  -6.648  68.984  1.00  0.00     0.151 C 
BRANCH  14  15
ATOM     15  C   UNL     1       5.577  -6.138  68.404  1.00  0.00    -0.025 A 
ATOM     16  C   UNL     1       5.467  -5.871  67.030  1.00  0.00     0.056 A 
ATOM     17  C   UNL     1       4.478  -5.905  69.243  1.00  0.00     0.009 A 
ATOM     18  C   UNL     1       4.262  -5.377  66.492  1.00  0.00     0.160 A 
ATOM     19  C   UNL     1       3.282  -5.413  68.716  1.00  0.00     0.050 A 
ATOM     20  C   UNL     1       3.171  -5.148  67.345  1.00  0.00     0.157 A 
BRANCH  18  21
ATOM     21  O   UNL     1       4.111  -5.100  65.124  1.00  0.00    -0.493 OA
ATOM     22  C   UNL     1       4.284  -6.058  64.084  1.00  0.00     0.278 C 
ENDBRANCH  18  21
BRANCH  20  23
ATOM     23  O   UNL     1       1.978  -4.655  66.818  1.00  0.00    -0.504 OA
ATOM     24  H   UNL     1       1.512  -3.851  67.223  1.00  0.00     0.293 HD
ENDBRANCH  20  23
ENDBRANCH  14  15
ENDBRANCH  12  14
ENDBRANCH   9  10
ENDBRANCH   1   9
TORSDOF 10
ENDMDL
MODEL 4
REMARK VINA RESULT:    -5.629      2.285      8.684
REMARK INTER + INTRA:          -9.675
REMARK INTER:                  -8.531
REMARK INTRA:                  -1.144
REMARK UNBOUND:                -0.919
REMARK SMILES COc1cc(CNC(=O)CCCCC=CC(C)C)ccc1O
REMARK SMILES IDX 11 1 12 2 13 3 14 4 15 5 16 6 17 7 18 8 10 9 8 10 9 11 7 12
REMARK SMILES IDX 6 14 5 15 4 16 19 17 3 18 20 19 21 20 2 21 1 22 22 23
REMARK H PARENT 7 13 22 24
REMARK Flexibility Score: inf
ROOT
ATOM      1  C   UNL     1       7.218  -7.535  67.498  1.00  0.00     0.010 C 
ENDROOT
BRANCH   1   2
ATOM      2  C   UNL     1       6.244  -7.873  68.641  1.00  0.00     0.005 C 
BRANCH   2   3
ATOM      3  C   UNL     1       5.723  -6.613  69.348  1.00  0.00     0.027 C 
BRANCH   3   4
ATOM      4  C   UNL     1       4.290  -6.320  68.980  1.00  0.00    -0.031 C 
ATOM      5  C   UNL     1       3.855  -5.627  67.905  1.00  0.00    -0.028 C 
BRANCH   5   6
ATOM      6  C   UNL     1       4.675  -5.051  66.762  1.00  0.00     0.005 C 
ATOM      7  C   UNL     1       3.988  -5.149  65.395  1.00  0.00     0.012 C 
ATOM      8  C   UNL     1       5.187  -3.636  67.063  1.00  0.00     0.012 C 
ENDBRANCH   5   6
ENDBRANCH   3   4
ENDBRANCH   2   3
ENDBRANCH   1   2
BRANCH   1   9
ATOM      9  C   UNL     1       8.603  -7.126  68.015  1.00  0.00     0.100 C 
BRANCH   9  10
ATOM     10  C   UNL     1       9.220  -8.199  68.866  1.00  0.00     0.220 C 
ATOM     11  O   UNL     1       9.365  -8.001  70.103  1.00  0.00    -0.275 OA
ATOM     12  N   UNL     1       9.601  -9.452  68.282  1.00  0.00    -0.352 N 
ATOM     13  H   UNL     1       9.435  -9.609  67.262  1.00  0.00     0.163 HD
BRANCH  12  14
ATOM     14  C   UNL     1      10.173 -10.543  69.068  1.00  0.00     0.151 C 
BRANCH  14  15
ATOM     15  C   UNL     1       9.424 -11.822  68.808  1.00  0.00    -0.025 A 
ATOM     16  C   UNL     1      10.092 -13.058  68.828  1.00  0.00     0.056 A 
ATOM     17  C   UNL     1       8.052 -11.784  68.520  1.00  0.00     0.009 A 
ATOM     18  C   UNL     1       9.392 -14.252  68.566  1.00  0.00     0.160 A 
ATOM     19  C   UNL     1       7.355 -12.964  68.257  1.00  0.00     0.050 A 
ATOM     20  C   UNL     1       8.020 -14.197  68.280  1.00  0.00     0.157 A 
BRANCH  18  21
ATOM     21  O   UNL     1      10.023 -15.507  68.580  1.00  0.00    -0.493 OA
ATOM     22  C   UNL     1      10.303 -16.257  69.758  1.00  0.00     0.278 C 
ENDBRANCH  18  21
BRANCH  20  23
ATOM     23  O   UNL     1       7.324 -15.377  68.015  1.00  0.00    -0.504 OA
ATOM     24  H   UNL     1       6.311 -15.405  68.008  1.00  0.00     0.293 HD
ENDBRANCH  20  23
ENDBRANCH  14  15
ENDBRANCH  12  14
ENDBRANCH   9  10
ENDBRANCH   1   9
TORSDOF 10
ENDMDL
MODEL 5
REMARK VINA RESULT:    -5.498      2.911      9.605
REMARK INTER + INTRA:          -9.471
REMARK INTER:                  -9.015
REMARK INTRA:                  -0.455
REMARK UNBOUND:                -0.919
REMARK SMILES COc1cc(CNC(=O)CCCCC=CC(C)C)ccc1O
REMARK SMILES IDX 11 1 12 2 13 3 14 4 15 5 16 6 17 7 18 8 10 9 8 10 9 11 7 12
REMARK SMILES IDX 6 14 5 15 4 16 19 17 3 18 20 19 21 20 2 21 1 22 22 23
REMARK H PARENT 7 13 22 24
REMARK Flexibility Score: inf
ROOT
ATOM      1  C   UNL     1       6.416  -7.845  68.711  1.00  0.00     0.010 C 
ENDROOT
BRANCH   1   2
ATOM      2  C   UNL     1       7.409  -6.685  68.520  1.00  0.00     0.005 C 
BRANCH   2   3
ATOM      3  C   UNL     1       6.739  -5.443  67.914  1.00  0.00     0.027 C 
BRANCH   3   4
ATOM      4  C   UNL     1       5.796  -5.809  66.796  1.00  0.00    -0.031 C 
ATOM      5  C   UNL     1       4.463  -5.586  66.753  1.00  0.00    -0.028 C 
BRANCH   5   6
ATOM      6  C   UNL     1       3.601  -4.842  67.761  1.00  0.00     0.005 C 
ATOM      7  C   UNL     1       2.327  -4.237  67.160  1.00  0.00     0.012 C 
ATOM      8  C   UNL     1       3.321  -5.674  69.019  1.00  0.00     0.012 C 
ENDBRANCH   5   6
ENDBRANCH   3   4
ENDBRANCH   2   3
ENDBRANCH   1   2
BRANCH   1   9
ATOM      9  C   UNL     1       6.935  -9.160  68.118  1.00  0.00     0.100 C 
BRANCH   9  10
ATOM     10  C   UNL     1       7.046 -10.237  69.160  1.00  0.00     0.220 C 
ATOM     11  O   UNL     1       6.127 -10.370  70.012  1.00  0.00    -0.275 OA
ATOM     12  N   UNL     1       8.168 -11.131  69.157  1.00  0.00    -0.352 N 
ATOM     13  H   UNL     1       8.898 -11.027  68.417  1.00  0.00     0.163 HD
BRANCH  12  14
ATOM     14  C   UNL     1       8.308 -12.216  70.125  1.00  0.00     0.151 C 
BRANCH  14  15
ATOM     15  C   UNL     1       8.433 -13.537  69.413  1.00  0.00    -0.025 A 
ATOM     16  C   UNL     1       9.249 -14.555  69.935  1.00  0.00     0.056 A 
ATOM     17  C   UNL     1       7.751 -13.749  68.207  1.00  0.00     0.009 A 
ATOM     18  C   UNL     1       9.379 -15.784  69.258  1.00  0.00     0.160 A 
ATOM     19  C   UNL     1       7.878 -14.964  67.531  1.00  0.00     0.050 A 
ATOM     20  C   UNL     1       8.689 -15.981  68.052  1.00  0.00     0.157 A 
BRANCH  18  21
ATOM     21  O   UNL     1      10.182 -16.826  69.748  1.00  0.00    -0.493 OA
ATOM     22  C   UNL     1       9.710 -18.137  70.044  1.00  0.00     0.278 C 
ENDBRANCH  18  21
BRANCH  20  23
ATOM     23  O   UNL     1       8.819 -17.193  67.375  1.00  0.00    -0.504 OA
ATOM     24  H   UNL     1       8.009 -17.744  67.114  1.00  0.00     0.293 HD
ENDBRANCH  20  23
ENDBRANCH  14  15
ENDBRANCH  12  14
ENDBRANCH   9  10
ENDBRANCH   1   9
TORSDOF 10
ENDMDL
MODEL 6
REMARK VINA RESULT:    -5.423      1.764      2.752
REMARK INTER + INTRA:          -9.354
REMARK INTER:                  -8.434
REMARK INTRA:                  -0.920
REMARK UNBOUND:                -0.919
REMARK SMILES COc1cc(CNC(=O)CCCCC=CC(C)C)ccc1O
REMARK SMILES IDX 11 1 12 2 13 3 14 4 15 5 16 6 17 7 18 8 10 9 8 10 9 11 7 12
REMARK SMILES IDX 6 14 5 15 4 16 19 17 3 18 20 19 21 20 2 21 1 22 22 23
REMARK H PARENT 7 13 22 24
REMARK Flexibility Score: inf
ROOT
ATOM      1  C   UNL     1       8.918 -11.206  68.582  1.00  0.00     0.010 C 
ENDROOT
BRANCH   1   2
ATOM      2  C   UNL     1       9.196 -11.740  69.998  1.00  0.00     0.005 C 
BRANCH   2   3
ATOM      3  C   UNL     1       9.194 -13.274  70.048  1.00  0.00     0.027 C 
BRANCH   3   4
ATOM      4  C   UNL     1      10.290 -13.861  69.194  1.00  0.00    -0.031 C 
ATOM      5  C   UNL     1      10.194 -14.933  68.377  1.00  0.00    -0.028 C 
BRANCH   5   6
ATOM      6  C   UNL     1       8.960 -15.756  68.044  1.00  0.00     0.005 C 
ATOM      7  C   UNL     1       7.951 -15.026  67.149  1.00  0.00     0.012 C 
ATOM      8  C   UNL     1       9.311 -17.153  67.518  1.00  0.00     0.012 C 
ENDBRANCH   5   6
ENDBRANCH   3   4
ENDBRANCH   2   3
ENDBRANCH   1   2
BRANCH   1   9
ATOM      9  C   UNL     1       7.423 -11.213  68.239  1.00  0.00     0.100 C 
BRANCH   9  10
ATOM     10  C   UNL     1       6.666 -10.182  69.027  1.00  0.00     0.220 C 
ATOM     11  O   UNL     1       5.873 -10.554  69.933  1.00  0.00    -0.275 OA
ATOM     12  N   UNL     1       6.878  -8.785  68.777  1.00  0.00    -0.352 N 
ATOM     13  H   UNL     1       7.569  -8.498  68.049  1.00  0.00     0.163 HD
BRANCH  12  14
ATOM     14  C   UNL     1       6.196  -7.740  69.537  1.00  0.00     0.151 C 
BRANCH  14  15
ATOM     15  C   UNL     1       5.486  -6.795  68.605  1.00  0.00    -0.025 A 
ATOM     16  C   UNL     1       4.328  -6.117  69.019  1.00  0.00     0.056 A 
ATOM     17  C   UNL     1       5.968  -6.604  67.302  1.00  0.00     0.009 A 
ATOM     18  C   UNL     1       3.655  -5.247  68.139  1.00  0.00     0.160 A 
ATOM     19  C   UNL     1       5.304  -5.745  66.424  1.00  0.00     0.050 A 
ATOM     20  C   UNL     1       4.150  -5.067  66.839  1.00  0.00     0.157 A 
BRANCH  18  21
ATOM     21  O   UNL     1       2.496  -4.550  68.517  1.00  0.00    -0.493 OA
ATOM     22  C   UNL     1       2.492  -3.258  69.117  1.00  0.00     0.278 C 
ENDBRANCH  18  21
BRANCH  20  23
ATOM     23  O   UNL     1       3.484  -4.211  65.961  1.00  0.00    -0.504 OA
ATOM     24  H   UNL     1       3.005  -3.381  66.291  1.00  0.00     0.293 HD
ENDBRANCH  20  23
ENDBRANCH  14  15
ENDBRANCH  12  14
ENDBRANCH   9  10
ENDBRANCH   1   9
TORSDOF 10
ENDMDL
MODEL 7
REMARK VINA RESULT:    -5.362      2.438      8.691
REMARK INTER + INTRA:          -9.259
REMARK INTER:                  -8.185
REMARK INTRA:                  -1.074
REMARK UNBOUND:                -0.919
REMARK SMILES COc1cc(CNC(=O)CCCCC=CC(C)C)ccc1O
REMARK SMILES IDX 11 1 12 2 13 3 14 4 15 5 16 6 17 7 18 8 10 9 8 10 9 11 7 12
REMARK SMILES IDX 6 14 5 15 4 16 19 17 3 18 20 19 21 20 2 21 1 22 22 23
REMARK H PARENT 7 13 22 24
REMARK Flexibility Score: inf
ROOT
ATOM      1  C   UNL     1       6.781  -8.661  67.945  1.00  0.00     0.010 C 
ENDROOT
BRANCH   1   2
ATOM      2  C   UNL     1       6.210  -8.359  69.342  1.00  0.00     0.005 C 
BRANCH   2   3
ATOM      3  C   UNL     1       6.035  -6.852  69.582  1.00  0.00     0.027 C 
BRANCH   3   4
ATOM      4  C   UNL     1       4.622  -6.404  69.306  1.00  0.00    -0.031 C 
ATOM      5  C   UNL     1       4.186  -5.711  68.231  1.00  0.00    -0.028 C 
BRANCH   5   6
ATOM      6  C   UNL     1       4.974  -5.289  67.001  1.00  0.00     0.005 C 
ATOM      7  C   UNL     1       4.130  -5.198  65.725  1.00  0.00     0.012 C 
ATOM      8  C   UNL     1       5.809  -4.025  67.246  1.00  0.00     0.012 C 
ENDBRANCH   5   6
ENDBRANCH   3   4
ENDBRANCH   2   3
ENDBRANCH   1   2
BRANCH   1   9
ATOM      9  C   UNL     1       8.069  -7.878  67.661  1.00  0.00     0.100 C 
BRANCH   9  10
ATOM     10  C   UNL     1       9.186  -8.292  68.576  1.00  0.00     0.220 C 
ATOM     11  O   UNL     1       9.683  -7.446  69.369  1.00  0.00    -0.275 OA
ATOM     12  N   UNL     1       9.653  -9.648  68.576  1.00  0.00    -0.352 N 
ATOM     13  H   UNL     1       9.201 -10.341  67.940  1.00  0.00     0.163 HD
BRANCH  12  14
ATOM     14  C   UNL     1      10.712 -10.113  69.470  1.00  0.00     0.151 C 
BRANCH  14  15
ATOM     15  C   UNL     1      10.738 -11.618  69.510  1.00  0.00    -0.025 A 
ATOM     16  C   UNL     1       9.609 -12.362  69.134  1.00  0.00     0.056 A 
ATOM     17  C   UNL     1      11.891 -12.285  69.948  1.00  0.00     0.009 A 
ATOM     18  C   UNL     1       9.630 -13.770  69.190  1.00  0.00     0.160 A 
ATOM     19  C   UNL     1      11.917 -13.679  70.007  1.00  0.00     0.050 A 
ATOM     20  C   UNL     1      10.791 -14.423  69.630  1.00  0.00     0.157 A 
BRANCH  18  21
ATOM     21  O   UNL     1       8.523 -14.550  68.821  1.00  0.00    -0.493 OA
ATOM     22  C   UNL     1       8.249 -14.985  67.492  1.00  0.00     0.278 C 
ENDBRANCH  18  21
BRANCH  20  23
ATOM     23  O   UNL     1      10.816 -15.816  69.692  1.00  0.00    -0.504 OA
ATOM     24  H   UNL     1      10.545 -16.315  70.532  1.00  0.00     0.293 HD
ENDBRANCH  20  23
ENDBRANCH  14  15
ENDBRANCH  12  14
ENDBRANCH   9  10
ENDBRANCH   1   9
TORSDOF 10
ENDMDL
MODEL 8
REMARK VINA RESULT:    -5.283      2.415      9.384
REMARK INTER + INTRA:          -9.137
REMARK INTER:                  -8.286
REMARK INTRA:                  -0.851
REMARK UNBOUND:                -0.919
REMARK SMILES COc1cc(CNC(=O)CCCCC=CC(C)C)ccc1O
REMARK SMILES IDX 11 1 12 2 13 3 14 4 15 5 16 6 17 7 18 8 10 9 8 10 9 11 7 12
REMARK SMILES IDX 6 14 5 15 4 16 19 17 3 18 20 19 21 20 2 21 1 22 22 23
REMARK H PARENT 7 13 22 24
REMARK Flexibility Score: inf
ROOT
ATOM      1  C   UNL     1       5.303  -6.348  68.262  1.00  0.00     0.010 C 
ENDROOT
BRANCH   1   2
ATOM      2  C   UNL     1       3.877  -6.007  68.728  1.00  0.00     0.005 C 
BRANCH   2   3
ATOM      3  C   UNL     1       3.595  -4.499  68.673  1.00  0.00     0.027 C 
BRANCH   3   4
ATOM      4  C   UNL     1       2.490  -4.174  67.701  1.00  0.00    -0.031 C 
ATOM      5  C   UNL     1       2.614  -3.969  66.370  1.00  0.00    -0.028 C 
BRANCH   5   6
ATOM      6  C   UNL     1       3.862  -4.101  65.512  1.00  0.00     0.005 C 
ATOM      7  C   UNL     1       4.017  -5.475  64.850  1.00  0.00     0.012 C 
ATOM      8  C   UNL     1       4.009  -2.946  64.512  1.00  0.00     0.012 C 
ENDBRANCH   5   6
ENDBRANCH   3   4
ENDBRANCH   2   3
ENDBRANCH   1   2
BRANCH   1   9
ATOM      9  C   UNL     1       5.977  -7.391  69.163  1.00  0.00     0.100 C 
BRANCH   9  10
ATOM     10  C   UNL     1       7.049  -8.149  68.433  1.00  0.00     0.220 C 
ATOM     11  O   UNL     1       7.272  -7.892  67.219  1.00  0.00    -0.275 OA
ATOM     12  N   UNL     1       7.838  -9.127  69.125  1.00  0.00    -0.352 N 
ATOM     13  H   UNL     1       7.663  -9.296  70.140  1.00  0.00     0.163 HD
BRANCH  12  14
ATOM     14  C   UNL     1       8.916  -9.867  68.474  1.00  0.00     0.151 C 
BRANCH  14  15
ATOM     15  C   UNL     1       8.765 -11.343  68.729  1.00  0.00    -0.025 A 
ATOM     16  C   UNL     1       9.892 -12.147  68.966  1.00  0.00     0.056 A 
ATOM     17  C   UNL     1       7.491 -11.929  68.708  1.00  0.00     0.009 A 
ATOM     18  C   UNL     1       9.749 -13.531  69.186  1.00  0.00     0.160 A 
ATOM     19  C   UNL     1       7.344 -13.301  68.923  1.00  0.00     0.050 A 
ATOM     20  C   UNL     1       8.468 -14.102  69.162  1.00  0.00     0.157 A 
BRANCH  18  21
ATOM     21  O   UNL     1      10.850 -14.368  69.429  1.00  0.00    -0.493 OA
ATOM     22  C   UNL     1      12.196 -13.916  69.547  1.00  0.00     0.278 C 
ENDBRANCH  18  21
BRANCH  20  23
ATOM     23  O   UNL     1       8.321 -15.473  69.375  1.00  0.00    -0.504 OA
ATOM     24  H   UNL     1       9.124 -16.084  69.474  1.00  0.00     0.293 HD
ENDBRANCH  20  23
ENDBRANCH  14  15
ENDBRANCH  12  14
ENDBRANCH   9  10
ENDBRANCH   1   9
TORSDOF 10
ENDMDL
MODEL 9
REMARK VINA RESULT:    -5.164      2.552      9.409
REMARK INTER + INTRA:          -8.952
REMARK INTER:                  -8.136
REMARK INTRA:                  -0.816
REMARK UNBOUND:                -0.919
REMARK SMILES COc1cc(CNC(=O)CCCCC=CC(C)C)ccc1O
REMARK SMILES IDX 11 1 12 2 13 3 14 4 15 5 16 6 17 7 18 8 10 9 8 10 9 11 7 12
REMARK SMILES IDX 6 14 5 15 4 16 19 17 3 18 20 19 21 20 2 21 1 22 22 23
REMARK H PARENT 7 13 22 24
REMARK Flexibility Score: inf
ROOT
ATOM      1  C   UNL     1       6.871  -7.242  67.268  1.00  0.00     0.010 C 
ENDROOT
BRANCH   1   2
ATOM      2  C   UNL     1       7.261  -5.793  67.612  1.00  0.00     0.005 C 
BRANCH   2   3
ATOM      3  C   UNL     1       6.136  -5.050  68.346  1.00  0.00     0.027 C 
BRANCH   3   4
ATOM      4  C   UNL     1       4.886  -5.888  68.443  1.00  0.00    -0.031 C 
ATOM      5  C   UNL     1       3.680  -5.612  67.896  1.00  0.00    -0.028 C 
BRANCH   5   6
ATOM      6  C   UNL     1       3.304  -4.456  66.985  1.00  0.00     0.005 C 
ATOM      7  C   UNL     1       3.726  -4.654  65.524  1.00  0.00     0.012 C 
ATOM      8  C   UNL     1       1.828  -4.058  67.122  1.00  0.00     0.012 C 
ENDBRANCH   5   6
ENDBRANCH   3   4
ENDBRANCH   2   3
ENDBRANCH   1   2
BRANCH   1   9
ATOM      9  C   UNL     1       7.825  -8.266  67.895  1.00  0.00     0.100 C 
BRANCH   9  10
ATOM     10  C   UNL     1       7.080  -9.361  68.604  1.00  0.00     0.220 C 
ATOM     11  O   UNL     1       5.903  -9.150  69.004  1.00  0.00    -0.275 OA
ATOM     12  N   UNL     1       7.689 -10.647  68.786  1.00  0.00    -0.352 N 
ATOM     13  H   UNL     1       8.650 -10.812  68.412  1.00  0.00     0.163 HD
BRANCH  12  14
ATOM     14  C   UNL     1       6.997 -11.757  69.438  1.00  0.00     0.151 C 
BRANCH  14  15
ATOM     15  C   UNL     1       7.833 -13.007  69.366  1.00  0.00    -0.025 A 
ATOM     16  C   UNL     1       9.177 -12.992  69.772  1.00  0.00     0.056 A 
ATOM     17  C   UNL     1       7.274 -14.193  68.868  1.00  0.00     0.009 A 
ATOM     18  C   UNL     1       9.962 -14.159  69.686  1.00  0.00     0.160 A 
ATOM     19  C   UNL     1       8.048 -15.352  68.780  1.00  0.00     0.050 A 
ATOM     20  C   UNL     1       9.389 -15.338  69.187  1.00  0.00     0.157 A 
BRANCH  18  21
ATOM     21  O   UNL     1      11.308 -14.186  70.084  1.00  0.00    -0.493 OA
ATOM     22  C   UNL     1      12.247 -13.147  69.823  1.00  0.00     0.278 C 
ENDBRANCH  18  21
BRANCH  20  23
ATOM     23  O   UNL     1      10.163 -16.495  69.095  1.00  0.00    -0.504 OA
ATOM     24  H   UNL     1      10.863 -16.610  68.371  1.00  0.00     0.293 HD
ENDBRANCH  20  23
ENDBRANCH  14  15
ENDBRANCH  12  14
ENDBRANCH   9  10
ENDBRANCH   1   9
TORSDOF 10
ENDMDL
