MODEL 1
REMARK VINA RESULT:    -4.480      0.000      0.000
REMARK INTER + INTRA:          -7.916
REMARK INTER:                  -6.314
REMARK INTRA:                  -1.602
REMARK UNBOUND:                -1.602
REMARK SMILES COc1c(O[C@H]2O[C@@H](C(=O)[O-])[C@H](O)[C@@H](O)[C@@H]2O)cc(O)c2c(=O)cc(-c3ccccc3)oc12
REMARK SMILES IDX 5 1 6 2 8 3 12 4 7 5 14 6 16 7 9 8 10 9 11 10 13 11 15 13
REMARK SMILES IDX 17 15 4 17 3 18 18 19 33 20 19 21 21 22 32 23 22 24 25 25
REMARK SMILES IDX 24 26 23 27 2 28 1 29 20 30 26 32 27 33 31 34 28 35 30 36
REMARK SMILES IDX 29 37
REMARK H PARENT 13 12 15 14 17 16 20 31
REMARK Flexibility Score: inf
ROOT
ATOM      1  O   UNL     1      23.719  16.898  73.750  1.00  0.00    -0.458 OA
ENDROOT
BRANCH   1   2
ATOM      2  C   UNL     1      24.672  17.964  73.712  1.00  0.00     0.339 C 
ATOM      3  C   UNL     1      26.583  16.540  73.784  1.00  0.00     0.199 C 
ATOM      4  C   UNL     1      26.960  16.859  72.312  1.00  0.00     0.180 C 
ATOM      5  O   UNL     1      25.858  17.597  74.404  1.00  0.00    -0.328 OA
ATOM      6  C   UNL     1      25.734  17.316  71.504  1.00  0.00     0.181 C 
ATOM      7  C   UNL     1      24.963  18.408  72.261  1.00  0.00     0.214 C 
BRANCH   3   8
ATOM      8  C   UNL     1      25.920  15.196  73.988  1.00  0.00     0.073 C 
ATOM      9  O   UNL     1      25.902  14.336  73.069  1.00  0.00    -0.547 OA
ATOM     10  O   UNL     1      25.424  14.855  75.241  1.00  0.00    -0.547 OA
ENDBRANCH   3   8
BRANCH   4  11
ATOM     11  O   UNL     1      27.932  17.874  72.278  1.00  0.00    -0.387 OA
ATOM     12  H   UNL     1      27.449  18.737  72.205  1.00  0.00     0.211 HD
ENDBRANCH   4  11
BRANCH   6  13
ATOM     13  O   UNL     1      24.898  16.214  71.251  1.00  0.00    -0.387 OA
ATOM     14  H   UNL     1      24.533  16.335  70.336  1.00  0.00     0.211 HD
ENDBRANCH   6  13
BRANCH   7  15
ATOM     15  O   UNL     1      25.715  19.594  72.265  1.00  0.00    -0.384 OA
ATOM     16  H   UNL     1      26.438  19.483  71.593  1.00  0.00     0.211 HD
ENDBRANCH   7  15
ENDBRANCH   1   2
BRANCH   1  17
ATOM     17  C   UNL     1      22.364  16.973  73.382  1.00  0.00     0.172 A 
ATOM     18  C   UNL     1      21.783  15.842  72.797  1.00  0.00     0.205 A 
ATOM     19  C   UNL     1      21.586  18.127  73.578  1.00  0.00     0.097 A 
ATOM     20  C   UNL     1      20.420  15.840  72.449  1.00  0.00     0.188 A 
ATOM     21  C   UNL     1      20.231  18.148  73.217  1.00  0.00     0.134 A 
ATOM     22  C   UNL     1      19.632  16.997  72.660  1.00  0.00     0.111 A 
ATOM     23  O   UNL     1      19.874  14.740  71.936  1.00  0.00    -0.452 OA
ATOM     24  C   UNL     1      18.272  16.938  72.298  1.00  0.00     0.197 A 
ATOM     25  C   UNL     1      18.588  14.647  71.600  1.00  0.00     0.138 A 
ATOM     26  C   UNL     1      17.751  15.760  71.766  1.00  0.00     0.100 A 
ATOM     27  O   UNL     1      17.508  17.931  72.446  1.00  0.00    -0.289 OA
BRANCH  18  28
ATOM     28  O   UNL     1      22.577  14.711  72.592  1.00  0.00    -0.490 OA
ATOM     29  C   UNL     1      22.539  13.596  73.475  1.00  0.00     0.278 C 
ENDBRANCH  18  28
BRANCH  21  30
ATOM     30  O   UNL     1      19.489  19.315  73.418  1.00  0.00    -0.507 OA
ATOM     31  H   UNL     1      18.602  19.470  72.955  1.00  0.00     0.293 HD
ENDBRANCH  21  30
BRANCH  25  32
ATOM     32  C   UNL     1      18.082  13.364  71.047  1.00  0.00     0.017 A 
ATOM     33  C   UNL     1      18.218  12.149  71.750  1.00  0.00     0.012 A 
ATOM     34  C   UNL     1      17.472  13.347  69.780  1.00  0.00     0.012 A 
ATOM     35  C   UNL     1      17.742  10.956  71.199  1.00  0.00     0.001 A 
ATOM     36  C   UNL     1      16.983  12.153  69.242  1.00  0.00     0.001 A 
ATOM     37  C   UNL     1      17.119  10.957  69.952  1.00  0.00     0.000 A 
ENDBRANCH  25  32
ENDBRANCH   1  17
TORSDOF 9
ENDMDL
MODEL 2
REMARK VINA RESULT:    -4.465     12.168     14.443
REMARK INTER + INTRA:          -7.894
REMARK INTER:                  -6.256
REMARK INTRA:                  -1.638
REMARK UNBOUND:                -1.602
REMARK SMILES COc1c(O[C@H]2O[C@@H](C(=O)[O-])[C@H](O)[C@@H](O)[C@@H]2O)cc(O)c2c(=O)cc(-c3ccccc3)oc12
REMARK SMILES IDX 5 1 6 2 8 3 12 4 7 5 14 6 16 7 9 8 10 9 11 10 13 11 15 13
REMARK SMILES IDX 17 15 4 17 3 18 18 19 33 20 19 21 21 22 32 23 22 24 25 25
REMARK SMILES IDX 24 26 23 27 2 28 1 29 20 30 26 32 27 33 31 34 28 35 30 36
REMARK SMILES IDX 29 37
REMARK H PARENT 13 12 15 14 17 16 20 31
REMARK Flexibility Score: inf
ROOT
ATOM      1  O   UNL     1      20.911  18.336  84.389  1.00  0.00    -0.458 OA
ENDROOT
BRANCH   1   2
ATOM      2  C   UNL     1      20.777  19.723  84.709  1.00  0.00     0.339 C 
ATOM      3  C   UNL     1      19.090  20.154  83.080  1.00  0.00     0.199 C 
ATOM      4  C   UNL     1      17.995  20.341  84.165  1.00  0.00     0.180 C 
ATOM      5  O   UNL     1      20.394  20.467  83.558  1.00  0.00    -0.328 OA
ATOM      6  C   UNL     1      18.361  19.608  85.465  1.00  0.00     0.181 C 
ATOM      7  C   UNL     1      19.801  19.939  85.887  1.00  0.00     0.214 C 
BRANCH   3   8
ATOM      8  C   UNL     1      19.047  18.821  82.366  1.00  0.00     0.073 C 
ATOM      9  O   UNL     1      18.066  18.046  82.499  1.00  0.00    -0.547 OA
ATOM     10  O   UNL     1      20.048  18.493  81.459  1.00  0.00    -0.547 OA
ENDBRANCH   3   8
BRANCH   4  11
ATOM     11  O   UNL     1      17.831  21.710  84.444  1.00  0.00    -0.387 OA
ATOM     12  H   UNL     1      17.844  22.187  83.575  1.00  0.00     0.211 HD
ENDBRANCH   4  11
BRANCH   6  13
ATOM     13  O   UNL     1      18.212  18.222  85.284  1.00  0.00    -0.387 OA
ATOM     14  H   UNL     1      18.425  17.794  86.153  1.00  0.00     0.211 HD
ENDBRANCH   6  13
BRANCH   7  15
ATOM     15  O   UNL     1      19.866  21.271  86.326  1.00  0.00    -0.384 OA
ATOM     16  H   UNL     1      18.937  21.556  86.530  1.00  0.00     0.211 HD
ENDBRANCH   7  15
ENDBRANCH   1   2
BRANCH   1  17
ATOM     17  C   UNL     1      21.685  17.388  85.082  1.00  0.00     0.172 A 
ATOM     18  C   UNL     1      21.102  16.145  85.354  1.00  0.00     0.205 A 
ATOM     19  C   UNL     1      23.001  17.642  85.503  1.00  0.00     0.097 A 
ATOM     20  C   UNL     1      21.841  15.139  86.004  1.00  0.00     0.188 A 
ATOM     21  C   UNL     1      23.742  16.657  86.171  1.00  0.00     0.134 A 
ATOM     22  C   UNL     1      23.172  15.390  86.416  1.00  0.00     0.111 A 
ATOM     23  O   UNL     1      21.285  13.948  86.213  1.00  0.00    -0.452 OA
ATOM     24  C   UNL     1      23.866  14.345  87.057  1.00  0.00     0.197 A 
ATOM     25  C   UNL     1      21.921  12.936  86.801  1.00  0.00     0.138 A 
ATOM     26  C   UNL     1      23.237  13.116  87.251  1.00  0.00     0.100 A 
ATOM     27  O   UNL     1      25.051  14.495  87.462  1.00  0.00    -0.289 OA
BRANCH  18  28
ATOM     28  O   UNL     1      19.786  15.918  84.944  1.00  0.00    -0.490 OA
ATOM     29  C   UNL     1      19.483  15.191  83.759  1.00  0.00     0.278 C 
ENDBRANCH  18  28
BRANCH  21  30
ATOM     30  O   UNL     1      25.045  16.948  86.584  1.00  0.00    -0.507 OA
ATOM     31  H   UNL     1      25.262  17.776  87.125  1.00  0.00     0.293 HD
ENDBRANCH  21  30
BRANCH  25  32
ATOM     32  C   UNL     1      21.208  11.643  86.973  1.00  0.00     0.017 A 
ATOM     33  C   UNL     1      20.223  11.465  87.966  1.00  0.00     0.012 A 
ATOM     34  C   UNL     1      21.535  10.555  86.144  1.00  0.00     0.012 A 
ATOM     35  C   UNL     1      19.578  10.233  88.111  1.00  0.00     0.001 A 
ATOM     36  C   UNL     1      20.874   9.331  86.283  1.00  0.00     0.001 A 
ATOM     37  C   UNL     1      19.896   9.170  87.267  1.00  0.00     0.000 A 
ENDBRANCH  25  32
ENDBRANCH   1  17
TORSDOF 9
ENDMDL
MODEL 3
REMARK VINA RESULT:    -4.390     12.666     14.789
REMARK INTER + INTRA:          -7.788
REMARK INTER:                  -6.217
REMARK INTRA:                  -1.571
REMARK UNBOUND:                -1.602
REMARK SMILES COc1c(O[C@H]2O[C@@H](C(=O)[O-])[C@H](O)[C@@H](O)[C@@H]2O)cc(O)c2c(=O)cc(-c3ccccc3)oc12
REMARK SMILES IDX 5 1 6 2 8 3 12 4 7 5 14 6 16 7 9 8 10 9 11 10 13 11 15 13
REMARK SMILES IDX 17 15 4 17 3 18 18 19 33 20 19 21 21 22 32 23 22 24 25 25
REMARK SMILES IDX 24 26 23 27 2 28 1 29 20 30 26 32 27 33 31 34 28 35 30 36
REMARK SMILES IDX 29 37
REMARK H PARENT 13 12 15 14 17 16 20 31
REMARK Flexibility Score: inf
ROOT
ATOM      1  O   UNL     1      23.812  18.969  85.142  1.00  0.00    -0.458 OA
ENDROOT
BRANCH   1   2
ATOM      2  C   UNL     1      24.601  20.140  85.372  1.00  0.00     0.339 C 
ATOM      3  C   UNL     1      22.840  21.676  84.899  1.00  0.00     0.199 C 
ATOM      4  C   UNL     1      22.725  22.106  86.386  1.00  0.00     0.180 C 
ATOM      5  O   UNL     1      24.144  21.216  84.562  1.00  0.00    -0.328 OA
ATOM      6  C   UNL     1      23.249  21.012  87.330  1.00  0.00     0.181 C 
ATOM      7  C   UNL     1      24.629  20.516  86.870  1.00  0.00     0.214 C 
BRANCH   3   8
ATOM      8  C   UNL     1      21.760  20.725  84.432  1.00  0.00     0.073 C 
ATOM      9  O   UNL     1      20.760  20.475  85.155  1.00  0.00    -0.547 OA
ATOM     10  O   UNL     1      21.808  20.206  83.144  1.00  0.00    -0.547 OA
ENDBRANCH   3   8
BRANCH   4  11
ATOM     11  O   UNL     1      23.462  23.284  86.599  1.00  0.00    -0.387 OA
ATOM     12  H   UNL     1      22.905  24.038  86.274  1.00  0.00     0.211 HD
ENDBRANCH   4  11
BRANCH   6  13
ATOM     13  O   UNL     1      22.335  19.945  87.371  1.00  0.00    -0.387 OA
ATOM     14  H   UNL     1      22.434  19.516  88.260  1.00  0.00     0.211 HD
ENDBRANCH   6  13
BRANCH   7  15
ATOM     15  O   UNL     1      25.586  21.519  87.094  1.00  0.00    -0.384 OA
ATOM     16  H   UNL     1      25.117  22.275  87.534  1.00  0.00     0.211 HD
ENDBRANCH   7  15
ENDBRANCH   1   2
BRANCH   1  17
ATOM     17  C   UNL     1      24.088  17.670  85.606  1.00  0.00     0.172 A 
ATOM     18  C   UNL     1      23.002  16.830  85.874  1.00  0.00     0.205 A 
ATOM     19  C   UNL     1      25.396  17.196  85.806  1.00  0.00     0.097 A 
ATOM     20  C   UNL     1      23.213  15.505  86.297  1.00  0.00     0.188 A 
ATOM     21  C   UNL     1      25.622  15.885  86.248  1.00  0.00     0.134 A 
ATOM     22  C   UNL     1      24.531  15.021  86.485  1.00  0.00     0.111 A 
ATOM     23  O   UNL     1      22.168  14.706  86.502  1.00  0.00    -0.452 OA
ATOM     24  C   UNL     1      24.684  13.686  86.904  1.00  0.00     0.197 A 
ATOM     25  C   UNL     1      22.282  13.434  86.883  1.00  0.00     0.138 A 
ATOM     26  C   UNL     1      23.556  12.891  87.104  1.00  0.00     0.100 A 
ATOM     27  O   UNL     1      25.825  13.186  87.102  1.00  0.00    -0.289 OA
BRANCH  18  28
ATOM     28  O   UNL     1      21.709  17.325  85.687  1.00  0.00    -0.490 OA
ATOM     29  C   UNL     1      20.952  17.031  84.519  1.00  0.00     0.278 C 
ENDBRANCH  18  28
BRANCH  21  30
ATOM     30  O   UNL     1      26.935  15.449  86.445  1.00  0.00    -0.507 OA
ATOM     31  H   UNL     1      27.157  14.472  86.592  1.00  0.00     0.293 HD
ENDBRANCH  21  30
BRANCH  25  32
ATOM     32  C   UNL     1      21.047  12.629  87.071  1.00  0.00     0.017 A 
ATOM     33  C   UNL     1      20.997  11.548  87.977  1.00  0.00     0.012 A 
ATOM     34  C   UNL     1      19.901  12.928  86.313  1.00  0.00     0.012 A 
ATOM     35  C   UNL     1      19.824  10.802  88.123  1.00  0.00     0.001 A 
ATOM     36  C   UNL     1      18.726  12.188  86.476  1.00  0.00     0.001 A 
ATOM     37  C   UNL     1      18.688  11.124  87.381  1.00  0.00     0.000 A 
ENDBRANCH  25  32
ENDBRANCH   1  17
TORSDOF 9
ENDMDL
MODEL 4
REMARK VINA RESULT:    -4.351      1.657      2.469
REMARK INTER + INTRA:          -7.733
REMARK INTER:                  -6.114
REMARK INTRA:                  -1.619
REMARK UNBOUND:                -1.602
REMARK SMILES COc1c(O[C@H]2O[C@@H](C(=O)[O-])[C@H](O)[C@@H](O)[C@@H]2O)cc(O)c2c(=O)cc(-c3ccccc3)oc12
REMARK SMILES IDX 5 1 6 2 8 3 12 4 7 5 14 6 16 7 9 8 10 9 11 10 13 11 15 13
REMARK SMILES IDX 17 15 4 17 3 18 18 19 33 20 19 21 21 22 32 23 22 24 25 25
REMARK SMILES IDX 24 26 23 27 2 28 1 29 20 30 26 32 27 33 31 34 28 35 30 36
REMARK SMILES IDX 29 37
REMARK H PARENT 13 12 15 14 17 16 20 31
REMARK Flexibility Score: inf
ROOT
ATOM      1  O   UNL     1      26.062  16.583  73.287  1.00  0.00    -0.458 OA
ENDROOT
BRANCH   1   2
ATOM      2  C   UNL     1      27.075  17.482  72.829  1.00  0.00     0.339 C 
ATOM      3  C   UNL     1      28.809  15.846  72.792  1.00  0.00     0.199 C 
ATOM      4  C   UNL     1      28.859  15.836  71.241  1.00  0.00     0.180 C 
ATOM      5  O   UNL     1      28.351  17.087  73.317  1.00  0.00    -0.328 OA
ATOM      6  C   UNL     1      27.528  16.303  70.632  1.00  0.00     0.181 C 
ATOM      7  C   UNL     1      27.061  17.611  71.289  1.00  0.00     0.214 C 
BRANCH   3   8
ATOM      8  C   UNL     1      28.089  14.665  73.406  1.00  0.00     0.073 C 
ATOM      9  O   UNL     1      27.778  13.663  72.712  1.00  0.00    -0.547 OA
ATOM     10  O   UNL     1      27.867  14.630  74.778  1.00  0.00    -0.547 OA
ENDBRANCH   3   8
BRANCH   4  11
ATOM     11  O   UNL     1      29.888  16.684  70.793  1.00  0.00    -0.387 OA
ATOM     12  H   UNL     1      29.773  16.788  69.813  1.00  0.00     0.211 HD
ENDBRANCH   4  11
BRANCH   6  13
ATOM     13  O   UNL     1      26.556  15.301  70.795  1.00  0.00    -0.387 OA
ATOM     14  H   UNL     1      26.166  15.422  71.699  1.00  0.00     0.211 HD
ENDBRANCH   6  13
BRANCH   7  15
ATOM     15  O   UNL     1      27.900  18.662  70.889  1.00  0.00    -0.384 OA
ATOM     16  H   UNL     1      27.324  19.460  70.756  1.00  0.00     0.211 HD
ENDBRANCH   7  15
ENDBRANCH   1   2
BRANCH   1  17
ATOM     17  C   UNL     1      24.671  16.775  73.200  1.00  0.00     0.172 A 
ATOM     18  C   UNL     1      23.874  15.655  72.939  1.00  0.00     0.205 A 
ATOM     19  C   UNL     1      24.065  18.032  73.365  1.00  0.00     0.097 A 
ATOM     20  C   UNL     1      22.473  15.774  72.886  1.00  0.00     0.188 A 
ATOM     21  C   UNL     1      22.672  18.171  73.293  1.00  0.00     0.134 A 
ATOM     22  C   UNL     1      21.861  17.038  73.065  1.00  0.00     0.111 A 
ATOM     23  O   UNL     1      21.729  14.690  72.682  1.00  0.00    -0.452 OA
ATOM     24  C   UNL     1      20.455  17.098  73.007  1.00  0.00     0.197 A 
ATOM     25  C   UNL     1      20.397  14.712  72.638  1.00  0.00     0.138 A 
ATOM     26  C   UNL     1      19.723  15.932  72.792  1.00  0.00     0.100 A 
ATOM     27  O   UNL     1      19.838  18.189  73.148  1.00  0.00    -0.289 OA
BRANCH  18  28
ATOM     28  O   UNL     1      24.496  14.417  72.760  1.00  0.00    -0.490 OA
ATOM     29  C   UNL     1      24.546  13.444  73.796  1.00  0.00     0.278 C 
ENDBRANCH  18  28
BRANCH  21  30
ATOM     30  O   UNL     1      22.104  19.437  73.452  1.00  0.00    -0.507 OA
ATOM     31  H   UNL     1      22.558  20.162  73.993  1.00  0.00     0.293 HD
ENDBRANCH  21  30
BRANCH  25  32
ATOM     32  C   UNL     1      19.665  13.438  72.417  1.00  0.00     0.017 A 
ATOM     33  C   UNL     1      18.508  13.377  71.612  1.00  0.00     0.012 A 
ATOM     34  C   UNL     1      20.116  12.261  73.042  1.00  0.00     0.012 A 
ATOM     35  C   UNL     1      17.835  12.166  71.433  1.00  0.00     0.001 A 
ATOM     36  C   UNL     1      19.446  11.050  72.845  1.00  0.00     0.001 A 
ATOM     37  C   UNL     1      18.305  11.002  72.040  1.00  0.00     0.000 A 
ENDBRANCH  25  32
ENDBRANCH   1  17
TORSDOF 9
ENDMDL
MODEL 5
REMARK VINA RESULT:    -4.306     12.338     13.783
REMARK INTER + INTRA:          -7.671
REMARK INTER:                  -6.027
REMARK INTRA:                  -1.643
REMARK UNBOUND:                -1.602
REMARK SMILES COc1c(O[C@H]2O[C@@H](C(=O)[O-])[C@H](O)[C@@H](O)[C@@H]2O)cc(O)c2c(=O)cc(-c3ccccc3)oc12
REMARK SMILES IDX 5 1 6 2 8 3 12 4 7 5 14 6 16 7 9 8 10 9 11 10 13 11 15 13
REMARK SMILES IDX 17 15 4 17 3 18 18 19 33 20 19 21 21 22 32 23 22 24 25 25
REMARK SMILES IDX 24 26 23 27 2 28 1 29 20 30 26 32 27 33 31 34 28 35 30 36
REMARK SMILES IDX 29 37
REMARK H PARENT 13 12 15 14 17 16 20 31
REMARK Flexibility Score: inf
ROOT
ATOM      1  O   UNL     1      22.185  16.900  85.135  1.00  0.00    -0.458 OA
ENDROOT
BRANCH   1   2
ATOM      2  C   UNL     1      22.958  17.870  85.848  1.00  0.00     0.339 C 
ATOM      3  C   UNL     1      22.891  19.508  84.117  1.00  0.00     0.199 C 
ATOM      4  C   UNL     1      21.950  20.433  84.936  1.00  0.00     0.180 C 
ATOM      5  O   UNL     1      23.700  18.680  84.944  1.00  0.00    -0.328 OA
ATOM      6  C   UNL     1      21.146  19.637  85.977  1.00  0.00     0.181 C 
ATOM      7  C   UNL     1      22.072  18.717  86.788  1.00  0.00     0.214 C 
BRANCH   3   8
ATOM      8  C   UNL     1      22.204  18.724  83.020  1.00  0.00     0.073 C 
ATOM      9  O   UNL     1      21.016  18.976  82.689  1.00  0.00    -0.547 OA
ATOM     10  O   UNL     1      22.925  17.790  82.286  1.00  0.00    -0.547 OA
ENDBRANCH   3   8
BRANCH   4  11
ATOM     11  O   UNL     1      22.707  21.415  85.598  1.00  0.00    -0.387 OA
ATOM     12  H   UNL     1      22.818  22.171  84.966  1.00  0.00     0.211 HD
ENDBRANCH   4  11
BRANCH   6  13
ATOM     13  O   UNL     1      20.152  18.882  85.331  1.00  0.00    -0.387 OA
ATOM     14  H   UNL     1      20.128  17.996  85.776  1.00  0.00     0.211 HD
ENDBRANCH   6  13
BRANCH   7  15
ATOM     15  O   UNL     1      22.878  19.493  87.636  1.00  0.00    -0.384 OA
ATOM     16  H   UNL     1      22.701  19.189  88.565  1.00  0.00     0.211 HD
ENDBRANCH   7  15
ENDBRANCH   1   2
BRANCH   1  17
ATOM     17  C   UNL     1      21.755  15.652  85.620  1.00  0.00     0.172 A 
ATOM     18  C   UNL     1      20.430  15.278  85.371  1.00  0.00     0.205 A 
ATOM     19  C   UNL     1      22.598  14.783  86.334  1.00  0.00     0.097 A 
ATOM     20  C   UNL     1      19.954  14.022  85.791  1.00  0.00     0.188 A 
ATOM     21  C   UNL     1      22.131  13.537  86.777  1.00  0.00     0.134 A 
ATOM     22  C   UNL     1      20.806  13.140  86.497  1.00  0.00     0.111 A 
ATOM     23  O   UNL     1      18.704  13.665  85.505  1.00  0.00    -0.452 OA
ATOM     24  C   UNL     1      20.278  11.894  86.889  1.00  0.00     0.197 A 
ATOM     25  C   UNL     1      18.181  12.488  85.847  1.00  0.00     0.138 A 
ATOM     26  C   UNL     1      18.962  11.569  86.563  1.00  0.00     0.100 A 
ATOM     27  O   UNL     1      20.972  11.058  87.530  1.00  0.00    -0.289 OA
BRANCH  18  28
ATOM     28  O   UNL     1      19.603  16.164  84.676  1.00  0.00    -0.490 OA
ATOM     29  C   UNL     1      19.356  16.025  83.282  1.00  0.00     0.278 C 
ENDBRANCH  18  28
BRANCH  21  30
ATOM     30  O   UNL     1      22.993  12.701  87.492  1.00  0.00    -0.507 OA
ATOM     31  H   UNL     1      23.873  12.384  87.104  1.00  0.00     0.293 HD
ENDBRANCH  21  30
BRANCH  25  32
ATOM     32  C   UNL     1      16.777  12.188  85.464  1.00  0.00     0.017 A 
ATOM     33  C   UNL     1      15.685  12.655  86.226  1.00  0.00     0.012 A 
ATOM     34  C   UNL     1      16.521  11.398  84.330  1.00  0.00     0.012 A 
ATOM     35  C   UNL     1      14.376  12.346  85.847  1.00  0.00     0.001 A 
ATOM     36  C   UNL     1      15.207  11.107  83.947  1.00  0.00     0.001 A 
ATOM     37  C   UNL     1      14.135  11.581  84.707  1.00  0.00     0.000 A 
ENDBRANCH  25  32
ENDBRANCH   1  17
TORSDOF 9
ENDMDL
MODEL 6
REMARK VINA RESULT:    -4.195      2.039      8.534
REMARK INTER + INTRA:          -7.514
REMARK INTER:                  -5.873
REMARK INTRA:                  -1.641
REMARK UNBOUND:                -1.602
REMARK SMILES COc1c(O[C@H]2O[C@@H](C(=O)[O-])[C@H](O)[C@@H](O)[C@@H]2O)cc(O)c2c(=O)cc(-c3ccccc3)oc12
REMARK SMILES IDX 5 1 6 2 8 3 12 4 7 5 14 6 16 7 9 8 10 9 11 10 13 11 15 13
REMARK SMILES IDX 17 15 4 17 3 18 18 19 33 20 19 21 21 22 32 23 22 24 25 25
REMARK SMILES IDX 24 26 23 27 2 28 1 29 20 30 26 32 27 33 31 34 28 35 30 36
REMARK SMILES IDX 29 37
REMARK H PARENT 13 12 15 14 17 16 20 31
REMARK Flexibility Score: inf
ROOT
ATOM      1  O   UNL     1      18.704  14.309  72.536  1.00  0.00    -0.458 OA
ENDROOT
BRANCH   1   2
ATOM      2  C   UNL     1      17.778  13.304  72.114  1.00  0.00     0.339 C 
ATOM      3  C   UNL     1      16.018  14.834  71.618  1.00  0.00     0.199 C 
ATOM      4  C   UNL     1      16.154  14.599  70.089  1.00  0.00     0.180 C 
ATOM      5  O   UNL     1      16.442  13.712  72.384  1.00  0.00    -0.328 OA
ATOM      6  C   UNL     1      17.562  14.104  69.720  1.00  0.00     0.181 C 
ATOM      7  C   UNL     1      17.981  12.938  70.627  1.00  0.00     0.214 C 
BRANCH   3   8
ATOM      8  C   UNL     1      16.627  16.127  72.113  1.00  0.00     0.073 C 
ATOM      9  O   UNL     1      17.025  17.007  71.307  1.00  0.00    -0.547 OA
ATOM     10  O   UNL     1      16.644  16.403  73.476  1.00  0.00    -0.547 OA
ENDBRANCH   3   8
BRANCH   4  11
ATOM     11  O   UNL     1      15.211  13.646  69.668  1.00  0.00    -0.387 OA
ATOM     12  H   UNL     1      15.515  13.305  68.788  1.00  0.00     0.211 HD
ENDBRANCH   4  11
BRANCH   6  13
ATOM     13  O   UNL     1      18.480  15.163  69.831  1.00  0.00    -0.387 OA
ATOM     14  H   UNL     1      18.316  15.595  70.709  1.00  0.00     0.211 HD
ENDBRANCH   6  13
BRANCH   7  15
ATOM     15  O   UNL     1      17.225  11.799  70.307  1.00  0.00    -0.384 OA
ATOM     16  H   UNL     1      17.413  11.119  71.005  1.00  0.00     0.211 HD
ENDBRANCH   7  15
ENDBRANCH   1   2
BRANCH   1  17
ATOM     17  C   UNL     1      20.086  14.143  72.732  1.00  0.00     0.172 A 
ATOM     18  C   UNL     1      20.915  15.244  72.490  1.00  0.00     0.205 A 
ATOM     19  C   UNL     1      20.654  12.930  73.156  1.00  0.00     0.097 A 
ATOM     20  C   UNL     1      22.302  15.155  72.712  1.00  0.00     0.188 A 
ATOM     21  C   UNL     1      22.037  12.819  73.361  1.00  0.00     0.134 A 
ATOM     22  C   UNL     1      22.873  13.937  73.153  1.00  0.00     0.111 A 
ATOM     23  O   UNL     1      23.069  16.226  72.520  1.00  0.00    -0.452 OA
ATOM     24  C   UNL     1      24.265  13.906  73.364  1.00  0.00     0.197 A 
ATOM     25  C   UNL     1      24.385  16.233  72.727  1.00  0.00     0.138 A 
ATOM     26  C   UNL     1      25.022  15.057  73.149  1.00  0.00     0.100 A 
ATOM     27  O   UNL     1      24.849  12.855  73.746  1.00  0.00    -0.289 OA
BRANCH  18  28
ATOM     28  O   UNL     1      20.335  16.437  72.051  1.00  0.00    -0.490 OA
ATOM     29  C   UNL     1      20.024  17.496  72.948  1.00  0.00     0.278 C 
ENDBRANCH  18  28
BRANCH  21  30
ATOM     30  O   UNL     1      22.569  11.594  73.773  1.00  0.00    -0.507 OA
ATOM     31  H   UNL     1      22.051  10.729  73.682  1.00  0.00     0.293 HD
ENDBRANCH  21  30
BRANCH  25  32
ATOM     32  C   UNL     1      25.141  17.490  72.493  1.00  0.00     0.017 A 
ATOM     33  C   UNL     1      24.546  18.757  72.667  1.00  0.00     0.012 A 
ATOM     34  C   UNL     1      26.479  17.425  72.064  1.00  0.00     0.012 A 
ATOM     35  C   UNL     1      25.281  19.922  72.428  1.00  0.00     0.001 A 
ATOM     36  C   UNL     1      27.213  18.594  71.843  1.00  0.00     0.001 A 
ATOM     37  C   UNL     1      26.613  19.843  72.025  1.00  0.00     0.000 A 
ENDBRANCH  25  32
ENDBRANCH   1  17
TORSDOF 9
ENDMDL
MODEL 7
REMARK VINA RESULT:    -3.998     12.789     14.925
REMARK INTER + INTRA:          -7.236
REMARK INTER:                  -5.745
REMARK INTRA:                  -1.492
REMARK UNBOUND:                -1.602
REMARK SMILES COc1c(O[C@H]2O[C@@H](C(=O)[O-])[C@H](O)[C@@H](O)[C@@H]2O)cc(O)c2c(=O)cc(-c3ccccc3)oc12
REMARK SMILES IDX 5 1 6 2 8 3 12 4 7 5 14 6 16 7 9 8 10 9 11 10 13 11 15 13
REMARK SMILES IDX 17 15 4 17 3 18 18 19 33 20 19 21 21 22 32 23 22 24 25 25
REMARK SMILES IDX 24 26 23 27 2 28 1 29 20 30 26 32 27 33 31 34 28 35 30 36
REMARK SMILES IDX 29 37
REMARK H PARENT 13 12 15 14 17 16 20 31
REMARK Flexibility Score: inf
ROOT
ATOM      1  O   UNL     1      21.145  12.670  85.549  1.00  0.00    -0.458 OA
ENDROOT
BRANCH   1   2
ATOM      2  C   UNL     1      22.033  11.617  85.934  1.00  0.00     0.339 C 
ATOM      3  C   UNL     1      20.305  10.112  86.591  1.00  0.00     0.199 C 
ATOM      4  C   UNL     1      20.568   9.176  85.381  1.00  0.00     0.180 C 
ATOM      5  O   UNL     1      21.464  10.841  86.981  1.00  0.00    -0.328 OA
ATOM      6  C   UNL     1      21.235   9.931  84.220  1.00  0.00     0.181 C 
ATOM      7  C   UNL     1      22.435  10.747  84.723  1.00  0.00     0.214 C 
BRANCH   3   8
ATOM      8  C   UNL     1      19.091  11.003  86.445  1.00  0.00     0.073 C 
ATOM      9  O   UNL     1      18.325  10.898  85.452  1.00  0.00    -0.547 OA
ATOM     10  O   UNL     1      18.746  11.872  87.474  1.00  0.00    -0.547 OA
ENDBRANCH   3   8
BRANCH   4  11
ATOM     11  O   UNL     1      21.403   8.114  85.773  1.00  0.00    -0.387 OA
ATOM     12  H   UNL     1      21.665   8.284  86.715  1.00  0.00     0.211 HD
ENDBRANCH   4  11
BRANCH   6  13
ATOM     13  O   UNL     1      20.294  10.775  83.604  1.00  0.00    -0.387 OA
ATOM     14  H   UNL     1      20.049  11.467  84.271  1.00  0.00     0.211 HD
ENDBRANCH   6  13
BRANCH   7  15
ATOM     15  O   UNL     1      23.476   9.876  85.083  1.00  0.00    -0.384 OA
ATOM     16  H   UNL     1      24.185   9.968  84.393  1.00  0.00     0.211 HD
ENDBRANCH   7  15
ENDBRANCH   1   2
BRANCH   1  17
ATOM     17  C   UNL     1      21.360  14.049  85.717  1.00  0.00     0.172 A 
ATOM     18  C   UNL     1      20.264  14.904  85.556  1.00  0.00     0.205 A 
ATOM     19  C   UNL     1      22.618  14.590  86.037  1.00  0.00     0.097 A 
ATOM     20  C   UNL     1      20.406  16.290  85.756  1.00  0.00     0.188 A 
ATOM     21  C   UNL     1      22.779  15.970  86.218  1.00  0.00     0.134 A 
ATOM     22  C   UNL     1      21.669  16.833  86.092  1.00  0.00     0.111 A 
ATOM     23  O   UNL     1      19.342  17.082  85.643  1.00  0.00    -0.452 OA
ATOM     24  C   UNL     1      21.751  18.226  86.286  1.00  0.00     0.197 A 
ATOM     25  C   UNL     1      19.385  18.399  85.836  1.00  0.00     0.138 A 
ATOM     26  C   UNL     1      20.606  19.009  86.156  1.00  0.00     0.100 A 
ATOM     27  O   UNL     1      22.844  18.785  86.577  1.00  0.00    -0.289 OA
BRANCH  18  28
ATOM     28  O   UNL     1      19.026  14.350  85.220  1.00  0.00    -0.490 OA
ATOM     29  C   UNL     1      18.612  14.202  83.867  1.00  0.00     0.278 C 
ENDBRANCH  18  28
BRANCH  21  30
ATOM     30  O   UNL     1      24.045  16.474  86.526  1.00  0.00    -0.507 OA
ATOM     31  H   UNL     1      24.429  17.281  86.049  1.00  0.00     0.293 HD
ENDBRANCH  21  30
BRANCH  25  32
ATOM     32  C   UNL     1      18.132  19.186  85.696  1.00  0.00     0.017 A 
ATOM     33  C   UNL     1      18.095  20.573  85.950  1.00  0.00     0.012 A 
ATOM     34  C   UNL     1      16.941  18.535  85.326  1.00  0.00     0.012 A 
ATOM     35  C   UNL     1      16.898  21.284  85.822  1.00  0.00     0.001 A 
ATOM     36  C   UNL     1      15.752  19.256  85.183  1.00  0.00     0.001 A 
ATOM     37  C   UNL     1      15.730  20.630  85.432  1.00  0.00     0.000 A 
ENDBRANCH  25  32
ENDBRANCH   1  17
TORSDOF 9
ENDMDL
MODEL 8
REMARK VINA RESULT:    -2.584     12.853     15.425
REMARK INTER + INTRA:          -5.243
REMARK INTER:                  -3.648
REMARK INTRA:                  -1.595
REMARK UNBOUND:                -1.602
REMARK SMILES COc1c(O[C@H]2O[C@@H](C(=O)[O-])[C@H](O)[C@@H](O)[C@@H]2O)cc(O)c2c(=O)cc(-c3ccccc3)oc12
REMARK SMILES IDX 5 1 6 2 8 3 12 4 7 5 14 6 16 7 9 8 10 9 11 10 13 11 15 13
REMARK SMILES IDX 17 15 4 17 3 18 18 19 33 20 19 21 21 22 32 23 22 24 25 25
REMARK SMILES IDX 24 26 23 27 2 28 1 29 20 30 26 32 27 33 31 34 28 35 30 36
REMARK SMILES IDX 29 37
REMARK H PARENT 13 12 15 14 17 16 20 31
REMARK Flexibility Score: inf
ROOT
ATOM      1  O   UNL     1      20.213  12.937  85.505  1.00  0.00    -0.458 OA
ENDROOT
BRANCH   1   2
ATOM      2  C   UNL     1      19.180  12.119  86.062  1.00  0.00     0.339 C 
ATOM      3  C   UNL     1      20.128  10.056  85.333  1.00  0.00     0.199 C 
ATOM      4  C   UNL     1      20.507   9.642  86.781  1.00  0.00     0.180 C 
ATOM      5  O   UNL     1      19.010  10.937  85.290  1.00  0.00    -0.328 OA
ATOM      6  C   UNL     1      20.658  10.868  87.695  1.00  0.00     0.181 C 
ATOM      7  C   UNL     1      19.450  11.805  87.550  1.00  0.00     0.214 C 
BRANCH   3   8
ATOM      8  C   UNL     1      21.286  10.562  84.500  1.00  0.00     0.073 C 
ATOM      9  O   UNL     1      22.468  10.500  84.927  1.00  0.00    -0.547 OA
ATOM     10  O   UNL     1      21.061  10.998  83.199  1.00  0.00    -0.547 OA
ENDBRANCH   3   8
BRANCH   4  11
ATOM     11  O   UNL     1      19.513   8.799  87.309  1.00  0.00    -0.387 OA
ATOM     12  H   UNL     1      19.956   8.205  87.968  1.00  0.00     0.211 HD
ENDBRANCH   4  11
BRANCH   6  13
ATOM     13  O   UNL     1      21.846  11.550  87.378  1.00  0.00    -0.387 OA
ATOM     14  H   UNL     1      22.496  10.867  87.068  1.00  0.00     0.211 HD
ENDBRANCH   6  13
BRANCH   7  15
ATOM     15  O   UNL     1      18.319  11.203  88.125  1.00  0.00    -0.384 OA
ATOM     16  H   UNL     1      17.719  11.937  88.422  1.00  0.00     0.211 HD
ENDBRANCH   7  15
ENDBRANCH   1   2
BRANCH   1  17
ATOM     17  C   UNL     1      20.204  14.339  85.399  1.00  0.00     0.172 A 
ATOM     18  C   UNL     1      21.365  15.028  85.768  1.00  0.00     0.205 A 
ATOM     19  C   UNL     1      19.088  15.060  84.941  1.00  0.00     0.097 A 
ATOM     20  C   UNL     1      21.433  16.428  85.641  1.00  0.00     0.188 A 
ATOM     21  C   UNL     1      19.133  16.457  84.829  1.00  0.00     0.134 A 
ATOM     22  C   UNL     1      20.314  17.153  85.166  1.00  0.00     0.111 A 
ATOM     23  O   UNL     1      22.562  17.062  85.953  1.00  0.00    -0.452 OA
ATOM     24  C   UNL     1      20.440  18.551  85.054  1.00  0.00     0.197 A 
ATOM     25  C   UNL     1      22.717  18.380  85.842  1.00  0.00     0.138 A 
ATOM     26  C   UNL     1      21.645  19.165  85.394  1.00  0.00     0.100 A 
ATOM     27  O   UNL     1      19.484  19.267  84.648  1.00  0.00    -0.289 OA
BRANCH  18  28
ATOM     28  O   UNL     1      22.458  14.296  86.238  1.00  0.00    -0.490 OA
ATOM     29  C   UNL     1      23.518  13.893  85.379  1.00  0.00     0.278 C 
ENDBRANCH  18  28
BRANCH  21  30
ATOM     30  O   UNL     1      18.002  17.142  84.380  1.00  0.00    -0.507 OA
ATOM     31  H   UNL     1      17.072  16.907  84.703  1.00  0.00     0.293 HD
ENDBRANCH  21  30
BRANCH  25  32
ATOM     32  C   UNL     1      24.026  18.982  86.207  1.00  0.00     0.017 A 
ATOM     33  C   UNL     1      25.219  18.229  86.188  1.00  0.00     0.012 A 
ATOM     34  C   UNL     1      24.083  20.328  86.608  1.00  0.00     0.012 A 
ATOM     35  C   UNL     1      26.433  18.820  86.549  1.00  0.00     0.001 A 
ATOM     36  C   UNL     1      25.303  20.918  86.951  1.00  0.00     0.001 A 
ATOM     37  C   UNL     1      26.478  20.163  86.922  1.00  0.00     0.000 A 
ENDBRANCH  25  32
ENDBRANCH   1  17
TORSDOF 9
ENDMDL
