MODEL 1
REMARK VINA RESULT:    -2.209      0.000      0.000
REMARK INTER + INTRA:          -2.209
REMARK INTER:                  -2.209
REMARK INTRA:                   0.000
REMARK UNBOUND:                 0.000
REMARK SMILES C=C1CCC[C@@]2(C)CC(=O)C(=C(C)C)C[C@@H]12
REMARK SMILES IDX 13 1 12 2 11 3 15 4 16 5 2 6 1 7 3 8 4 9 5 10 6 11 8 12 9 13
REMARK SMILES IDX 10 14 7 15 14 16
REMARK H PARENT
REMARK Flexibility Score: inf
ROOT
ATOM      1  C   UNL     1      -6.122  32.373  28.843  1.00  0.00     0.039 C 
ATOM      2  C   UNL     1      -5.608  31.239  27.986  1.00  0.00    -0.070 C 
ATOM      3  C   UNL     1      -5.095  30.101  28.538  1.00  0.00    -0.006 C 
ATOM      4  C   UNL     1      -4.521  28.989  27.675  1.00  0.00     0.047 C 
ATOM      5  C   UNL     1      -3.357  28.222  28.357  1.00  0.00     0.025 C 
ATOM      6  C   UNL     1      -2.007  28.949  28.365  1.00  0.00    -0.073 C 
ATOM      7  C   UNL     1      -1.813  30.189  27.877  1.00  0.00     0.008 C 
ATOM      8  C   UNL     1      -0.832  28.247  29.006  1.00  0.00     0.031 C 
ATOM      9  C   UNL     1      -1.238  26.899  29.608  1.00  0.00     0.005 C 
ATOM     10  C   UNL     1      -2.476  27.044  30.506  1.00  0.00     0.008 C 
ATOM     11  C   UNL     1      -3.707  27.749  29.813  1.00  0.00    -0.018 C 
ATOM     12  C   UNL     1      -4.114  28.985  30.659  1.00  0.00     0.088 C 
ATOM     13  C   UNL     1      -5.174  29.817  29.996  1.00  0.00     0.159 C 
ATOM     14  O   UNL     1      -6.125  30.256  30.696  1.00  0.00    -0.295 OA
ATOM     15  C   UNL     1      -4.884  26.740  29.780  1.00  0.00     0.012 C 
ATOM     16  C   UNL     1      -5.651  31.436  26.488  1.00  0.00     0.039 C 
ENDROOT
TORSDOF 0
ENDMDL
MODEL 2
REMARK VINA RESULT:    -1.804      1.797      4.522
REMARK INTER + INTRA:          -1.804
REMARK INTER:                  -1.804
REMARK INTRA:                   0.000
REMARK UNBOUND:                 0.000
REMARK SMILES C=C1CCC[C@@]2(C)CC(=O)C(=C(C)C)C[C@@H]12
REMARK SMILES IDX 13 1 12 2 11 3 15 4 16 5 2 6 1 7 3 8 4 9 5 10 6 11 8 12 9 13
REMARK SMILES IDX 10 14 7 15 14 16
REMARK H PARENT
REMARK Flexibility Score: inf
ROOT
ATOM      1  C   UNL     1      -2.751  25.249  27.720  1.00  0.00     0.039 C 
ATOM      2  C   UNL     1      -2.337  26.687  27.927  1.00  0.00    -0.070 C 
ATOM      3  C   UNL     1      -3.056  27.532  28.722  1.00  0.00    -0.006 C 
ATOM      4  C   UNL     1      -2.673  28.995  28.879  1.00  0.00     0.047 C 
ATOM      5  C   UNL     1      -3.893  29.927  29.108  1.00  0.00     0.025 C 
ATOM      6  C   UNL     1      -4.716  30.249  27.855  1.00  0.00    -0.073 C 
ATOM      7  C   UNL     1      -4.469  29.736  26.634  1.00  0.00     0.008 C 
ATOM      8  C   UNL     1      -5.911  31.161  28.012  1.00  0.00     0.031 C 
ATOM      9  C   UNL     1      -6.122  31.570  29.473  1.00  0.00     0.005 C 
ATOM     10  C   UNL     1      -6.116  30.344  30.398  1.00  0.00     0.008 C 
ATOM     11  C   UNL     1      -4.846  29.418  30.246  1.00  0.00    -0.018 C 
ATOM     12  C   UNL     1      -5.317  27.979  29.903  1.00  0.00     0.088 C 
ATOM     13  C   UNL     1      -4.177  27.058  29.578  1.00  0.00     0.159 C 
ATOM     14  O   UNL     1      -4.189  25.890  30.051  1.00  0.00    -0.295 OA
ATOM     15  C   UNL     1      -4.098  29.400  31.604  1.00  0.00     0.012 C 
ATOM     16  C   UNL     1      -1.109  27.163  27.185  1.00  0.00     0.039 C 
ENDROOT
TORSDOF 0
ENDMDL
MODEL 3
REMARK VINA RESULT:    -1.538      1.780      3.339
REMARK INTER + INTRA:          -1.538
REMARK INTER:                  -1.538
REMARK INTRA:                   0.000
REMARK UNBOUND:                 0.000
REMARK SMILES C=C1CCC[C@@]2(C)CC(=O)C(=C(C)C)C[C@@H]12
REMARK SMILES IDX 13 1 12 2 11 3 15 4 16 5 2 6 1 7 3 8 4 9 5 10 6 11 8 12 9 13
REMARK SMILES IDX 10 14 7 15 14 16
REMARK H PARENT
REMARK Flexibility Score: inf
ROOT
ATOM      1  C   UNL     1      -6.123  30.712  28.681  1.00  0.00     0.039 C 
ATOM      2  C   UNL     1      -5.411  29.756  29.609  1.00  0.00    -0.070 C 
ATOM      3  C   UNL     1      -4.198  29.218  29.289  1.00  0.00    -0.006 C 
ATOM      4  C   UNL     1      -3.513  28.207  30.195  1.00  0.00     0.047 C 
ATOM      5  C   UNL     1      -2.653  27.172  29.420  1.00  0.00     0.025 C 
ATOM      6  C   UNL     1      -3.441  26.056  28.724  1.00  0.00    -0.073 C 
ATOM      7  C   UNL     1      -4.785  25.972  28.713  1.00  0.00     0.008 C 
ATOM      8  C   UNL     1      -2.658  25.011  27.963  1.00  0.00     0.031 C 
ATOM      9  C   UNL     1      -1.155  25.306  27.980  1.00  0.00     0.005 C 
ATOM     10  C   UNL     1      -0.871  26.758  27.567  1.00  0.00     0.008 C 
ATOM     11  C   UNL     1      -1.671  27.840  28.394  1.00  0.00    -0.018 C 
ATOM     12  C   UNL     1      -2.491  28.714  27.407  1.00  0.00     0.088 C 
ATOM     13  C   UNL     1      -3.413  29.669  28.109  1.00  0.00     0.159 C 
ATOM     14  O   UNL     1      -3.497  30.853  27.683  1.00  0.00    -0.295 OA
ATOM     15  C   UNL     1      -0.644  28.733  29.138  1.00  0.00     0.012 C 
ATOM     16  C   UNL     1      -6.118  29.389  30.894  1.00  0.00     0.039 C 
ENDROOT
TORSDOF 0
ENDMDL
MODEL 4
REMARK VINA RESULT:    -1.012      2.316      4.995
REMARK INTER + INTRA:          -1.012
REMARK INTER:                  -1.012
REMARK INTRA:                   0.000
REMARK UNBOUND:                 0.000
REMARK SMILES C=C1CCC[C@@]2(C)CC(=O)C(=C(C)C)C[C@@H]12
REMARK SMILES IDX 13 1 12 2 11 3 15 4 16 5 2 6 1 7 3 8 4 9 5 10 6 11 8 12 9 13
REMARK SMILES IDX 10 14 7 15 14 16
REMARK H PARENT
REMARK Flexibility Score: inf
ROOT
ATOM      1  C   UNL     1       0.179  26.001  28.687  1.00  0.00     0.039 C 
ATOM      2  C   UNL     1      -1.117  26.332  27.984  1.00  0.00    -0.070 C 
ATOM      3  C   UNL     1      -1.859  27.424  28.330  1.00  0.00    -0.006 C 
ATOM      4  C   UNL     1      -3.194  27.720  27.665  1.00  0.00     0.047 C 
ATOM      5  C   UNL     1      -4.206  28.425  28.608  1.00  0.00     0.025 C 
ATOM      6  C   UNL     1      -4.889  27.515  29.635  1.00  0.00    -0.073 C 
ATOM      7  C   UNL     1      -4.619  26.204  29.782  1.00  0.00     0.008 C 
ATOM      8  C   UNL     1      -5.894  28.142  30.574  1.00  0.00     0.031 C 
ATOM      9  C   UNL     1      -6.008  29.653  30.353  1.00  0.00     0.005 C 
ATOM     10  C   UNL     1      -4.624  30.318  30.346  1.00  0.00     0.008 C 
ATOM     11  C   UNL     1      -3.595  29.674  29.337  1.00  0.00    -0.018 C 
ATOM     12  C   UNL     1      -2.335  29.228  30.126  1.00  0.00     0.088 C 
ATOM     13  C   UNL     1      -1.364  28.456  29.280  1.00  0.00     0.159 C 
ATOM     14  O   UNL     1      -0.134  28.707  29.388  1.00  0.00    -0.295 OA
ATOM     15  C   UNL     1      -3.194  30.756  28.301  1.00  0.00     0.012 C 
ATOM     16  C   UNL     1      -1.577  25.379  26.904  1.00  0.00     0.039 C 
ENDROOT
TORSDOF 0
ENDMDL
MODEL 5
REMARK VINA RESULT:    -0.130      1.860      2.831
REMARK INTER + INTRA:          -0.130
REMARK INTER:                  -0.130
REMARK INTRA:                   0.000
REMARK UNBOUND:                 0.000
REMARK SMILES C=C1CCC[C@@]2(C)CC(=O)C(=C(C)C)C[C@@H]12
REMARK SMILES IDX 13 1 12 2 11 3 15 4 16 5 2 6 1 7 3 8 4 9 5 10 6 11 8 12 9 13
REMARK SMILES IDX 10 14 7 15 14 16
REMARK H PARENT
REMARK Flexibility Score: inf
ROOT
ATOM      1  C   UNL     1      -5.574  29.226  30.455  1.00  0.00     0.039 C 
ATOM      2  C   UNL     1      -4.615  29.390  29.298  1.00  0.00    -0.070 C 
ATOM      3  C   UNL     1      -3.872  28.345  28.831  1.00  0.00    -0.006 C 
ATOM      4  C   UNL     1      -2.862  28.527  27.709  1.00  0.00     0.047 C 
ATOM      5  C   UNL     1      -1.639  27.579  27.825  1.00  0.00     0.025 C 
ATOM      6  C   UNL     1      -0.592  27.983  28.868  1.00  0.00    -0.073 C 
ATOM      7  C   UNL     1      -0.711  29.046  29.688  1.00  0.00     0.008 C 
ATOM      8  C   UNL     1       0.628  27.105  29.020  1.00  0.00     0.031 C 
ATOM      9  C   UNL     1       0.564  25.883  28.098  1.00  0.00     0.005 C 
ATOM     10  C   UNL     1      -0.781  25.155  28.237  1.00  0.00     0.008 C 
ATOM     11  C   UNL     1      -2.047  26.079  28.044  1.00  0.00    -0.018 C 
ATOM     12  C   UNL     1      -2.935  25.980  29.314  1.00  0.00     0.088 C 
ATOM     13  C   UNL     1      -4.083  26.948  29.295  1.00  0.00     0.159 C 
ATOM     14  O   UNL     1      -5.217  26.548  29.670  1.00  0.00    -0.295 OA
ATOM     15  C   UNL     1      -2.844  25.555  26.820  1.00  0.00     0.012 C 
ATOM     16  C   UNL     1      -4.487  30.774  28.703  1.00  0.00     0.039 C 
ENDROOT
TORSDOF 0
ENDMDL
MODEL 6
REMARK VINA RESULT:     0.287      2.321      5.087
REMARK INTER + INTRA:           0.287
REMARK INTER:                   0.287
REMARK INTRA:                   0.000
REMARK UNBOUND:                 0.000
REMARK SMILES C=C1CCC[C@@]2(C)CC(=O)C(=C(C)C)C[C@@H]12
REMARK SMILES IDX 13 1 12 2 11 3 15 4 16 5 2 6 1 7 3 8 4 9 5 10 6 11 8 12 9 13
REMARK SMILES IDX 10 14 7 15 14 16
REMARK H PARENT
REMARK Flexibility Score: inf
ROOT
ATOM      1  C   UNL     1       0.454  26.942  28.984  1.00  0.00     0.039 C 
ATOM      2  C   UNL     1      -0.620  26.759  30.031  1.00  0.00    -0.070 C 
ATOM      3  C   UNL     1      -1.924  27.078  29.783  1.00  0.00    -0.006 C 
ATOM      4  C   UNL     1      -2.991  26.953  30.858  1.00  0.00     0.047 C 
ATOM      5  C   UNL     1      -4.125  28.005  30.723  1.00  0.00     0.025 C 
ATOM      6  C   UNL     1      -3.769  29.417  31.203  1.00  0.00    -0.073 C 
ATOM      7  C   UNL     1      -2.556  29.777  31.663  1.00  0.00     0.008 C 
ATOM      8  C   UNL     1      -4.836  30.483  31.107  1.00  0.00     0.031 C 
ATOM      9  C   UNL     1      -6.119  29.944  30.466  1.00  0.00     0.005 C 
ATOM     10  C   UNL     1      -5.814  29.211  29.151  1.00  0.00     0.008 C 
ATOM     11  C   UNL     1      -4.722  28.077  29.273  1.00  0.00    -0.018 C 
ATOM     12  C   UNL     1      -3.575  28.381  28.271  1.00  0.00     0.088 C 
ATOM     13  C   UNL     1      -2.408  27.448  28.426  1.00  0.00     0.159 C 
ATOM     14  O   UNL     1      -1.863  26.984  27.389  1.00  0.00    -0.295 OA
ATOM     15  C   UNL     1      -5.384  26.726  28.898  1.00  0.00     0.012 C 
ATOM     16  C   UNL     1      -0.182  26.241  31.383  1.00  0.00     0.039 C 
ENDROOT
TORSDOF 0
ENDMDL
