MODEL 1
REMARK VINA RESULT:    -3.194      0.000      0.000
REMARK INTER + INTRA:          -3.119
REMARK INTER:                  -3.941
REMARK INTRA:                   0.821
REMARK UNBOUND:                 0.821
REMARK SMILES CC1=CC=CC(C)(C)CC1=O
REMARK SMILES IDX 1 1 2 2 3 3 10 4 11 5 9 6 4 8 5 9 6 10 7 11 8 12
REMARK H PARENT
REMARK Flexibility Score: 80.00
ROOT
ATOM      1  C   UNL     1     -16.605   5.577 -22.124  1.00  0.00     0.048 C 
ATOM      2  C   UNL     1     -16.346   4.157 -21.678  1.00  0.00    -0.008 C 
ATOM      3  C   UNL     1     -17.125   3.181 -22.194  1.00  0.00     0.007 C 
ENDROOT
BRANCH   2   4
ATOM      4  C   UNL     1     -15.282   3.961 -20.658  1.00  0.00     0.159 C 
ATOM      5  O   UNL     1     -14.579   4.954 -20.321  1.00  0.00    -0.295 OA
BRANCH   4   6
ATOM      6  C   UNL     1     -15.008   2.658 -19.968  1.00  0.00     0.091 CG0
ATOM      7  G   UNL     1     -14.781   1.472 -20.933  1.00  0.00     0.000 G0
ENDBRANCH   4   6
ENDBRANCH   2   4
BRANCH   3   8
ATOM      8  C   UNL     1     -17.095   1.721 -21.955  1.00  0.00    -0.003 C 
ATOM      9  C   UNL     1     -16.104   0.978 -21.449  1.00  0.00    -0.020 C 
BRANCH   9  10
ATOM     10  C   UNL     1     -14.781   1.490 -20.933  1.00  0.00    -0.010 CG0
ATOM     11  C   UNL     1     -14.115   0.365 -20.109  1.00  0.00     0.016 C 
ATOM     12  C   UNL     1     -13.842   1.835 -22.112  1.00  0.00     0.016 C 
ATOM     13  G   UNL     1     -15.027   2.693 -19.994  1.00  0.00     0.000 G0
ENDBRANCH   9  10
ENDBRANCH   3   8
TORSDOF 0
ENDMDL
MODEL 2
REMARK VINA RESULT:    -2.961      8.018      9.060
REMARK INTER + INTRA:          -2.832
REMARK INTER:                  -3.679
REMARK INTRA:                   0.846
REMARK UNBOUND:                 0.821
REMARK SMILES CC1=CC=CC(C)(C)CC1=O
REMARK SMILES IDX 1 1 2 2 3 3 10 4 11 5 9 6 4 8 5 9 6 10 7 11 8 12
REMARK H PARENT
REMARK Flexibility Score: 80.00
ROOT
ATOM      1  C   UNL     1     -14.880   3.383 -12.252  1.00  0.00     0.048 C 
ATOM      2  C   UNL     1     -14.049   2.122 -12.227  1.00  0.00    -0.008 C 
ATOM      3  C   UNL     1     -14.590   1.020 -11.662  1.00  0.00     0.007 C 
ENDROOT
BRANCH   2   4
ATOM      4  C   UNL     1     -12.673   2.217 -12.784  1.00  0.00     0.159 C 
ATOM      5  O   UNL     1     -12.322   3.294 -13.340  1.00  0.00    -0.295 OA
BRANCH   4   6
ATOM      6  C   UNL     1     -11.652   1.122 -12.697  1.00  0.00     0.091 CG0
ATOM      7  G   UNL     1     -12.152  -0.245 -13.215  1.00  0.00     0.000 G0
ENDBRANCH   4   6
ENDBRANCH   2   4
BRANCH   3   8
ATOM      8  C   UNL     1     -14.024  -0.339 -11.507  1.00  0.00    -0.003 C 
ATOM      9  C   UNL     1     -13.011  -0.902 -12.175  1.00  0.00    -0.020 C 
BRANCH   9  10
ATOM     10  C   UNL     1     -12.152  -0.233 -13.221  1.00  0.00    -0.010 CG0
ATOM     11  C   UNL     1     -10.913  -1.123 -13.471  1.00  0.00     0.016 C 
ATOM     12  C   UNL     1     -12.926  -0.111 -14.554  1.00  0.00     0.016 C 
ATOM     13  G   UNL     1     -11.664   1.132 -12.688  1.00  0.00     0.000 G0
ENDBRANCH   9  10
ENDBRANCH   3   8
TORSDOF 0
ENDMDL
MODEL 3
REMARK VINA RESULT:    -2.944     14.018     15.151
REMARK INTER + INTRA:          -2.810
REMARK INTER:                  -3.664
REMARK INTRA:                   0.854
REMARK UNBOUND:                 0.821
REMARK SMILES CC1=CC=CC(C)(C)CC1=O
REMARK SMILES IDX 1 1 2 2 3 3 10 4 11 5 9 6 4 8 5 9 6 10 7 11 8 12
REMARK H PARENT
REMARK Flexibility Score: 80.00
ROOT
ATOM      1  C   UNL     1      -4.512   2.401  -8.246  1.00  0.00     0.048 C 
ATOM      2  C   UNL     1      -4.767   1.796  -9.608  1.00  0.00    -0.008 C 
ATOM      3  C   UNL     1      -5.064   2.634 -10.625  1.00  0.00     0.007 C 
ENDROOT
BRANCH   2   4
ATOM      4  C   UNL     1      -4.722   0.312  -9.698  1.00  0.00     0.159 C 
ATOM      5  O   UNL     1      -4.374  -0.344  -8.678  1.00  0.00    -0.295 OA
BRANCH   4   6
ATOM      6  C   UNL     1      -5.102  -0.467 -10.922  1.00  0.00     0.091 CG0
ATOM      7  G   UNL     1      -4.351  -0.033 -12.201  1.00  0.00     0.000 G0
ENDBRANCH   4   6
ENDBRANCH   2   4
BRANCH   3   8
ATOM      8  C   UNL     1      -5.345   2.334 -12.047  1.00  0.00    -0.003 C 
ATOM      9  C   UNL     1      -5.033   1.237 -12.746  1.00  0.00    -0.020 C 
BRANCH   9  10
ATOM     10  C   UNL     1      -4.362  -0.003 -12.205  1.00  0.00    -0.010 CG0
ATOM     11  C   UNL     1      -4.497  -1.125 -13.260  1.00  0.00     0.016 C 
ATOM     12  C   UNL     1      -2.855   0.257 -11.979  1.00  0.00     0.016 C 
ATOM     13  G   UNL     1      -5.088  -0.461 -10.921  1.00  0.00     0.000 G0
ENDBRANCH   9  10
ENDBRANCH   3   8
TORSDOF 0
ENDMDL
MODEL 4
REMARK VINA RESULT:    -2.847      8.708      9.850
REMARK INTER + INTRA:          -2.692
REMARK INTER:                  -3.540
REMARK INTRA:                   0.848
REMARK UNBOUND:                 0.821
REMARK SMILES CC1=CC=CC(C)(C)CC1=O
REMARK SMILES IDX 1 1 2 2 3 3 10 4 11 5 9 6 4 8 5 9 6 10 7 11 8 12
REMARK H PARENT
REMARK Flexibility Score: 80.00
ROOT
ATOM      1  C   UNL     1     -14.763  10.670 -17.202  1.00  0.00     0.048 C 
ATOM      2  C   UNL     1     -14.057   9.964 -16.068  1.00  0.00    -0.008 C 
ATOM      3  C   UNL     1     -14.094   8.614 -16.045  1.00  0.00     0.007 C 
ENDROOT
BRANCH   2   4
ATOM      4  C   UNL     1     -13.423  10.827 -15.036  1.00  0.00     0.159 C 
ATOM      5  O   UNL     1     -13.440  12.077 -15.202  1.00  0.00    -0.295 OA
BRANCH   4   6
ATOM      6  C   UNL     1     -12.791  10.307 -13.778  1.00  0.00     0.091 CG0
ATOM      7  G   UNL     1     -11.762   9.179 -14.013  1.00  0.00     0.000 G0
ENDBRANCH   4   6
ENDBRANCH   2   4
BRANCH   3   8
ATOM      8  C   UNL     1     -13.493   7.667 -15.079  1.00  0.00    -0.003 C 
ATOM      9  C   UNL     1     -12.484   7.875 -14.225  1.00  0.00    -0.020 C 
BRANCH   9  10
ATOM     10  C   UNL     1     -11.758   9.180 -14.004  1.00  0.00    -0.010 CG0
ATOM     11  C   UNL     1     -10.913   9.051 -12.716  1.00  0.00     0.016 C 
ATOM     12  C   UNL     1     -10.793   9.463 -15.178  1.00  0.00     0.016 C 
ATOM     13  G   UNL     1     -12.788  10.311 -13.792  1.00  0.00     0.000 G0
ENDBRANCH   9  10
ENDBRANCH   3   8
TORSDOF 0
ENDMDL
MODEL 5
REMARK VINA RESULT:    -2.822     12.507     14.142
REMARK INTER + INTRA:          -2.661
REMARK INTER:                  -3.521
REMARK INTRA:                   0.860
REMARK UNBOUND:                 0.821
REMARK SMILES CC1=CC=CC(C)(C)CC1=O
REMARK SMILES IDX 1 1 2 2 3 3 10 4 11 5 9 6 4 8 5 9 6 10 7 11 8 12
REMARK H PARENT
REMARK Flexibility Score: 80.00
ROOT
ATOM      1  C   UNL     1     -14.165  17.196 -12.467  1.00  0.00     0.048 C 
ATOM      2  C   UNL     1     -13.977  16.438 -13.761  1.00  0.00    -0.008 C 
ATOM      3  C   UNL     1     -13.069  16.911 -14.643  1.00  0.00     0.007 C 
ENDROOT
BRANCH   2   4
ATOM      4  C   UNL     1     -14.854  15.257 -13.977  1.00  0.00     0.159 C 
ATOM      5  O   UNL     1     -15.658  14.928 -13.062  1.00  0.00    -0.295 OA
BRANCH   4   6
ATOM      6  C   UNL     1     -14.875  14.444 -15.237  1.00  0.00     0.091 CG0
ATOM      7  G   UNL     1     -13.477  13.997 -15.719  1.00  0.00     0.000 G0
ENDBRANCH   4   6
ENDBRANCH   2   4
BRANCH   3   8
ATOM      8  C   UNL     1     -12.668  16.379 -15.965  1.00  0.00    -0.003 C 
ATOM      9  C   UNL     1     -12.807  15.137 -16.442  1.00  0.00    -0.020 C 
BRANCH   9  10
ATOM     10  C   UNL     1     -13.484  13.984 -15.741  1.00  0.00    -0.010 CG0
ATOM     11  C   UNL     1     -13.693  12.848 -16.769  1.00  0.00     0.016 C 
ATOM     12  C   UNL     1     -12.583  13.440 -14.609  1.00  0.00     0.016 C 
ATOM     13  G   UNL     1     -14.872  14.435 -15.234  1.00  0.00     0.000 G0
ENDBRANCH   9  10
ENDBRANCH   3   8
TORSDOF 0
ENDMDL
MODEL 6
REMARK VINA RESULT:    -2.757     15.037     16.102
REMARK INTER + INTRA:          -2.581
REMARK INTER:                  -3.442
REMARK INTRA:                   0.861
REMARK UNBOUND:                 0.821
REMARK SMILES CC1=CC=CC(C)(C)CC1=O
REMARK SMILES IDX 1 1 2 2 3 3 10 4 11 5 9 6 4 8 5 9 6 10 7 11 8 12
REMARK H PARENT
REMARK Flexibility Score: 80.00
ROOT
ATOM      1  C   UNL     1      -0.849  13.129 -22.805  1.00  0.00     0.048 C 
ATOM      2  C   UNL     1      -2.115  12.915 -23.603  1.00  0.00    -0.008 C 
ATOM      3  C   UNL     1      -2.262  11.738 -24.249  1.00  0.00     0.007 C 
ENDROOT
BRANCH   2   4
ATOM      4  C   UNL     1      -3.073  14.051 -23.652  1.00  0.00     0.159 C 
ATOM      5  O   UNL     1      -2.844  15.065 -22.936  1.00  0.00    -0.295 OA
BRANCH   4   6
ATOM      6  C   UNL     1      -4.286  14.091 -24.533  1.00  0.00     0.091 CG0
ATOM      7  G   UNL     1      -5.220  12.871 -24.370  1.00  0.00     0.000 G0
ENDBRANCH   4   6
ENDBRANCH   2   4
BRANCH   3   8
ATOM      8  C   UNL     1      -3.383  11.251 -25.084  1.00  0.00    -0.003 C 
ATOM      9  C   UNL     1      -4.645  11.692 -25.126  1.00  0.00    -0.020 C 
BRANCH   9  10
ATOM     10  C   UNL     1      -5.206  12.864 -24.356  1.00  0.00    -0.010 CG0
ATOM     11  C   UNL     1      -6.586  13.220 -24.954  1.00  0.00     0.016 C 
ATOM     12  C   UNL     1      -5.415  12.481 -22.873  1.00  0.00     0.016 C 
ATOM     13  G   UNL     1      -4.276  14.085 -24.532  1.00  0.00     0.000 G0
ENDBRANCH   9  10
ENDBRANCH   3   8
TORSDOF 0
ENDMDL
MODEL 7
REMARK VINA RESULT:    -2.753     17.290     18.069
REMARK INTER + INTRA:          -2.575
REMARK INTER:                  -3.424
REMARK INTRA:                   0.848
REMARK UNBOUND:                 0.821
REMARK SMILES CC1=CC=CC(C)(C)CC1=O
REMARK SMILES IDX 1 1 2 2 3 3 10 4 11 5 9 6 4 8 5 9 6 10 7 11 8 12
REMARK H PARENT
REMARK Flexibility Score: 80.00
ROOT
ATOM      1  C   UNL     1      -1.357   7.305 -12.320  1.00  0.00     0.048 C 
ATOM      2  C   UNL     1      -2.018   8.658 -12.189  1.00  0.00    -0.008 C 
ATOM      3  C   UNL     1      -2.898   8.836 -11.178  1.00  0.00     0.007 C 
ENDROOT
BRANCH   2   4
ATOM      4  C   UNL     1      -1.680   9.670 -13.225  1.00  0.00     0.159 C 
ATOM      5  O   UNL     1      -0.816   9.375 -14.096  1.00  0.00    -0.295 OA
BRANCH   4   6
ATOM      6  C   UNL     1      -2.332  11.017 -13.329  1.00  0.00     0.091 CG0
ATOM      7  G   UNL     1      -2.345  11.811 -12.004  1.00  0.00     0.000 G0
ENDBRANCH   4   6
ENDBRANCH   2   4
BRANCH   3   8
ATOM      8  C   UNL     1      -3.676  10.037 -10.802  1.00  0.00    -0.003 C 
ATOM      9  C   UNL     1      -3.442  11.316 -11.118  1.00  0.00    -0.020 C 
BRANCH   9  10
ATOM     10  C   UNL     1      -2.337  11.825 -12.012  1.00  0.00    -0.010 CG0
ATOM     11  C   UNL     1      -2.641  13.299 -12.365  1.00  0.00     0.016 C 
ATOM     12  C   UNL     1      -0.983  11.784 -11.267  1.00  0.00     0.016 C 
ATOM     13  G   UNL     1      -2.321  11.010 -13.324  1.00  0.00     0.000 G0
ENDBRANCH   9  10
ENDBRANCH   3   8
TORSDOF 0
ENDMDL
MODEL 8
REMARK VINA RESULT:    -2.718      9.992     11.755
REMARK INTER + INTRA:          -2.532
REMARK INTER:                  -3.375
REMARK INTRA:                   0.843
REMARK UNBOUND:                 0.821
REMARK SMILES CC1=CC=CC(C)(C)CC1=O
REMARK SMILES IDX 1 1 2 2 3 3 10 4 11 5 9 6 4 8 5 9 6 10 7 11 8 12
REMARK H PARENT
REMARK Flexibility Score: 80.00
ROOT
ATOM      1  C   UNL     1     -14.702   9.582 -16.586  1.00  0.00     0.048 C 
ATOM      2  C   UNL     1     -14.093  10.964 -16.646  1.00  0.00    -0.008 C 
ATOM      3  C   UNL     1     -14.148  11.626 -17.823  1.00  0.00     0.007 C 
ENDROOT
BRANCH   2   4
ATOM      4  C   UNL     1     -13.433  11.457 -15.409  1.00  0.00     0.159 C 
ATOM      5  O   UNL     1     -13.482  10.740 -14.372  1.00  0.00    -0.295 OA
BRANCH   4   6
ATOM      6  C   UNL     1     -12.672  12.747 -15.319  1.00  0.00     0.091 CG0
ATOM      7  G   UNL     1     -13.446  13.971 -15.856  1.00  0.00     0.000 G0
ENDBRANCH   4   6
ENDBRANCH   2   4
BRANCH   3   8
ATOM      8  C   UNL     1     -13.655  12.977 -18.171  1.00  0.00    -0.003 C 
ATOM      9  C   UNL     1     -13.375  14.000 -17.355  1.00  0.00    -0.020 C 
BRANCH   9  10
ATOM     10  C   UNL     1     -13.439  13.979 -15.847  1.00  0.00    -0.010 CG0
ATOM     11  C   UNL     1     -12.717  15.239 -15.315  1.00  0.00     0.016 C 
ATOM     12  C   UNL     1     -14.908  14.038 -15.371  1.00  0.00     0.016 C 
ATOM     13  G   UNL     1     -12.689  12.736 -15.318  1.00  0.00     0.000 G0
ENDBRANCH   9  10
ENDBRANCH   3   8
TORSDOF 0
ENDMDL
MODEL 9
REMARK VINA RESULT:    -2.709     13.456     14.643
REMARK INTER + INTRA:          -2.521
REMARK INTER:                  -3.374
REMARK INTRA:                   0.853
REMARK UNBOUND:                 0.821
REMARK SMILES CC1=CC=CC(C)(C)CC1=O
REMARK SMILES IDX 1 1 2 2 3 3 10 4 11 5 9 6 4 8 5 9 6 10 7 11 8 12
REMARK H PARENT
REMARK Flexibility Score: 80.00
ROOT
ATOM      1  C   UNL     1      -2.556  11.983 -24.810  1.00  0.00     0.048 C 
ATOM      2  C   UNL     1      -4.063  12.050 -24.896  1.00  0.00    -0.008 C 
ATOM      3  C   UNL     1      -4.741  10.886 -25.010  1.00  0.00     0.007 C 
ENDROOT
BRANCH   2   4
ATOM      4  C   UNL     1      -4.672  13.406 -24.902  1.00  0.00     0.159 C 
ATOM      5  O   UNL     1      -3.919  14.406 -24.746  1.00  0.00    -0.295 OA
BRANCH   4   6
ATOM      6  C   UNL     1      -6.132  13.671 -25.122  1.00  0.00     0.091 CG0
ATOM      7  G   UNL     1      -7.064  12.845 -24.208  1.00  0.00     0.000 G0
ENDBRANCH   4   6
ENDBRANCH   2   4
BRANCH   3   8
ATOM      8  C   UNL     1      -6.198  10.645 -25.100  1.00  0.00    -0.003 C 
ATOM      9  C   UNL     1      -7.201  11.452 -24.736  1.00  0.00    -0.020 C 
BRANCH   9  10
ATOM     10  C   UNL     1      -7.065  12.855 -24.196  1.00  0.00    -0.010 CG0
ATOM     11  C   UNL     1      -8.460  13.521 -24.223  1.00  0.00     0.016 C 
ATOM     12  C   UNL     1      -6.583  12.823 -22.728  1.00  0.00     0.016 C 
ATOM     13  G   UNL     1      -6.127  13.670 -25.115  1.00  0.00     0.000 G0
ENDBRANCH   9  10
ENDBRANCH   3   8
TORSDOF 0
ENDMDL
