MODEL 1
REMARK VINA RESULT:    -4.454      0.000      0.000
REMARK INTER + INTRA:          -9.083
REMARK INTER:                  -8.099
REMARK INTRA:                  -0.984
REMARK UNBOUND:                -0.984
REMARK SMILES CCCCCCCCCCCCCCCC(=O)[O-]
REMARK SMILES IDX 9 1 10 2 11 3 12 4 13 5 14 6 15 7 16 8 17 9 18 10 8 11 7 12
REMARK SMILES IDX 6 13 5 14 4 15 3 16 2 17 1 18
REMARK H PARENT
REMARK Flexibility Score: inf
ROOT
ATOM      1  C   UNL     1       1.115  -0.827   5.571  1.00  0.00     0.000 C 
ENDROOT
BRANCH   1   2
ATOM      2  C   UNL     1       1.412  -0.577   7.057  1.00  0.00     0.000 C 
BRANCH   2   3
ATOM      3  C   UNL     1       2.176   0.734   7.295  1.00  0.00     0.000 C 
BRANCH   3   4
ATOM      4  C   UNL     1       1.506   1.903   6.561  1.00  0.00     0.000 C 
BRANCH   4   5
ATOM      5  C   UNL     1       1.107   3.052   7.502  1.00  0.00     0.000 C 
BRANCH   5   6
ATOM      6  C   UNL     1       0.751   4.361   6.764  1.00  0.00     0.006 C 
BRANCH   6   7
ATOM      7  C   UNL     1       1.799   4.734   5.707  1.00  0.00     0.053 C 
BRANCH   7   8
ATOM      8  C   UNL     1       1.144   5.360   4.517  1.00  0.00     0.041 C 
ATOM      9  O   UNL     1      -0.001   4.983   4.153  1.00  0.00    -0.550 OA
ATOM     10  O   UNL     1       1.819   6.323   3.778  1.00  0.00    -0.550 OA
ENDBRANCH   7   8
ENDBRANCH   6   7
ENDBRANCH   5   6
ENDBRANCH   4   5
ENDBRANCH   3   4
ENDBRANCH   2   3
ENDBRANCH   1   2
BRANCH   1  11
ATOM     11  C   UNL     1       0.480  -2.203   5.316  1.00  0.00     0.000 C 
BRANCH  11  12
ATOM     12  C   UNL     1      -0.572  -2.528   6.383  1.00  0.00    -0.000 C 
BRANCH  12  13
ATOM     13  C   UNL     1      -1.947  -2.774   5.743  1.00  0.00    -0.000 C 
BRANCH  13  14
ATOM     14  C   UNL     1      -1.897  -2.785   4.205  1.00  0.00    -0.000 C 
BRANCH  14  15
ATOM     15  C   UNL     1      -3.179  -2.287   3.509  1.00  0.00    -0.000 C 
BRANCH  15  16
ATOM     16  C   UNL     1      -3.849  -1.062   4.165  1.00  0.00    -0.000 C 
BRANCH  16  17
ATOM     17  C   UNL     1      -5.172  -1.362   4.889  1.00  0.00    -0.003 C 
ATOM     18  C   UNL     1      -5.218  -0.793   6.306  1.00  0.00     0.004 C 
ENDBRANCH  16  17
ENDBRANCH  15  16
ENDBRANCH  14  15
ENDBRANCH  13  14
ENDBRANCH  12  13
ENDBRANCH  11  12
ENDBRANCH   1  11
TORSDOF 14
ENDMDL
MODEL 2
REMARK VINA RESULT:    -4.441      4.270      5.880
REMARK INTER + INTRA:          -9.060
REMARK INTER:                  -6.800
REMARK INTRA:                  -2.260
REMARK UNBOUND:                -0.984
REMARK SMILES CCCCCCCCCCCCCCCC(=O)[O-]
REMARK SMILES IDX 9 1 10 2 11 3 12 4 13 5 14 6 15 7 16 8 17 9 18 10 8 11 7 12
REMARK SMILES IDX 6 13 5 14 4 15 3 16 2 17 1 18
REMARK H PARENT
REMARK Flexibility Score: inf
ROOT
ATOM      1  C   UNL     1      -5.012  -3.086   6.485  1.00  0.00     0.000 C 
ENDROOT
BRANCH   1   2
ATOM      2  C   UNL     1      -3.936  -2.713   7.517  1.00  0.00     0.000 C 
BRANCH   2   3
ATOM      3  C   UNL     1      -2.640  -3.518   7.337  1.00  0.00     0.000 C 
BRANCH   3   4
ATOM      4  C   UNL     1      -1.407  -2.642   7.595  1.00  0.00     0.000 C 
BRANCH   4   5
ATOM      5  C   UNL     1      -0.291  -2.856   6.557  1.00  0.00     0.000 C 
BRANCH   5   6
ATOM      6  C   UNL     1       0.756  -1.722   6.533  1.00  0.00     0.006 C 
BRANCH   6   7
ATOM      7  C   UNL     1       1.482  -1.631   5.184  1.00  0.00     0.053 C 
BRANCH   7   8
ATOM      8  C   UNL     1       2.812  -2.312   5.257  1.00  0.00     0.041 C 
ATOM      9  O   UNL     1       3.596  -2.279   4.273  1.00  0.00    -0.550 OA
ATOM     10  O   UNL     1       3.164  -3.029   6.394  1.00  0.00    -0.550 OA
ENDBRANCH   7   8
ENDBRANCH   6   7
ENDBRANCH   5   6
ENDBRANCH   4   5
ENDBRANCH   3   4
ENDBRANCH   2   3
ENDBRANCH   1   2
BRANCH   1  11
ATOM     11  C   UNL     1      -5.717  -1.856   5.893  1.00  0.00     0.000 C 
BRANCH  11  12
ATOM     12  C   UNL     1      -4.698  -0.841   5.362  1.00  0.00    -0.000 C 
BRANCH  12  13
ATOM     13  C   UNL     1      -4.154  -1.273   3.992  1.00  0.00    -0.000 C 
BRANCH  13  14
ATOM     14  C   UNL     1      -2.637  -1.529   4.004  1.00  0.00    -0.000 C 
BRANCH  14  15
ATOM     15  C   UNL     1      -2.213  -2.949   3.579  1.00  0.00    -0.000 C 
BRANCH  15  16
ATOM     16  C   UNL     1      -3.277  -3.744   2.794  1.00  0.00    -0.000 C 
BRANCH  16  17
ATOM     17  C   UNL     1      -3.780  -5.016   3.498  1.00  0.00    -0.003 C 
ATOM     18  C   UNL     1      -2.705  -5.691   4.348  1.00  0.00     0.004 C 
ENDBRANCH  16  17
ENDBRANCH  15  16
ENDBRANCH  14  15
ENDBRANCH  13  14
ENDBRANCH  12  13
ENDBRANCH  11  12
ENDBRANCH   1  11
TORSDOF 14
ENDMDL
MODEL 3
REMARK VINA RESULT:    -4.413      2.630      4.339
REMARK INTER + INTRA:          -9.009
REMARK INTER:                  -7.478
REMARK INTRA:                  -1.531
REMARK UNBOUND:                -0.984
REMARK SMILES CCCCCCCCCCCCCCCC(=O)[O-]
REMARK SMILES IDX 9 1 10 2 11 3 12 4 13 5 14 6 15 7 16 8 17 9 18 10 8 11 7 12
REMARK SMILES IDX 6 13 5 14 4 15 3 16 2 17 1 18
REMARK H PARENT
REMARK Flexibility Score: inf
ROOT
ATOM      1  C   UNL     1       1.291   0.775   8.430  1.00  0.00     0.000 C 
ENDROOT
BRANCH   1   2
ATOM      2  C   UNL     1       1.680   1.599   7.194  1.00  0.00     0.000 C 
BRANCH   2   3
ATOM      3  C   UNL     1       1.387   3.097   7.366  1.00  0.00     0.000 C 
BRANCH   3   4
ATOM      4  C   UNL     1       0.329   3.331   8.453  1.00  0.00     0.000 C 
BRANCH   4   5
ATOM      5  C   UNL     1      -0.221   4.768   8.455  1.00  0.00     0.000 C 
BRANCH   5   6
ATOM      6  C   UNL     1       0.164   5.579   7.200  1.00  0.00     0.006 C 
BRANCH   6   7
ATOM      7  C   UNL     1      -1.065   6.120   6.457  1.00  0.00     0.053 C 
BRANCH   7   8
ATOM      8  C   UNL     1      -0.767   6.289   5.002  1.00  0.00     0.041 C 
ATOM      9  O   UNL     1      -0.227   5.355   4.352  1.00  0.00    -0.550 OA
ATOM     10  O   UNL     1      -1.038   7.498   4.373  1.00  0.00    -0.550 OA
ENDBRANCH   7   8
ENDBRANCH   6   7
ENDBRANCH   5   6
ENDBRANCH   4   5
ENDBRANCH   3   4
ENDBRANCH   2   3
ENDBRANCH   1   2
BRANCH   1  11
ATOM     11  C   UNL     1       2.307  -0.333   8.748  1.00  0.00     0.000 C 
BRANCH  11  12
ATOM     12  C   UNL     1       3.592  -0.151   7.931  1.00  0.00    -0.000 C 
BRANCH  12  13
ATOM     13  C   UNL     1       4.179  -1.508   7.519  1.00  0.00    -0.000 C 
BRANCH  13  14
ATOM     14  C   UNL     1       3.149  -2.650   7.580  1.00  0.00    -0.000 C 
BRANCH  14  15
ATOM     15  C   UNL     1       2.738  -3.230   6.213  1.00  0.00    -0.000 C 
BRANCH  15  16
ATOM     16  C   UNL     1       2.419  -2.183   5.125  1.00  0.00    -0.000 C 
BRANCH  16  17
ATOM     17  C   UNL     1       1.122  -1.388   5.355  1.00  0.00    -0.003 C 
ATOM     18  C   UNL     1      -0.060  -2.276   5.739  1.00  0.00     0.004 C 
ENDBRANCH  16  17
ENDBRANCH  15  16
ENDBRANCH  14  15
ENDBRANCH  13  14
ENDBRANCH  12  13
ENDBRANCH  11  12
ENDBRANCH   1  11
TORSDOF 14
ENDMDL
MODEL 4
REMARK VINA RESULT:    -4.409      1.203      2.208
REMARK INTER + INTRA:          -9.001
REMARK INTER:                  -8.151
REMARK INTRA:                  -0.850
REMARK UNBOUND:                -0.984
REMARK SMILES CCCCCCCCCCCCCCCC(=O)[O-]
REMARK SMILES IDX 9 1 10 2 11 3 12 4 13 5 14 6 15 7 16 8 17 9 18 10 8 11 7 12
REMARK SMILES IDX 6 13 5 14 4 15 3 16 2 17 1 18
REMARK H PARENT
REMARK Flexibility Score: inf
ROOT
ATOM      1  C   UNL     1       1.425   0.409   6.979  1.00  0.00     0.000 C 
ENDROOT
BRANCH   1   2
ATOM      2  C   UNL     1       2.086   1.431   7.916  1.00  0.00     0.000 C 
BRANCH   2   3
ATOM      3  C   UNL     1       1.149   1.893   9.042  1.00  0.00     0.000 C 
BRANCH   3   4
ATOM      4  C   UNL     1       0.404   3.176   8.648  1.00  0.00     0.000 C 
BRANCH   4   5
ATOM      5  C   UNL     1       1.319   4.222   7.988  1.00  0.00     0.000 C 
BRANCH   5   6
ATOM      6  C   UNL     1       0.907   4.581   6.545  1.00  0.00     0.006 C 
BRANCH   6   7
ATOM      7  C   UNL     1      -0.298   5.530   6.504  1.00  0.00     0.053 C 
BRANCH   7   8
ATOM      8  C   UNL     1      -0.597   5.938   5.097  1.00  0.00     0.041 C 
ATOM      9  O   UNL     1      -1.437   6.847   4.865  1.00  0.00    -0.550 OA
ATOM     10  O   UNL     1       0.013   5.278   4.037  1.00  0.00    -0.550 OA
ENDBRANCH   7   8
ENDBRANCH   6   7
ENDBRANCH   5   6
ENDBRANCH   4   5
ENDBRANCH   3   4
ENDBRANCH   2   3
ENDBRANCH   1   2
BRANCH   1  11
ATOM     11  C   UNL     1       2.227  -0.897   6.867  1.00  0.00     0.000 C 
BRANCH  11  12
ATOM     12  C   UNL     1       1.929  -1.613   5.544  1.00  0.00    -0.000 C 
BRANCH  12  13
ATOM     13  C   UNL     1       0.439  -1.510   5.186  1.00  0.00    -0.000 C 
BRANCH  13  14
ATOM     14  C   UNL     1      -0.433  -2.516   5.959  1.00  0.00    -0.000 C 
BRANCH  14  15
ATOM     15  C   UNL     1      -1.900  -2.597   5.493  1.00  0.00    -0.000 C 
BRANCH  15  16
ATOM     16  C   UNL     1      -2.143  -2.217   4.018  1.00  0.00    -0.000 C 
BRANCH  16  17
ATOM     17  C   UNL     1      -3.492  -1.530   3.744  1.00  0.00    -0.003 C 
ATOM     18  C   UNL     1      -4.245  -1.165   5.022  1.00  0.00     0.004 C 
ENDBRANCH  16  17
ENDBRANCH  15  16
ENDBRANCH  14  15
ENDBRANCH  13  14
ENDBRANCH  12  13
ENDBRANCH  11  12
ENDBRANCH   1  11
TORSDOF 14
ENDMDL
MODEL 5
REMARK VINA RESULT:    -4.374      4.067      5.241
REMARK INTER + INTRA:          -8.938
REMARK INTER:                  -6.980
REMARK INTRA:                  -1.958
REMARK UNBOUND:                -0.984
REMARK SMILES CCCCCCCCCCCCCCCC(=O)[O-]
REMARK SMILES IDX 9 1 10 2 11 3 12 4 13 5 14 6 15 7 16 8 17 9 18 10 8 11 7 12
REMARK SMILES IDX 6 13 5 14 4 15 3 16 2 17 1 18
REMARK H PARENT
REMARK Flexibility Score: inf
ROOT
ATOM      1  C   UNL     1      -3.340  -4.970   5.822  1.00  0.00     0.000 C 
ENDROOT
BRANCH   1   2
ATOM      2  C   UNL     1      -2.525  -4.273   6.922  1.00  0.00     0.000 C 
BRANCH   2   3
ATOM      3  C   UNL     1      -1.069  -4.016   6.505  1.00  0.00     0.000 C 
BRANCH   3   4
ATOM      4  C   UNL     1      -0.759  -2.513   6.482  1.00  0.00     0.000 C 
BRANCH   4   5
ATOM      5  C   UNL     1      -0.044  -2.068   5.195  1.00  0.00     0.000 C 
BRANCH   5   6
ATOM      6  C   UNL     1       1.129  -1.097   5.443  1.00  0.00     0.006 C 
BRANCH   6   7
ATOM      7  C   UNL     1       2.201  -1.703   6.359  1.00  0.00     0.053 C 
BRANCH   7   8
ATOM      8  C   UNL     1       3.476  -1.914   5.607  1.00  0.00     0.041 C 
ATOM      9  O   UNL     1       4.583  -1.669   6.154  1.00  0.00    -0.550 OA
ATOM     10  O   UNL     1       3.440  -2.334   4.283  1.00  0.00    -0.550 OA
ENDBRANCH   7   8
ENDBRANCH   6   7
ENDBRANCH   5   6
ENDBRANCH   4   5
ENDBRANCH   3   4
ENDBRANCH   2   3
ENDBRANCH   1   2
BRANCH   1  11
ATOM     11  C   UNL     1      -2.454  -5.603   4.738  1.00  0.00     0.000 C 
BRANCH  11  12
ATOM     12  C   UNL     1      -2.688  -4.935   3.378  1.00  0.00    -0.000 C 
BRANCH  12  13
ATOM     13  C   UNL     1      -3.639  -3.736   3.510  1.00  0.00    -0.000 C 
BRANCH  13  14
ATOM     14  C   UNL     1      -2.936  -2.386   3.277  1.00  0.00    -0.000 C 
BRANCH  14  15
ATOM     15  C   UNL     1      -3.532  -1.198   4.056  1.00  0.00    -0.000 C 
BRANCH  15  16
ATOM     16  C   UNL     1      -4.893  -1.472   4.730  1.00  0.00    -0.000 C 
BRANCH  16  17
ATOM     17  C   UNL     1      -4.895  -1.324   6.261  1.00  0.00    -0.003 C 
ATOM     18  C   UNL     1      -5.770  -0.169   6.747  1.00  0.00     0.004 C 
ENDBRANCH  16  17
ENDBRANCH  15  16
ENDBRANCH  14  15
ENDBRANCH  13  14
ENDBRANCH  12  13
ENDBRANCH  11  12
ENDBRANCH   1  11
TORSDOF 14
ENDMDL
MODEL 6
REMARK VINA RESULT:    -4.370      4.145      5.478
REMARK INTER + INTRA:          -8.931
REMARK INTER:                  -6.434
REMARK INTRA:                  -2.497
REMARK UNBOUND:                -0.984
REMARK SMILES CCCCCCCCCCCCCCCC(=O)[O-]
REMARK SMILES IDX 9 1 10 2 11 3 12 4 13 5 14 6 15 7 16 8 17 9 18 10 8 11 7 12
REMARK SMILES IDX 6 13 5 14 4 15 3 16 2 17 1 18
REMARK H PARENT
REMARK Flexibility Score: inf
ROOT
ATOM      1  C   UNL     1      -3.077  -5.290   4.447  1.00  0.00     0.000 C 
ENDROOT
BRANCH   1   2
ATOM      2  C   UNL     1      -2.094  -4.961   5.581  1.00  0.00     0.000 C 
BRANCH   2   3
ATOM      3  C   UNL     1      -2.768  -4.243   6.759  1.00  0.00     0.000 C 
BRANCH   3   4
ATOM      4  C   UNL     1      -1.869  -3.130   7.313  1.00  0.00     0.000 C 
BRANCH   4   5
ATOM      5  C   UNL     1      -0.424  -3.209   6.791  1.00  0.00     0.000 C 
BRANCH   5   6
ATOM      6  C   UNL     1       0.238  -1.830   6.592  1.00  0.00     0.006 C 
BRANCH   6   7
ATOM      7  C   UNL     1       0.928  -1.708   5.227  1.00  0.00     0.053 C 
BRANCH   7   8
ATOM      8  C   UNL     1       2.414  -1.756   5.383  1.00  0.00     0.041 C 
ATOM      9  O   UNL     1       2.969  -1.176   6.354  1.00  0.00    -0.550 OA
ATOM     10  O   UNL     1       3.193  -2.398   4.429  1.00  0.00    -0.550 OA
ENDBRANCH   7   8
ENDBRANCH   6   7
ENDBRANCH   5   6
ENDBRANCH   4   5
ENDBRANCH   3   4
ENDBRANCH   2   3
ENDBRANCH   1   2
BRANCH   1  11
ATOM     11  C   UNL     1      -3.513  -4.045   3.660  1.00  0.00     0.000 C 
BRANCH  11  12
ATOM     12  C   UNL     1      -2.319  -3.120   3.391  1.00  0.00    -0.000 C 
BRANCH  12  13
ATOM     13  C   UNL     1      -2.577  -1.713   3.948  1.00  0.00    -0.000 C 
BRANCH  13  14
ATOM     14  C   UNL     1      -4.070  -1.337   3.958  1.00  0.00    -0.000 C 
BRANCH  14  15
ATOM     15  C   UNL     1      -4.568  -0.682   5.261  1.00  0.00    -0.000 C 
BRANCH  15  16
ATOM     16  C   UNL     1      -5.321  -1.623   6.223  1.00  0.00    -0.000 C 
BRANCH  16  17
ATOM     17  C   UNL     1      -6.201  -2.680   5.533  1.00  0.00    -0.003 C 
ATOM     18  C   UNL     1      -6.446  -3.911   6.404  1.00  0.00     0.004 C 
ENDBRANCH  16  17
ENDBRANCH  15  16
ENDBRANCH  14  15
ENDBRANCH  13  14
ENDBRANCH  12  13
ENDBRANCH  11  12
ENDBRANCH   1  11
TORSDOF 14
ENDMDL
MODEL 7
REMARK VINA RESULT:    -4.361      3.123      4.894
REMARK INTER + INTRA:          -8.914
REMARK INTER:                  -7.428
REMARK INTRA:                  -1.486
REMARK UNBOUND:                -0.984
REMARK SMILES CCCCCCCCCCCCCCCC(=O)[O-]
REMARK SMILES IDX 9 1 10 2 11 3 12 4 13 5 14 6 15 7 16 8 17 9 18 10 8 11 7 12
REMARK SMILES IDX 6 13 5 14 4 15 3 16 2 17 1 18
REMARK H PARENT
REMARK Flexibility Score: inf
ROOT
ATOM      1  C   UNL     1       1.575   0.333   8.464  1.00  0.00     0.000 C 
ENDROOT
BRANCH   1   2
ATOM      2  C   UNL     1       1.940   0.977   7.118  1.00  0.00     0.000 C 
BRANCH   2   3
ATOM      3  C   UNL     1       1.847   2.510   7.152  1.00  0.00     0.000 C 
BRANCH   3   4
ATOM      4  C   UNL     1       1.052   2.987   8.375  1.00  0.00     0.000 C 
BRANCH   4   5
ATOM      5  C   UNL     1       0.096   4.148   8.053  1.00  0.00     0.000 C 
BRANCH   5   6
ATOM      6  C   UNL     1       0.475   4.925   6.775  1.00  0.00     0.006 C 
BRANCH   6   7
ATOM      7  C   UNL     1      -0.541   6.026   6.441  1.00  0.00     0.053 C 
BRANCH   7   8
ATOM      8  C   UNL     1      -0.711   6.152   4.960  1.00  0.00     0.041 C 
ATOM      9  O   UNL     1      -1.557   6.954   4.485  1.00  0.00    -0.550 OA
ATOM     10  O   UNL     1       0.030   5.346   4.105  1.00  0.00    -0.550 OA
ENDBRANCH   7   8
ENDBRANCH   6   7
ENDBRANCH   5   6
ENDBRANCH   4   5
ENDBRANCH   3   4
ENDBRANCH   2   3
ENDBRANCH   1   2
BRANCH   1  11
ATOM     11  C   UNL     1       0.912  -1.044   8.302  1.00  0.00     0.000 C 
BRANCH  11  12
ATOM     12  C   UNL     1       0.751  -1.405   6.821  1.00  0.00    -0.000 C 
BRANCH  12  13
ATOM     13  C   UNL     1       0.968  -2.908   6.595  1.00  0.00    -0.000 C 
BRANCH  13  14
ATOM     14  C   UNL     1       2.447  -3.273   6.373  1.00  0.00    -0.000 C 
BRANCH  14  15
ATOM     15  C   UNL     1       3.133  -2.531   5.210  1.00  0.00    -0.000 C 
BRANCH  15  16
ATOM     16  C   UNL     1       4.418  -1.764   5.588  1.00  0.00    -0.000 C 
BRANCH  16  17
ATOM     17  C   UNL     1       4.576  -1.475   7.091  1.00  0.00    -0.003 C 
ATOM     18  C   UNL     1       5.770  -2.196   7.713  1.00  0.00     0.004 C 
ENDBRANCH  16  17
ENDBRANCH  15  16
ENDBRANCH  14  15
ENDBRANCH  13  14
ENDBRANCH  12  13
ENDBRANCH  11  12
ENDBRANCH   1  11
TORSDOF 14
ENDMDL
MODEL 8
REMARK VINA RESULT:    -4.294      4.897      7.770
REMARK INTER + INTRA:          -8.792
REMARK INTER:                  -6.865
REMARK INTRA:                  -1.927
REMARK UNBOUND:                -0.984
REMARK SMILES CCCCCCCCCCCCCCCC(=O)[O-]
REMARK SMILES IDX 9 1 10 2 11 3 12 4 13 5 14 6 15 7 16 8 17 9 18 10 8 11 7 12
REMARK SMILES IDX 6 13 5 14 4 15 3 16 2 17 1 18
REMARK H PARENT
REMARK Flexibility Score: inf
ROOT
ATOM      1  C   UNL     1      -3.411  -2.456   7.200  1.00  0.00     0.000 C 
ENDROOT
BRANCH   1   2
ATOM      2  C   UNL     1      -4.714  -2.184   6.434  1.00  0.00     0.000 C 
BRANCH   2   3
ATOM      3  C   UNL     1      -4.591  -1.001   5.462  1.00  0.00     0.000 C 
BRANCH   3   4
ATOM      4  C   UNL     1      -4.328  -1.488   4.031  1.00  0.00     0.000 C 
BRANCH   4   5
ATOM      5  C   UNL     1      -2.831  -1.673   3.727  1.00  0.00     0.000 C 
BRANCH   5   6
ATOM      6  C   UNL     1      -2.485  -3.061   3.148  1.00  0.00     0.006 C 
BRANCH   6   7
ATOM      7  C   UNL     1      -3.655  -4.048   3.264  1.00  0.00     0.053 C 
BRANCH   7   8
ATOM      8  C   UNL     1      -4.012  -4.599   1.921  1.00  0.00     0.041 C 
ATOM      9  O   UNL     1      -3.152  -5.220   1.241  1.00  0.00    -0.550 OA
ATOM     10  O   UNL     1      -5.281  -4.385   1.397  1.00  0.00    -0.550 OA
ENDBRANCH   7   8
ENDBRANCH   6   7
ENDBRANCH   5   6
ENDBRANCH   4   5
ENDBRANCH   3   4
ENDBRANCH   2   3
ENDBRANCH   1   2
BRANCH   1  11
ATOM     11  C   UNL     1      -2.973  -3.927   7.121  1.00  0.00     0.000 C 
BRANCH  11  12
ATOM     12  C   UNL     1      -1.567  -4.051   6.522  1.00  0.00    -0.000 C 
BRANCH  12  13
ATOM     13  C   UNL     1      -0.789  -2.735   6.671  1.00  0.00    -0.000 C 
BRANCH  13  14
ATOM     14  C   UNL     1       0.246  -2.523   5.552  1.00  0.00    -0.000 C 
BRANCH  14  15
ATOM     15  C   UNL     1       0.817  -1.094   5.456  1.00  0.00    -0.000 C 
BRANCH  15  16
ATOM     16  C   UNL     1       2.197  -0.893   6.116  1.00  0.00    -0.000 C 
BRANCH  16  17
ATOM     17  C   UNL     1       3.131  -2.114   6.042  1.00  0.00    -0.003 C 
ATOM     18  C   UNL     1       3.685  -2.355   4.639  1.00  0.00     0.004 C 
ENDBRANCH  16  17
ENDBRANCH  15  16
ENDBRANCH  14  15
ENDBRANCH  13  14
ENDBRANCH  12  13
ENDBRANCH  11  12
ENDBRANCH   1  11
TORSDOF 14
ENDMDL
MODEL 9
REMARK VINA RESULT:    -4.203      4.333      5.525
REMARK INTER + INTRA:          -8.627
REMARK INTER:                  -7.139
REMARK INTRA:                  -1.488
REMARK UNBOUND:                -0.984
REMARK SMILES CCCCCCCCCCCCCCCC(=O)[O-]
REMARK SMILES IDX 9 1 10 2 11 3 12 4 13 5 14 6 15 7 16 8 17 9 18 10 8 11 7 12
REMARK SMILES IDX 6 13 5 14 4 15 3 16 2 17 1 18
REMARK H PARENT
REMARK Flexibility Score: inf
ROOT
ATOM      1  C   UNL     1      -2.442  -3.576   5.777  1.00  0.00     0.000 C 
ENDROOT
BRANCH   1   2
ATOM      2  C   UNL     1      -1.016  -3.655   6.342  1.00  0.00     0.000 C 
BRANCH   2   3
ATOM      3  C   UNL     1      -0.401  -2.269   6.589  1.00  0.00     0.000 C 
BRANCH   3   4
ATOM      4  C   UNL     1       0.459  -1.827   5.398  1.00  0.00     0.000 C 
BRANCH   4   5
ATOM      5  C   UNL     1       1.404  -0.662   5.740  1.00  0.00     0.000 C 
BRANCH   5   6
ATOM      6  C   UNL     1       2.835  -1.113   6.103  1.00  0.00     0.006 C 
BRANCH   6   7
ATOM      7  C   UNL     1       3.120  -2.553   5.659  1.00  0.00     0.053 C 
BRANCH   7   8
ATOM      8  C   UNL     1       3.195  -3.463   6.843  1.00  0.00     0.041 C 
ATOM      9  O   UNL     1       4.002  -3.221   7.779  1.00  0.00    -0.550 OA
ATOM     10  O   UNL     1       2.409  -4.608   6.891  1.00  0.00    -0.550 OA
ENDBRANCH   7   8
ENDBRANCH   6   7
ENDBRANCH   5   6
ENDBRANCH   4   5
ENDBRANCH   3   4
ENDBRANCH   2   3
ENDBRANCH   1   2
BRANCH   1  11
ATOM     11  C   UNL     1      -2.578  -4.267   4.411  1.00  0.00     0.000 C 
BRANCH  11  12
ATOM     12  C   UNL     1      -3.010  -3.269   3.331  1.00  0.00    -0.000 C 
BRANCH  12  13
ATOM     13  C   UNL     1      -2.793  -1.823   3.800  1.00  0.00    -0.000 C 
BRANCH  13  14
ATOM     14  C   UNL     1      -4.108  -1.038   3.950  1.00  0.00    -0.000 C 
BRANCH  14  15
ATOM     15  C   UNL     1      -5.373  -1.908   4.086  1.00  0.00    -0.000 C 
BRANCH  15  16
ATOM     16  C   UNL     1      -5.990  -1.953   5.500  1.00  0.00    -0.000 C 
BRANCH  16  17
ATOM     17  C   UNL     1      -5.255  -1.102   6.550  1.00  0.00    -0.003 C 
ATOM     18  C   UNL     1      -6.022   0.161   6.936  1.00  0.00     0.004 C 
ENDBRANCH  16  17
ENDBRANCH  15  16
ENDBRANCH  14  15
ENDBRANCH  13  14
ENDBRANCH  12  13
ENDBRANCH  11  12
ENDBRANCH   1  11
TORSDOF 14
ENDMDL
