MODEL 1
REMARK VINA RESULT:    -4.501      0.000      0.000
REMARK INTER + INTRA:          -5.210
REMARK INTER:                  -5.159
REMARK INTRA:                  -0.051
REMARK UNBOUND:                -0.051
REMARK SMILES O=C([O-])c1cc(O)c(O)c(O)c1
REMARK SMILES IDX 4 1 5 2 12 3 6 4 10 5 8 6 2 7 1 8 3 9 7 10 11 12 9 14
REMARK H PARENT 7 11 11 13 9 15
REMARK Flexibility Score: inf
ROOT
ATOM      1  C   UNL     1     134.050 102.131  94.164  1.00  0.00     0.005 A 
ATOM      2  C   UNL     1     134.265 102.816  95.373  1.00  0.00     0.060 A 
ATOM      3  C   UNL     1     132.807 102.257  93.521  1.00  0.00     0.060 A 
ATOM      4  C   UNL     1     133.256 103.613  95.930  1.00  0.00     0.162 A 
ATOM      5  C   UNL     1     131.796 103.050  94.071  1.00  0.00     0.162 A 
ATOM      6  C   UNL     1     132.016 103.732  95.279  1.00  0.00     0.200 A 
ENDROOT
BRANCH   1   7
ATOM      7  C   UNL     1     135.114 101.290  93.574  1.00  0.00     0.072 C 
ATOM      8  O   UNL     1     135.174 101.112  92.328  1.00  0.00    -0.545 OA
ATOM      9  O   UNL     1     136.066 100.684  94.387  1.00  0.00    -0.545 OA
ENDBRANCH   1   7
BRANCH   4  10
ATOM     10  O   UNL     1     133.481 104.287  97.130  1.00  0.00    -0.504 OA
ATOM     11  H   UNL     1     133.460 105.299  97.183  1.00  0.00     0.293 HD
ENDBRANCH   4  10
BRANCH   5  12
ATOM     12  O   UNL     1     130.575 103.148  93.402  1.00  0.00    -0.504 OA
ATOM     13  H   UNL     1     129.979 102.345  93.247  1.00  0.00     0.293 HD
ENDBRANCH   5  12
BRANCH   6  14
ATOM     14  O   UNL     1     131.001 104.521  95.821  1.00  0.00    -0.502 OA
ATOM     15  H   UNL     1     131.041 104.878  96.768  1.00  0.00     0.293 HD
ENDBRANCH   6  14
TORSDOF 4
ENDMDL
MODEL 2
REMARK VINA RESULT:    -4.480      0.263      2.416
REMARK INTER + INTRA:          -5.185
REMARK INTER:                  -5.136
REMARK INTRA:                  -0.049
REMARK UNBOUND:                -0.051
REMARK SMILES O=C([O-])c1cc(O)c(O)c(O)c1
REMARK SMILES IDX 4 1 5 2 12 3 6 4 10 5 8 6 2 7 1 8 3 9 7 10 11 12 9 14
REMARK H PARENT 7 11 11 13 9 15
REMARK Flexibility Score: inf
ROOT
ATOM      1  C   UNL     1     134.079 102.127  94.159  1.00  0.00     0.005 A 
ATOM      2  C   UNL     1     132.767 102.057  93.659  1.00  0.00     0.060 A 
ATOM      3  C   UNL     1     134.362 103.014  95.211  1.00  0.00     0.060 A 
ATOM      4  C   UNL     1     131.754 102.860  94.200  1.00  0.00     0.162 A 
ATOM      5  C   UNL     1     133.356 103.819  95.756  1.00  0.00     0.162 A 
ATOM      6  C   UNL     1     132.047 103.746  95.251  1.00  0.00     0.200 A 
ENDROOT
BRANCH   1   7
ATOM      7  C   UNL     1     135.150 101.279  93.590  1.00  0.00     0.072 C 
ATOM      8  O   UNL     1     135.237 101.106  92.345  1.00  0.00    -0.545 OA
ATOM      9  O   UNL     1     136.077 100.661  94.422  1.00  0.00    -0.545 OA
ENDBRANCH   1   7
BRANCH   4  10
ATOM     10  O   UNL     1     130.457 102.783  93.695  1.00  0.00    -0.504 OA
ATOM     11  H   UNL     1     130.277 102.723  92.699  1.00  0.00     0.293 HD
ENDBRANCH   4  10
BRANCH   5  12
ATOM     12  O   UNL     1     133.678 104.688  96.799  1.00  0.00    -0.504 OA
ATOM     13  H   UNL     1     134.158 104.375  97.633  1.00  0.00     0.293 HD
ENDBRANCH   5  12
BRANCH   6  14
ATOM     14  O   UNL     1     131.050 104.552  95.801  1.00  0.00    -0.502 OA
ATOM     15  H   UNL     1     130.702 104.416  96.742  1.00  0.00     0.293 HD
ENDBRANCH   6  14
TORSDOF 4
ENDMDL
MODEL 3
REMARK VINA RESULT:    -4.432      6.801      8.543
REMARK INTER + INTRA:          -5.131
REMARK INTER:                  -5.083
REMARK INTRA:                  -0.048
REMARK UNBOUND:                -0.051
REMARK SMILES O=C([O-])c1cc(O)c(O)c(O)c1
REMARK SMILES IDX 4 1 5 2 12 3 6 4 10 5 8 6 2 7 1 8 3 9 7 10 11 12 9 14
REMARK H PARENT 7 11 11 13 9 15
REMARK Flexibility Score: inf
ROOT
ATOM      1  C   UNL     1     130.541  97.472  90.963  1.00  0.00     0.005 A 
ATOM      2  C   UNL     1     131.871  97.048  90.795  1.00  0.00     0.060 A 
ATOM      3  C   UNL     1     129.563  96.525  91.308  1.00  0.00     0.060 A 
ATOM      4  C   UNL     1     132.219  95.701  90.970  1.00  0.00     0.162 A 
ATOM      5  C   UNL     1     129.901  95.180  91.484  1.00  0.00     0.162 A 
ATOM      6  C   UNL     1     131.231  94.762  91.314  1.00  0.00     0.200 A 
ENDROOT
BRANCH   1   7
ATOM      7  C   UNL     1     130.174  98.893  90.780  1.00  0.00     0.072 C 
ATOM      8  O   UNL     1     129.215  99.216  90.030  1.00  0.00    -0.545 OA
ATOM      9  O   UNL     1     130.882  99.894  91.436  1.00  0.00    -0.545 OA
ENDBRANCH   1   7
BRANCH   4  10
ATOM     10  O   UNL     1     133.540  95.293  90.801  1.00  0.00    -0.504 OA
ATOM     11  H   UNL     1     134.221  95.373  91.548  1.00  0.00     0.293 HD
ENDBRANCH   4  10
BRANCH   5  12
ATOM     12  O   UNL     1     128.899  94.271  91.825  1.00  0.00    -0.504 OA
ATOM     13  H   UNL     1     127.958  94.341  91.457  1.00  0.00     0.293 HD
ENDBRANCH   5  12
BRANCH   6  14
ATOM     14  O   UNL     1     131.560  93.417  91.491  1.00  0.00    -0.502 OA
ATOM     15  H   UNL     1     130.856  92.701  91.617  1.00  0.00     0.293 HD
ENDBRANCH   6  14
TORSDOF 4
ENDMDL
MODEL 4
REMARK VINA RESULT:    -4.413      6.828      8.761
REMARK INTER + INTRA:          -5.109
REMARK INTER:                  -5.059
REMARK INTRA:                  -0.050
REMARK UNBOUND:                -0.051
REMARK SMILES O=C([O-])c1cc(O)c(O)c(O)c1
REMARK SMILES IDX 4 1 5 2 12 3 6 4 10 5 8 6 2 7 1 8 3 9 7 10 11 12 9 14
REMARK H PARENT 7 11 11 13 9 15
REMARK Flexibility Score: inf
ROOT
ATOM      1  C   UNL     1     130.555  97.446  90.984  1.00  0.00     0.005 A 
ATOM      2  C   UNL     1     129.564  96.507  91.319  1.00  0.00     0.060 A 
ATOM      3  C   UNL     1     131.880  97.008  90.818  1.00  0.00     0.060 A 
ATOM      4  C   UNL     1     129.889  95.154  91.484  1.00  0.00     0.162 A 
ATOM      5  C   UNL     1     132.212  95.660  90.981  1.00  0.00     0.162 A 
ATOM      6  C   UNL     1     131.217  94.726  91.317  1.00  0.00     0.200 A 
ENDROOT
BRANCH   1   7
ATOM      7  C   UNL     1     130.213  98.874  90.807  1.00  0.00     0.072 C 
ATOM      8  O   UNL     1     131.028  99.775  91.141  1.00  0.00    -0.545 OA
ATOM      9  O   UNL     1     128.985  99.243  90.269  1.00  0.00    -0.545 OA
ENDBRANCH   1   7
BRANCH   4  10
ATOM     10  O   UNL     1     128.897  94.233  91.817  1.00  0.00    -0.504 OA
ATOM     11  H   UNL     1     128.033  94.168  91.290  1.00  0.00     0.293 HD
ENDBRANCH   4  10
BRANCH   5  12
ATOM     12  O   UNL     1     133.539  95.266  90.808  1.00  0.00    -0.504 OA
ATOM     13  H   UNL     1     133.834  94.690  90.029  1.00  0.00     0.293 HD
ENDBRANCH   5  12
BRANCH   6  14
ATOM     14  O   UNL     1     131.558  93.383  91.478  1.00  0.00    -0.502 OA
ATOM     15  H   UNL     1     130.988  92.742  92.017  1.00  0.00     0.293 HD
ENDBRANCH   6  14
TORSDOF 4
ENDMDL
MODEL 5
REMARK VINA RESULT:    -4.372      1.730      3.861
REMARK INTER + INTRA:          -5.062
REMARK INTER:                  -5.012
REMARK INTRA:                  -0.050
REMARK UNBOUND:                -0.051
REMARK SMILES O=C([O-])c1cc(O)c(O)c(O)c1
REMARK SMILES IDX 4 1 5 2 12 3 6 4 10 5 8 6 2 7 1 8 3 9 7 10 11 12 9 14
REMARK H PARENT 7 11 11 13 9 15
REMARK Flexibility Score: inf
ROOT
ATOM      1  C   UNL     1     132.363 102.862  94.031  1.00  0.00     0.005 A 
ATOM      2  C   UNL     1     133.569 102.987  93.320  1.00  0.00     0.060 A 
ATOM      3  C   UNL     1     132.330 103.224  95.387  1.00  0.00     0.060 A 
ATOM      4  C   UNL     1     134.724 103.468  93.952  1.00  0.00     0.162 A 
ATOM      5  C   UNL     1     133.477 103.704  96.026  1.00  0.00     0.162 A 
ATOM      6  C   UNL     1     134.680 103.827  95.311  1.00  0.00     0.200 A 
ENDROOT
BRANCH   1   7
ATOM      7  C   UNL     1     131.143 102.356  93.363  1.00  0.00     0.072 C 
ATOM      8  O   UNL     1     130.004 102.767  93.711  1.00  0.00    -0.545 OA
ATOM      9  O   UNL     1     131.237 101.418  92.340  1.00  0.00    -0.545 OA
ENDBRANCH   1   7
BRANCH   4  10
ATOM     10  O   UNL     1     135.914 103.588  93.238  1.00  0.00    -0.504 OA
ATOM     11  H   UNL     1     136.358 102.785  92.806  1.00  0.00     0.293 HD
ENDBRANCH   4  10
BRANCH   5  12
ATOM     12  O   UNL     1     133.404 104.053  97.375  1.00  0.00    -0.504 OA
ATOM     13  H   UNL     1     133.995 104.768  97.780  1.00  0.00     0.293 HD
ENDBRANCH   5  12
BRANCH   6  14
ATOM     14  O   UNL     1     135.821 104.307  95.956  1.00  0.00    -0.502 OA
ATOM     15  H   UNL     1     136.406 103.713  96.531  1.00  0.00     0.293 HD
ENDBRANCH   6  14
TORSDOF 4
ENDMDL
MODEL 6
REMARK VINA RESULT:    -4.357      1.738      3.556
REMARK INTER + INTRA:          -5.044
REMARK INTER:                  -4.994
REMARK INTRA:                  -0.050
REMARK UNBOUND:                -0.051
REMARK SMILES O=C([O-])c1cc(O)c(O)c(O)c1
REMARK SMILES IDX 4 1 5 2 12 3 6 4 10 5 8 6 2 7 1 8 3 9 7 10 11 12 9 14
REMARK H PARENT 7 11 11 13 9 15
REMARK Flexibility Score: inf
ROOT
ATOM      1  C   UNL     1     132.325 102.855  94.044  1.00  0.00     0.005 A 
ATOM      2  C   UNL     1     132.286 103.210  95.404  1.00  0.00     0.060 A 
ATOM      3  C   UNL     1     133.531 102.994  93.338  1.00  0.00     0.060 A 
ATOM      4  C   UNL     1     133.432 103.696  96.048  1.00  0.00     0.162 A 
ATOM      5  C   UNL     1     134.679 103.478  93.973  1.00  0.00     0.162 A 
ATOM      6  C   UNL     1     134.634 103.832  95.332  1.00  0.00     0.200 A 
ENDROOT
BRANCH   1   7
ATOM      7  C   UNL     1     131.116 102.341  93.364  1.00  0.00     0.072 C 
ATOM      8  O   UNL     1     131.214 101.496  92.434  1.00  0.00    -0.545 OA
ATOM      9  O   UNL     1     129.853 102.782  93.742  1.00  0.00    -0.545 OA
ENDBRANCH   1   7
BRANCH   4  10
ATOM     10  O   UNL     1     133.381 104.045  97.396  1.00  0.00    -0.504 OA
ATOM     11  H   UNL     1     134.147 103.839  98.028  1.00  0.00     0.293 HD
ENDBRANCH   4  10
BRANCH   5  12
ATOM     12  O   UNL     1     135.857 103.602  93.236  1.00  0.00    -0.504 OA
ATOM     13  H   UNL     1     136.703 103.104  93.482  1.00  0.00     0.293 HD
ENDBRANCH   5  12
BRANCH   6  14
ATOM     14  O   UNL     1     135.784 104.315  95.958  1.00  0.00    -0.502 OA
ATOM     15  H   UNL     1     136.198 105.206  95.714  1.00  0.00     0.293 HD
ENDBRANCH   6  14
TORSDOF 4
ENDMDL
MODEL 7
REMARK VINA RESULT:    -4.209      1.448      1.971
REMARK INTER + INTRA:          -4.876
REMARK INTER:                  -4.828
REMARK INTRA:                  -0.048
REMARK UNBOUND:                -0.051
REMARK SMILES O=C([O-])c1cc(O)c(O)c(O)c1
REMARK SMILES IDX 4 1 5 2 12 3 6 4 10 5 8 6 2 7 1 8 3 9 7 10 11 12 9 14
REMARK H PARENT 7 11 11 13 9 15
REMARK Flexibility Score: inf
ROOT
ATOM      1  C   UNL     1     134.556 102.181  93.591  1.00  0.00     0.005 A 
ATOM      2  C   UNL     1     135.449 103.009  94.293  1.00  0.00     0.060 A 
ATOM      3  C   UNL     1     133.237 102.052  94.056  1.00  0.00     0.060 A 
ATOM      4  C   UNL     1     135.032 103.698  95.440  1.00  0.00     0.162 A 
ATOM      5  C   UNL     1     132.813 102.736  95.199  1.00  0.00     0.162 A 
ATOM      6  C   UNL     1     133.710 103.562  95.897  1.00  0.00     0.200 A 
ENDROOT
BRANCH   1   7
ATOM      7  C   UNL     1     134.996 101.455  92.379  1.00  0.00     0.072 C 
ATOM      8  O   UNL     1     134.787 100.218  92.262  1.00  0.00    -0.545 OA
ATOM      9  O   UNL     1     135.646 102.128  91.351  1.00  0.00    -0.545 OA
ENDBRANCH   1   7
BRANCH   4  10
ATOM     10  O   UNL     1     135.926 104.516  96.128  1.00  0.00    -0.504 OA
ATOM     11  H   UNL     1     136.292 104.256  97.038  1.00  0.00     0.293 HD
ENDBRANCH   4  10
BRANCH   5  12
ATOM     12  O   UNL     1     131.495 102.580  95.628  1.00  0.00    -0.504 OA
ATOM     13  H   UNL     1     130.907 101.823  95.302  1.00  0.00     0.293 HD
ENDBRANCH   5  12
BRANCH   6  14
ATOM     14  O   UNL     1     133.278 104.240  97.038  1.00  0.00    -0.502 OA
ATOM     15  H   UNL     1     133.151 105.244  97.054  1.00  0.00     0.293 HD
ENDBRANCH   6  14
TORSDOF 4
ENDMDL
MODEL 8
REMARK VINA RESULT:    -4.198      1.409      2.870
REMARK INTER + INTRA:          -4.862
REMARK INTER:                  -4.816
REMARK INTRA:                  -0.046
REMARK UNBOUND:                -0.051
REMARK SMILES O=C([O-])c1cc(O)c(O)c(O)c1
REMARK SMILES IDX 4 1 5 2 12 3 6 4 10 5 8 6 2 7 1 8 3 9 7 10 11 12 9 14
REMARK H PARENT 7 11 11 13 9 15
REMARK Flexibility Score: inf
ROOT
ATOM      1  C   UNL     1     134.696 102.147  93.623  1.00  0.00     0.005 A 
ATOM      2  C   UNL     1     133.364 101.987  94.045  1.00  0.00     0.060 A 
ATOM      3  C   UNL     1     135.538 103.012  94.340  1.00  0.00     0.060 A 
ATOM      4  C   UNL     1     132.882 102.677  95.165  1.00  0.00     0.162 A 
ATOM      5  C   UNL     1     135.066 103.705  95.459  1.00  0.00     0.162 A 
ATOM      6  C   UNL     1     133.734 103.541  95.876  1.00  0.00     0.200 A 
ENDROOT
BRANCH   1   7
ATOM      7  C   UNL     1     135.205 101.417  92.441  1.00  0.00     0.072 C 
ATOM      8  O   UNL     1     135.311 100.162  92.459  1.00  0.00    -0.545 OA
ATOM      9  O   UNL     1     135.575 102.108  91.292  1.00  0.00    -0.545 OA
ENDBRANCH   1   7
BRANCH   4  10
ATOM     10  O   UNL     1     131.561 102.511  95.574  1.00  0.00    -0.504 OA
ATOM     11  H   UNL     1     130.789 102.920  95.058  1.00  0.00     0.293 HD
ENDBRANCH   4  10
BRANCH   5  12
ATOM     12  O   UNL     1     135.935 104.555  96.144  1.00  0.00    -0.504 OA
ATOM     13  H   UNL     1     136.542 104.224  96.883  1.00  0.00     0.293 HD
ENDBRANCH   5  12
BRANCH   6  14
ATOM     14  O   UNL     1     133.270 104.237  96.993  1.00  0.00    -0.502 OA
ATOM     15  H   UNL     1     133.647 105.137  97.264  1.00  0.00     0.293 HD
ENDBRANCH   6  14
TORSDOF 4
ENDMDL
MODEL 9
REMARK VINA RESULT:    -4.158      1.419      3.056
REMARK INTER + INTRA:          -4.817
REMARK INTER:                  -4.768
REMARK INTRA:                  -0.050
REMARK UNBOUND:                -0.051
REMARK SMILES O=C([O-])c1cc(O)c(O)c(O)c1
REMARK SMILES IDX 4 1 5 2 12 3 6 4 10 5 8 6 2 7 1 8 3 9 7 10 11 12 9 14
REMARK H PARENT 7 11 11 13 9 15
REMARK Flexibility Score: inf
ROOT
ATOM      1  C   UNL     1     133.008 102.339  93.377  1.00  0.00     0.005 A 
ATOM      2  C   UNL     1     131.930 102.932  94.056  1.00  0.00     0.060 A 
ATOM      3  C   UNL     1     134.312 102.541  93.860  1.00  0.00     0.060 A 
ATOM      4  C   UNL     1     132.148 103.713  95.199  1.00  0.00     0.162 A 
ATOM      5  C   UNL     1     134.539 103.319  94.999  1.00  0.00     0.162 A 
ATOM      6  C   UNL     1     133.457 103.909  95.673  1.00  0.00     0.200 A 
ENDROOT
BRANCH   1   7
ATOM      7  C   UNL     1     132.779 101.513  92.171  1.00  0.00     0.072 C 
ATOM      8  O   UNL     1     133.464 100.476  91.963  1.00  0.00    -0.545 OA
ATOM      9  O   UNL     1     131.800 101.869  91.249  1.00  0.00    -0.545 OA
ENDBRANCH   1   7
BRANCH   4  10
ATOM     10  O   UNL     1     131.071 104.296  95.863  1.00  0.00    -0.504 OA
ATOM     11  H   UNL     1     131.202 105.051  96.528  1.00  0.00     0.293 HD
ENDBRANCH   4  10
BRANCH   5  12
ATOM     12  O   UNL     1     135.848 103.496  95.446  1.00  0.00    -0.504 OA
ATOM     13  H   UNL     1     136.454 104.216  95.071  1.00  0.00     0.293 HD
ENDBRANCH   5  12
BRANCH   6  14
ATOM     14  O   UNL     1     133.692 104.685  96.810  1.00  0.00    -0.502 OA
ATOM     15  H   UNL     1     134.556 105.196  96.946  1.00  0.00     0.293 HD
ENDBRANCH   6  14
TORSDOF 4
ENDMDL
