MODEL 1
REMARK VINA RESULT:    -5.537      0.000      0.000
REMARK INTER + INTRA:          -7.021
REMARK INTER:                  -6.832
REMARK INTRA:                  -0.189
REMARK UNBOUND:                -0.189
REMARK SMILES [NH3+][C@H](Cc1ccc(O)cc1)C(=O)[O-]
REMARK SMILES IDX 3 1 2 2 1 3 11 7 12 8 13 9 4 10 5 11 10 12 6 13 9 14 7 15
REMARK SMILES IDX 8 16
REMARK H PARENT 1 4 1 5 1 6 8 17
REMARK Flexibility Score: inf
ROOT
ATOM      1  C   UNL     1      -6.481   0.406  -0.721  1.00  0.00     0.107 C 
ENDROOT
BRANCH   1   2
ATOM      2  C   UNL     1      -5.770  -0.504   0.302  1.00  0.00     0.232 C 
BRANCH   2   3
ATOM      3  N   UNL     1      -6.735  -1.233   1.136  1.00  0.00    -0.350 N 
ATOM      4  H   UNL     1      -6.774  -2.242   0.863  1.00  0.00     0.345 HD
ATOM      5  H   UNL     1      -6.461  -1.162   2.143  1.00  0.00     0.345 HD
ATOM      6  H   UNL     1      -7.687  -0.812   1.034  1.00  0.00     0.345 HD
ENDBRANCH   2   3
BRANCH   2   7
ATOM      7  C   UNL     1      -4.876  -1.475  -0.421  1.00  0.00     0.099 C 
ATOM      8  O   UNL     1      -3.932  -1.052  -1.139  1.00  0.00    -0.544 OA
ATOM      9  O   UNL     1      -5.098  -2.843  -0.319  1.00  0.00    -0.544 OA
ENDBRANCH   2   7
ENDBRANCH   1   2
BRANCH   1  10
ATOM     10  C   UNL     1      -6.529   1.841  -0.260  1.00  0.00    -0.041 A 
ATOM     11  C   UNL     1      -7.281   2.792  -0.968  1.00  0.00     0.008 A 
ATOM     12  C   UNL     1      -5.849   2.230   0.906  1.00  0.00     0.008 A 
ATOM     13  C   UNL     1      -7.342   4.116  -0.523  1.00  0.00     0.046 A 
ATOM     14  C   UNL     1      -5.910   3.556   1.348  1.00  0.00     0.046 A 
ATOM     15  C   UNL     1      -6.656   4.501   0.637  1.00  0.00     0.115 A 
BRANCH  15  16
ATOM     16  O   UNL     1      -6.709   5.818   1.090  1.00  0.00    -0.508 OA
ATOM     17  H   UNL     1      -7.541   6.193   1.530  1.00  0.00     0.293 HD
ENDBRANCH  15  16
ENDBRANCH   1  10
TORSDOF 5
ENDMDL
MODEL 2
REMARK VINA RESULT:    -5.512      0.061      1.345
REMARK INTER + INTRA:          -6.989
REMARK INTER:                  -6.818
REMARK INTRA:                  -0.172
REMARK UNBOUND:                -0.189
REMARK SMILES [NH3+][C@H](Cc1ccc(O)cc1)C(=O)[O-]
REMARK SMILES IDX 3 1 2 2 1 3 11 7 12 8 13 9 4 10 5 11 10 12 6 13 9 14 7 15
REMARK SMILES IDX 8 16
REMARK H PARENT 1 4 1 5 1 6 8 17
REMARK Flexibility Score: inf
ROOT
ATOM      1  C   UNL     1      -6.425   0.417  -0.731  1.00  0.00     0.107 C 
ENDROOT
BRANCH   1   2
ATOM      2  C   UNL     1      -5.760  -0.511   0.307  1.00  0.00     0.232 C 
BRANCH   2   3
ATOM      3  N   UNL     1      -6.762  -1.217   1.118  1.00  0.00    -0.350 N 
ATOM      4  H   UNL     1      -6.566  -2.245   1.138  1.00  0.00     0.345 HD
ATOM      5  H   UNL     1      -6.752  -0.848   2.096  1.00  0.00     0.345 HD
ATOM      6  H   UNL     1      -7.718  -1.057   0.726  1.00  0.00     0.345 HD
ENDBRANCH   2   3
BRANCH   2   7
ATOM      7  C   UNL     1      -4.874  -1.503  -0.397  1.00  0.00     0.099 C 
ATOM      8  O   UNL     1      -3.889  -1.104  -1.074  1.00  0.00    -0.544 OA
ATOM      9  O   UNL     1      -5.147  -2.864  -0.324  1.00  0.00    -0.544 OA
ENDBRANCH   2   7
ENDBRANCH   1   2
BRANCH   1  10
ATOM     10  C   UNL     1      -6.533   1.835  -0.230  1.00  0.00    -0.041 A 
ATOM     11  C   UNL     1      -5.907   2.217   0.967  1.00  0.00     0.008 A 
ATOM     12  C   UNL     1      -7.233   2.796  -0.978  1.00  0.00     0.008 A 
ATOM     13  C   UNL     1      -5.990   3.539   1.415  1.00  0.00     0.046 A 
ATOM     14  C   UNL     1      -7.315   4.117  -0.527  1.00  0.00     0.046 A 
ATOM     15  C   UNL     1      -6.695   4.492   0.669  1.00  0.00     0.115 A 
BRANCH  15  16
ATOM     16  O   UNL     1      -6.785   5.813   1.106  1.00  0.00    -0.508 OA
ATOM     17  H   UNL     1      -7.172   6.045   2.013  1.00  0.00     0.293 HD
ENDBRANCH  15  16
ENDBRANCH   1  10
TORSDOF 5
ENDMDL
MODEL 3
REMARK VINA RESULT:    -5.374      2.151      5.293
REMARK INTER + INTRA:          -6.820
REMARK INTER:                  -6.976
REMARK INTRA:                   0.156
REMARK UNBOUND:                -0.189
REMARK SMILES [NH3+][C@H](Cc1ccc(O)cc1)C(=O)[O-]
REMARK SMILES IDX 3 1 2 2 1 3 11 7 12 8 13 9 4 10 5 11 10 12 6 13 9 14 7 15
REMARK SMILES IDX 8 16
REMARK H PARENT 1 4 1 5 1 6 8 17
REMARK Flexibility Score: inf
ROOT
ATOM      1  C   UNL     1      -7.673   1.572   0.505  1.00  0.00     0.107 C 
ENDROOT
BRANCH   1   2
ATOM      2  C   UNL     1      -7.008   2.951   0.317  1.00  0.00     0.232 C 
BRANCH   2   3
ATOM      3  N   UNL     1      -5.605   2.936   0.754  1.00  0.00    -0.350 N 
ATOM      4  H   UNL     1      -5.436   3.663   1.487  1.00  0.00     0.345 HD
ATOM      5  H   UNL     1      -5.363   1.996   1.142  1.00  0.00     0.345 HD
ATOM      6  H   UNL     1      -4.974   3.116  -0.061  1.00  0.00     0.345 HD
ENDBRANCH   2   3
BRANCH   2   7
ATOM      7  C   UNL     1      -7.094   3.361  -1.129  1.00  0.00     0.099 C 
ATOM      8  O   UNL     1      -8.080   3.009  -1.829  1.00  0.00    -0.544 OA
ATOM      9  O   UNL     1      -6.079   4.113  -1.706  1.00  0.00    -0.544 OA
ENDBRANCH   2   7
ENDBRANCH   1   2
BRANCH   1  10
ATOM     10  C   UNL     1      -6.677   0.446   0.378  1.00  0.00    -0.041 A 
ATOM     11  C   UNL     1      -6.405  -0.391   1.473  1.00  0.00     0.008 A 
ATOM     12  C   UNL     1      -6.040   0.202  -0.850  1.00  0.00     0.008 A 
ATOM     13  C   UNL     1      -5.499  -1.448   1.344  1.00  0.00     0.046 A 
ATOM     14  C   UNL     1      -5.133  -0.855  -0.976  1.00  0.00     0.046 A 
ATOM     15  C   UNL     1      -4.861  -1.682   0.119  1.00  0.00     0.115 A 
BRANCH  15  16
ATOM     16  O   UNL     1      -3.956  -2.733  -0.022  1.00  0.00    -0.508 OA
ATOM     17  H   UNL     1      -4.268  -3.693  -0.100  1.00  0.00     0.293 HD
ENDBRANCH  15  16
ENDBRANCH   1  10
TORSDOF 5
ENDMDL
MODEL 4
REMARK VINA RESULT:    -5.277      2.112      5.126
REMARK INTER + INTRA:          -6.700
REMARK INTER:                  -6.870
REMARK INTRA:                   0.170
REMARK UNBOUND:                -0.189
REMARK SMILES [NH3+][C@H](Cc1ccc(O)cc1)C(=O)[O-]
REMARK SMILES IDX 3 1 2 2 1 3 11 7 12 8 13 9 4 10 5 11 10 12 6 13 9 14 7 15
REMARK SMILES IDX 8 16
REMARK H PARENT 1 4 1 5 1 6 8 17
REMARK Flexibility Score: inf
ROOT
ATOM      1  C   UNL     1      -7.692   1.605   0.687  1.00  0.00     0.107 C 
ENDROOT
BRANCH   1   2
ATOM      2  C   UNL     1      -6.997   2.972   0.518  1.00  0.00     0.232 C 
BRANCH   2   3
ATOM      3  N   UNL     1      -5.573   2.899   0.875  1.00  0.00    -0.350 N 
ATOM      4  H   UNL     1      -5.448   2.932   1.913  1.00  0.00     0.345 HD
ATOM      5  H   UNL     1      -5.160   2.011   0.509  1.00  0.00     0.345 HD
ATOM      6  H   UNL     1      -5.054   3.696   0.440  1.00  0.00     0.345 HD
ENDBRANCH   2   3
BRANCH   2   7
ATOM      7  C   UNL     1      -7.149   3.443  -0.904  1.00  0.00     0.099 C 
ATOM      8  O   UNL     1      -6.157   3.908  -1.526  1.00  0.00    -0.544 OA
ATOM      9  O   UNL     1      -8.387   3.388  -1.532  1.00  0.00    -0.544 OA
ENDBRANCH   2   7
ENDBRANCH   1   2
BRANCH   1  10
ATOM     10  C   UNL     1      -6.733   0.458   0.491  1.00  0.00    -0.041 A 
ATOM     11  C   UNL     1      -6.138   0.233  -0.760  1.00  0.00     0.008 A 
ATOM     12  C   UNL     1      -6.400  -0.375   1.572  1.00  0.00     0.008 A 
ATOM     13  C   UNL     1      -5.231  -0.818  -0.931  1.00  0.00     0.046 A 
ATOM     14  C   UNL     1      -5.494  -1.426   1.399  1.00  0.00     0.046 A 
ATOM     15  C   UNL     1      -4.908  -1.650   0.149  1.00  0.00     0.115 A 
BRANCH  15  16
ATOM     16  O   UNL     1      -4.005  -2.701  -0.009  1.00  0.00    -0.508 OA
ATOM     17  H   UNL     1      -3.085  -2.676   0.413  1.00  0.00     0.293 HD
ENDBRANCH  15  16
ENDBRANCH   1  10
TORSDOF 5
ENDMDL
MODEL 5
REMARK VINA RESULT:    -5.240      2.463      5.476
REMARK INTER + INTRA:          -6.654
REMARK INTER:                  -6.453
REMARK INTRA:                  -0.201
REMARK UNBOUND:                -0.189
REMARK SMILES [NH3+][C@H](Cc1ccc(O)cc1)C(=O)[O-]
REMARK SMILES IDX 3 1 2 2 1 3 11 7 12 8 13 9 4 10 5 11 10 12 6 13 9 14 7 15
REMARK SMILES IDX 8 16
REMARK H PARENT 1 4 1 5 1 6 8 17
REMARK Flexibility Score: inf
ROOT
ATOM      1  C   UNL     1      -6.785   2.379   1.365  1.00  0.00     0.107 C 
ENDROOT
BRANCH   1   2
ATOM      2  C   UNL     1      -5.597   3.291   1.738  1.00  0.00     0.232 C 
BRANCH   2   3
ATOM      3  N   UNL     1      -5.634   4.555   0.991  1.00  0.00    -0.350 N 
ATOM      4  H   UNL     1      -4.955   5.243   1.390  1.00  0.00     0.345 HD
ATOM      5  H   UNL     1      -5.395   4.382  -0.013  1.00  0.00     0.345 HD
ATOM      6  H   UNL     1      -6.596   4.963   1.023  1.00  0.00     0.345 HD
ENDBRANCH   2   3
BRANCH   2   7
ATOM      7  C   UNL     1      -5.617   3.565   3.218  1.00  0.00     0.099 C 
ATOM      8  O   UNL     1      -6.327   4.497   3.680  1.00  0.00    -0.544 OA
ATOM      9  O   UNL     1      -4.835   2.808   4.082  1.00  0.00    -0.544 OA
ENDBRANCH   2   7
ENDBRANCH   1   2
BRANCH   1  10
ATOM     10  C   UNL     1      -6.326   1.022   0.894  1.00  0.00    -0.041 A 
ATOM     11  C   UNL     1      -5.753   0.866  -0.379  1.00  0.00     0.008 A 
ATOM     12  C   UNL     1      -6.435  -0.093   1.741  1.00  0.00     0.008 A 
ATOM     13  C   UNL     1      -5.308  -0.390  -0.802  1.00  0.00     0.046 A 
ATOM     14  C   UNL     1      -5.990  -1.348   1.314  1.00  0.00     0.046 A 
ATOM     15  C   UNL     1      -5.426  -1.500   0.044  1.00  0.00     0.115 A 
BRANCH  15  16
ATOM     16  O   UNL     1      -4.985  -2.757  -0.367  1.00  0.00    -0.508 OA
ATOM     17  H   UNL     1      -4.058  -2.892  -0.755  1.00  0.00     0.293 HD
ENDBRANCH  15  16
ENDBRANCH   1  10
TORSDOF 5
ENDMDL
MODEL 6
REMARK VINA RESULT:    -5.219      2.296      5.446
REMARK INTER + INTRA:          -6.629
REMARK INTER:                  -6.427
REMARK INTRA:                  -0.202
REMARK UNBOUND:                -0.189
REMARK SMILES [NH3+][C@H](Cc1ccc(O)cc1)C(=O)[O-]
REMARK SMILES IDX 3 1 2 2 1 3 11 7 12 8 13 9 4 10 5 11 10 12 6 13 9 14 7 15
REMARK SMILES IDX 8 16
REMARK H PARENT 1 4 1 5 1 6 8 17
REMARK Flexibility Score: inf
ROOT
ATOM      1  C   UNL     1      -7.069   2.599   0.441  1.00  0.00     0.107 C 
ENDROOT
BRANCH   1   2
ATOM      2  C   UNL     1      -5.932   3.516   0.939  1.00  0.00     0.232 C 
BRANCH   2   3
ATOM      3  N   UNL     1      -5.917   4.795   0.216  1.00  0.00    -0.350 N 
ATOM      4  H   UNL     1      -5.075   5.359   0.477  1.00  0.00     0.345 HD
ATOM      5  H   UNL     1      -5.905   4.621  -0.815  1.00  0.00     0.345 HD
ATOM      6  H   UNL     1      -6.780   5.342   0.438  1.00  0.00     0.345 HD
ENDBRANCH   2   3
BRANCH   2   7
ATOM      7  C   UNL     1      -6.090   3.759   2.416  1.00  0.00     0.099 C 
ATOM      8  O   UNL     1      -7.009   4.508   2.840  1.00  0.00    -0.544 OA
ATOM      9  O   UNL     1      -5.210   3.176   3.321  1.00  0.00    -0.544 OA
ENDBRANCH   2   7
ENDBRANCH   1   2
BRANCH   1  10
ATOM     10  C   UNL     1      -6.606   1.176   0.260  1.00  0.00    -0.041 A 
ATOM     11  C   UNL     1      -7.249   0.126   0.936  1.00  0.00     0.008 A 
ATOM     12  C   UNL     1      -5.547   0.884  -0.615  1.00  0.00     0.008 A 
ATOM     13  C   UNL     1      -6.831  -1.195   0.747  1.00  0.00     0.046 A 
ATOM     14  C   UNL     1      -5.130  -0.438  -0.802  1.00  0.00     0.046 A 
ATOM     15  C   UNL     1      -5.770  -1.479  -0.123  1.00  0.00     0.115 A 
BRANCH  15  16
ATOM     16  O   UNL     1      -5.345  -2.792  -0.319  1.00  0.00    -0.508 OA
ATOM     17  H   UNL     1      -4.732  -3.041  -1.087  1.00  0.00     0.293 HD
ENDBRANCH  15  16
ENDBRANCH   1  10
TORSDOF 5
ENDMDL
MODEL 7
REMARK VINA RESULT:    -5.184      2.984      5.250
REMARK INTER + INTRA:          -6.585
REMARK INTER:                  -6.357
REMARK INTRA:                  -0.228
REMARK UNBOUND:                -0.189
REMARK SMILES [NH3+][C@H](Cc1ccc(O)cc1)C(=O)[O-]
REMARK SMILES IDX 3 1 2 2 1 3 11 7 12 8 13 9 4 10 5 11 10 12 6 13 9 14 7 15
REMARK SMILES IDX 8 16
REMARK H PARENT 1 4 1 5 1 6 8 17
REMARK Flexibility Score: inf
ROOT
ATOM      1  C   UNL     1      -5.975   2.283  -0.375  1.00  0.00     0.107 C 
ENDROOT
BRANCH   1   2
ATOM      2  C   UNL     1      -6.687   3.616  -0.064  1.00  0.00     0.232 C 
BRANCH   2   3
ATOM      3  N   UNL     1      -5.821   4.768  -0.353  1.00  0.00    -0.350 N 
ATOM      4  H   UNL     1      -6.384   5.648  -0.417  1.00  0.00     0.345 HD
ATOM      5  H   UNL     1      -5.106   4.874   0.402  1.00  0.00     0.345 HD
ATOM      6  H   UNL     1      -5.314   4.618  -1.255  1.00  0.00     0.345 HD
ENDBRANCH   2   3
BRANCH   2   7
ATOM      7  C   UNL     1      -7.957   3.710  -0.867  1.00  0.00     0.099 C 
ATOM      8  O   UNL     1      -8.909   4.428  -0.463  1.00  0.00    -0.544 OA
ATOM      9  O   UNL     1      -8.095   2.989  -2.047  1.00  0.00    -0.544 OA
ENDBRANCH   2   7
ENDBRANCH   1   2
BRANCH   1  10
ATOM     10  C   UNL     1      -6.266   1.233   0.668  1.00  0.00    -0.041 A 
ATOM     11  C   UNL     1      -6.407   1.591   2.019  1.00  0.00     0.008 A 
ATOM     12  C   UNL     1      -6.434  -0.109   0.291  1.00  0.00     0.008 A 
ATOM     13  C   UNL     1      -6.700   0.618   2.979  1.00  0.00     0.046 A 
ATOM     14  C   UNL     1      -6.726  -1.081   1.253  1.00  0.00     0.046 A 
ATOM     15  C   UNL     1      -6.860  -0.721   2.597  1.00  0.00     0.115 A 
BRANCH  15  16
ATOM     16  O   UNL     1      -7.152  -1.700   3.546  1.00  0.00    -0.508 OA
ATOM     17  H   UNL     1      -6.878  -1.596   4.516  1.00  0.00     0.293 HD
ENDBRANCH  15  16
ENDBRANCH   1  10
TORSDOF 5
ENDMDL
MODEL 8
REMARK VINA RESULT:    -4.959      3.615      4.758
REMARK INTER + INTRA:          -6.308
REMARK INTER:                  -6.122
REMARK INTRA:                  -0.186
REMARK UNBOUND:                -0.189
REMARK SMILES [NH3+][C@H](Cc1ccc(O)cc1)C(=O)[O-]
REMARK SMILES IDX 3 1 2 2 1 3 11 7 12 8 13 9 4 10 5 11 10 12 6 13 9 14 7 15
REMARK SMILES IDX 8 16
REMARK H PARENT 1 4 1 5 1 6 8 17
REMARK Flexibility Score: inf
ROOT
ATOM      1  C   UNL     1      -6.168   2.457  -0.093  1.00  0.00     0.107 C 
ENDROOT
BRANCH   1   2
ATOM      2  C   UNL     1      -6.728   3.758  -0.703  1.00  0.00     0.232 C 
BRANCH   2   3
ATOM      3  N   UNL     1      -5.801   4.335  -1.686  1.00  0.00    -0.350 N 
ATOM      4  H   UNL     1      -4.910   3.788  -1.721  1.00  0.00     0.345 HD
ATOM      5  H   UNL     1      -6.241   4.332  -2.635  1.00  0.00     0.345 HD
ATOM      6  H   UNL     1      -5.586   5.328  -1.437  1.00  0.00     0.345 HD
ENDBRANCH   2   3
BRANCH   2   7
ATOM      7  C   UNL     1      -8.059   3.482  -1.349  1.00  0.00     0.099 C 
ATOM      8  O   UNL     1      -8.113   2.889  -2.459  1.00  0.00    -0.544 OA
ATOM      9  O   UNL     1      -9.236   3.896  -0.737  1.00  0.00    -0.544 OA
ENDBRANCH   2   7
ENDBRANCH   1   2
BRANCH   1  10
ATOM     10  C   UNL     1      -6.017   2.556   1.404  1.00  0.00    -0.041 A 
ATOM     11  C   UNL     1      -6.314   1.456   2.225  1.00  0.00     0.008 A 
ATOM     12  C   UNL     1      -5.542   3.742   1.988  1.00  0.00     0.008 A 
ATOM     13  C   UNL     1      -6.150   1.546   3.611  1.00  0.00     0.046 A 
ATOM     14  C   UNL     1      -5.380   3.830   3.374  1.00  0.00     0.046 A 
ATOM     15  C   UNL     1      -5.682   2.734   4.188  1.00  0.00     0.115 A 
BRANCH  15  16
ATOM     16  O   UNL     1      -5.514   2.835   5.568  1.00  0.00    -0.508 OA
ATOM     17  H   UNL     1      -5.733   3.689   6.067  1.00  0.00     0.293 HD
ENDBRANCH  15  16
ENDBRANCH   1  10
TORSDOF 5
ENDMDL
MODEL 9
REMARK VINA RESULT:    -4.719      1.720      2.403
REMARK INTER + INTRA:          -6.011
REMARK INTER:                  -5.875
REMARK INTRA:                  -0.136
REMARK UNBOUND:                -0.189
REMARK SMILES [NH3+][C@H](Cc1ccc(O)cc1)C(=O)[O-]
REMARK SMILES IDX 3 1 2 2 1 3 11 7 12 8 13 9 4 10 5 11 10 12 6 13 9 14 7 15
REMARK SMILES IDX 8 16
REMARK H PARENT 1 4 1 5 1 6 8 17
REMARK Flexibility Score: inf
ROOT
ATOM      1  C   UNL     1      -6.718   0.912   1.040  1.00  0.00     0.107 C 
ENDROOT
BRANCH   1   2
ATOM      2  C   UNL     1      -6.076   0.708  -0.348  1.00  0.00     0.232 C 
BRANCH   2   3
ATOM      3  N   UNL     1      -4.978   1.657  -0.578  1.00  0.00    -0.350 N 
ATOM      4  H   UNL     1      -4.735   1.704  -1.595  1.00  0.00     0.345 HD
ATOM      5  H   UNL     1      -5.255   2.610  -0.248  1.00  0.00     0.345 HD
ATOM      6  H   UNL     1      -4.133   1.365  -0.036  1.00  0.00     0.345 HD
ENDBRANCH   2   3
BRANCH   2   7
ATOM      7  C   UNL     1      -5.572  -0.705  -0.469  1.00  0.00     0.099 C 
ATOM      8  O   UNL     1      -6.146  -1.637   0.154  1.00  0.00    -0.544 OA
ATOM      9  O   UNL     1      -4.458  -0.988  -1.250  1.00  0.00    -0.544 OA
ENDBRANCH   2   7
ENDBRANCH   1   2
BRANCH   1  10
ATOM     10  C   UNL     1      -7.127   2.346   1.265  1.00  0.00    -0.041 A 
ATOM     11  C   UNL     1      -6.502   3.118   2.258  1.00  0.00     0.008 A 
ATOM     12  C   UNL     1      -8.115   2.933   0.457  1.00  0.00     0.008 A 
ATOM     13  C   UNL     1      -6.868   4.454   2.447  1.00  0.00     0.046 A 
ATOM     14  C   UNL     1      -8.480   4.270   0.649  1.00  0.00     0.046 A 
ATOM     15  C   UNL     1      -7.859   5.032   1.643  1.00  0.00     0.115 A 
BRANCH  15  16
ATOM     16  O   UNL     1      -8.232   6.363   1.822  1.00  0.00    -0.508 OA
ATOM     17  H   UNL     1      -9.206   6.644   1.826  1.00  0.00     0.293 HD
ENDBRANCH  15  16
ENDBRANCH   1  10
TORSDOF 5
ENDMDL
