MODEL 1
REMARK VINA RESULT:    -3.481      0.000      0.000
REMARK INTER + INTRA:          -7.029
REMARK INTER:                  -5.516
REMARK INTRA:                  -1.513
REMARK UNBOUND:                -1.513
REMARK SMILES CCCCCCCCCCCC(=O)[O-]
REMARK SMILES IDX 7 1 8 2 9 3 10 4 11 5 12 6 13 7 14 8 6 9 5 10 4 11 3 12 2 13
REMARK SMILES IDX 1 14
REMARK H PARENT
REMARK Flexibility Score: inf
ROOT
ATOM      1  C   UNL     1      -3.001  -9.668 -42.348  1.00  0.00     0.000 C 
ENDROOT
BRANCH   1   2
ATOM      2  C   UNL     1      -2.546  -8.345 -41.711  1.00  0.00     0.000 C 
BRANCH   2   3
ATOM      3  C   UNL     1      -2.478  -8.412 -40.173  1.00  0.00     0.000 C 
BRANCH   3   4
ATOM      4  C   UNL     1      -1.062  -8.320 -39.570  1.00  0.00     0.006 C 
BRANCH   4   5
ATOM      5  C   UNL     1      -0.678  -9.492 -38.654  1.00  0.00     0.053 C 
BRANCH   5   6
ATOM      6  C   UNL     1      -0.677  -9.098 -37.209  1.00  0.00     0.041 C 
ATOM      7  O   UNL     1      -0.230  -7.975 -36.859  1.00  0.00    -0.550 OA
ATOM      8  O   UNL     1      -1.137  -9.986 -36.244  1.00  0.00    -0.550 OA
ENDBRANCH   5   6
ENDBRANCH   4   5
ENDBRANCH   3   4
ENDBRANCH   2   3
ENDBRANCH   1   2
BRANCH   1   9
ATOM      9  C   UNL     1      -2.902 -10.865 -41.384  1.00  0.00     0.000 C 
BRANCH   9  10
ATOM     10  C   UNL     1      -1.763 -11.859 -41.678  1.00  0.00    -0.000 C 
BRANCH  10  11
ATOM     11  C   UNL     1      -0.593 -11.222 -42.445  1.00  0.00    -0.000 C 
BRANCH  11  12
ATOM     12  C   UNL     1       0.728 -11.280 -41.660  1.00  0.00    -0.000 C 
BRANCH  12  13
ATOM     13  C   UNL     1       1.506  -9.956 -41.713  1.00  0.00    -0.003 C 
ATOM     14  C   UNL     1       1.166  -9.172 -42.978  1.00  0.00     0.004 C 
ENDBRANCH  12  13
ENDBRANCH  11  12
ENDBRANCH  10  11
ENDBRANCH   9  10
ENDBRANCH   1   9
TORSDOF 10
ENDMDL
MODEL 2
REMARK VINA RESULT:    -3.432      2.916      4.841
REMARK INTER + INTRA:          -6.951
REMARK INTER:                  -5.732
REMARK INTRA:                  -1.219
REMARK UNBOUND:                -1.513
REMARK SMILES CCCCCCCCCCCC(=O)[O-]
REMARK SMILES IDX 7 1 8 2 9 3 10 4 11 5 12 6 13 7 14 8 6 9 5 10 4 11 3 12 2 13
REMARK SMILES IDX 1 14
REMARK H PARENT
REMARK Flexibility Score: inf
ROOT
ATOM      1  C   UNL     1      -2.476 -10.706 -42.158  1.00  0.00     0.000 C 
ENDROOT
BRANCH   1   2
ATOM      2  C   UNL     1      -1.295 -11.678 -42.316  1.00  0.00     0.000 C 
BRANCH   2   3
ATOM      3  C   UNL     1      -0.350 -11.677 -41.100  1.00  0.00     0.000 C 
BRANCH   3   4
ATOM      4  C   UNL     1       1.145 -11.482 -41.424  1.00  0.00     0.006 C 
BRANCH   4   5
ATOM      5  C   UNL     1       1.556 -10.027 -41.696  1.00  0.00     0.053 C 
BRANCH   5   6
ATOM      6  C   UNL     1       1.612  -9.723 -43.161  1.00  0.00     0.041 C 
ATOM      7  O   UNL     1       1.296  -8.580 -43.583  1.00  0.00    -0.550 OA
ATOM      8  O   UNL     1       1.980 -10.712 -44.065  1.00  0.00    -0.550 OA
ENDBRANCH   5   6
ENDBRANCH   4   5
ENDBRANCH   3   4
ENDBRANCH   2   3
ENDBRANCH   1   2
BRANCH   1   9
ATOM      9  C   UNL     1      -2.066  -9.230 -42.325  1.00  0.00     0.000 C 
BRANCH   9  10
ATOM     10  C   UNL     1      -2.919  -8.215 -41.541  1.00  0.00    -0.000 C 
BRANCH  10  11
ATOM     11  C   UNL     1      -2.542  -8.135 -40.053  1.00  0.00    -0.000 C 
BRANCH  11  12
ATOM     12  C   UNL     1      -1.034  -8.317 -39.815  1.00  0.00    -0.000 C 
BRANCH  12  13
ATOM     13  C   UNL     1      -0.726  -9.024 -38.486  1.00  0.00    -0.003 C 
ATOM     14  C   UNL     1      -0.379  -8.013 -37.396  1.00  0.00     0.004 C 
ENDBRANCH  12  13
ENDBRANCH  11  12
ENDBRANCH  10  11
ENDBRANCH   9  10
ENDBRANCH   1   9
TORSDOF 10
ENDMDL
MODEL 3
REMARK VINA RESULT:    -3.320      3.428      5.465
REMARK INTER + INTRA:          -6.774
REMARK INTER:                  -6.104
REMARK INTRA:                  -0.670
REMARK UNBOUND:                -1.513
REMARK SMILES CCCCCCCCCCCC(=O)[O-]
REMARK SMILES IDX 7 1 8 2 9 3 10 4 11 5 12 6 13 7 14 8 6 9 5 10 4 11 3 12 2 13
REMARK SMILES IDX 1 14
REMARK H PARENT
REMARK Flexibility Score: inf
ROOT
ATOM      1  C   UNL     1      -2.007  -8.896 -42.697  1.00  0.00     0.000 C 
ENDROOT
BRANCH   1   2
ATOM      2  C   UNL     1      -0.823  -9.803 -42.321  1.00  0.00     0.000 C 
BRANCH   2   3
ATOM      3  C   UNL     1       0.524  -9.056 -42.308  1.00  0.00     0.000 C 
BRANCH   3   4
ATOM      4  C   UNL     1       1.777  -9.953 -42.378  1.00  0.00     0.006 C 
BRANCH   4   5
ATOM      5  C   UNL     1       1.991 -10.648 -43.731  1.00  0.00     0.053 C 
BRANCH   5   6
ATOM      6  C   UNL     1       2.167 -12.128 -43.581  1.00  0.00     0.041 C 
ATOM      7  O   UNL     1       2.205 -12.867 -44.599  1.00  0.00    -0.550 OA
ATOM      8  O   UNL     1       2.253 -12.695 -42.315  1.00  0.00    -0.550 OA
ENDBRANCH   5   6
ENDBRANCH   4   5
ENDBRANCH   3   4
ENDBRANCH   2   3
ENDBRANCH   1   2
BRANCH   1   9
ATOM      9  C   UNL     1      -2.765  -8.358 -41.469  1.00  0.00     0.000 C 
BRANCH   9  10
ATOM     10  C   UNL     1      -2.318  -8.933 -40.112  1.00  0.00    -0.000 C 
BRANCH  10  11
ATOM     11  C   UNL     1      -1.586  -7.903 -39.236  1.00  0.00    -0.000 C 
BRANCH  11  12
ATOM     12  C   UNL     1      -0.435  -8.527 -38.430  1.00  0.00    -0.000 C 
BRANCH  12  13
ATOM     13  C   UNL     1      -0.421  -8.064 -36.965  1.00  0.00    -0.003 C 
ATOM     14  C   UNL     1      -0.633  -9.242 -36.016  1.00  0.00     0.004 C 
ENDBRANCH  12  13
ENDBRANCH  11  12
ENDBRANCH  10  11
ENDBRANCH   9  10
ENDBRANCH   1   9
TORSDOF 10
ENDMDL
MODEL 4
REMARK VINA RESULT:    -3.297      3.228      4.941
REMARK INTER + INTRA:          -6.737
REMARK INTER:                  -5.099
REMARK INTRA:                  -1.639
REMARK UNBOUND:                -1.513
REMARK SMILES CCCCCCCCCCCC(=O)[O-]
REMARK SMILES IDX 7 1 8 2 9 3 10 4 11 5 12 6 13 7 14 8 6 9 5 10 4 11 3 12 2 13
REMARK SMILES IDX 1 14
REMARK H PARENT
REMARK Flexibility Score: inf
ROOT
ATOM      1  C   UNL     1      -1.786  -8.552 -40.571  1.00  0.00     0.000 C 
ENDROOT
BRANCH   1   2
ATOM      2  C   UNL     1      -0.545  -9.161 -41.245  1.00  0.00     0.000 C 
BRANCH   2   3
ATOM      3  C   UNL     1       0.063 -10.326 -40.441  1.00  0.00     0.000 C 
BRANCH   3   4
ATOM      4  C   UNL     1       0.657 -11.472 -41.284  1.00  0.00     0.006 C 
BRANCH   4   5
ATOM      5  C   UNL     1       0.699 -11.199 -42.795  1.00  0.00     0.053 C 
BRANCH   5   6
ATOM      6  C   UNL     1       2.084 -10.884 -43.271  1.00  0.00     0.041 C 
ATOM      7  O   UNL     1       3.039 -10.840 -42.453  1.00  0.00    -0.550 OA
ATOM      8  O   UNL     1       2.313 -10.604 -44.613  1.00  0.00    -0.550 OA
ENDBRANCH   5   6
ENDBRANCH   4   5
ENDBRANCH   3   4
ENDBRANCH   2   3
ENDBRANCH   1   2
BRANCH   1   9
ATOM      9  C   UNL     1      -3.008  -8.490 -41.507  1.00  0.00     0.000 C 
BRANCH   9  10
ATOM     10  C   UNL     1      -2.955  -9.430 -42.727  1.00  0.00    -0.000 C 
BRANCH  10  11
ATOM     11  C   UNL     1      -3.722 -10.744 -42.507  1.00  0.00    -0.000 C 
BRANCH  11  12
ATOM     12  C   UNL     1      -2.799 -11.974 -42.519  1.00  0.00    -0.000 C 
BRANCH  12  13
ATOM     13  C   UNL     1      -2.964 -12.849 -41.267  1.00  0.00    -0.003 C 
ATOM     14  C   UNL     1      -3.312 -11.999 -40.047  1.00  0.00     0.004 C 
ENDBRANCH  12  13
ENDBRANCH  11  12
ENDBRANCH  10  11
ENDBRANCH   9  10
ENDBRANCH   1   9
TORSDOF 10
ENDMDL
MODEL 5
REMARK VINA RESULT:    -3.220      3.209      4.459
REMARK INTER + INTRA:          -6.616
REMARK INTER:                  -5.181
REMARK INTRA:                  -1.435
REMARK UNBOUND:                -1.513
REMARK SMILES CCCCCCCCCCCC(=O)[O-]
REMARK SMILES IDX 7 1 8 2 9 3 10 4 11 5 12 6 13 7 14 8 6 9 5 10 4 11 3 12 2 13
REMARK SMILES IDX 1 14
REMARK H PARENT
REMARK Flexibility Score: inf
ROOT
ATOM      1  C   UNL     1      -2.043  -9.164 -42.339  1.00  0.00     0.000 C 
ENDROOT
BRANCH   1   2
ATOM      2  C   UNL     1      -1.506  -8.933 -40.917  1.00  0.00     0.000 C 
BRANCH   2   3
ATOM      3  C   UNL     1      -0.021  -9.314 -40.767  1.00  0.00     0.000 C 
BRANCH   3   4
ATOM      4  C   UNL     1       0.727  -9.591 -42.087  1.00  0.00     0.006 C 
BRANCH   4   5
ATOM      5  C   UNL     1       2.100 -10.259 -41.916  1.00  0.00     0.053 C 
BRANCH   5   6
ATOM      6  C   UNL     1       2.078 -11.700 -42.325  1.00  0.00     0.041 C 
ATOM      7  O   UNL     1       2.251 -12.604 -41.466  1.00  0.00    -0.550 OA
ATOM      8  O   UNL     1       1.904 -12.044 -43.660  1.00  0.00    -0.550 OA
ENDBRANCH   5   6
ENDBRANCH   4   5
ENDBRANCH   3   4
ENDBRANCH   2   3
ENDBRANCH   1   2
BRANCH   1   9
ATOM      9  C   UNL     1      -2.949 -10.406 -42.444  1.00  0.00     0.000 C 
BRANCH   9  10
ATOM     10  C   UNL     1      -2.217 -11.761 -42.439  1.00  0.00    -0.000 C 
BRANCH  10  11
ATOM     11  C   UNL     1      -2.512 -12.598 -41.183  1.00  0.00    -0.000 C 
BRANCH  11  12
ATOM     12  C   UNL     1      -1.289 -12.729 -40.260  1.00  0.00    -0.000 C 
BRANCH  12  13
ATOM     13  C   UNL     1      -1.546 -12.161 -38.856  1.00  0.00    -0.003 C 
ATOM     14  C   UNL     1      -2.937 -11.540 -38.762  1.00  0.00     0.004 C 
ENDBRANCH  12  13
ENDBRANCH  11  12
ENDBRANCH  10  11
ENDBRANCH   9  10
ENDBRANCH   1   9
TORSDOF 10
ENDMDL
MODEL 6
REMARK VINA RESULT:    -3.209      3.557      5.066
REMARK INTER + INTRA:          -6.598
REMARK INTER:                  -5.350
REMARK INTRA:                  -1.248
REMARK UNBOUND:                -1.513
REMARK SMILES CCCCCCCCCCCC(=O)[O-]
REMARK SMILES IDX 7 1 8 2 9 3 10 4 11 5 12 6 13 7 14 8 6 9 5 10 4 11 3 12 2 13
REMARK SMILES IDX 1 14
REMARK H PARENT
REMARK Flexibility Score: inf
ROOT
ATOM      1  C   UNL     1      -1.877 -10.914 -41.577  1.00  0.00     0.000 C 
ENDROOT
BRANCH   1   2
ATOM      2  C   UNL     1      -1.245  -9.669 -42.222  1.00  0.00     0.000 C 
BRANCH   2   3
ATOM      3  C   UNL     1       0.249  -9.509 -41.881  1.00  0.00     0.000 C 
BRANCH   3   4
ATOM      4  C   UNL     1       1.013 -10.824 -41.623  1.00  0.00     0.006 C 
BRANCH   4   5
ATOM      5  C   UNL     1       2.386 -10.910 -42.306  1.00  0.00     0.053 C 
BRANCH   5   6
ATOM      6  C   UNL     1       2.271 -11.272 -43.755  1.00  0.00     0.041 C 
ATOM      7  O   UNL     1       2.238 -10.369 -44.631  1.00  0.00    -0.550 OA
ATOM      8  O   UNL     1       2.165 -12.604 -44.135  1.00  0.00    -0.550 OA
ENDBRANCH   5   6
ENDBRANCH   4   5
ENDBRANCH   3   4
ENDBRANCH   2   3
ENDBRANCH   1   2
BRANCH   1   9
ATOM      9  C   UNL     1      -2.948 -10.567 -40.526  1.00  0.00     0.000 C 
BRANCH   9  10
ATOM     10  C   UNL     1      -2.660 -11.068 -39.098  1.00  0.00    -0.000 C 
BRANCH  10  11
ATOM     11  C   UNL     1      -1.229 -10.756 -38.629  1.00  0.00    -0.000 C 
BRANCH  11  12
ATOM     12  C   UNL     1      -1.192  -9.711 -37.501  1.00  0.00    -0.000 C 
BRANCH  12  13
ATOM     13  C   UNL     1      -0.425  -8.441 -37.898  1.00  0.00    -0.003 C 
ATOM     14  C   UNL     1      -1.208  -7.627 -38.925  1.00  0.00     0.004 C 
ENDBRANCH  12  13
ENDBRANCH  11  12
ENDBRANCH  10  11
ENDBRANCH   9  10
ENDBRANCH   1   9
TORSDOF 10
ENDMDL
MODEL 7
REMARK VINA RESULT:    -3.186      3.440      4.990
REMARK INTER + INTRA:          -6.562
REMARK INTER:                  -5.012
REMARK INTRA:                  -1.550
REMARK UNBOUND:                -1.513
REMARK SMILES CCCCCCCCCCCC(=O)[O-]
REMARK SMILES IDX 7 1 8 2 9 3 10 4 11 5 12 6 13 7 14 8 6 9 5 10 4 11 3 12 2 13
REMARK SMILES IDX 1 14
REMARK H PARENT
REMARK Flexibility Score: inf
ROOT
ATOM      1  C   UNL     1      -0.747  -8.734 -39.707  1.00  0.00     0.000 C 
ENDROOT
BRANCH   1   2
ATOM      2  C   UNL     1      -1.649  -9.011 -40.922  1.00  0.00     0.000 C 
BRANCH   2   3
ATOM      3  C   UNL     1      -0.852  -9.277 -42.213  1.00  0.00     0.000 C 
BRANCH   3   4
ATOM      4  C   UNL     1       0.471 -10.047 -42.025  1.00  0.00     0.006 C 
BRANCH   4   5
ATOM      5  C   UNL     1       0.590 -11.330 -42.862  1.00  0.00     0.053 C 
BRANCH   5   6
ATOM      6  C   UNL     1       1.992 -11.568 -43.330  1.00  0.00     0.041 C 
ATOM      7  O   UNL     1       2.214 -12.345 -44.295  1.00  0.00    -0.550 OA
ATOM      8  O   UNL     1       3.058 -10.961 -42.677  1.00  0.00    -0.550 OA
ENDBRANCH   5   6
ENDBRANCH   4   5
ENDBRANCH   3   4
ENDBRANCH   2   3
ENDBRANCH   1   2
BRANCH   1   9
ATOM      9  C   UNL     1      -0.924  -9.768 -38.579  1.00  0.00     0.000 C 
BRANCH   9  10
ATOM     10  C   UNL     1      -2.015 -10.829 -38.820  1.00  0.00    -0.000 C 
BRANCH  10  11
ATOM     11  C   UNL     1      -1.447 -12.247 -38.990  1.00  0.00    -0.000 C 
BRANCH  11  12
ATOM     12  C   UNL     1      -1.686 -12.813 -40.400  1.00  0.00    -0.000 C 
BRANCH  12  13
ATOM     13  C   UNL     1      -3.087 -12.485 -40.938  1.00  0.00    -0.003 C 
ATOM     14  C   UNL     1      -3.048 -12.220 -42.441  1.00  0.00     0.004 C 
ENDBRANCH  12  13
ENDBRANCH  11  12
ENDBRANCH  10  11
ENDBRANCH   9  10
ENDBRANCH   1   9
TORSDOF 10
ENDMDL
MODEL 8
REMARK VINA RESULT:    -3.177      1.497      2.462
REMARK INTER + INTRA:          -6.547
REMARK INTER:                  -5.305
REMARK INTRA:                  -1.242
REMARK UNBOUND:                -1.513
REMARK SMILES CCCCCCCCCCCC(=O)[O-]
REMARK SMILES IDX 7 1 8 2 9 3 10 4 11 5 12 6 13 7 14 8 6 9 5 10 4 11 3 12 2 13
REMARK SMILES IDX 1 14
REMARK H PARENT
REMARK Flexibility Score: inf
ROOT
ATOM      1  C   UNL     1      -1.385 -11.357 -42.402  1.00  0.00     0.000 C 
ENDROOT
BRANCH   1   2
ATOM      2  C   UNL     1      -1.614 -11.930 -40.993  1.00  0.00     0.000 C 
BRANCH   2   3
ATOM      3  C   UNL     1      -2.825 -11.300 -40.279  1.00  0.00     0.000 C 
BRANCH   3   4
ATOM      4  C   UNL     1      -2.582 -10.872 -38.818  1.00  0.00     0.006 C 
BRANCH   4   5
ATOM      5  C   UNL     1      -1.107 -10.639 -38.457  1.00  0.00     0.053 C 
BRANCH   5   6
ATOM      6  C   UNL     1      -0.880  -9.281 -37.867  1.00  0.00     0.041 C 
ATOM      7  O   UNL     1      -1.107  -8.249 -38.551  1.00  0.00    -0.550 OA
ATOM      8  O   UNL     1      -0.384  -9.155 -36.576  1.00  0.00    -0.550 OA
ENDBRANCH   5   6
ENDBRANCH   4   5
ENDBRANCH   3   4
ENDBRANCH   2   3
ENDBRANCH   1   2
BRANCH   1   9
ATOM      9  C   UNL     1      -1.106  -9.842 -42.396  1.00  0.00     0.000 C 
BRANCH   9  10
ATOM     10  C   UNL     1       0.163  -9.407 -41.639  1.00  0.00    -0.000 C 
BRANCH  10  11
ATOM     11  C   UNL     1       1.446  -9.573 -42.471  1.00  0.00    -0.000 C 
BRANCH  11  12
ATOM     12  C   UNL     1       2.460 -10.518 -41.808  1.00  0.00    -0.000 C 
BRANCH  12  13
ATOM     13  C   UNL     1       2.307 -11.973 -42.278  1.00  0.00    -0.003 C 
ATOM     14  C   UNL     1       2.041 -12.038 -43.780  1.00  0.00     0.004 C 
ENDBRANCH  12  13
ENDBRANCH  11  12
ENDBRANCH  10  11
ENDBRANCH   9  10
ENDBRANCH   1   9
TORSDOF 10
ENDMDL
MODEL 9
REMARK VINA RESULT:    -3.176      1.480      1.991
REMARK INTER + INTRA:          -6.546
REMARK INTER:                  -5.800
REMARK INTRA:                  -0.746
REMARK UNBOUND:                -1.513
REMARK SMILES CCCCCCCCCCCC(=O)[O-]
REMARK SMILES IDX 7 1 8 2 9 3 10 4 11 5 12 6 13 7 14 8 6 9 5 10 4 11 3 12 2 13
REMARK SMILES IDX 1 14
REMARK H PARENT
REMARK Flexibility Score: inf
ROOT
ATOM      1  C   UNL     1      -1.944  -8.824 -42.243  1.00  0.00     0.000 C 
ENDROOT
BRANCH   1   2
ATOM      2  C   UNL     1      -2.438  -9.057 -40.805  1.00  0.00     0.000 C 
BRANCH   2   3
ATOM      3  C   UNL     1      -1.774  -8.117 -39.782  1.00  0.00     0.000 C 
BRANCH   3   4
ATOM      4  C   UNL     1      -0.876  -8.808 -38.735  1.00  0.00     0.006 C 
BRANCH   4   5
ATOM      5  C   UNL     1      -0.364  -7.883 -37.621  1.00  0.00     0.053 C 
BRANCH   5   6
ATOM      6  C   UNL     1      -0.669  -8.423 -36.258  1.00  0.00     0.041 C 
ATOM      7  O   UNL     1      -0.156  -9.508 -35.878  1.00  0.00    -0.550 OA
ATOM      8  O   UNL     1      -1.547  -7.747 -35.420  1.00  0.00    -0.550 OA
ENDBRANCH   5   6
ENDBRANCH   4   5
ENDBRANCH   3   4
ENDBRANCH   2   3
ENDBRANCH   1   2
BRANCH   1   9
ATOM      9  C   UNL     1      -0.470  -9.221 -42.443  1.00  0.00     0.000 C 
BRANCH   9  10
ATOM     10  C   UNL     1      -0.135 -10.694 -42.142  1.00  0.00    -0.000 C 
BRANCH  10  11
ATOM     11  C   UNL     1       1.198 -10.865 -41.394  1.00  0.00    -0.000 C 
BRANCH  11  12
ATOM     12  C   UNL     1       2.104 -11.926 -42.039  1.00  0.00    -0.000 C 
BRANCH  12  13
ATOM     13  C   UNL     1       1.898 -12.035 -43.558  1.00  0.00    -0.003 C 
ATOM     14  C   UNL     1       2.739 -11.000 -44.300  1.00  0.00     0.004 C 
ENDBRANCH  12  13
ENDBRANCH  11  12
ENDBRANCH  10  11
ENDBRANCH   9  10
ENDBRANCH   1   9
TORSDOF 10
ENDMDL
