MODEL 1
REMARK VINA RESULT:    -4.010      0.000      0.000
REMARK INTER + INTRA:          -5.828
REMARK INTER:                  -5.417
REMARK INTRA:                  -0.411
REMARK UNBOUND:                -0.411
REMARK SMILES CCCCCCCC(=O)[O-]
REMARK SMILES IDX 5 1 6 2 7 3 8 4 9 5 10 6 4 7 3 8 2 9 1 10
REMARK H PARENT
REMARK Flexibility Score: inf
ROOT
ATOM      1  C   UNL     1      52.579  46.079  13.058  1.00  0.00     0.000 C 
ENDROOT
BRANCH   1   2
ATOM      2  C   UNL     1      53.852  46.034  12.206  1.00  0.00     0.006 C 
BRANCH   2   3
ATOM      3  C   UNL     1      54.429  44.616  12.153  1.00  0.00     0.053 C 
BRANCH   3   4
ATOM      4  C   UNL     1      54.277  44.039  10.781  1.00  0.00     0.041 C 
ATOM      5  O   UNL     1      54.359  44.783   9.769  1.00  0.00    -0.550 OA
ATOM      6  O   UNL     1      54.096  42.672  10.618  1.00  0.00    -0.550 OA
ENDBRANCH   3   4
ENDBRANCH   2   3
ENDBRANCH   1   2
BRANCH   1   7
ATOM      7  C   UNL     1      51.333  46.259  12.178  1.00  0.00     0.000 C 
BRANCH   7   8
ATOM      8  C   UNL     1      51.671  46.716  10.747  1.00  0.00    -0.000 C 
BRANCH   8   9
ATOM      9  C   UNL     1      51.025  48.047  10.323  1.00  0.00    -0.003 C 
ATOM     10  C   UNL     1      50.775  48.991  11.498  1.00  0.00     0.004 C 
ENDBRANCH   8   9
ENDBRANCH   7   8
ENDBRANCH   1   7
TORSDOF 6
ENDMDL
MODEL 2
REMARK VINA RESULT:    -3.918      1.307      1.700
REMARK INTER + INTRA:          -5.703
REMARK INTER:                  -5.283
REMARK INTRA:                  -0.421
REMARK UNBOUND:                -0.411
REMARK SMILES CCCCCCCC(=O)[O-]
REMARK SMILES IDX 5 1 6 2 7 3 8 4 9 5 10 6 4 7 3 8 2 9 1 10
REMARK H PARENT
REMARK Flexibility Score: inf
ROOT
ATOM      1  C   UNL     1      51.980  46.114  11.733  1.00  0.00     0.000 C 
ENDROOT
BRANCH   1   2
ATOM      2  C   UNL     1      53.256  46.689  12.360  1.00  0.00     0.006 C 
BRANCH   2   3
ATOM      3  C   UNL     1      54.507  46.094  11.705  1.00  0.00     0.053 C 
BRANCH   3   4
ATOM      4  C   UNL     1      54.587  44.624  11.967  1.00  0.00     0.041 C 
ATOM      5  O   UNL     1      54.583  43.808  11.008  1.00  0.00    -0.550 OA
ATOM      6  O   UNL     1      54.718  44.155  13.268  1.00  0.00    -0.550 OA
ENDBRANCH   3   4
ENDBRANCH   2   3
ENDBRANCH   1   2
BRANCH   1   7
ATOM      7  C   UNL     1      51.786  46.639  10.302  1.00  0.00     0.000 C 
BRANCH   7   8
ATOM      8  C   UNL     1      51.094  48.013  10.256  1.00  0.00    -0.000 C 
BRANCH   8   9
ATOM      9  C   UNL     1      49.776  48.100  11.045  1.00  0.00    -0.003 C 
ATOM     10  C   UNL     1      49.801  49.172  12.133  1.00  0.00     0.004 C 
ENDBRANCH   8   9
ENDBRANCH   7   8
ENDBRANCH   1   7
TORSDOF 6
ENDMDL
MODEL 3
REMARK VINA RESULT:    -3.872     12.539     14.224
REMARK INTER + INTRA:          -5.641
REMARK INTER:                  -5.470
REMARK INTRA:                  -0.171
REMARK UNBOUND:                -0.411
REMARK SMILES CCCCCCCC(=O)[O-]
REMARK SMILES IDX 5 1 6 2 7 3 8 4 9 5 10 6 4 7 3 8 2 9 1 10
REMARK H PARENT
REMARK Flexibility Score: inf
ROOT
ATOM      1  C   UNL     1      50.441  32.593   5.750  1.00  0.00     0.000 C 
ENDROOT
BRANCH   1   2
ATOM      2  C   UNL     1      51.104  32.862   4.394  1.00  0.00     0.006 C 
BRANCH   2   3
ATOM      3  C   UNL     1      50.217  33.749   3.514  1.00  0.00     0.053 C 
BRANCH   3   4
ATOM      4  C   UNL     1      50.655  33.675   2.086  1.00  0.00     0.041 C 
ATOM      5  O   UNL     1      51.865  33.468   1.804  1.00  0.00    -0.550 OA
ATOM      6  O   UNL     1      49.720  33.786   1.065  1.00  0.00    -0.550 OA
ENDBRANCH   3   4
ENDBRANCH   2   3
ENDBRANCH   1   2
BRANCH   1   7
ATOM      7  C   UNL     1      49.581  33.788   6.189  1.00  0.00     0.000 C 
BRANCH   7   8
ATOM      8  C   UNL     1      49.291  33.796   7.700  1.00  0.00    -0.000 C 
BRANCH   8   9
ATOM      9  C   UNL     1      50.008  34.904   8.491  1.00  0.00    -0.003 C 
ATOM     10  C   UNL     1      49.317  35.239   9.812  1.00  0.00     0.004 C 
ENDBRANCH   8   9
ENDBRANCH   7   8
ENDBRANCH   1   7
TORSDOF 6
ENDMDL
MODEL 4
REMARK VINA RESULT:    -3.859     12.780     14.678
REMARK INTER + INTRA:          -5.623
REMARK INTER:                  -5.420
REMARK INTRA:                  -0.204
REMARK UNBOUND:                -0.411
REMARK SMILES CCCCCCCC(=O)[O-]
REMARK SMILES IDX 5 1 6 2 7 3 8 4 9 5 10 6 4 7 3 8 2 9 1 10
REMARK H PARENT
REMARK Flexibility Score: inf
ROOT
ATOM      1  C   UNL     1      50.894  32.255   5.107  1.00  0.00     0.000 C 
ENDROOT
BRANCH   1   2
ATOM      2  C   UNL     1      49.951  32.374   6.310  1.00  0.00     0.006 C 
BRANCH   2   3
ATOM      3  C   UNL     1      49.407  33.800   6.443  1.00  0.00     0.053 C 
BRANCH   3   4
ATOM      4  C   UNL     1      49.329  34.199   7.883  1.00  0.00     0.041 C 
ATOM      5  O   UNL     1      50.171  35.002   8.364  1.00  0.00    -0.550 OA
ATOM      6  O   UNL     1      48.297  33.724   8.681  1.00  0.00    -0.550 OA
ENDBRANCH   3   4
ENDBRANCH   2   3
ENDBRANCH   1   2
BRANCH   1   7
ATOM      7  C   UNL     1      50.826  33.513   4.228  1.00  0.00     0.000 C 
BRANCH   7   8
ATOM      8  C   UNL     1      51.183  33.237   2.756  1.00  0.00    -0.000 C 
BRANCH   8   9
ATOM      9  C   UNL     1      50.193  33.819   1.731  1.00  0.00    -0.003 C 
ATOM     10  C   UNL     1      50.304  33.164   0.355  1.00  0.00     0.004 C 
ENDBRANCH   8   9
ENDBRANCH   7   8
ENDBRANCH   1   7
TORSDOF 6
ENDMDL
MODEL 5
REMARK VINA RESULT:    -3.859     13.471     15.237
REMARK INTER + INTRA:          -5.623
REMARK INTER:                  -5.412
REMARK INTRA:                  -0.211
REMARK UNBOUND:                -0.411
REMARK SMILES CCCCCCCC(=O)[O-]
REMARK SMILES IDX 5 1 6 2 7 3 8 4 9 5 10 6 4 7 3 8 2 9 1 10
REMARK H PARENT
REMARK Flexibility Score: inf
ROOT
ATOM      1  C   UNL     1      50.449  33.403   4.478  1.00  0.00     0.000 C 
ENDROOT
BRANCH   1   2
ATOM      2  C   UNL     1      51.202  33.274   3.149  1.00  0.00     0.006 C 
BRANCH   2   3
ATOM      3  C   UNL     1      50.389  33.872   1.997  1.00  0.00     0.053 C 
BRANCH   3   4
ATOM      4  C   UNL     1      50.694  33.161   0.716  1.00  0.00     0.041 C 
ATOM      5  O   UNL     1      51.534  32.224   0.697  1.00  0.00    -0.550 OA
ATOM      6  O   UNL     1      50.013  33.500  -0.446  1.00  0.00    -0.550 OA
ENDBRANCH   3   4
ENDBRANCH   2   3
ENDBRANCH   1   2
BRANCH   1   7
ATOM      7  C   UNL     1      50.854  32.285   5.451  1.00  0.00     0.000 C 
BRANCH   7   8
ATOM      8  C   UNL     1      50.334  32.516   6.881  1.00  0.00    -0.000 C 
BRANCH   8   9
ATOM      9  C   UNL     1      49.389  33.721   7.039  1.00  0.00    -0.003 C 
ATOM     10  C   UNL     1      49.951  34.805   7.958  1.00  0.00     0.004 C 
ENDBRANCH   8   9
ENDBRANCH   7   8
ENDBRANCH   1   7
TORSDOF 6
ENDMDL
MODEL 6
REMARK VINA RESULT:    -3.843     13.795     15.723
REMARK INTER + INTRA:          -5.602
REMARK INTER:                  -5.421
REMARK INTRA:                  -0.182
REMARK UNBOUND:                -0.411
REMARK SMILES CCCCCCCC(=O)[O-]
REMARK SMILES IDX 5 1 6 2 7 3 8 4 9 5 10 6 4 7 3 8 2 9 1 10
REMARK H PARENT
REMARK Flexibility Score: inf
ROOT
ATOM      1  C   UNL     1      50.662  33.738   2.703  1.00  0.00     0.000 C 
ENDROOT
BRANCH   1   2
ATOM      2  C   UNL     1      50.890  33.339   4.165  1.00  0.00     0.006 C 
BRANCH   2   3
ATOM      3  C   UNL     1      49.587  33.415   4.966  1.00  0.00     0.053 C 
BRANCH   3   4
ATOM      4  C   UNL     1      49.876  33.546   6.428  1.00  0.00     0.041 C 
ATOM      5  O   UNL     1      50.225  32.538   7.097  1.00  0.00    -0.550 OA
ATOM      6  O   UNL     1      49.811  34.790   7.041  1.00  0.00    -0.550 OA
ENDBRANCH   3   4
ENDBRANCH   2   3
ENDBRANCH   1   2
BRANCH   1   7
ATOM      7  C   UNL     1      51.839  33.295   1.821  1.00  0.00     0.000 C 
BRANCH   7   8
ATOM      8  C   UNL     1      51.389  32.565   0.543  1.00  0.00    -0.000 C 
BRANCH   8   9
ATOM      9  C   UNL     1      50.027  33.016  -0.015  1.00  0.00    -0.003 C 
ATOM     10  C   UNL     1      49.634  32.284  -1.297  1.00  0.00     0.004 C 
ENDBRANCH   8   9
ENDBRANCH   7   8
ENDBRANCH   1   7
TORSDOF 6
ENDMDL
MODEL 7
REMARK VINA RESULT:    -3.826      1.407      2.389
REMARK INTER + INTRA:          -5.579
REMARK INTER:                  -5.111
REMARK INTRA:                  -0.468
REMARK UNBOUND:                -0.411
REMARK SMILES CCCCCCCC(=O)[O-]
REMARK SMILES IDX 5 1 6 2 7 3 8 4 9 5 10 6 4 7 3 8 2 9 1 10
REMARK H PARENT
REMARK Flexibility Score: inf
ROOT
ATOM      1  C   UNL     1      51.851  46.872  10.082  1.00  0.00     0.000 C 
ENDROOT
BRANCH   1   2
ATOM      2  C   UNL     1      52.381  45.493  10.492  1.00  0.00     0.006 C 
BRANCH   2   3
ATOM      3  C   UNL     1      53.894  45.533  10.726  1.00  0.00     0.053 C 
BRANCH   3   4
ATOM      4  C   UNL     1      54.354  44.278  11.398  1.00  0.00     0.041 C 
ATOM      5  O   UNL     1      54.703  44.299  12.607  1.00  0.00    -0.550 OA
ATOM      6  O   UNL     1      54.348  43.075  10.704  1.00  0.00    -0.550 OA
ENDBRANCH   3   4
ENDBRANCH   2   3
ENDBRANCH   1   2
BRANCH   1   7
ATOM      7  C   UNL     1      51.082  47.532  11.236  1.00  0.00     0.000 C 
BRANCH   7   8
ATOM      8  C   UNL     1      50.762  46.553  12.381  1.00  0.00    -0.000 C 
BRANCH   8   9
ATOM      9  C   UNL     1      51.318  46.962  13.756  1.00  0.00    -0.003 C 
ATOM     10  C   UNL     1      52.693  47.623  13.673  1.00  0.00     0.004 C 
ENDBRANCH   8   9
ENDBRANCH   7   8
ENDBRANCH   1   7
TORSDOF 6
ENDMDL
MODEL 8
REMARK VINA RESULT:    -3.798     13.576     15.039
REMARK INTER + INTRA:          -5.541
REMARK INTER:                  -5.255
REMARK INTRA:                  -0.286
REMARK UNBOUND:                -0.411
REMARK SMILES CCCCCCCC(=O)[O-]
REMARK SMILES IDX 5 1 6 2 7 3 8 4 9 5 10 6 4 7 3 8 2 9 1 10
REMARK H PARENT
REMARK Flexibility Score: inf
ROOT
ATOM      1  C   UNL     1      51.198  32.534   4.417  1.00  0.00     0.000 C 
ENDROOT
BRANCH   1   2
ATOM      2  C   UNL     1      50.822  32.253   5.877  1.00  0.00     0.006 C 
BRANCH   2   3
ATOM      3  C   UNL     1      49.333  32.514   6.121  1.00  0.00     0.053 C 
BRANCH   3   4
ATOM      4  C   UNL     1      49.143  33.401   7.310  1.00  0.00     0.041 C 
ATOM      5  O   UNL     1      48.369  33.056   8.241  1.00  0.00    -0.550 OA
ATOM      6  O   UNL     1      49.861  34.585   7.415  1.00  0.00    -0.550 OA
ENDBRANCH   3   4
ENDBRANCH   2   3
ENDBRANCH   1   2
BRANCH   1   7
ATOM      7  C   UNL     1      50.437  33.754   3.878  1.00  0.00     0.000 C 
BRANCH   7   8
ATOM      8  C   UNL     1      50.498  33.870   2.344  1.00  0.00    -0.000 C 
BRANCH   8   9
ATOM      9  C   UNL     1      51.781  33.311   1.704  1.00  0.00    -0.003 C 
ATOM     10  C   UNL     1      51.700  33.223   0.181  1.00  0.00     0.004 C 
ENDBRANCH   8   9
ENDBRANCH   7   8
ENDBRANCH   1   7
TORSDOF 6
ENDMDL
MODEL 9
REMARK VINA RESULT:    -3.765      2.357      4.467
REMARK INTER + INTRA:          -5.496
REMARK INTER:                  -5.064
REMARK INTRA:                  -0.432
REMARK UNBOUND:                -0.411
REMARK SMILES CCCCCCCC(=O)[O-]
REMARK SMILES IDX 5 1 6 2 7 3 8 4 9 5 10 6 4 7 3 8 2 9 1 10
REMARK H PARENT
REMARK Flexibility Score: inf
ROOT
ATOM      1  C   UNL     1      52.793  46.294  13.264  1.00  0.00     0.000 C 
ENDROOT
BRANCH   1   2
ATOM      2  C   UNL     1      51.487  46.179  12.469  1.00  0.00     0.006 C 
BRANCH   2   3
ATOM      3  C   UNL     1      50.790  47.539  12.357  1.00  0.00     0.053 C 
BRANCH   3   4
ATOM      4  C   UNL     1      51.017  48.135  11.004  1.00  0.00     0.041 C 
ATOM      5  O   UNL     1      50.673  49.323  10.771  1.00  0.00    -0.550 OA
ATOM      6  O   UNL     1      51.654  47.396  10.016  1.00  0.00    -0.550 OA
ENDBRANCH   3   4
ENDBRANCH   2   3
ENDBRANCH   1   2
BRANCH   1   7
ATOM      7  C   UNL     1      53.842  45.299  12.746  1.00  0.00     0.000 C 
BRANCH   7   8
ATOM      8  C   UNL     1      54.551  45.786  11.469  1.00  0.00    -0.000 C 
BRANCH   8   9
ATOM      9  C   UNL     1      54.289  44.931  10.217  1.00  0.00    -0.003 C 
ATOM     10  C   UNL     1      54.138  43.443  10.529  1.00  0.00     0.004 C 
ENDBRANCH   8   9
ENDBRANCH   7   8
ENDBRANCH   1   7
TORSDOF 6
ENDMDL
