MODEL 1
REMARK VINA RESULT:    -3.717      0.000      0.000
REMARK INTER + INTRA:          -5.853
REMARK INTER:                  -5.673
REMARK INTRA:                  -0.180
REMARK UNBOUND:                -0.180
REMARK SMILES CC1=CCC[C@@H](C)C(=O)C[C@@H](C(C)C)C(=O)C1
REMARK SMILES IDX 8 1 9 2 6 3 7 4 5 5 4 6 3 7 2 8 1 9 10 11 11 12 15 13 16 14
REMARK SMILES IDX 17 15 12 17 13 18 14 19
REMARK H PARENT
REMARK Flexibility Score: 70.00
ROOT
ATOM      1  C   UNL     1      -6.069  73.386  22.039  1.00  0.00     0.136 C 
ATOM      2  O   UNL     1      -5.075  73.753  21.428  1.00  0.00    -0.299 OA
ENDROOT
BRANCH   1   3
ATOM      3  C   UNL     1      -7.429  73.633  21.401  1.00  0.00     0.053 C 
ATOM      4  C   UNL     1      -7.374  73.809  19.876  1.00  0.00     0.016 C 
BRANCH   3   5
ATOM      5  C   UNL     1      -8.212  74.754  22.119  1.00  0.00     0.015 C 
BRANCH   5   6
ATOM      6  C   UNL     1      -9.694  74.421  22.382  1.00  0.00     0.028 C 
BRANCH   6   7
ATOM      7  C   UNL     1     -10.094  74.632  23.823  1.00  0.00    -0.028 C 
ATOM      8  C   UNL     1      -9.920  73.733  24.822  1.00  0.00    -0.070 CG0
ATOM      9  C   UNL     1     -10.308  74.152  26.217  1.00  0.00     0.039 C 
ATOM     10  G   UNL     1      -9.386  72.323  24.601  1.00  0.00     0.000 G0
ENDBRANCH   6   7
ENDBRANCH   5   6
ENDBRANCH   3   5
ENDBRANCH   1   3
BRANCH   1  11
ATOM     11  C   UNL     1      -5.877  72.738  23.397  1.00  0.00     0.087 C 
BRANCH  11  12
ATOM     12  C   UNL     1      -6.977  71.690  23.717  1.00  0.00     0.066 C 
BRANCH  12  13
ATOM     13  C   UNL     1      -7.880  72.166  24.845  1.00  0.00     0.140 C 
ATOM     14  O   UNL     1      -7.415  72.404  25.951  1.00  0.00    -0.299 OA
BRANCH  13  15
ATOM     15  C   UNL     1      -9.366  72.303  24.620  1.00  0.00     0.106 CG0
ATOM     16  G   UNL     1      -9.887  73.719  24.828  1.00  0.00     0.000 G0
ENDBRANCH  13  15
ENDBRANCH  12  13
BRANCH  12  17
ATOM     17  C   UNL     1      -6.409  70.258  23.993  1.00  0.00    -0.006 C 
ATOM     18  C   UNL     1      -7.283  69.169  23.348  1.00  0.00     0.008 C 
ATOM     19  C   UNL     1      -4.944  70.074  23.556  1.00  0.00     0.008 C 
ENDBRANCH  12  17
ENDBRANCH  11  12
ENDBRANCH   1  11
TORSDOF 1
ENDMDL
MODEL 2
REMARK VINA RESULT:    -3.642      1.572      3.954
REMARK INTER + INTRA:          -5.739
REMARK INTER:                  -5.832
REMARK INTRA:                   0.094
REMARK UNBOUND:                -0.180
REMARK SMILES CC1=CCC[C@@H](C)C(=O)C[C@@H](C(C)C)C(=O)C1
REMARK SMILES IDX 8 1 9 2 6 3 7 4 5 5 4 6 3 7 2 8 1 9 10 11 11 12 15 13 16 14
REMARK SMILES IDX 17 15 12 17 13 18 14 19
REMARK H PARENT
REMARK Flexibility Score: 70.00
ROOT
ATOM      1  C   UNL     1      -8.687  72.778  25.069  1.00  0.00     0.136 C 
ATOM      2  O   UNL     1      -8.297  72.560  26.208  1.00  0.00    -0.299 OA
ENDROOT
BRANCH   1   3
ATOM      3  C   UNL     1      -9.804  73.794  24.881  1.00  0.00     0.053 C 
ATOM      4  C   UNL     1     -10.849  73.781  26.008  1.00  0.00     0.016 C 
BRANCH   3   5
ATOM      5  C   UNL     1     -10.425  73.721  23.468  1.00  0.00     0.015 C 
BRANCH   5   6
ATOM      6  C   UNL     1      -9.885  74.777  22.485  1.00  0.00     0.028 C 
BRANCH   6   7
ATOM      7  C   UNL     1      -9.223  74.164  21.274  1.00  0.00    -0.028 C 
ATOM      8  C   UNL     1      -7.907  73.856  21.175  1.00  0.00    -0.070 CG0
ATOM      9  C   UNL     1      -7.440  73.173  19.914  1.00  0.00     0.039 C 
ATOM     10  G   UNL     1      -6.881  74.192  22.250  1.00  0.00     0.000 G0
ENDBRANCH   6   7
ENDBRANCH   5   6
ENDBRANCH   3   5
ENDBRANCH   1   3
BRANCH   1  11
ATOM     11  C   UNL     1      -8.050  72.001  23.933  1.00  0.00     0.087 C 
BRANCH  11  12
ATOM     12  C   UNL     1      -6.506  72.165  23.893  1.00  0.00     0.066 C 
BRANCH  12  13
ATOM     13  C   UNL     1      -6.069  72.972  22.680  1.00  0.00     0.140 C 
ATOM     14  O   UNL     1      -5.048  72.676  22.075  1.00  0.00    -0.299 OA
BRANCH  13  15
ATOM     15  C   UNL     1      -6.869  74.174  22.242  1.00  0.00     0.106 CG0
ATOM     16  G   UNL     1      -7.919  73.858  21.184  1.00  0.00     0.000 G0
ENDBRANCH  13  15
ENDBRANCH  12  13
BRANCH  12  17
ATOM     17  C   UNL     1      -5.734  70.808  23.996  1.00  0.00    -0.006 C 
ATOM     18  C   UNL     1      -5.298  70.514  25.441  1.00  0.00     0.008 C 
ATOM     19  C   UNL     1      -6.514  69.604  23.434  1.00  0.00     0.008 C 
ENDBRANCH  12  17
ENDBRANCH  11  12
ENDBRANCH   1  11
TORSDOF 1
ENDMDL
MODEL 3
REMARK VINA RESULT:    -3.395      2.078      5.093
REMARK INTER + INTRA:          -5.362
REMARK INTER:                  -5.971
REMARK INTRA:                   0.609
REMARK UNBOUND:                -0.180
REMARK SMILES CC1=CCC[C@@H](C)C(=O)C[C@@H](C(C)C)C(=O)C1
REMARK SMILES IDX 8 1 9 2 6 3 7 4 5 5 4 6 3 7 2 8 1 9 10 11 11 12 15 13 16 14
REMARK SMILES IDX 17 15 12 17 13 18 14 19
REMARK H PARENT
REMARK Flexibility Score: 70.00
ROOT
ATOM      1  C   UNL     1     -10.268  73.846  23.629  1.00  0.00     0.136 C 
ATOM      2  O   UNL     1     -11.223  73.324  23.069  1.00  0.00    -0.299 OA
ENDROOT
BRANCH   1   3
ATOM      3  C   UNL     1     -10.178  73.724  25.143  1.00  0.00     0.053 C 
ATOM      4  C   UNL     1     -10.526  75.021  25.891  1.00  0.00     0.016 C 
BRANCH   3   5
ATOM      5  C   UNL     1      -8.841  73.095  25.597  1.00  0.00     0.015 C 
BRANCH   5   6
ATOM      6  C   UNL     1      -8.396  71.883  24.757  1.00  0.00     0.028 C 
BRANCH   6   7
ATOM      7  C   UNL     1      -6.895  71.774  24.638  1.00  0.00    -0.028 C 
ATOM      8  C   UNL     1      -6.193  71.863  23.482  1.00  0.00    -0.070 CG0
ATOM      9  C   UNL     1      -4.689  71.811  23.569  1.00  0.00     0.039 C 
ATOM     10  G   UNL     1      -6.845  71.979  22.110  1.00  0.00     0.000 G0
ENDBRANCH   6   7
ENDBRANCH   5   6
ENDBRANCH   3   5
ENDBRANCH   1   3
BRANCH   1  11
ATOM     11  C   UNL     1      -9.262  74.598  22.779  1.00  0.00     0.087 C 
BRANCH  11  12
ATOM     12  C   UNL     1      -8.731  73.746  21.594  1.00  0.00     0.066 C 
BRANCH  12  13
ATOM     13  C   UNL     1      -7.260  73.404  21.777  1.00  0.00     0.140 C 
ATOM     14  O   UNL     1      -6.401  74.260  21.617  1.00  0.00    -0.299 OA
BRANCH  13  15
ATOM     15  C   UNL     1      -6.847  71.992  22.113  1.00  0.00     0.106 CG0
ATOM     16  G   UNL     1      -6.185  71.857  23.478  1.00  0.00     0.000 G0
ENDBRANCH  13  15
ENDBRANCH  12  13
BRANCH  12  17
ATOM     17  C   UNL     1      -9.007  74.389  20.194  1.00  0.00    -0.006 C 
ATOM     18  C   UNL     1     -10.484  74.788  20.038  1.00  0.00     0.008 C 
ATOM     19  C   UNL     1      -8.106  75.598  19.876  1.00  0.00     0.008 C 
ENDBRANCH  12  17
ENDBRANCH  11  12
ENDBRANCH   1  11
TORSDOF 1
ENDMDL
MODEL 4
REMARK VINA RESULT:    -3.297     11.423     14.024
REMARK INTER + INTRA:          -5.212
REMARK INTER:                  -5.523
REMARK INTRA:                   0.311
REMARK UNBOUND:                -0.180
REMARK SMILES CC1=CCC[C@@H](C)C(=O)C[C@@H](C(C)C)C(=O)C1
REMARK SMILES IDX 8 1 9 2 6 3 7 4 5 5 4 6 3 7 2 8 1 9 10 11 11 12 15 13 16 14
REMARK SMILES IDX 17 15 12 17 13 18 14 19
REMARK H PARENT
REMARK Flexibility Score: 70.00
ROOT
ATOM      1  C   UNL     1     -10.560  70.074  38.928  1.00  0.00     0.136 C 
ATOM      2  O   UNL     1     -10.460  69.500  40.004  1.00  0.00    -0.299 OA
ENDROOT
BRANCH   1   3
ATOM      3  C   UNL     1     -11.293  71.407  38.897  1.00  0.00     0.053 C 
ATOM      4  C   UNL     1     -12.193  71.647  40.120  1.00  0.00     0.016 C 
BRANCH   3   5
ATOM      5  C   UNL     1     -12.012  71.645  37.551  1.00  0.00     0.015 C 
BRANCH   5   6
ATOM      6  C   UNL     1     -11.628  72.965  36.854  1.00  0.00     0.028 C 
BRANCH   6   7
ATOM      7  C   UNL     1     -11.564  72.835  35.351  1.00  0.00    -0.028 C 
ATOM      8  C   UNL     1     -10.500  72.368  34.652  1.00  0.00    -0.070 CG0
ATOM      9  C   UNL     1     -10.649  72.233  33.157  1.00  0.00     0.039 C 
ATOM     10  G   UNL     1      -9.166  72.007  35.292  1.00  0.00     0.000 G0
ENDBRANCH   6   7
ENDBRANCH   5   6
ENDBRANCH   3   5
ENDBRANCH   1   3
BRANCH   1  11
ATOM     11  C   UNL     1      -9.973  69.402  37.701  1.00  0.00     0.087 C 
BRANCH  11  12
ATOM     12  C   UNL     1      -8.765  70.185  37.116  1.00  0.00     0.066 C 
BRANCH  12  13
ATOM     13  C   UNL     1      -9.008  70.565  35.663  1.00  0.00     0.140 C 
ATOM     14  O   UNL     1      -9.049  69.703  34.796  1.00  0.00    -0.299 OA
BRANCH  13  15
ATOM     15  C   UNL     1      -9.152  72.017  35.274  1.00  0.00     0.106 CG0
ATOM     16  G   UNL     1     -10.501  72.350  34.648  1.00  0.00     0.000 G0
ENDBRANCH  13  15
ENDBRANCH  12  13
BRANCH  12  17
ATOM     17  C   UNL     1      -7.398  69.447  37.302  1.00  0.00    -0.006 C 
ATOM     18  C   UNL     1      -7.601  67.962  37.651  1.00  0.00     0.008 C 
ATOM     19  C   UNL     1      -6.453  69.572  36.093  1.00  0.00     0.008 C 
ENDBRANCH  12  17
ENDBRANCH  11  12
ENDBRANCH   1  11
TORSDOF 1
ENDMDL
MODEL 5
REMARK VINA RESULT:    -3.215     11.433     13.316
REMARK INTER + INTRA:          -5.087
REMARK INTER:                  -4.794
REMARK INTRA:                  -0.293
REMARK UNBOUND:                -0.180
REMARK SMILES CC1=CCC[C@@H](C)C(=O)C[C@@H](C(C)C)C(=O)C1
REMARK SMILES IDX 8 1 9 2 6 3 7 4 5 5 4 6 3 7 2 8 1 9 10 11 11 12 15 13 16 14
REMARK SMILES IDX 17 15 12 17 13 18 14 19
REMARK H PARENT
REMARK Flexibility Score: 70.00
ROOT
ATOM      1  C   UNL     1      -6.296  67.095  33.846  1.00  0.00     0.136 C 
ATOM      2  O   UNL     1      -7.163  66.291  33.533  1.00  0.00    -0.299 OA
ENDROOT
BRANCH   1   3
ATOM      3  C   UNL     1      -5.515  67.771  32.728  1.00  0.00     0.053 C 
ATOM      4  C   UNL     1      -5.988  67.382  31.319  1.00  0.00     0.016 C 
BRANCH   3   5
ATOM      5  C   UNL     1      -3.988  67.635  32.921  1.00  0.00     0.015 C 
BRANCH   5   6
ATOM      6  C   UNL     1      -3.291  68.928  33.388  1.00  0.00     0.028 C 
BRANCH   6   7
ATOM      7  C   UNL     1      -2.547  68.754  34.689  1.00  0.00    -0.028 C 
ATOM      8  C   UNL     1      -2.960  69.219  35.894  1.00  0.00    -0.070 CG0
ATOM      9  C   UNL     1      -2.123  68.878  37.101  1.00  0.00     0.039 C 
ATOM     10  G   UNL     1      -4.199  70.086  36.081  1.00  0.00     0.000 G0
ENDBRANCH   6   7
ENDBRANCH   5   6
ENDBRANCH   3   5
ENDBRANCH   1   3
BRANCH   1  11
ATOM     11  C   UNL     1      -6.044  67.339  35.322  1.00  0.00     0.087 C 
BRANCH  11  12
ATOM     12  C   UNL     1      -6.437  68.775  35.763  1.00  0.00     0.066 C 
BRANCH  12  13
ATOM     13  C   UNL     1      -5.383  69.377  36.680  1.00  0.00     0.140 C 
ATOM     14  O   UNL     1      -5.509  69.313  37.895  1.00  0.00    -0.299 OA
BRANCH  13  15
ATOM     15  C   UNL     1      -4.195  70.102  36.095  1.00  0.00     0.106 CG0
ATOM     16  G   UNL     1      -2.978  69.209  35.885  1.00  0.00     0.000 G0
ENDBRANCH  13  15
ENDBRANCH  12  13
BRANCH  12  17
ATOM     17  C   UNL     1      -7.868  68.862  36.389  1.00  0.00    -0.006 C 
ATOM     18  C   UNL     1      -8.776  69.815  35.593  1.00  0.00     0.008 C 
ATOM     19  C   UNL     1      -8.562  67.496  36.549  1.00  0.00     0.008 C 
ENDBRANCH  12  17
ENDBRANCH  11  12
ENDBRANCH   1  11
TORSDOF 1
ENDMDL
MODEL 6
REMARK VINA RESULT:    -3.213      1.639      4.005
REMARK INTER + INTRA:          -5.084
REMARK INTER:                  -6.310
REMARK INTRA:                   1.226
REMARK UNBOUND:                -0.180
REMARK SMILES CC1=CCC[C@@H](C)C(=O)C[C@@H](C(C)C)C(=O)C1
REMARK SMILES IDX 8 1 9 2 6 3 7 4 5 5 4 6 3 7 2 8 1 9 10 11 11 12 15 13 16 14
REMARK SMILES IDX 17 15 12 17 13 18 14 19
REMARK H PARENT
REMARK Flexibility Score: 70.00
ROOT
ATOM      1  C   UNL     1      -8.811  73.105  25.414  1.00  0.00     0.136 C 
ATOM      2  O   UNL     1      -8.263  72.860  26.480  1.00  0.00    -0.299 OA
ENDROOT
BRANCH   1   3
ATOM      3  C   UNL     1      -9.802  74.259  25.372  1.00  0.00     0.053 C 
ATOM      4  C   UNL     1     -10.141  74.835  26.755  1.00  0.00     0.016 C 
BRANCH   3   5
ATOM      5  C   UNL     1     -11.049  73.923  24.525  1.00  0.00     0.015 C 
BRANCH   5   6
ATOM      6  C   UNL     1     -10.756  73.060  23.282  1.00  0.00     0.028 C 
BRANCH   6   7
ATOM      7  C   UNL     1     -10.801  73.850  21.997  1.00  0.00    -0.028 C 
ATOM      8  C   UNL     1      -9.748  74.499  21.442  1.00  0.00    -0.070 CG0
ATOM      9  C   UNL     1      -9.964  75.170  20.109  1.00  0.00     0.039 C 
ATOM     10  G   UNL     1      -8.382  74.609  22.107  1.00  0.00     0.000 G0
ENDBRANCH   6   7
ENDBRANCH   5   6
ENDBRANCH   3   5
ENDBRANCH   1   3
BRANCH   1  11
ATOM     11  C   UNL     1      -8.485  72.225  24.223  1.00  0.00     0.087 C 
BRANCH  11  12
ATOM     12  C   UNL     1      -7.216  72.700  23.462  1.00  0.00     0.066 C 
BRANCH  12  13
ATOM     13  C   UNL     1      -7.579  73.346  22.134  1.00  0.00     0.140 C 
ATOM     14  O   UNL     1      -7.201  72.852  21.081  1.00  0.00    -0.299 OA
BRANCH  13  15
ATOM     15  C   UNL     1      -8.373  74.630  22.108  1.00  0.00     0.106 CG0
ATOM     16  G   UNL     1      -9.733  74.494  21.436  1.00  0.00     0.000 G0
ENDBRANCH  13  15
ENDBRANCH  12  13
BRANCH  12  17
ATOM     17  C   UNL     1      -6.141  71.577  23.287  1.00  0.00    -0.006 C 
ATOM     18  C   UNL     1      -4.845  71.911  24.045  1.00  0.00     0.008 C 
ATOM     19  C   UNL     1      -6.633  70.175  23.692  1.00  0.00     0.008 C 
ENDBRANCH  12  17
ENDBRANCH  11  12
ENDBRANCH   1  11
TORSDOF 1
ENDMDL
MODEL 7
REMARK VINA RESULT:    -3.152      3.200      6.418
REMARK INTER + INTRA:          -4.990
REMARK INTER:                  -4.903
REMARK INTRA:                  -0.087
REMARK UNBOUND:                -0.180
REMARK SMILES CC1=CCC[C@@H](C)C(=O)C[C@@H](C(C)C)C(=O)C1
REMARK SMILES IDX 8 1 9 2 6 3 7 4 5 5 4 6 3 7 2 8 1 9 10 11 11 12 15 13 16 14
REMARK SMILES IDX 17 15 12 17 13 18 14 19
REMARK H PARENT
REMARK Flexibility Score: 70.00
ROOT
ATOM      1  C   UNL     1      -4.272  70.398  25.424  1.00  0.00     0.136 C 
ATOM      2  O   UNL     1      -3.061  70.420  25.245  1.00  0.00    -0.299 OA
ENDROOT
BRANCH   1   3
ATOM      3  C   UNL     1      -4.830  69.370  26.397  1.00  0.00     0.053 C 
ATOM      4  C   UNL     1      -4.422  69.615  27.858  1.00  0.00     0.016 C 
BRANCH   3   5
ATOM      5  C   UNL     1      -4.573  67.922  25.923  1.00  0.00     0.015 C 
BRANCH   5   6
ATOM      6  C   UNL     1      -5.801  67.235  25.295  1.00  0.00     0.028 C 
BRANCH   6   7
ATOM      7  C   UNL     1      -5.513  66.655  23.932  1.00  0.00    -0.028 C 
ATOM      8  C   UNL     1      -5.871  67.217  22.751  1.00  0.00    -0.070 CG0
ATOM      9  C   UNL     1      -5.424  66.531  21.484  1.00  0.00     0.039 C 
ATOM     10  G   UNL     1      -6.723  68.476  22.643  1.00  0.00     0.000 G0
ENDBRANCH   6   7
ENDBRANCH   5   6
ENDBRANCH   3   5
ENDBRANCH   1   3
BRANCH   1  11
ATOM     11  C   UNL     1      -5.128  71.378  24.644  1.00  0.00     0.087 C 
BRANCH  11  12
ATOM     12  C   UNL     1      -6.359  70.698  23.984  1.00  0.00     0.066 C 
BRANCH  12  13
ATOM     13  C   UNL     1      -5.935  69.760  22.865  1.00  0.00     0.140 C 
ATOM     14  O   UNL     1      -4.995  70.049  22.137  1.00  0.00    -0.299 OA
BRANCH  13  15
ATOM     15  C   UNL     1      -6.702  68.484  22.614  1.00  0.00     0.106 CG0
ATOM     16  G   UNL     1      -5.855  67.225  22.747  1.00  0.00     0.000 G0
ENDBRANCH  13  15
ENDBRANCH  12  13
BRANCH  12  17
ATOM     17  C   UNL     1      -7.449  71.715  23.508  1.00  0.00    -0.006 C 
ATOM     18  C   UNL     1      -8.163  72.375  24.699  1.00  0.00     0.008 C 
ATOM     19  C   UNL     1      -6.914  72.801  22.556  1.00  0.00     0.008 C 
ENDBRANCH  12  17
ENDBRANCH  11  12
ENDBRANCH   1  11
TORSDOF 1
ENDMDL
MODEL 8
REMARK VINA RESULT:    -3.041      3.433      5.952
REMARK INTER + INTRA:          -4.821
REMARK INTER:                  -4.371
REMARK INTRA:                  -0.449
REMARK UNBOUND:                -0.180
REMARK SMILES CC1=CCC[C@@H](C)C(=O)C[C@@H](C(C)C)C(=O)C1
REMARK SMILES IDX 8 1 9 2 6 3 7 4 5 5 4 6 3 7 2 8 1 9 10 11 11 12 15 13 16 14
REMARK SMILES IDX 17 15 12 17 13 18 14 19
REMARK H PARENT
REMARK Flexibility Score: 70.00
ROOT
ATOM      1  C   UNL     1      -4.607  66.933  23.944  1.00  0.00     0.136 C 
ATOM      2  O   UNL     1      -4.351  66.123  23.063  1.00  0.00    -0.299 OA
ENDROOT
BRANCH   1   3
ATOM      3  C   UNL     1      -6.005  66.914  24.546  1.00  0.00     0.053 C 
ATOM      4  C   UNL     1      -6.273  65.699  25.448  1.00  0.00     0.016 C 
BRANCH   3   5
ATOM      5  C   UNL     1      -7.099  67.139  23.479  1.00  0.00     0.015 C 
BRANCH   5   6
ATOM      6  C   UNL     1      -6.864  68.370  22.582  1.00  0.00     0.028 C 
BRANCH   6   7
ATOM      7  C   UNL     1      -7.220  69.668  23.265  1.00  0.00    -0.028 C 
ATOM      8  C   UNL     1      -6.356  70.682  23.516  1.00  0.00    -0.070 CG0
ATOM      9  C   UNL     1      -6.912  71.939  24.137  1.00  0.00     0.039 C 
ATOM     10  G   UNL     1      -4.861  70.601  23.235  1.00  0.00     0.000 G0
ENDBRANCH   6   7
ENDBRANCH   5   6
ENDBRANCH   3   5
ENDBRANCH   1   3
BRANCH   1  11
ATOM     11  C   UNL     1      -3.523  67.913  24.352  1.00  0.00     0.087 C 
BRANCH  11  12
ATOM     12  C   UNL     1      -4.071  69.076  25.224  1.00  0.00     0.066 C 
BRANCH  12  13
ATOM     13  C   UNL     1      -4.009  70.400  24.478  1.00  0.00     0.140 C 
ATOM     14  O   UNL     1      -3.312  71.314  24.895  1.00  0.00    -0.299 OA
BRANCH  13  15
ATOM     15  C   UNL     1      -4.846  70.611  23.239  1.00  0.00     0.106 CG0
ATOM     16  G   UNL     1      -6.343  70.671  23.516  1.00  0.00     0.000 G0
ENDBRANCH  13  15
ENDBRANCH  12  13
BRANCH  12  17
ATOM     17  C   UNL     1      -3.392  69.170  26.630  1.00  0.00    -0.006 C 
ATOM     18  C   UNL     1      -4.401  69.571  27.719  1.00  0.00     0.008 C 
ATOM     19  C   UNL     1      -2.654  67.886  27.053  1.00  0.00     0.008 C 
ENDBRANCH  12  17
ENDBRANCH  11  12
ENDBRANCH   1  11
TORSDOF 1
ENDMDL
MODEL 9
REMARK VINA RESULT:    -2.977     11.703     13.639
REMARK INTER + INTRA:          -4.724
REMARK INTER:                  -4.364
REMARK INTRA:                  -0.360
REMARK UNBOUND:                -0.180
REMARK SMILES CC1=CCC[C@@H](C)C(=O)C[C@@H](C(C)C)C(=O)C1
REMARK SMILES IDX 8 1 9 2 6 3 7 4 5 5 4 6 3 7 2 8 1 9 10 11 11 12 15 13 16 14
REMARK SMILES IDX 17 15 12 17 13 18 14 19
REMARK H PARENT
REMARK Flexibility Score: 70.00
ROOT
ATOM      1  C   UNL     1      -7.727  67.678  35.387  1.00  0.00     0.136 C 
ATOM      2  O   UNL     1      -8.946  67.781  35.400  1.00  0.00    -0.299 OA
ENDROOT
BRANCH   1   3
ATOM      3  C   UNL     1      -7.054  67.011  36.578  1.00  0.00     0.053 C 
ATOM      4  C   UNL     1      -7.550  65.582  36.848  1.00  0.00     0.016 C 
BRANCH   3   5
ATOM      5  C   UNL     1      -7.069  67.912  37.833  1.00  0.00     0.015 C 
BRANCH   5   6
ATOM      6  C   UNL     1      -6.019  69.040  37.814  1.00  0.00     0.028 C 
BRANCH   6   7
ATOM      7  C   UNL     1      -4.610  68.524  37.648  1.00  0.00    -0.028 C 
ATOM      8  C   UNL     1      -3.855  68.657  36.530  1.00  0.00    -0.070 CG0
ATOM      9  C   UNL     1      -2.437  68.147  36.578  1.00  0.00     0.039 C 
ATOM     10  G   UNL     1      -4.375  69.261  35.231  1.00  0.00     0.000 G0
ENDBRANCH   6   7
ENDBRANCH   5   6
ENDBRANCH   3   5
ENDBRANCH   1   3
BRANCH   1  11
ATOM     11  C   UNL     1      -6.973  68.245  34.199  1.00  0.00     0.087 C 
BRANCH  11  12
ATOM     12  C   UNL     1      -5.690  67.436  33.866  1.00  0.00     0.066 C 
BRANCH  12  13
ATOM     13  C   UNL     1      -4.439  68.275  34.080  1.00  0.00     0.140 C 
ATOM     14  O   UNL     1      -3.467  68.135  33.351  1.00  0.00    -0.299 OA
BRANCH  13  15
ATOM     15  C   UNL     1      -4.371  69.255  35.227  1.00  0.00     0.106 CG0
ATOM     16  G   UNL     1      -3.854  68.644  36.523  1.00  0.00     0.000 G0
ENDBRANCH  13  15
ENDBRANCH  12  13
BRANCH  12  17
ATOM     17  C   UNL     1      -5.717  66.787  32.442  1.00  0.00    -0.006 C 
ATOM     18  C   UNL     1      -6.375  65.398  32.467  1.00  0.00     0.008 C 
ATOM     19  C   UNL     1      -6.393  67.663  31.371  1.00  0.00     0.008 C 
ENDBRANCH  12  17
ENDBRANCH  11  12
ENDBRANCH   1  11
TORSDOF 1
ENDMDL
