MODEL 1
REMARK VINA RESULT:    -5.872      0.000      0.000
REMARK INTER + INTRA:         -13.155
REMARK INTER:                 -11.022
REMARK INTRA:                  -2.133
REMARK UNBOUND:                -2.133
REMARK SMILES O=C([O-])CCCCCCCCCCCCCCC(=O)[O-]
REMARK SMILES IDX 10 1 9 2 8 3 7 4 6 5 5 6 4 7 2 8 1 9 3 10 11 11 12 12 13 13
REMARK SMILES IDX 14 14 15 15 16 16 17 17 18 18 19 19 20 20
REMARK H PARENT
REMARK Flexibility Score: inf
ROOT
ATOM      1  C   UNL     1      19.196  13.227   0.119  1.00  0.00     0.000 C 
ENDROOT
BRANCH   1   2
ATOM      2  C   UNL     1      19.831  14.506  -0.462  1.00  0.00     0.000 C 
BRANCH   2   3
ATOM      3  C   UNL     1      20.164  15.602   0.570  1.00  0.00     0.000 C 
BRANCH   3   4
ATOM      4  C   UNL     1      21.634  16.058   0.586  1.00  0.00     0.000 C 
BRANCH   4   5
ATOM      5  C   UNL     1      22.177  16.274   2.008  1.00  0.00     0.000 C 
BRANCH   5   6
ATOM      6  C   UNL     1      21.763  15.152   2.976  1.00  0.00     0.006 C 
BRANCH   6   7
ATOM      7  C   UNL     1      22.891  14.752   3.937  1.00  0.00     0.053 C 
BRANCH   7   8
ATOM      8  C   UNL     1      23.429  13.404   3.577  1.00  0.00     0.041 C 
ATOM      9  O   UNL     1      24.400  13.300   2.782  1.00  0.00    -0.550 OA
ATOM     10  O   UNL     1      22.826  12.258   4.080  1.00  0.00    -0.550 OA
ENDBRANCH   7   8
ENDBRANCH   6   7
ENDBRANCH   5   6
ENDBRANCH   4   5
ENDBRANCH   3   4
ENDBRANCH   2   3
ENDBRANCH   1   2
BRANCH   1  11
ATOM     11  C   UNL     1      20.065  11.959   0.015  1.00  0.00     0.000 C 
BRANCH  11  12
ATOM     12  C   UNL     1      21.364  12.059   0.831  1.00  0.00     0.000 C 
BRANCH  12  13
ATOM     13  C   UNL     1      22.619  11.800  -0.019  1.00  0.00     0.000 C 
BRANCH  13  14
ATOM     14  C   UNL     1      23.323  13.095  -0.449  1.00  0.00     0.000 C 
BRANCH  14  15
ATOM     15  C   UNL     1      23.241  13.286  -1.969  1.00  0.00     0.000 C 
BRANCH  15  16
ATOM     16  C   UNL     1      22.379  12.190  -2.615  1.00  0.00     0.006 C 
BRANCH  16  17
ATOM     17  C   UNL     1      21.923  12.568  -4.030  1.00  0.00     0.053 C 
BRANCH  17  18
ATOM     18  C   UNL     1      22.980  12.278  -5.051  1.00  0.00     0.041 C 
ATOM     19  O   UNL     1      23.905  11.463  -4.792  1.00  0.00    -0.550 OA
ATOM     20  O   UNL     1      22.962  12.929  -6.277  1.00  0.00    -0.550 OA
ENDBRANCH  17  18
ENDBRANCH  16  17
ENDBRANCH  15  16
ENDBRANCH  14  15
ENDBRANCH  13  14
ENDBRANCH  12  13
ENDBRANCH  11  12
ENDBRANCH   1  11
TORSDOF 15
ENDMDL
MODEL 2
REMARK VINA RESULT:    -5.866      1.267      2.438
REMARK INTER + INTRA:         -13.144
REMARK INTER:                 -10.585
REMARK INTRA:                  -2.559
REMARK UNBOUND:                -2.133
REMARK SMILES O=C([O-])CCCCCCCCCCCCCCC(=O)[O-]
REMARK SMILES IDX 10 1 9 2 8 3 7 4 6 5 5 6 4 7 2 8 1 9 3 10 11 11 12 12 13 13
REMARK SMILES IDX 14 14 15 15 16 16 17 17 18 18 19 19 20 20
REMARK H PARENT
REMARK Flexibility Score: inf
ROOT
ATOM      1  C   UNL     1      20.401  15.629   0.165  1.00  0.00     0.000 C 
ENDROOT
BRANCH   1   2
ATOM      2  C   UNL     1      21.394  16.121   1.237  1.00  0.00     0.000 C 
BRANCH   2   3
ATOM      3  C   UNL     1      22.861  15.697   1.019  1.00  0.00     0.000 C 
BRANCH   3   4
ATOM      4  C   UNL     1      23.050  14.363   0.273  1.00  0.00     0.000 C 
BRANCH   4   5
ATOM      5  C   UNL     1      23.789  13.309   1.113  1.00  0.00     0.000 C 
BRANCH   5   6
ATOM      6  C   UNL     1      22.858  12.195   1.619  1.00  0.00     0.006 C 
BRANCH   6   7
ATOM      7  C   UNL     1      21.880  12.683   2.697  1.00  0.00     0.053 C 
BRANCH   7   8
ATOM      8  C   UNL     1      22.621  13.069   3.938  1.00  0.00     0.041 C 
ATOM      9  O   UNL     1      22.545  14.244   4.383  1.00  0.00    -0.550 OA
ATOM     10  O   UNL     1      23.436  12.143   4.576  1.00  0.00    -0.550 OA
ENDBRANCH   7   8
ENDBRANCH   6   7
ENDBRANCH   5   6
ENDBRANCH   4   5
ENDBRANCH   3   4
ENDBRANCH   2   3
ENDBRANCH   1   2
BRANCH   1  11
ATOM     11  C   UNL     1      19.096  15.023   0.713  1.00  0.00     0.000 C 
BRANCH  11  12
ATOM     12  C   UNL     1      18.892  13.559   0.286  1.00  0.00     0.000 C 
BRANCH  12  13
ATOM     13  C   UNL     1      19.759  13.168  -0.923  1.00  0.00     0.000 C 
BRANCH  13  14
ATOM     14  C   UNL     1      20.259  11.718  -0.851  1.00  0.00     0.000 C 
BRANCH  14  15
ATOM     15  C   UNL     1      21.465  11.506  -1.775  1.00  0.00     0.000 C 
BRANCH  15  16
ATOM     16  C   UNL     1      21.643  12.698  -2.729  1.00  0.00     0.006 C 
BRANCH  16  17
ATOM     17  C   UNL     1      23.101  12.876  -3.172  1.00  0.00     0.053 C 
BRANCH  17  18
ATOM     18  C   UNL     1      23.326  12.361  -4.561  1.00  0.00     0.041 C 
ATOM     19  O   UNL     1      24.073  11.365  -4.754  1.00  0.00    -0.550 OA
ATOM     20  O   UNL     1      22.737  12.999  -5.644  1.00  0.00    -0.550 OA
ENDBRANCH  17  18
ENDBRANCH  16  17
ENDBRANCH  15  16
ENDBRANCH  14  15
ENDBRANCH  13  14
ENDBRANCH  12  13
ENDBRANCH  11  12
ENDBRANCH   1  11
TORSDOF 15
ENDMDL
MODEL 3
REMARK VINA RESULT:    -5.776      2.041      6.436
REMARK INTER + INTRA:         -12.975
REMARK INTER:                 -11.077
REMARK INTRA:                  -1.899
REMARK UNBOUND:                -2.133
REMARK SMILES O=C([O-])CCCCCCCCCCCCCCC(=O)[O-]
REMARK SMILES IDX 10 1 9 2 8 3 7 4 6 5 5 6 4 7 2 8 1 9 3 10 11 11 12 12 13 13
REMARK SMILES IDX 14 14 15 15 16 16 17 17 18 18 19 19 20 20
REMARK H PARENT
REMARK Flexibility Score: inf
ROOT
ATOM      1  C   UNL     1      19.501  12.639  -0.253  1.00  0.00     0.000 C 
ENDROOT
BRANCH   1   2
ATOM      2  C   UNL     1      19.912  13.561  -1.419  1.00  0.00     0.000 C 
BRANCH   2   3
ATOM      3  C   UNL     1      19.843  12.920  -2.819  1.00  0.00     0.000 C 
BRANCH   3   4
ATOM      4  C   UNL     1      21.119  12.179  -3.261  1.00  0.00     0.000 C 
BRANCH   4   5
ATOM      5  C   UNL     1      22.386  13.037  -3.119  1.00  0.00     0.000 C 
BRANCH   5   6
ATOM      6  C   UNL     1      23.514  12.588  -4.062  1.00  0.00     0.006 C 
BRANCH   6   7
ATOM      7  C   UNL     1      22.999  12.159  -5.443  1.00  0.00     0.053 C 
BRANCH   7   8
ATOM      8  C   UNL     1      23.937  11.176  -6.067  1.00  0.00     0.041 C 
ATOM      9  O   UNL     1      23.758  10.794  -7.253  1.00  0.00    -0.550 OA
ATOM     10  O   UNL     1      24.982  10.643  -5.323  1.00  0.00    -0.550 OA
ENDBRANCH   7   8
ENDBRANCH   6   7
ENDBRANCH   5   6
ENDBRANCH   4   5
ENDBRANCH   3   4
ENDBRANCH   2   3
ENDBRANCH   1   2
BRANCH   1  11
ATOM     11  C   UNL     1      20.634  12.277   0.725  1.00  0.00     0.000 C 
BRANCH  11  12
ATOM     12  C   UNL     1      21.595  11.218   0.159  1.00  0.00     0.000 C 
BRANCH  12  13
ATOM     13  C   UNL     1      23.047  11.430   0.618  1.00  0.00     0.000 C 
BRANCH  13  14
ATOM     14  C   UNL     1      23.692  12.677  -0.005  1.00  0.00     0.000 C 
BRANCH  14  15
ATOM     15  C   UNL     1      24.481  13.470   1.045  1.00  0.00     0.000 C 
BRANCH  15  16
ATOM     16  C   UNL     1      23.603  14.551   1.693  1.00  0.00     0.006 C 
BRANCH  16  17
ATOM     17  C   UNL     1      22.745  15.298   0.664  1.00  0.00     0.053 C 
BRANCH  17  18
ATOM     18  C   UNL     1      21.673  16.112   1.320  1.00  0.00     0.041 C 
ATOM     19  O   UNL     1      20.565  16.284   0.745  1.00  0.00    -0.550 OA
ATOM     20  O   UNL     1      21.906  16.707   2.553  1.00  0.00    -0.550 OA
ENDBRANCH  17  18
ENDBRANCH  16  17
ENDBRANCH  15  16
ENDBRANCH  14  15
ENDBRANCH  13  14
ENDBRANCH  12  13
ENDBRANCH  11  12
ENDBRANCH   1  11
TORSDOF 15
ENDMDL
MODEL 4
REMARK VINA RESULT:    -5.711      1.338      6.521
REMARK INTER + INTRA:         -12.851
REMARK INTER:                 -10.554
REMARK INTRA:                  -2.298
REMARK UNBOUND:                -2.133
REMARK SMILES O=C([O-])CCCCCCCCCCCCCCC(=O)[O-]
REMARK SMILES IDX 10 1 9 2 8 3 7 4 6 5 5 6 4 7 2 8 1 9 3 10 11 11 12 12 13 13
REMARK SMILES IDX 14 14 15 15 16 16 17 17 18 18 19 19 20 20
REMARK H PARENT
REMARK Flexibility Score: inf
ROOT
ATOM      1  C   UNL     1      20.669  15.429   1.285  1.00  0.00     0.000 C 
ENDROOT
BRANCH   1   2
ATOM      2  C   UNL     1      19.637  15.205   0.162  1.00  0.00     0.000 C 
BRANCH   2   3
ATOM      3  C   UNL     1      19.213  13.739  -0.059  1.00  0.00     0.000 C 
BRANCH   3   4
ATOM      4  C   UNL     1      19.177  13.284  -1.529  1.00  0.00     0.000 C 
BRANCH   4   5
ATOM      5  C   UNL     1      20.298  12.290  -1.873  1.00  0.00     0.000 C 
BRANCH   5   6
ATOM      6  C   UNL     1      21.189  12.778  -3.028  1.00  0.00     0.006 C 
BRANCH   6   7
ATOM      7  C   UNL     1      22.531  12.037  -3.097  1.00  0.00     0.053 C 
BRANCH   7   8
ATOM      8  C   UNL     1      23.136  12.179  -4.458  1.00  0.00     0.041 C 
ATOM      9  O   UNL     1      22.657  13.002  -5.282  1.00  0.00    -0.550 OA
ATOM     10  O   UNL     1      24.200  11.368  -4.833  1.00  0.00    -0.550 OA
ENDBRANCH   7   8
ENDBRANCH   6   7
ENDBRANCH   5   6
ENDBRANCH   4   5
ENDBRANCH   3   4
ENDBRANCH   2   3
ENDBRANCH   1   2
BRANCH   1  11
ATOM     11  C   UNL     1      21.958  16.153   0.855  1.00  0.00     0.000 C 
BRANCH  11  12
ATOM     12  C   UNL     1      23.199  15.247   0.912  1.00  0.00     0.000 C 
BRANCH  12  13
ATOM     13  C   UNL     1      23.100  14.047  -0.044  1.00  0.00     0.000 C 
BRANCH  13  14
ATOM     14  C   UNL     1      23.592  12.738   0.592  1.00  0.00     0.000 C 
BRANCH  14  15
ATOM     15  C   UNL     1      22.411  11.842   0.987  1.00  0.00     0.000 C 
BRANCH  15  16
ATOM     16  C   UNL     1      21.918  12.174   2.404  1.00  0.00     0.006 C 
BRANCH  16  17
ATOM     17  C   UNL     1      23.075  12.405   3.383  1.00  0.00     0.053 C 
BRANCH  17  18
ATOM     18  C   UNL     1      22.676  13.301   4.515  1.00  0.00     0.041 C 
ATOM     19  O   UNL     1      22.488  14.530   4.314  1.00  0.00    -0.550 OA
ATOM     20  O   UNL     1      22.541  12.786   5.798  1.00  0.00    -0.550 OA
ENDBRANCH  17  18
ENDBRANCH  16  17
ENDBRANCH  15  16
ENDBRANCH  14  15
ENDBRANCH  13  14
ENDBRANCH  12  13
ENDBRANCH  11  12
ENDBRANCH   1  11
TORSDOF 15
ENDMDL
MODEL 5
REMARK VINA RESULT:    -5.705      2.167      5.529
REMARK INTER + INTRA:         -12.840
REMARK INTER:                 -10.381
REMARK INTRA:                  -2.460
REMARK UNBOUND:                -2.133
REMARK SMILES O=C([O-])CCCCCCCCCCCCCCC(=O)[O-]
REMARK SMILES IDX 10 1 9 2 8 3 7 4 6 5 5 6 4 7 2 8 1 9 3 10 11 11 12 12 13 13
REMARK SMILES IDX 14 14 15 15 16 16 17 17 18 18 19 19 20 20
REMARK H PARENT
REMARK Flexibility Score: inf
ROOT
ATOM      1  C   UNL     1      22.973  13.155   3.883  1.00  0.00     0.000 C 
ENDROOT
BRANCH   1   2
ATOM      2  C   UNL     1      21.949  12.729   2.812  1.00  0.00     0.000 C 
BRANCH   2   3
ATOM      3  C   UNL     1      22.553  12.268   1.471  1.00  0.00     0.000 C 
BRANCH   3   4
ATOM      4  C   UNL     1      23.919  12.888   1.123  1.00  0.00     0.000 C 
BRANCH   4   5
ATOM      5  C   UNL     1      24.221  12.858  -0.384  1.00  0.00     0.000 C 
BRANCH   5   6
ATOM      6  C   UNL     1      22.950  12.952  -1.245  1.00  0.00     0.006 C 
BRANCH   6   7
ATOM      7  C   UNL     1      23.238  13.414  -2.680  1.00  0.00     0.053 C 
BRANCH   7   8
ATOM      8  C   UNL     1      22.650  12.454  -3.664  1.00  0.00     0.041 C 
ATOM      9  O   UNL     1      23.398  11.699  -4.339  1.00  0.00    -0.550 OA
ATOM     10  O   UNL     1      21.276  12.427  -3.872  1.00  0.00    -0.550 OA
ENDBRANCH   7   8
ENDBRANCH   6   7
ENDBRANCH   5   6
ENDBRANCH   4   5
ENDBRANCH   3   4
ENDBRANCH   2   3
ENDBRANCH   1   2
BRANCH   1  11
ATOM     11  C   UNL     1      22.888  14.629   4.320  1.00  0.00     0.000 C 
BRANCH  11  12
ATOM     12  C   UNL     1      21.987  15.472   3.402  1.00  0.00     0.000 C 
BRANCH  12  13
ATOM     13  C   UNL     1      22.778  16.199   2.302  1.00  0.00     0.000 C 
BRANCH  13  14
ATOM     14  C   UNL     1      22.063  16.174   0.942  1.00  0.00     0.000 C 
BRANCH  14  15
ATOM     15  C   UNL     1      20.600  15.742   1.098  1.00  0.00     0.000 C 
BRANCH  15  16
ATOM     16  C   UNL     1      20.111  14.991  -0.150  1.00  0.00     0.006 C 
BRANCH  16  17
ATOM     17  C   UNL     1      19.087  13.901   0.191  1.00  0.00     0.053 C 
BRANCH  17  18
ATOM     18  C   UNL     1      19.083  12.804  -0.829  1.00  0.00     0.041 C 
ATOM     19  O   UNL     1      19.640  11.702  -0.578  1.00  0.00    -0.550 OA
ATOM     20  O   UNL     1      18.491  13.007  -2.069  1.00  0.00    -0.550 OA
ENDBRANCH  17  18
ENDBRANCH  16  17
ENDBRANCH  15  16
ENDBRANCH  14  15
ENDBRANCH  13  14
ENDBRANCH  12  13
ENDBRANCH  11  12
ENDBRANCH   1  11
TORSDOF 15
ENDMDL
MODEL 6
REMARK VINA RESULT:    -5.674      9.705     11.506
REMARK INTER + INTRA:         -12.784
REMARK INTER:                 -10.849
REMARK INTRA:                  -1.935
REMARK UNBOUND:                -2.133
REMARK SMILES O=C([O-])CCCCCCCCCCCCCCC(=O)[O-]
REMARK SMILES IDX 10 1 9 2 8 3 7 4 6 5 5 6 4 7 2 8 1 9 3 10 11 11 12 12 13 13
REMARK SMILES IDX 14 14 15 15 16 16 17 17 18 18 19 19 20 20
REMARK H PARENT
REMARK Flexibility Score: inf
ROOT
ATOM      1  C   UNL     1      15.389  18.905   0.587  1.00  0.00     0.000 C 
ENDROOT
BRANCH   1   2
ATOM      2  C   UNL     1      14.404  18.836   1.770  1.00  0.00     0.000 C 
BRANCH   2   3
ATOM      3  C   UNL     1      13.021  19.467   1.512  1.00  0.00     0.000 C 
BRANCH   3   4
ATOM      4  C   UNL     1      12.899  20.952   1.900  1.00  0.00     0.000 C 
BRANCH   4   5
ATOM      5  C   UNL     1      13.828  21.344   3.060  1.00  0.00     0.000 C 
BRANCH   5   6
ATOM      6  C   UNL     1      13.813  22.854   3.347  1.00  0.00     0.006 C 
BRANCH   6   7
ATOM      7  C   UNL     1      15.049  23.323   4.126  1.00  0.00     0.053 C 
BRANCH   7   8
ATOM      8  C   UNL     1      16.239  23.397   3.223  1.00  0.00     0.041 C 
ATOM      9  O   UNL     1      17.375  23.048   3.639  1.00  0.00    -0.550 OA
ATOM     10  O   UNL     1      16.102  23.898   1.934  1.00  0.00    -0.550 OA
ENDBRANCH   7   8
ENDBRANCH   6   7
ENDBRANCH   5   6
ENDBRANCH   4   5
ENDBRANCH   3   4
ENDBRANCH   2   3
ENDBRANCH   1   2
BRANCH   1  11
ATOM     11  C   UNL     1      16.385  20.079   0.633  1.00  0.00     0.000 C 
BRANCH  11  12
ATOM     12  C   UNL     1      15.996  21.229  -0.312  1.00  0.00     0.000 C 
BRANCH  12  13
ATOM     13  C   UNL     1      15.820  20.765  -1.768  1.00  0.00     0.000 C 
BRANCH  13  14
ATOM     14  C   UNL     1      14.690  21.509  -2.496  1.00  0.00     0.000 C 
BRANCH  14  15
ATOM     15  C   UNL     1      13.546  21.848  -1.531  1.00  0.00     0.000 C 
BRANCH  15  16
ATOM     16  C   UNL     1      12.193  21.393  -2.101  1.00  0.00     0.006 C 
BRANCH  16  17
ATOM     17  C   UNL     1      12.329  20.169  -3.016  1.00  0.00     0.053 C 
BRANCH  17  18
ATOM     18  C   UNL     1      11.848  18.918  -2.346  1.00  0.00     0.041 C 
ATOM     19  O   UNL     1      12.038  17.797  -2.887  1.00  0.00    -0.550 OA
ATOM     20  O   UNL     1      11.164  18.993  -1.140  1.00  0.00    -0.550 OA
ENDBRANCH  17  18
ENDBRANCH  16  17
ENDBRANCH  15  16
ENDBRANCH  14  15
ENDBRANCH  13  14
ENDBRANCH  12  13
ENDBRANCH  11  12
ENDBRANCH   1  11
TORSDOF 15
ENDMDL
MODEL 7
REMARK VINA RESULT:    -5.596      2.009      3.544
REMARK INTER + INTRA:         -12.637
REMARK INTER:                 -10.627
REMARK INTRA:                  -2.010
REMARK UNBOUND:                -2.133
REMARK SMILES O=C([O-])CCCCCCCCCCCCCCC(=O)[O-]
REMARK SMILES IDX 10 1 9 2 8 3 7 4 6 5 5 6 4 7 2 8 1 9 3 10 11 11 12 12 13 13
REMARK SMILES IDX 14 14 15 15 16 16 17 17 18 18 19 19 20 20
REMARK H PARENT
REMARK Flexibility Score: inf
ROOT
ATOM      1  C   UNL     1      23.429  13.227   2.978  1.00  0.00     0.000 C 
ENDROOT
BRANCH   1   2
ATOM      2  C   UNL     1      22.743  14.238   3.919  1.00  0.00     0.000 C 
BRANCH   2   3
ATOM      3  C   UNL     1      22.221  15.520   3.240  1.00  0.00     0.000 C 
BRANCH   3   4
ATOM      4  C   UNL     1      22.830  15.820   1.858  1.00  0.00     0.000 C 
BRANCH   4   5
ATOM      5  C   UNL     1      21.766  15.985   0.760  1.00  0.00     0.000 C 
BRANCH   5   6
ATOM      6  C   UNL     1      20.534  15.095   0.991  1.00  0.00     0.006 C 
BRANCH   6   7
ATOM      7  C   UNL     1      19.546  15.131  -0.183  1.00  0.00     0.053 C 
BRANCH   7   8
ATOM      8  C   UNL     1      19.009  13.762  -0.455  1.00  0.00     0.041 C 
ATOM      9  O   UNL     1      18.836  12.949   0.490  1.00  0.00    -0.550 OA
ATOM     10  O   UNL     1      18.745  13.366  -1.761  1.00  0.00    -0.550 OA
ENDBRANCH   7   8
ENDBRANCH   6   7
ENDBRANCH   5   6
ENDBRANCH   4   5
ENDBRANCH   3   4
ENDBRANCH   2   3
ENDBRANCH   1   2
BRANCH   1  11
ATOM     11  C   UNL     1      22.481  12.227   2.289  1.00  0.00     0.000 C 
BRANCH  11  12
ATOM     12  C   UNL     1      22.958  11.824   0.884  1.00  0.00     0.000 C 
BRANCH  12  13
ATOM     13  C   UNL     1      21.805  11.369  -0.026  1.00  0.00     0.000 C 
BRANCH  13  14
ATOM     14  C   UNL     1      22.023  11.749  -1.498  1.00  0.00     0.000 C 
BRANCH  14  15
ATOM     15  C   UNL     1      22.638  13.149  -1.618  1.00  0.00     0.000 C 
BRANCH  15  16
ATOM     16  C   UNL     1      23.224  13.374  -3.021  1.00  0.00     0.006 C 
BRANCH  16  17
ATOM     17  C   UNL     1      22.427  12.641  -4.108  1.00  0.00     0.053 C 
BRANCH  17  18
ATOM     18  C   UNL     1      23.326  12.013  -5.128  1.00  0.00     0.041 C 
ATOM     19  O   UNL     1      24.248  11.235  -4.767  1.00  0.00    -0.550 OA
ATOM     20  O   UNL     1      23.166  12.311  -6.475  1.00  0.00    -0.550 OA
ENDBRANCH  17  18
ENDBRANCH  16  17
ENDBRANCH  15  16
ENDBRANCH  14  15
ENDBRANCH  13  14
ENDBRANCH  12  13
ENDBRANCH  11  12
ENDBRANCH   1  11
TORSDOF 15
ENDMDL
MODEL 8
REMARK VINA RESULT:    -5.568      1.438      6.890
REMARK INTER + INTRA:         -12.584
REMARK INTER:                 -10.601
REMARK INTRA:                  -1.983
REMARK UNBOUND:                -2.133
REMARK SMILES O=C([O-])CCCCCCCCCCCCCCC(=O)[O-]
REMARK SMILES IDX 10 1 9 2 8 3 7 4 6 5 5 6 4 7 2 8 1 9 3 10 11 11 12 12 13 13
REMARK SMILES IDX 14 14 15 15 16 16 17 17 18 18 19 19 20 20
REMARK H PARENT
REMARK Flexibility Score: inf
ROOT
ATOM      1  C   UNL     1      19.269  12.997  -0.833  1.00  0.00     0.000 C 
ENDROOT
BRANCH   1   2
ATOM      2  C   UNL     1      20.138  11.759  -0.537  1.00  0.00     0.000 C 
BRANCH   2   3
ATOM      3  C   UNL     1      21.359  11.576  -1.461  1.00  0.00     0.000 C 
BRANCH   3   4
ATOM      4  C   UNL     1      21.593  12.718  -2.466  1.00  0.00     0.000 C 
BRANCH   4   5
ATOM      5  C   UNL     1      23.055  13.193  -2.501  1.00  0.00     0.000 C 
BRANCH   5   6
ATOM      6  C   UNL     1      23.601  13.326  -3.932  1.00  0.00     0.006 C 
BRANCH   6   7
ATOM      7  C   UNL     1      22.819  12.481  -4.947  1.00  0.00     0.053 C 
BRANCH   7   8
ATOM      8  C   UNL     1      23.746  11.577  -5.697  1.00  0.00     0.041 C 
ATOM      9  O   UNL     1      23.550  11.339  -6.917  1.00  0.00    -0.550 OA
ATOM     10  O   UNL     1      24.799  10.958  -5.035  1.00  0.00    -0.550 OA
ENDBRANCH   7   8
ENDBRANCH   6   7
ENDBRANCH   5   6
ENDBRANCH   4   5
ENDBRANCH   3   4
ENDBRANCH   2   3
ENDBRANCH   1   2
BRANCH   1  11
ATOM     11  C   UNL     1      19.071  13.956   0.356  1.00  0.00     0.000 C 
BRANCH  11  12
ATOM     12  C   UNL     1      19.877  15.258   0.213  1.00  0.00     0.000 C 
BRANCH  12  13
ATOM     13  C   UNL     1      20.983  15.390   1.273  1.00  0.00     0.000 C 
BRANCH  13  14
ATOM     14  C   UNL     1      22.393  15.219   0.686  1.00  0.00     0.000 C 
BRANCH  14  15
ATOM     15  C   UNL     1      22.981  13.852   1.059  1.00  0.00     0.000 C 
BRANCH  15  16
ATOM     16  C   UNL     1      22.111  13.148   2.112  1.00  0.00     0.006 C 
BRANCH  16  17
ATOM     17  C   UNL     1      22.946  12.551   3.252  1.00  0.00     0.053 C 
BRANCH  17  18
ATOM     18  C   UNL     1      22.773  13.317   4.528  1.00  0.00     0.041 C 
ATOM     19  O   UNL     1      22.694  12.708   5.627  1.00  0.00    -0.550 OA
ATOM     20  O   UNL     1      22.669  14.701   4.500  1.00  0.00    -0.550 OA
ENDBRANCH  17  18
ENDBRANCH  16  17
ENDBRANCH  15  16
ENDBRANCH  14  15
ENDBRANCH  13  14
ENDBRANCH  12  13
ENDBRANCH  11  12
ENDBRANCH   1  11
TORSDOF 15
ENDMDL
MODEL 9
REMARK VINA RESULT:    -5.508      2.576      4.872
REMARK INTER + INTRA:         -12.471
REMARK INTER:                 -10.419
REMARK INTRA:                  -2.052
REMARK UNBOUND:                -2.133
REMARK SMILES O=C([O-])CCCCCCCCCCCCCCC(=O)[O-]
REMARK SMILES IDX 10 1 9 2 8 3 7 4 6 5 5 6 4 7 2 8 1 9 3 10 11 11 12 12 13 13
REMARK SMILES IDX 14 14 15 15 16 16 17 17 18 18 19 19 20 20
REMARK H PARENT
REMARK Flexibility Score: inf
ROOT
ATOM      1  C   UNL     1      23.152  12.406  -3.014  1.00  0.00     0.000 C 
ENDROOT
BRANCH   1   2
ATOM      2  C   UNL     1      23.382  13.388  -1.847  1.00  0.00     0.000 C 
BRANCH   2   3
ATOM      3  C   UNL     1      23.579  12.732  -0.466  1.00  0.00     0.000 C 
BRANCH   3   4
ATOM      4  C   UNL     1      22.542  11.653  -0.103  1.00  0.00     0.000 C 
BRANCH   4   5
ATOM      5  C   UNL     1      22.521  11.328   1.400  1.00  0.00     0.000 C 
BRANCH   5   6
ATOM      6  C   UNL     1      21.968  12.486   2.248  1.00  0.00     0.006 C 
BRANCH   6   7
ATOM      7  C   UNL     1      23.053  13.179   3.084  1.00  0.00     0.053 C 
BRANCH   7   8
ATOM      8  C   UNL     1      22.967  12.744   4.513  1.00  0.00     0.041 C 
ATOM      9  O   UNL     1      22.271  13.397   5.334  1.00  0.00    -0.550 OA
ATOM     10  O   UNL     1      23.695  11.644   4.949  1.00  0.00    -0.550 OA
ENDBRANCH   7   8
ENDBRANCH   6   7
ENDBRANCH   5   6
ENDBRANCH   4   5
ENDBRANCH   3   4
ENDBRANCH   2   3
ENDBRANCH   1   2
BRANCH   1  11
ATOM     11  C   UNL     1      21.780  12.522  -3.704  1.00  0.00     0.000 C 
BRANCH  11  12
ATOM     12  C   UNL     1      20.618  12.074  -2.802  1.00  0.00     0.000 C 
BRANCH  12  13
ATOM     13  C   UNL     1      19.606  13.200  -2.535  1.00  0.00     0.000 C 
BRANCH  13  14
ATOM     14  C   UNL     1      18.732  12.934  -1.300  1.00  0.00     0.000 C 
BRANCH  14  15
ATOM     15  C   UNL     1      19.411  13.451  -0.025  1.00  0.00     0.000 C 
BRANCH  15  16
ATOM     16  C   UNL     1      20.200  14.739  -0.305  1.00  0.00     0.006 C 
BRANCH  16  17
ATOM     17  C   UNL     1      20.211  15.688   0.900  1.00  0.00     0.053 C 
BRANCH  17  18
ATOM     18  C   UNL     1      21.606  16.061   1.301  1.00  0.00     0.041 C 
ATOM     19  O   UNL     1      22.560  15.909   0.493  1.00  0.00    -0.550 OA
ATOM     20  O   UNL     1      21.857  16.547   2.578  1.00  0.00    -0.550 OA
ENDBRANCH  17  18
ENDBRANCH  16  17
ENDBRANCH  15  16
ENDBRANCH  14  15
ENDBRANCH  13  14
ENDBRANCH  12  13
ENDBRANCH  11  12
ENDBRANCH   1  11
TORSDOF 15
ENDMDL
