MODEL 1
REMARK VINA RESULT:    -4.603      0.000      0.000
REMARK INTER + INTRA:          -7.140
REMARK INTER:                  -6.218
REMARK INTRA:                  -0.922
REMARK UNBOUND:                -0.922
REMARK SMILES O=C[C@@H](O)[C@H](O)[C@@H](O)CO
REMARK SMILES IDX 7 1 9 2 10 3 5 5 3 6 2 7 1 8 4 9 6 11 8 13
REMARK H PARENT 10 4 4 10 6 12 8 14
REMARK Flexibility Score: inf
ROOT
ATOM      1  C   UNL     1     -28.361  28.132 -30.670  1.00  0.00     0.171 C 
ENDROOT
BRANCH   1   2
ATOM      2  C   UNL     1     -29.466  27.417 -31.472  1.00  0.00     0.190 C 
BRANCH   2   3
ATOM      3  O   UNL     1     -29.887  26.259 -30.801  1.00  0.00    -0.394 OA
ATOM      4  H   UNL     1     -30.327  25.681 -31.477  1.00  0.00     0.210 HD
ENDBRANCH   2   3
ENDBRANCH   1   2
BRANCH   1   5
ATOM      5  C   UNL     1     -28.932  28.826 -29.405  1.00  0.00     0.181 C 
BRANCH   5   6
ATOM      6  C   UNL     1     -27.874  29.691 -28.674  1.00  0.00     0.209 C 
BRANCH   6   7
ATOM      7  C   UNL     1     -27.427  29.021 -27.403  1.00  0.00     0.258 C 
ATOM      8  O   UNL     1     -27.010  27.873 -27.423  1.00  0.00    -0.300 OA
ENDBRANCH   6   7
BRANCH   6   9
ATOM      9  O   UNL     1     -26.762  29.910 -29.506  1.00  0.00    -0.383 OA
ATOM     10  H   UNL     1     -26.517  29.030 -29.895  1.00  0.00     0.211 HD
ENDBRANCH   6   9
ENDBRANCH   5   6
BRANCH   5  11
ATOM     11  O   UNL     1     -29.542  27.900 -28.536  1.00  0.00    -0.387 OA
ATOM     12  H   UNL     1     -30.273  27.447 -29.029  1.00  0.00     0.211 HD
ENDBRANCH   5  11
ENDBRANCH   1   5
BRANCH   1  13
ATOM     13  O   UNL     1     -27.313  27.249 -30.351  1.00  0.00    -0.388 OA
ATOM     14  H   UNL     1     -26.536  27.474 -30.926  1.00  0.00     0.211 HD
ENDBRANCH   1  13
TORSDOF 8
ENDMDL
MODEL 2
REMARK VINA RESULT:    -4.477     11.173     12.429
REMARK INTER + INTRA:          -6.970
REMARK INTER:                  -6.697
REMARK INTRA:                  -0.273
REMARK UNBOUND:                -0.922
REMARK SMILES O=C[C@@H](O)[C@H](O)[C@@H](O)CO
REMARK SMILES IDX 7 1 9 2 10 3 5 5 3 6 2 7 1 8 4 9 6 11 8 13
REMARK H PARENT 10 4 4 10 6 12 8 14
REMARK Flexibility Score: inf
ROOT
ATOM      1  C   UNL     1     -32.959  18.948 -23.836  1.00  0.00     0.171 C 
ENDROOT
BRANCH   1   2
ATOM      2  C   UNL     1     -32.173  20.245 -24.114  1.00  0.00     0.190 C 
BRANCH   2   3
ATOM      3  O   UNL     1     -30.816  20.070 -23.805  1.00  0.00    -0.394 OA
ATOM      4  H   UNL     1     -30.601  19.119 -23.991  1.00  0.00     0.210 HD
ENDBRANCH   2   3
ENDBRANCH   1   2
BRANCH   1   5
ATOM      5  C   UNL     1     -33.842  18.545 -25.047  1.00  0.00     0.181 C 
BRANCH   5   6
ATOM      6  C   UNL     1     -35.152  19.369 -25.126  1.00  0.00     0.209 C 
BRANCH   6   7
ATOM      7  C   UNL     1     -35.636  19.460 -26.548  1.00  0.00     0.258 C 
ATOM      8  O   UNL     1     -35.822  18.446 -27.204  1.00  0.00    -0.300 OA
ENDBRANCH   6   7
BRANCH   6   9
ATOM      9  O   UNL     1     -36.148  18.782 -24.327  1.00  0.00    -0.383 OA
ATOM     10  H   UNL     1     -35.999  19.104 -23.399  1.00  0.00     0.211 HD
ENDBRANCH   6   9
ENDBRANCH   5   6
BRANCH   5  11
ATOM     11  O   UNL     1     -34.093  17.160 -25.067  1.00  0.00    -0.387 OA
ATOM     12  H   UNL     1     -33.794  16.777 -24.202  1.00  0.00     0.211 HD
ENDBRANCH   5  11
ENDBRANCH   1   5
BRANCH   1  13
ATOM     13  O   UNL     1     -32.097  17.905 -23.450  1.00  0.00    -0.388 OA
ATOM     14  H   UNL     1     -32.534  17.044 -23.681  1.00  0.00     0.211 HD
ENDBRANCH   1  13
TORSDOF 8
ENDMDL
MODEL 3
REMARK VINA RESULT:    -4.445     11.750     12.198
REMARK INTER + INTRA:          -6.926
REMARK INTER:                  -6.771
REMARK INTRA:                  -0.155
REMARK UNBOUND:                -0.922
REMARK SMILES O=C[C@@H](O)[C@H](O)[C@@H](O)CO
REMARK SMILES IDX 7 1 9 2 10 3 5 5 3 6 2 7 1 8 4 9 6 11 8 13
REMARK H PARENT 10 4 4 10 6 12 8 14
REMARK Flexibility Score: inf
ROOT
ATOM      1  C   UNL     1     -33.899  18.629 -26.639  1.00  0.00     0.171 C 
ENDROOT
BRANCH   1   2
ATOM      2  C   UNL     1     -35.342  19.108 -26.895  1.00  0.00     0.190 C 
BRANCH   2   3
ATOM      3  O   UNL     1     -36.211  18.012 -26.999  1.00  0.00    -0.394 OA
ATOM      4  H   UNL     1     -35.747  17.331 -27.553  1.00  0.00     0.210 HD
ENDBRANCH   2   3
ENDBRANCH   1   2
BRANCH   1   5
ATOM      5  C   UNL     1     -33.749  18.000 -25.228  1.00  0.00     0.181 C 
BRANCH   5   6
ATOM      6  C   UNL     1     -32.956  18.908 -24.255  1.00  0.00     0.209 C 
BRANCH   6   7
ATOM      7  C   UNL     1     -33.894  19.681 -23.367  1.00  0.00     0.258 C 
ATOM      8  O   UNL     1     -35.102  19.534 -23.468  1.00  0.00    -0.300 OA
ENDBRANCH   6   7
BRANCH   6   9
ATOM      9  O   UNL     1     -32.088  18.137 -23.464  1.00  0.00    -0.383 OA
ATOM     10  H   UNL     1     -31.254  18.014 -23.988  1.00  0.00     0.211 HD
ENDBRANCH   6   9
ENDBRANCH   5   6
BRANCH   5  11
ATOM     11  O   UNL     1     -33.205  16.702 -25.294  1.00  0.00    -0.387 OA
ATOM     12  H   UNL     1     -33.011  16.400 -24.370  1.00  0.00     0.211 HD
ENDBRANCH   5  11
ENDBRANCH   1   5
BRANCH   1  13
ATOM     13  O   UNL     1     -33.470  17.749 -27.649  1.00  0.00    -0.388 OA
ATOM     14  H   UNL     1     -33.642  16.821 -27.342  1.00  0.00     0.211 HD
ENDBRANCH   1  13
TORSDOF 8
ENDMDL
MODEL 4
REMARK VINA RESULT:    -4.429     12.026     12.325
REMARK INTER + INTRA:          -6.905
REMARK INTER:                  -6.427
REMARK INTRA:                  -0.478
REMARK UNBOUND:                -0.922
REMARK SMILES O=C[C@@H](O)[C@H](O)[C@@H](O)CO
REMARK SMILES IDX 7 1 9 2 10 3 5 5 3 6 2 7 1 8 4 9 6 11 8 13
REMARK H PARENT 10 4 4 10 6 12 8 14
REMARK Flexibility Score: inf
ROOT
ATOM      1  C   UNL     1     -33.911  18.231 -25.652  1.00  0.00     0.171 C 
ENDROOT
BRANCH   1   2
ATOM      2  C   UNL     1     -34.648  18.551 -26.967  1.00  0.00     0.190 C 
BRANCH   2   3
ATOM      3  O   UNL     1     -35.984  18.129 -26.894  1.00  0.00    -0.394 OA
ATOM      4  H   UNL     1     -36.228  18.118 -25.931  1.00  0.00     0.210 HD
ENDBRANCH   2   3
ENDBRANCH   1   2
BRANCH   1   5
ATOM      5  C   UNL     1     -34.115  19.349 -24.596  1.00  0.00     0.181 C 
BRANCH   5   6
ATOM      6  C   UNL     1     -32.972  19.394 -23.550  1.00  0.00     0.209 C 
BRANCH   6   7
ATOM      7  C   UNL     1     -33.520  19.674 -22.177  1.00  0.00     0.258 C 
ATOM      8  O   UNL     1     -33.226  18.954 -21.235  1.00  0.00    -0.300 OA
ENDBRANCH   6   7
BRANCH   6   9
ATOM      9  O   UNL     1     -32.272  18.176 -23.538  1.00  0.00    -0.383 OA
ATOM     10  H   UNL     1     -32.554  17.675 -24.348  1.00  0.00     0.211 HD
ENDBRANCH   6   9
ENDBRANCH   5   6
BRANCH   5  11
ATOM     11  O   UNL     1     -35.381  19.259 -23.984  1.00  0.00    -0.387 OA
ATOM     12  H   UNL     1     -35.390  19.865 -23.199  1.00  0.00     0.211 HD
ENDBRANCH   5  11
ENDBRANCH   1   5
BRANCH   1  13
ATOM     13  O   UNL     1     -34.286  16.969 -25.154  1.00  0.00    -0.388 OA
ATOM     14  H   UNL     1     -34.400  16.356 -25.926  1.00  0.00     0.211 HD
ENDBRANCH   1  13
TORSDOF 8
ENDMDL
MODEL 5
REMARK VINA RESULT:    -4.413      1.709      2.784
REMARK INTER + INTRA:          -6.883
REMARK INTER:                  -6.502
REMARK INTRA:                  -0.381
REMARK UNBOUND:                -0.922
REMARK SMILES O=C[C@@H](O)[C@H](O)[C@@H](O)CO
REMARK SMILES IDX 7 1 9 2 10 3 5 5 3 6 2 7 1 8 4 9 6 11 8 13
REMARK H PARENT 10 4 4 10 6 12 8 14
REMARK Flexibility Score: inf
ROOT
ATOM      1  C   UNL     1     -28.532  29.385 -31.012  1.00  0.00     0.171 C 
ENDROOT
BRANCH   1   2
ATOM      2  C   UNL     1     -27.181  29.306 -31.751  1.00  0.00     0.190 C 
BRANCH   2   3
ATOM      3  O   UNL     1     -26.556  30.561 -31.763  1.00  0.00    -0.394 OA
ATOM      4  H   UNL     1     -25.801  30.499 -32.405  1.00  0.00     0.210 HD
ENDBRANCH   2   3
ENDBRANCH   1   2
BRANCH   1   5
ATOM      5  C   UNL     1     -28.612  28.352 -29.857  1.00  0.00     0.181 C 
BRANCH   5   6
ATOM      6  C   UNL     1     -27.364  28.391 -28.938  1.00  0.00     0.209 C 
BRANCH   6   7
ATOM      7  C   UNL     1     -27.691  29.056 -27.628  1.00  0.00     0.258 C 
ATOM      8  O   UNL     1     -28.044  30.225 -27.600  1.00  0.00    -0.300 OA
ENDBRANCH   6   7
BRANCH   6   9
ATOM      9  O   UNL     1     -26.892  27.089 -28.699  1.00  0.00    -0.383 OA
ATOM     10  H   UNL     1     -25.907  27.115 -28.817  1.00  0.00     0.211 HD
ENDBRANCH   6   9
ENDBRANCH   5   6
BRANCH   5  11
ATOM     11  O   UNL     1     -28.867  27.054 -30.340  1.00  0.00    -0.387 OA
ATOM     12  H   UNL     1     -28.537  26.402 -29.668  1.00  0.00     0.211 HD
ENDBRANCH   5  11
ENDBRANCH   1   5
BRANCH   1  13
ATOM     13  O   UNL     1     -28.786  30.693 -30.559  1.00  0.00    -0.388 OA
ATOM     14  H   UNL     1     -27.915  31.156 -30.453  1.00  0.00     0.211 HD
ENDBRANCH   1  13
TORSDOF 8
ENDMDL
MODEL 6
REMARK VINA RESULT:    -4.284     15.321     16.644
REMARK INTER + INTRA:          -6.708
REMARK INTER:                  -6.071
REMARK INTRA:                  -0.637
REMARK UNBOUND:                -0.922
REMARK SMILES O=C[C@@H](O)[C@H](O)[C@@H](O)CO
REMARK SMILES IDX 7 1 9 2 10 3 5 5 3 6 2 7 1 8 4 9 6 11 8 13
REMARK H PARENT 10 4 4 10 6 12 8 14
REMARK Flexibility Score: inf
ROOT
ATOM      1  C   UNL     1     -32.985  21.658 -16.656  1.00  0.00     0.171 C 
ENDROOT
BRANCH   1   2
ATOM      2  C   UNL     1     -31.814  21.786 -17.651  1.00  0.00     0.190 C 
BRANCH   2   3
ATOM      3  O   UNL     1     -30.902  22.757 -17.211  1.00  0.00    -0.394 OA
ATOM      4  H   UNL     1     -30.097  22.271 -16.893  1.00  0.00     0.210 HD
ENDBRANCH   2   3
ENDBRANCH   1   2
BRANCH   1   5
ATOM      5  C   UNL     1     -32.571  20.870 -15.386  1.00  0.00     0.181 C 
BRANCH   5   6
ATOM      6  C   UNL     1     -33.759  20.636 -14.419  1.00  0.00     0.209 C 
BRANCH   6   7
ATOM      7  C   UNL     1     -33.630  19.302 -13.732  1.00  0.00     0.258 C 
ATOM      8  O   UNL     1     -32.529  18.857 -13.450  1.00  0.00    -0.300 OA
ENDBRANCH   6   7
BRANCH   6   9
ATOM      9  O   UNL     1     -33.813  21.658 -13.455  1.00  0.00    -0.383 OA
ATOM     10  H   UNL     1     -32.910  22.069 -13.422  1.00  0.00     0.211 HD
ENDBRANCH   6   9
ENDBRANCH   5   6
BRANCH   5  11
ATOM     11  O   UNL     1     -31.477  21.472 -14.735  1.00  0.00    -0.387 OA
ATOM     12  H   UNL     1     -30.798  20.772 -14.556  1.00  0.00     0.211 HD
ENDBRANCH   5  11
ENDBRANCH   1   5
BRANCH   1  13
ATOM     13  O   UNL     1     -33.518  22.920 -16.335  1.00  0.00    -0.388 OA
ATOM     14  H   UNL     1     -33.993  23.265 -17.135  1.00  0.00     0.211 HD
ENDBRANCH   1  13
TORSDOF 8
ENDMDL
MODEL 7
REMARK VINA RESULT:    -4.276      1.440      2.203
REMARK INTER + INTRA:          -6.698
REMARK INTER:                  -6.172
REMARK INTRA:                  -0.526
REMARK UNBOUND:                -0.922
REMARK SMILES O=C[C@@H](O)[C@H](O)[C@@H](O)CO
REMARK SMILES IDX 7 1 9 2 10 3 5 5 3 6 2 7 1 8 4 9 6 11 8 13
REMARK H PARENT 10 4 4 10 6 12 8 14
REMARK Flexibility Score: inf
ROOT
ATOM      1  C   UNL     1     -28.884  28.723 -30.841  1.00  0.00     0.171 C 
ENDROOT
BRANCH   1   2
ATOM      2  C   UNL     1     -28.987  27.463 -31.724  1.00  0.00     0.190 C 
BRANCH   2   3
ATOM      3  O   UNL     1     -29.606  26.421 -31.018  1.00  0.00    -0.394 OA
ATOM      4  H   UNL     1     -30.583  26.517 -31.163  1.00  0.00     0.210 HD
ENDBRANCH   2   3
ENDBRANCH   1   2
BRANCH   1   5
ATOM      5  C   UNL     1     -27.640  28.671 -29.915  1.00  0.00     0.181 C 
BRANCH   5   6
ATOM      6  C   UNL     1     -27.989  28.207 -28.478  1.00  0.00     0.209 C 
BRANCH   6   7
ATOM      7  C   UNL     1     -27.606  29.260 -27.473  1.00  0.00     0.258 C 
ATOM      8  O   UNL     1     -28.229  30.307 -27.408  1.00  0.00    -0.300 OA
ENDBRANCH   6   7
BRANCH   6   9
ATOM      9  O   UNL     1     -29.363  27.934 -28.373  1.00  0.00    -0.383 OA
ATOM     10  H   UNL     1     -29.447  26.976 -28.125  1.00  0.00     0.211 HD
ENDBRANCH   6   9
ENDBRANCH   5   6
BRANCH   5  11
ATOM     11  O   UNL     1     -26.942  29.894 -29.915  1.00  0.00    -0.387 OA
ATOM     12  H   UNL     1     -27.526  30.585 -29.507  1.00  0.00     0.211 HD
ENDBRANCH   5  11
ENDBRANCH   1   5
BRANCH   1  13
ATOM     13  O   UNL     1     -28.903  29.893 -31.622  1.00  0.00    -0.388 OA
ATOM     14  H   UNL     1     -29.424  30.581 -31.131  1.00  0.00     0.211 HD
ENDBRANCH   1  13
TORSDOF 8
ENDMDL
MODEL 8
REMARK VINA RESULT:    -4.181     10.999     11.767
REMARK INTER + INTRA:          -6.569
REMARK INTER:                  -5.621
REMARK INTRA:                  -0.947
REMARK UNBOUND:                -0.922
REMARK SMILES O=C[C@@H](O)[C@H](O)[C@@H](O)CO
REMARK SMILES IDX 7 1 9 2 10 3 5 5 3 6 2 7 1 8 4 9 6 11 8 13
REMARK H PARENT 10 4 4 10 6 12 8 14
REMARK Flexibility Score: inf
ROOT
ATOM      1  C   UNL     1     -33.225  19.455 -26.154  1.00  0.00     0.171 C 
ENDROOT
BRANCH   1   2
ATOM      2  C   UNL     1     -33.492  18.174 -26.970  1.00  0.00     0.190 C 
BRANCH   2   3
ATOM      3  O   UNL     1     -32.929  17.060 -26.330  1.00  0.00    -0.394 OA
ATOM      4  H   UNL     1     -32.105  16.827 -26.832  1.00  0.00     0.210 HD
ENDBRANCH   2   3
ENDBRANCH   1   2
BRANCH   1   5
ATOM      5  C   UNL     1     -33.880  19.383 -24.750  1.00  0.00     0.181 C 
BRANCH   5   6
ATOM      6  C   UNL     1     -32.833  19.377 -23.607  1.00  0.00     0.209 C 
BRANCH   6   7
ATOM      7  C   UNL     1     -33.483  19.714 -22.291  1.00  0.00     0.258 C 
ATOM      8  O   UNL     1     -34.698  19.699 -22.180  1.00  0.00    -0.300 OA
ENDBRANCH   6   7
BRANCH   6   9
ATOM      9  O   UNL     1     -32.215  18.118 -23.517  1.00  0.00    -0.383 OA
ATOM     10  H   UNL     1     -31.472  18.209 -22.864  1.00  0.00     0.211 HD
ENDBRANCH   6   9
ENDBRANCH   5   6
BRANCH   5  11
ATOM     11  O   UNL     1     -34.773  18.299 -24.648  1.00  0.00    -0.387 OA
ATOM     12  H   UNL     1     -35.690  18.634 -24.819  1.00  0.00     0.211 HD
ENDBRANCH   5  11
ENDBRANCH   1   5
BRANCH   1  13
ATOM     13  O   UNL     1     -31.847  19.727 -26.074  1.00  0.00    -0.388 OA
ATOM     14  H   UNL     1     -31.363  18.860 -26.062  1.00  0.00     0.211 HD
ENDBRANCH   1  13
TORSDOF 8
ENDMDL
MODEL 9
REMARK VINA RESULT:    -4.050     10.136     11.188
REMARK INTER + INTRA:          -6.392
REMARK INTER:                  -5.416
REMARK INTRA:                  -0.976
REMARK UNBOUND:                -0.922
REMARK SMILES O=C[C@@H](O)[C@H](O)[C@@H](O)CO
REMARK SMILES IDX 7 1 9 2 10 3 5 5 3 6 2 7 1 8 4 9 6 11 8 13
REMARK H PARENT 10 4 4 10 6 12 8 14
REMARK Flexibility Score: inf
ROOT
ATOM      1  C   UNL     1     -35.571  19.424 -26.835  1.00  0.00     0.171 C 
ENDROOT
BRANCH   1   2
ATOM      2  C   UNL     1     -36.564  19.313 -25.660  1.00  0.00     0.190 C 
BRANCH   2   3
ATOM      3  O   UNL     1     -36.011  18.547 -24.623  1.00  0.00    -0.394 OA
ATOM      4  H   UNL     1     -35.086  18.314 -24.901  1.00  0.00     0.210 HD
ENDBRANCH   2   3
ENDBRANCH   1   2
BRANCH   1   5
ATOM      5  C   UNL     1     -34.393  20.375 -26.498  1.00  0.00     0.181 C 
BRANCH   5   6
ATOM      6  C   UNL     1     -33.041  19.627 -26.378  1.00  0.00     0.209 C 
BRANCH   6   7
ATOM      7  C   UNL     1     -31.903  20.604 -26.250  1.00  0.00     0.258 C 
ATOM      8  O   UNL     1     -31.660  21.132 -25.176  1.00  0.00    -0.300 OA
ENDBRANCH   6   7
BRANCH   6   9
ATOM      9  O   UNL     1     -33.053  18.771 -25.264  1.00  0.00    -0.383 OA
ATOM     10  H   UNL     1     -32.127  18.428 -25.155  1.00  0.00     0.211 HD
ENDBRANCH   6   9
ENDBRANCH   5   6
BRANCH   5  11
ATOM     11  O   UNL     1     -34.664  21.152 -25.355  1.00  0.00    -0.387 OA
ATOM     12  H   UNL     1     -33.898  21.764 -25.206  1.00  0.00     0.211 HD
ENDBRANCH   5  11
ENDBRANCH   1   5
BRANCH   1  13
ATOM     13  O   UNL     1     -35.116  18.155 -27.237  1.00  0.00    -0.388 OA
ATOM     14  H   UNL     1     -35.500  17.480 -26.617  1.00  0.00     0.211 HD
ENDBRANCH   1  13
TORSDOF 8
ENDMDL
