MODEL 1
REMARK VINA RESULT:    -5.422      0.000      0.000
REMARK INTER + INTRA:         -11.236
REMARK INTER:                  -9.859
REMARK INTRA:                  -1.377
REMARK UNBOUND:                -1.377
REMARK SMILES CCCCCCCCCCCCCC[C@H](C)C(=O)[O-]
REMARK SMILES IDX 9 1 10 2 11 3 12 4 13 5 14 6 15 7 16 8 17 9 18 10 19 11 8 12
REMARK SMILES IDX 7 13 6 14 5 15 4 16 3 17 2 18 1 19
REMARK H PARENT
REMARK Flexibility Score: inf
ROOT
ATOM      1  C   UNL     1       5.599  -0.779 -34.457  1.00  0.00     0.000 C 
ENDROOT
BRANCH   1   2
ATOM      2  C   UNL     1       6.770  -0.413 -35.376  1.00  0.00     0.000 C 
BRANCH   2   3
ATOM      3  C   UNL     1       6.624   1.015 -35.914  1.00  0.00     0.000 C 
BRANCH   3   4
ATOM      4  C   UNL     1       7.835   1.876 -35.523  1.00  0.00     0.000 C 
BRANCH   4   5
ATOM      5  C   UNL     1       9.123   1.052 -35.363  1.00  0.00     0.001 C 
BRANCH   5   6
ATOM      6  C   UNL     1      10.386   1.936 -35.305  1.00  0.00     0.009 C 
BRANCH   6   7
ATOM      7  C   UNL     1      11.411   1.510 -34.229  1.00  0.00     0.032 C 
ATOM      8  C   UNL     1      11.001   1.939 -32.811  1.00  0.00     0.014 C 
BRANCH   7   9
ATOM      9  C   UNL     1      12.803   1.967 -34.574  1.00  0.00     0.044 C 
ATOM     10  O   UNL     1      13.813   1.419 -34.054  1.00  0.00    -0.550 OA
ATOM     11  O   UNL     1      12.981   3.042 -35.436  1.00  0.00    -0.550 OA
ENDBRANCH   7   9
ENDBRANCH   6   7
ENDBRANCH   5   6
ENDBRANCH   4   5
ENDBRANCH   3   4
ENDBRANCH   2   3
ENDBRANCH   1   2
BRANCH   1  12
ATOM     12  C   UNL     1       5.167   0.426 -33.608  1.00  0.00     0.000 C 
BRANCH  12  13
ATOM     13  C   UNL     1       5.878   0.485 -32.244  1.00  0.00    -0.000 C 
BRANCH  13  14
ATOM     14  C   UNL     1       6.811   1.694 -32.048  1.00  0.00    -0.000 C 
BRANCH  14  15
ATOM     15  C   UNL     1       7.854   1.474 -30.941  1.00  0.00    -0.000 C 
BRANCH  15  16
ATOM     16  C   UNL     1       7.198   1.528 -29.553  1.00  0.00    -0.000 C 
BRANCH  16  17
ATOM     17  C   UNL     1       8.204   1.302 -28.413  1.00  0.00    -0.000 C 
BRANCH  17  18
ATOM     18  C   UNL     1       7.615   0.473 -27.261  1.00  0.00    -0.003 C 
ATOM     19  C   UNL     1       6.936  -0.789 -27.785  1.00  0.00     0.004 C 
ENDBRANCH  17  18
ENDBRANCH  16  17
ENDBRANCH  15  16
ENDBRANCH  14  15
ENDBRANCH  13  14
ENDBRANCH  12  13
ENDBRANCH   1  12
TORSDOF 14
ENDMDL
MODEL 2
REMARK VINA RESULT:    -5.374      3.723      7.163
REMARK INTER + INTRA:         -11.149
REMARK INTER:                 -10.159
REMARK INTRA:                  -0.990
REMARK UNBOUND:                -1.377
REMARK SMILES CCCCCCCCCCCCCC[C@H](C)C(=O)[O-]
REMARK SMILES IDX 9 1 10 2 11 3 12 4 13 5 14 6 15 7 16 8 17 9 18 10 19 11 8 12
REMARK SMILES IDX 7 13 6 14 5 15 4 16 3 17 2 18 1 19
REMARK H PARENT
REMARK Flexibility Score: inf
ROOT
ATOM      1  C   UNL     1       6.438   1.377 -33.837  1.00  0.00     0.000 C 
ENDROOT
BRANCH   1   2
ATOM      2  C   UNL     1       7.373   1.262 -32.627  1.00  0.00     0.000 C 
BRANCH   2   3
ATOM      3  C   UNL     1       6.587   0.945 -31.350  1.00  0.00     0.000 C 
BRANCH   3   4
ATOM      4  C   UNL     1       7.078   1.803 -30.174  1.00  0.00     0.000 C 
BRANCH   4   5
ATOM      5  C   UNL     1       8.203   1.127 -29.374  1.00  0.00     0.001 C 
BRANCH   5   6
ATOM      6  C   UNL     1       7.900   1.070 -27.863  1.00  0.00     0.009 C 
BRANCH   6   7
ATOM      7  C   UNL     1       7.836  -0.361 -27.281  1.00  0.00     0.032 C 
ATOM      8  C   UNL     1       8.579  -1.391 -28.146  1.00  0.00     0.014 C 
BRANCH   7   9
ATOM      9  C   UNL     1       6.420  -0.783 -26.995  1.00  0.00     0.044 C 
ATOM     10  O   UNL     1       6.141  -1.469 -25.974  1.00  0.00    -0.550 OA
ATOM     11  O   UNL     1       5.411  -0.460 -27.894  1.00  0.00    -0.550 OA
ENDBRANCH   7   9
ENDBRANCH   6   7
ENDBRANCH   5   6
ENDBRANCH   4   5
ENDBRANCH   3   4
ENDBRANCH   2   3
ENDBRANCH   1   2
BRANCH   1  12
ATOM     12  C   UNL     1       6.873   0.426 -34.961  1.00  0.00     0.000 C 
BRANCH  12  13
ATOM     13  C   UNL     1       7.194   1.158 -36.277  1.00  0.00    -0.000 C 
BRANCH  13  14
ATOM     14  C   UNL     1       8.386   2.131 -36.206  1.00  0.00    -0.000 C 
BRANCH  14  15
ATOM     15  C   UNL     1       9.742   1.414 -36.136  1.00  0.00    -0.000 C 
BRANCH  15  16
ATOM     16  C   UNL     1      10.462   1.731 -34.817  1.00  0.00    -0.000 C 
BRANCH  16  17
ATOM     17  C   UNL     1      11.854   2.346 -35.034  1.00  0.00    -0.000 C 
BRANCH  17  18
ATOM     18  C   UNL     1      12.977   1.498 -34.420  1.00  0.00    -0.003 C 
ATOM     19  C   UNL     1      13.850   2.335 -33.489  1.00  0.00     0.004 C 
ENDBRANCH  17  18
ENDBRANCH  16  17
ENDBRANCH  15  16
ENDBRANCH  14  15
ENDBRANCH  13  14
ENDBRANCH  12  13
ENDBRANCH   1  12
TORSDOF 14
ENDMDL
MODEL 3
REMARK VINA RESULT:    -5.371      3.084      6.000
REMARK INTER + INTRA:         -11.144
REMARK INTER:                 -10.129
REMARK INTRA:                  -1.014
REMARK UNBOUND:                -1.377
REMARK SMILES CCCCCCCCCCCCCC[C@H](C)C(=O)[O-]
REMARK SMILES IDX 9 1 10 2 11 3 12 4 13 5 14 6 15 7 16 8 17 9 18 10 19 11 8 12
REMARK SMILES IDX 7 13 6 14 5 15 4 16 3 17 2 18 1 19
REMARK H PARENT
REMARK Flexibility Score: inf
ROOT
ATOM      1  C   UNL     1       7.389   1.228 -36.045  1.00  0.00     0.000 C 
ENDROOT
BRANCH   1   2
ATOM      2  C   UNL     1       6.750   0.683 -34.762  1.00  0.00     0.000 C 
BRANCH   2   3
ATOM      3  C   UNL     1       6.758   1.738 -33.650  1.00  0.00     0.000 C 
BRANCH   3   4
ATOM      4  C   UNL     1       6.816   1.077 -32.264  1.00  0.00     0.000 C 
BRANCH   4   5
ATOM      5  C   UNL     1       7.246   2.053 -31.158  1.00  0.00     0.001 C 
BRANCH   5   6
ATOM      6  C   UNL     1       6.799   1.592 -29.756  1.00  0.00     0.009 C 
BRANCH   6   7
ATOM      7  C   UNL     1       7.204   0.142 -29.405  1.00  0.00     0.032 C 
ATOM      8  C   UNL     1       5.999  -0.806 -29.299  1.00  0.00     0.014 C 
BRANCH   7   9
ATOM      9  C   UNL     1       8.071   0.088 -28.175  1.00  0.00     0.044 C 
ATOM     10  O   UNL     1       7.710   0.643 -27.102  1.00  0.00    -0.550 OA
ATOM     11  O   UNL     1       9.311  -0.536 -28.235  1.00  0.00    -0.550 OA
ENDBRANCH   7   9
ENDBRANCH   6   7
ENDBRANCH   5   6
ENDBRANCH   4   5
ENDBRANCH   3   4
ENDBRANCH   2   3
ENDBRANCH   1   2
BRANCH   1  12
ATOM     12  C   UNL     1       8.846   0.759 -36.177  1.00  0.00     0.000 C 
BRANCH  12  13
ATOM     13  C   UNL     1       9.864   1.848 -35.792  1.00  0.00    -0.000 C 
BRANCH  13  14
ATOM     14  C   UNL     1      10.671   1.562 -34.513  1.00  0.00    -0.000 C 
BRANCH  14  15
ATOM     15  C   UNL     1      12.133   2.025 -34.611  1.00  0.00    -0.000 C 
BRANCH  15  16
ATOM     16  C   UNL     1      12.707   2.326 -33.218  1.00  0.00    -0.000 C 
BRANCH  16  17
ATOM     17  C   UNL     1      11.613   2.513 -32.155  1.00  0.00    -0.000 C 
BRANCH  17  18
ATOM     18  C   UNL     1      11.853   3.745 -31.270  1.00  0.00    -0.003 C 
ATOM     19  C   UNL     1      12.281   3.335 -29.863  1.00  0.00     0.004 C 
ENDBRANCH  17  18
ENDBRANCH  16  17
ENDBRANCH  15  16
ENDBRANCH  14  15
ENDBRANCH  13  14
ENDBRANCH  12  13
ENDBRANCH   1  12
TORSDOF 14
ENDMDL
MODEL 4
REMARK VINA RESULT:    -5.329      3.937      5.437
REMARK INTER + INTRA:         -11.067
REMARK INTER:                  -9.824
REMARK INTRA:                  -1.243
REMARK UNBOUND:                -1.377
REMARK SMILES CCCCCCCCCCCCCC[C@H](C)C(=O)[O-]
REMARK SMILES IDX 9 1 10 2 11 3 12 4 13 5 14 6 15 7 16 8 17 9 18 10 19 11 8 12
REMARK SMILES IDX 7 13 6 14 5 15 4 16 3 17 2 18 1 19
REMARK H PARENT
REMARK Flexibility Score: inf
ROOT
ATOM      1  C   UNL     1       9.022   1.867 -36.283  1.00  0.00     0.000 C 
ENDROOT
BRANCH   1   2
ATOM      2  C   UNL     1       8.167   1.229 -37.384  1.00  0.00     0.000 C 
BRANCH   2   3
ATOM      3  C   UNL     1       9.035   0.425 -38.360  1.00  0.00     0.000 C 
BRANCH   3   4
ATOM      4  C   UNL     1       8.918  -1.083 -38.086  1.00  0.00     0.000 C 
BRANCH   4   5
ATOM      5  C   UNL     1       7.647  -1.446 -37.300  1.00  0.00     0.001 C 
BRANCH   5   6
ATOM      6  C   UNL     1       7.633  -2.921 -36.852  1.00  0.00     0.009 C 
BRANCH   6   7
ATOM      7  C   UNL     1       6.295  -3.384 -36.231  1.00  0.00     0.032 C 
ATOM      8  C   UNL     1       5.795  -2.444 -35.122  1.00  0.00     0.014 C 
BRANCH   7   9
ATOM      9  C   UNL     1       6.360  -4.815 -35.767  1.00  0.00     0.044 C 
ATOM     10  O   UNL     1       5.601  -5.692 -36.261  1.00  0.00    -0.550 OA
ATOM     11  O   UNL     1       7.232  -5.167 -34.744  1.00  0.00    -0.550 OA
ENDBRANCH   7   9
ENDBRANCH   6   7
ENDBRANCH   5   6
ENDBRANCH   4   5
ENDBRANCH   3   4
ENDBRANCH   2   3
ENDBRANCH   1   2
BRANCH   1  12
ATOM     12  C   UNL     1       8.547   1.424 -34.891  1.00  0.00     0.000 C 
BRANCH  12  13
ATOM     13  C   UNL     1       7.038   1.122 -34.840  1.00  0.00    -0.000 C 
BRANCH  13  14
ATOM     14  C   UNL     1       6.354   1.443 -33.498  1.00  0.00    -0.000 C 
BRANCH  14  15
ATOM     15  C   UNL     1       7.327   1.422 -32.310  1.00  0.00    -0.000 C 
BRANCH  15  16
ATOM     16  C   UNL     1       6.587   1.099 -31.003  1.00  0.00    -0.000 C 
BRANCH  16  17
ATOM     17  C   UNL     1       7.516   1.112 -29.778  1.00  0.00    -0.000 C 
BRANCH  17  18
ATOM     18  C   UNL     1       7.407  -0.171 -28.941  1.00  0.00    -0.003 C 
ATOM     19  C   UNL     1       6.049  -0.840 -29.136  1.00  0.00     0.004 C 
ENDBRANCH  17  18
ENDBRANCH  16  17
ENDBRANCH  15  16
ENDBRANCH  14  15
ENDBRANCH  13  14
ENDBRANCH  12  13
ENDBRANCH   1  12
TORSDOF 14
ENDMDL
MODEL 5
REMARK VINA RESULT:    -5.294      3.332      6.842
REMARK INTER + INTRA:         -11.004
REMARK INTER:                  -9.372
REMARK INTRA:                  -1.632
REMARK UNBOUND:                -1.377
REMARK SMILES CCCCCCCCCCCCCC[C@H](C)C(=O)[O-]
REMARK SMILES IDX 9 1 10 2 11 3 12 4 13 5 14 6 15 7 16 8 17 9 18 10 19 11 8 12
REMARK SMILES IDX 7 13 6 14 5 15 4 16 3 17 2 18 1 19
REMARK H PARENT
REMARK Flexibility Score: inf
ROOT
ATOM      1  C   UNL     1      10.800   2.008 -32.714  1.00  0.00     0.000 C 
ENDROOT
BRANCH   1   2
ATOM      2  C   UNL     1       9.774   1.906 -31.579  1.00  0.00     0.000 C 
BRANCH   2   3
ATOM      3  C   UNL     1       8.431   1.377 -32.094  1.00  0.00     0.000 C 
BRANCH   3   4
ATOM      4  C   UNL     1       7.269   2.256 -31.607  1.00  0.00     0.000 C 
BRANCH   4   5
ATOM      5  C   UNL     1       6.826   1.914 -30.175  1.00  0.00     0.001 C 
BRANCH   5   6
ATOM      6  C   UNL     1       6.612   0.401 -29.970  1.00  0.00     0.009 C 
BRANCH   6   7
ATOM      7  C   UNL     1       6.663  -0.054 -28.493  1.00  0.00     0.032 C 
ATOM      8  C   UNL     1       7.740   0.680 -27.679  1.00  0.00     0.014 C 
BRANCH   7   9
ATOM      9  C   UNL     1       6.792  -1.550 -28.374  1.00  0.00     0.044 C 
ATOM     10  O   UNL     1       7.918  -2.112 -28.448  1.00  0.00    -0.550 OA
ATOM     11  O   UNL     1       5.650  -2.329 -28.235  1.00  0.00    -0.550 OA
ENDBRANCH   7   9
ENDBRANCH   6   7
ENDBRANCH   5   6
ENDBRANCH   4   5
ENDBRANCH   3   4
ENDBRANCH   2   3
ENDBRANCH   1   2
BRANCH   1  12
ATOM     12  C   UNL     1      10.391   1.129 -33.905  1.00  0.00     0.000 C 
BRANCH  12  13
ATOM     13  C   UNL     1      10.390   1.893 -35.242  1.00  0.00    -0.000 C 
BRANCH  13  14
ATOM     14  C   UNL     1       9.070   1.820 -36.033  1.00  0.00    -0.000 C 
BRANCH  14  15
ATOM     15  C   UNL     1       8.822   0.439 -36.658  1.00  0.00    -0.000 C 
BRANCH  15  16
ATOM     16  C   UNL     1       7.454  -0.116 -36.235  1.00  0.00    -0.000 C 
BRANCH  16  17
ATOM     17  C   UNL     1       6.756   0.764 -35.186  1.00  0.00    -0.000 C 
BRANCH  17  18
ATOM     18  C   UNL     1       5.852  -0.044 -34.244  1.00  0.00    -0.003 C 
ATOM     19  C   UNL     1       5.556  -1.426 -34.819  1.00  0.00     0.004 C 
ENDBRANCH  17  18
ENDBRANCH  16  17
ENDBRANCH  15  16
ENDBRANCH  14  15
ENDBRANCH  13  14
ENDBRANCH  12  13
ENDBRANCH   1  12
TORSDOF 14
ENDMDL
MODEL 6
REMARK VINA RESULT:    -5.235      9.474     11.946
REMARK INTER + INTRA:         -10.896
REMARK INTER:                  -8.284
REMARK INTRA:                  -2.612
REMARK UNBOUND:                -1.377
REMARK SMILES CCCCCCCCCCCCCC[C@H](C)C(=O)[O-]
REMARK SMILES IDX 9 1 10 2 11 3 12 4 13 5 14 6 15 7 16 8 17 9 18 10 19 11 8 12
REMARK SMILES IDX 7 13 6 14 5 15 4 16 3 17 2 18 1 19
REMARK H PARENT
REMARK Flexibility Score: inf
ROOT
ATOM      1  C   UNL     1       8.414  -7.164 -29.200  1.00  0.00     0.000 C 
ENDROOT
BRANCH   1   2
ATOM      2  C   UNL     1       9.310  -7.187 -27.956  1.00  0.00     0.000 C 
BRANCH   2   3
ATOM      3  C   UNL     1       9.745  -8.617 -27.615  1.00  0.00     0.000 C 
BRANCH   3   4
ATOM      4  C   UNL     1       9.516  -9.560 -28.807  1.00  0.00     0.000 C 
BRANCH   4   5
ATOM      5  C   UNL     1       8.856 -10.887 -28.396  1.00  0.00     0.001 C 
BRANCH   5   6
ATOM      6  C   UNL     1       8.561 -11.798 -29.604  1.00  0.00     0.009 C 
BRANCH   6   7
ATOM      7  C   UNL     1       9.013 -11.218 -30.964  1.00  0.00     0.032 C 
ATOM      8  C   UNL     1       7.888 -11.202 -32.010  1.00  0.00     0.014 C 
BRANCH   7   9
ATOM      9  C   UNL     1      10.250 -11.904 -31.479  1.00  0.00     0.044 C 
ATOM     10  O   UNL     1      10.829 -12.795 -30.800  1.00  0.00    -0.550 OA
ATOM     11  O   UNL     1      10.795 -11.516 -32.697  1.00  0.00    -0.550 OA
ENDBRANCH   7   9
ENDBRANCH   6   7
ENDBRANCH   5   6
ENDBRANCH   4   5
ENDBRANCH   3   4
ENDBRANCH   2   3
ENDBRANCH   1   2
BRANCH   1  12
ATOM     12  C   UNL     1       7.170  -6.295 -28.967  1.00  0.00     0.000 C 
BRANCH  12  13
ATOM     13  C   UNL     1       5.856  -7.095 -29.038  1.00  0.00    -0.000 C 
BRANCH  13  14
ATOM     14  C   UNL     1       6.028  -8.623 -29.110  1.00  0.00    -0.000 C 
BRANCH  14  15
ATOM     15  C   UNL     1       5.468  -9.229 -30.407  1.00  0.00    -0.000 C 
BRANCH  15  16
ATOM     16  C   UNL     1       4.906  -8.133 -31.324  1.00  0.00    -0.000 C 
BRANCH  16  17
ATOM     17  C   UNL     1       5.653  -8.040 -32.664  1.00  0.00    -0.000 C 
BRANCH  17  18
ATOM     18  C   UNL     1       6.729  -6.944 -32.666  1.00  0.00    -0.003 C 
ATOM     19  C   UNL     1       8.118  -7.539 -32.880  1.00  0.00     0.004 C 
ENDBRANCH  17  18
ENDBRANCH  16  17
ENDBRANCH  15  16
ENDBRANCH  14  15
ENDBRANCH  13  14
ENDBRANCH  12  13
ENDBRANCH   1  12
TORSDOF 14
ENDMDL
MODEL 7
REMARK VINA RESULT:    -5.219      3.686      7.587
REMARK INTER + INTRA:         -10.868
REMARK INTER:                  -9.626
REMARK INTRA:                  -1.242
REMARK UNBOUND:                -1.377
REMARK SMILES CCCCCCCCCCCCCC[C@H](C)C(=O)[O-]
REMARK SMILES IDX 9 1 10 2 11 3 12 4 13 5 14 6 15 7 16 8 17 9 18 10 19 11 8 12
REMARK SMILES IDX 7 13 6 14 5 15 4 16 3 17 2 18 1 19
REMARK H PARENT
REMARK Flexibility Score: inf
ROOT
ATOM      1  C   UNL     1      11.253   2.790 -31.782  1.00  0.00     0.000 C 
ENDROOT
BRANCH   1   2
ATOM      2  C   UNL     1      10.419   1.510 -31.644  1.00  0.00     0.000 C 
BRANCH   2   3
ATOM      3  C   UNL     1       8.918   1.820 -31.707  1.00  0.00     0.000 C 
BRANCH   3   4
ATOM      4  C   UNL     1       8.235   1.501 -30.368  1.00  0.00     0.000 C 
BRANCH   4   5
ATOM      5  C   UNL     1       6.911   0.740 -30.545  1.00  0.00     0.001 C 
BRANCH   5   6
ATOM      6  C   UNL     1       6.254   0.378 -29.197  1.00  0.00     0.009 C 
BRANCH   6   7
ATOM      7  C   UNL     1       6.784  -0.928 -28.562  1.00  0.00     0.032 C 
ATOM      8  C   UNL     1       5.673  -1.954 -28.291  1.00  0.00     0.014 C 
BRANCH   7   9
ATOM      9  C   UNL     1       7.609  -0.655 -27.332  1.00  0.00     0.044 C 
ATOM     10  O   UNL     1       8.249  -1.580 -26.762  1.00  0.00    -0.550 OA
ATOM     11  O   UNL     1       7.625   0.621 -26.784  1.00  0.00    -0.550 OA
ENDBRANCH   7   9
ENDBRANCH   6   7
ENDBRANCH   5   6
ENDBRANCH   4   5
ENDBRANCH   3   4
ENDBRANCH   2   3
ENDBRANCH   1   2
BRANCH   1  12
ATOM     12  C   UNL     1      12.450   2.568 -32.718  1.00  0.00     0.000 C 
BRANCH  12  13
ATOM     13  C   UNL     1      12.161   1.544 -33.830  1.00  0.00    -0.000 C 
BRANCH  13  14
ATOM     14  C   UNL     1      12.136   2.122 -35.257  1.00  0.00    -0.000 C 
BRANCH  14  15
ATOM     15  C   UNL     1      10.715   2.429 -35.754  1.00  0.00    -0.000 C 
BRANCH  15  16
ATOM     16  C   UNL     1       9.738   1.319 -35.338  1.00  0.00    -0.000 C 
BRANCH  16  17
ATOM     17  C   UNL     1       8.267   1.734 -35.500  1.00  0.00    -0.000 C 
BRANCH  17  18
ATOM     18  C   UNL     1       7.834   1.814 -36.972  1.00  0.00    -0.003 C 
ATOM     19  C   UNL     1       8.394   0.641 -37.772  1.00  0.00     0.004 C 
ENDBRANCH  17  18
ENDBRANCH  16  17
ENDBRANCH  15  16
ENDBRANCH  14  15
ENDBRANCH  13  14
ENDBRANCH  12  13
ENDBRANCH   1  12
TORSDOF 14
ENDMDL
MODEL 8
REMARK VINA RESULT:    -5.157      8.970     10.880
REMARK INTER + INTRA:         -10.755
REMARK INTER:                  -8.015
REMARK INTRA:                  -2.740
REMARK UNBOUND:                -1.377
REMARK SMILES CCCCCCCCCCCCCC[C@H](C)C(=O)[O-]
REMARK SMILES IDX 9 1 10 2 11 3 12 4 13 5 14 6 15 7 16 8 17 9 18 10 19 11 8 12
REMARK SMILES IDX 7 13 6 14 5 15 4 16 3 17 2 18 1 19
REMARK H PARENT
REMARK Flexibility Score: inf
ROOT
ATOM      1  C   UNL     1       7.769  -5.618 -30.512  1.00  0.00     0.000 C 
ENDROOT
BRANCH   1   2
ATOM      2  C   UNL     1       7.011  -5.997 -31.790  1.00  0.00     0.000 C 
BRANCH   2   3
ATOM      3  C   UNL     1       7.981  -6.280 -32.944  1.00  0.00     0.000 C 
BRANCH   3   4
ATOM      4  C   UNL     1       7.440  -7.391 -33.857  1.00  0.00     0.000 C 
BRANCH   4   5
ATOM      5  C   UNL     1       7.920  -8.790 -33.438  1.00  0.00     0.001 C 
BRANCH   5   6
ATOM      6  C   UNL     1       9.254  -8.749 -32.665  1.00  0.00     0.009 C 
BRANCH   6   7
ATOM      7  C   UNL     1       9.394  -9.840 -31.579  1.00  0.00     0.032 C 
ATOM      8  C   UNL     1       9.883  -9.282 -30.233  1.00  0.00     0.014 C 
BRANCH   7   9
ATOM      9  C   UNL     1      10.241 -10.992 -32.051  1.00  0.00     0.044 C 
ATOM     10  O   UNL     1       9.924 -11.652 -33.077  1.00  0.00    -0.550 OA
ATOM     11  O   UNL     1      11.359 -11.369 -31.317  1.00  0.00    -0.550 OA
ENDBRANCH   7   9
ENDBRANCH   6   7
ENDBRANCH   5   6
ENDBRANCH   4   5
ENDBRANCH   3   4
ENDBRANCH   2   3
ENDBRANCH   1   2
BRANCH   1  12
ATOM     12  C   UNL     1       7.603  -6.699 -29.433  1.00  0.00     0.000 C 
BRANCH  12  13
ATOM     13  C   UNL     1       6.192  -7.314 -29.413  1.00  0.00    -0.000 C 
BRANCH  13  14
ATOM     14  C   UNL     1       6.148  -8.848 -29.552  1.00  0.00    -0.000 C 
BRANCH  14  15
ATOM     15  C   UNL     1       5.440  -9.313 -30.833  1.00  0.00    -0.000 C 
BRANCH  15  16
ATOM     16  C   UNL     1       4.388  -8.287 -31.281  1.00  0.00    -0.000 C 
BRANCH  16  17
ATOM     17  C   UNL     1       4.071  -8.381 -32.781  1.00  0.00    -0.000 C 
BRANCH  17  18
ATOM     18  C   UNL     1       4.424  -9.752 -33.376  1.00  0.00    -0.003 C 
ATOM     19  C   UNL     1       3.644 -10.010 -34.662  1.00  0.00     0.004 C 
ENDBRANCH  17  18
ENDBRANCH  16  17
ENDBRANCH  15  16
ENDBRANCH  14  15
ENDBRANCH  13  14
ENDBRANCH  12  13
ENDBRANCH   1  12
TORSDOF 14
ENDMDL
MODEL 9
REMARK VINA RESULT:    -5.076      9.522     11.986
REMARK INTER + INTRA:         -10.608
REMARK INTER:                  -8.163
REMARK INTRA:                  -2.445
REMARK UNBOUND:                -1.377
REMARK SMILES CCCCCCCCCCCCCC[C@H](C)C(=O)[O-]
REMARK SMILES IDX 9 1 10 2 11 3 12 4 13 5 14 6 15 7 16 8 17 9 18 10 19 11 8 12
REMARK SMILES IDX 7 13 6 14 5 15 4 16 3 17 2 18 1 19
REMARK H PARENT
REMARK Flexibility Score: inf
ROOT
ATOM      1  C   UNL     1       7.752  -8.470 -29.032  1.00  0.00     0.000 C 
ENDROOT
BRANCH   1   2
ATOM      2  C   UNL     1       8.483  -9.452 -29.955  1.00  0.00     0.000 C 
BRANCH   2   3
ATOM      3  C   UNL     1       7.754 -10.800 -30.016  1.00  0.00     0.000 C 
BRANCH   3   4
ATOM      4  C   UNL     1       8.700 -11.953 -29.650  1.00  0.00     0.000 C 
BRANCH   4   5
ATOM      5  C   UNL     1       9.115 -11.933 -28.169  1.00  0.00     0.001 C 
BRANCH   5   6
ATOM      6  C   UNL     1      10.641 -12.056 -27.983  1.00  0.00     0.009 C 
BRANCH   6   7
ATOM      7  C   UNL     1      11.331 -10.755 -27.514  1.00  0.00     0.032 C 
ATOM      8  C   UNL     1      10.392  -9.833 -26.720  1.00  0.00     0.014 C 
BRANCH   7   9
ATOM      9  C   UNL     1      11.994 -10.032 -28.657  1.00  0.00     0.044 C 
ATOM     10  O   UNL     1      12.266  -8.804 -28.576  1.00  0.00    -0.550 OA
ATOM     11  O   UNL     1      12.262 -10.713 -29.838  1.00  0.00    -0.550 OA
ENDBRANCH   7   9
ENDBRANCH   6   7
ENDBRANCH   5   6
ENDBRANCH   4   5
ENDBRANCH   3   4
ENDBRANCH   2   3
ENDBRANCH   1   2
BRANCH   1  12
ATOM     12  C   UNL     1       6.236  -8.715 -29.058  1.00  0.00     0.000 C 
BRANCH  12  13
ATOM     13  C   UNL     1       5.443  -7.512 -29.601  1.00  0.00    -0.000 C 
BRANCH  13  14
ATOM     14  C   UNL     1       4.550  -7.817 -30.818  1.00  0.00    -0.000 C 
BRANCH  14  15
ATOM     15  C   UNL     1       5.197  -8.800 -31.805  1.00  0.00    -0.000 C 
BRANCH  15  16
ATOM     16  C   UNL     1       5.718  -8.065 -33.049  1.00  0.00    -0.000 C 
BRANCH  16  17
ATOM     17  C   UNL     1       7.244  -8.165 -33.200  1.00  0.00    -0.000 C 
BRANCH  17  18
ATOM     18  C   UNL     1       7.920  -6.788 -33.285  1.00  0.00    -0.003 C 
ATOM     19  C   UNL     1       7.461  -5.880 -32.148  1.00  0.00     0.004 C 
ENDBRANCH  17  18
ENDBRANCH  16  17
ENDBRANCH  15  16
ENDBRANCH  14  15
ENDBRANCH  13  14
ENDBRANCH  12  13
ENDBRANCH   1  12
TORSDOF 14
ENDMDL
