MODEL 1
REMARK VINA RESULT:    -6.269      0.000      0.000
REMARK INTER + INTRA:          -7.147
REMARK INTER:                  -7.552
REMARK INTRA:                   0.405
REMARK UNBOUND:                 0.405
REMARK SMILES O=c1c(O)c(-c2ccc(O)c(O)c2)oc2cc(O)cc(O)c12
REMARK SMILES IDX 5 1 3 2 2 3 1 4 22 5 20 6 19 7 17 8 16 9 15 10 14 11 6 12
REMARK SMILES IDX 7 13 8 14 9 15 13 16 11 17 10 18 12 20 4 22 21 24 18 26
REMARK H PARENT 10 19 12 21 4 23 21 25 18 27
REMARK Flexibility Score: inf
ROOT
ATOM      1  C   UNL     1       5.569  -6.646  -1.667  1.00  0.00     0.180 A 
ATOM      2  C   UNL     1       6.970  -6.672  -1.565  1.00  0.00     0.208 A 
ATOM      3  C   UNL     1       7.725  -7.088  -2.673  1.00  0.00     0.238 A 
ATOM      4  O   UNL     1       8.976  -7.161  -2.559  1.00  0.00    -0.285 OA
ATOM      5  C   UNL     1       7.071  -7.455  -3.874  1.00  0.00     0.111 A 
ATOM      6  C   UNL     1       7.739  -7.854  -5.071  1.00  0.00     0.134 A 
ATOM      7  C   UNL     1       6.988  -8.322  -6.156  1.00  0.00     0.093 A 
ATOM      8  C   UNL     1       5.595  -8.345  -6.113  1.00  0.00     0.123 A 
ATOM      9  C   UNL     1       4.930  -7.901  -4.969  1.00  0.00     0.094 A 
ATOM     10  C   UNL     1       5.653  -7.463  -3.856  1.00  0.00     0.146 A 
ATOM     11  O   UNL     1       4.982  -7.060  -2.784  1.00  0.00    -0.452 OA
ENDROOT
BRANCH   1  12
ATOM     12  C   UNL     1       4.706  -6.196  -0.550  1.00  0.00     0.025 A 
ATOM     13  C   UNL     1       3.372  -6.626  -0.437  1.00  0.00     0.016 A 
ATOM     14  C   UNL     1       2.583  -6.209   0.638  1.00  0.00     0.051 A 
ATOM     15  C   UNL     1       3.119  -5.368   1.623  1.00  0.00     0.157 A 
ATOM     16  C   UNL     1       5.244  -5.370   0.451  1.00  0.00     0.062 A 
ATOM     17  C   UNL     1       4.453  -4.951   1.531  1.00  0.00     0.158 A 
BRANCH  15  18
ATOM     18  O   UNL     1       2.335  -4.948   2.696  1.00  0.00    -0.504 OA
ATOM     19  H   UNL     1       1.975  -4.003   2.752  1.00  0.00     0.293 HD
ENDBRANCH  15  18
BRANCH  17  20
ATOM     20  O   UNL     1       4.986  -4.121   2.515  1.00  0.00    -0.504 OA
ATOM     21  H   UNL     1       4.530  -3.257   2.784  1.00  0.00     0.293 HD
ENDBRANCH  17  20
ENDBRANCH   1  12
BRANCH   2  22
ATOM     22  O   UNL     1       7.594  -6.326  -0.363  1.00  0.00    -0.502 OA
ATOM     23  H   UNL     1       8.463  -5.805  -0.331  1.00  0.00     0.293 HD
ENDBRANCH   2  22
BRANCH   6  24
ATOM     24  O   UNL     1       9.123  -7.784  -5.254  1.00  0.00    -0.507 OA
ATOM     25  H   UNL     1       9.807  -7.966  -4.535  1.00  0.00     0.293 HD
ENDBRANCH   6  24
BRANCH   8  26
ATOM     26  O   UNL     1       4.879  -8.801  -7.218  1.00  0.00    -0.508 OA
ATOM     27  H   UNL     1       5.145  -8.551  -8.162  1.00  0.00     0.293 HD
ENDBRANCH   8  26
TORSDOF 6
ENDMDL
MODEL 2
REMARK VINA RESULT:    -6.186      2.238      7.182
REMARK INTER + INTRA:          -7.047
REMARK INTER:                  -6.719
REMARK INTRA:                  -0.328
REMARK UNBOUND:                 0.405
REMARK SMILES O=c1c(O)c(-c2ccc(O)c(O)c2)oc2cc(O)cc(O)c12
REMARK SMILES IDX 5 1 3 2 2 3 1 4 22 5 20 6 19 7 17 8 16 9 15 10 14 11 6 12
REMARK SMILES IDX 7 13 8 14 9 15 13 16 11 17 10 18 12 20 4 22 21 24 18 26
REMARK H PARENT 10 19 12 21 4 23 21 25 18 27
REMARK Flexibility Score: inf
ROOT
ATOM      1  C   UNL     1       5.306  -7.390  -0.452  1.00  0.00     0.180 A 
ATOM      2  C   UNL     1       5.301  -8.555   0.333  1.00  0.00     0.208 A 
ATOM      3  C   UNL     1       4.726  -8.512   1.613  1.00  0.00     0.238 A 
ATOM      4  O   UNL     1       4.773  -9.543   2.332  1.00  0.00    -0.285 OA
ATOM      5  C   UNL     1       4.147  -7.309   2.084  1.00  0.00     0.111 A 
ATOM      6  C   UNL     1       3.500  -7.162   3.348  1.00  0.00     0.134 A 
ATOM      7  C   UNL     1       3.081  -5.893   3.765  1.00  0.00     0.093 A 
ATOM      8  C   UNL     1       3.224  -4.778   2.940  1.00  0.00     0.123 A 
ATOM      9  C   UNL     1       3.801  -4.922   1.677  1.00  0.00     0.094 A 
ATOM     10  C   UNL     1       4.263  -6.169   1.247  1.00  0.00     0.146 A 
ATOM     11  O   UNL     1       4.815  -6.260   0.044  1.00  0.00    -0.452 OA
ENDROOT
BRANCH   1  12
ATOM     12  C   UNL     1       5.873  -7.364  -1.820  1.00  0.00     0.025 A 
ATOM     13  C   UNL     1       5.071  -7.607  -2.949  1.00  0.00     0.016 A 
ATOM     14  C   UNL     1       5.621  -7.553  -4.232  1.00  0.00     0.051 A 
ATOM     15  C   UNL     1       6.976  -7.243  -4.407  1.00  0.00     0.157 A 
ATOM     16  C   UNL     1       7.225  -7.032  -2.003  1.00  0.00     0.062 A 
ATOM     17  C   UNL     1       7.779  -6.978  -3.291  1.00  0.00     0.158 A 
BRANCH  15  18
ATOM     18  O   UNL     1       7.529  -7.189  -5.685  1.00  0.00    -0.504 OA
ATOM     19  H   UNL     1       8.066  -6.389  -5.998  1.00  0.00     0.293 HD
ENDBRANCH  15  18
BRANCH  17  20
ATOM     20  O   UNL     1       9.125  -6.662  -3.467  1.00  0.00    -0.504 OA
ATOM     21  H   UNL     1       9.479  -5.731  -3.282  1.00  0.00     0.293 HD
ENDBRANCH  17  20
ENDBRANCH   1  12
BRANCH   2  22
ATOM     22  O   UNL     1       5.898  -9.726  -0.144  1.00  0.00    -0.502 OA
ATOM     23  H   UNL     1       6.386 -10.374   0.463  1.00  0.00     0.293 HD
ENDBRANCH   2  22
BRANCH   6  24
ATOM     24  O   UNL     1       3.224  -8.225   4.212  1.00  0.00    -0.507 OA
ATOM     25  H   UNL     1       3.588  -9.160   4.107  1.00  0.00     0.293 HD
ENDBRANCH   6  24
BRANCH   8  26
ATOM     26  O   UNL     1       2.781  -3.533   3.380  1.00  0.00    -0.508 OA
ATOM     27  H   UNL     1       3.111  -3.129   4.248  1.00  0.00     0.293 HD
ENDBRANCH   8  26
TORSDOF 6
ENDMDL
MODEL 3
REMARK VINA RESULT:    -6.177      1.531      2.065
REMARK INTER + INTRA:          -7.036
REMARK INTER:                  -6.712
REMARK INTRA:                  -0.324
REMARK UNBOUND:                 0.405
REMARK SMILES O=c1c(O)c(-c2ccc(O)c(O)c2)oc2cc(O)cc(O)c12
REMARK SMILES IDX 5 1 3 2 2 3 1 4 22 5 20 6 19 7 17 8 16 9 15 10 14 11 6 12
REMARK SMILES IDX 7 13 8 14 9 15 13 16 11 17 10 18 12 20 4 22 21 24 18 26
REMARK H PARENT 10 19 12 21 4 23 21 25 18 27
REMARK Flexibility Score: inf
ROOT
ATOM      1  C   UNL     1       5.556  -6.518   0.285  1.00  0.00     0.180 A 
ATOM      2  C   UNL     1       6.958  -6.493   0.377  1.00  0.00     0.208 A 
ATOM      3  C   UNL     1       7.720  -6.718  -0.780  1.00  0.00     0.238 A 
ATOM      4  O   UNL     1       8.974  -6.747  -0.682  1.00  0.00    -0.285 OA
ATOM      5  C   UNL     1       7.072  -6.947  -2.018  1.00  0.00     0.111 A 
ATOM      6  C   UNL     1       7.745  -7.145  -3.261  1.00  0.00     0.134 A 
ATOM      7  C   UNL     1       7.006  -7.495  -4.398  1.00  0.00     0.093 A 
ATOM      8  C   UNL     1       5.616  -7.588  -4.353  1.00  0.00     0.123 A 
ATOM      9  C   UNL     1       4.943  -7.337  -3.156  1.00  0.00     0.094 A 
ATOM     10  C   UNL     1       5.655  -7.023  -1.996  1.00  0.00     0.146 A 
ATOM     11  O   UNL     1       4.978  -6.802  -0.877  1.00  0.00    -0.452 OA
ENDROOT
BRANCH   1  12
ATOM     12  C   UNL     1       4.685  -6.267   1.456  1.00  0.00     0.025 A 
ATOM     13  C   UNL     1       4.273  -7.314   2.300  1.00  0.00     0.016 A 
ATOM     14  C   UNL     1       3.471  -7.050   3.413  1.00  0.00     0.051 A 
ATOM     15  C   UNL     1       3.079  -5.737   3.707  1.00  0.00     0.157 A 
ATOM     16  C   UNL     1       4.306  -4.951   1.767  1.00  0.00     0.062 A 
ATOM     17  C   UNL     1       3.500  -4.685   2.884  1.00  0.00     0.158 A 
BRANCH  15  18
ATOM     18  O   UNL     1       2.278  -5.471   4.815  1.00  0.00    -0.504 OA
ATOM     19  H   UNL     1       2.247  -6.098   5.610  1.00  0.00     0.293 HD
ENDBRANCH  15  18
BRANCH  17  20
ATOM     20  O   UNL     1       3.116  -3.379   3.182  1.00  0.00    -0.504 OA
ATOM     21  H   UNL     1       3.627  -2.817   3.852  1.00  0.00     0.293 HD
ENDBRANCH  17  20
ENDBRANCH   1  12
BRANCH   2  22
ATOM     22  O   UNL     1       7.578  -6.287   1.613  1.00  0.00    -0.502 OA
ATOM     23  H   UNL     1       8.583  -6.221   1.713  1.00  0.00     0.293 HD
ENDBRANCH   2  22
BRANCH   6  24
ATOM     24  O   UNL     1       9.122  -6.987  -3.437  1.00  0.00    -0.507 OA
ATOM     25  H   UNL     1       9.819  -7.657  -3.149  1.00  0.00     0.293 HD
ENDBRANCH   6  24
BRANCH   8  26
ATOM     26  O   UNL     1       4.910  -7.922  -5.508  1.00  0.00    -0.508 OA
ATOM     27  H   UNL     1       4.209  -7.304  -5.897  1.00  0.00     0.293 HD
ENDBRANCH   8  26
TORSDOF 6
ENDMDL
MODEL 4
REMARK VINA RESULT:    -6.054      1.738      6.853
REMARK INTER + INTRA:          -6.888
REMARK INTER:                  -6.585
REMARK INTRA:                  -0.303
REMARK UNBOUND:                 0.405
REMARK SMILES O=c1c(O)c(-c2ccc(O)c(O)c2)oc2cc(O)cc(O)c12
REMARK SMILES IDX 5 1 3 2 2 3 1 4 22 5 20 6 19 7 17 8 16 9 15 10 14 11 6 12
REMARK SMILES IDX 7 13 8 14 9 15 13 16 11 17 10 18 12 20 4 22 21 24 18 26
REMARK H PARENT 10 19 12 21 4 23 21 25 18 27
REMARK Flexibility Score: inf
ROOT
ATOM      1  C   UNL     1       5.341  -6.697  -0.922  1.00  0.00     0.180 A 
ATOM      2  C   UNL     1       6.517  -6.201  -0.335  1.00  0.00     0.208 A 
ATOM      3  C   UNL     1       6.424  -5.465   0.857  1.00  0.00     0.238 A 
ATOM      4  O   UNL     1       7.475  -4.977   1.349  1.00  0.00    -0.285 OA
ATOM      5  C   UNL     1       5.160  -5.250   1.456  1.00  0.00     0.111 A 
ATOM      6  C   UNL     1       4.953  -4.554   2.685  1.00  0.00     0.134 A 
ATOM      7  C   UNL     1       3.647  -4.288   3.115  1.00  0.00     0.093 A 
ATOM      8  C   UNL     1       2.543  -4.747   2.398  1.00  0.00     0.123 A 
ATOM      9  C   UNL     1       2.736  -5.481   1.226  1.00  0.00     0.094 A 
ATOM     10  C   UNL     1       4.026  -5.731   0.752  1.00  0.00     0.146 A 
ATOM     11  O   UNL     1       4.164  -6.423  -0.372  1.00  0.00    -0.452 OA
ENDROOT
BRANCH   1  12
ATOM     12  C   UNL     1       5.360  -7.502  -2.166  1.00  0.00     0.025 A 
ATOM     13  C   UNL     1       5.279  -8.905  -2.131  1.00  0.00     0.016 A 
ATOM     14  C   UNL     1       5.275  -9.643  -3.317  1.00  0.00     0.051 A 
ATOM     15  C   UNL     1       5.337  -8.990  -4.555  1.00  0.00     0.157 A 
ATOM     16  C   UNL     1       5.402  -6.852  -3.410  1.00  0.00     0.062 A 
ATOM     17  C   UNL     1       5.398  -7.591  -4.602  1.00  0.00     0.158 A 
BRANCH  15  18
ATOM     18  O   UNL     1       5.334  -9.722  -5.741  1.00  0.00    -0.504 OA
ATOM     19  H   UNL     1       6.195 -10.047  -6.165  1.00  0.00     0.293 HD
ENDBRANCH  15  18
BRANCH  17  20
ATOM     20  O   UNL     1       5.453  -6.944  -5.835  1.00  0.00    -0.504 OA
ATOM     21  H   UNL     1       6.332  -6.791  -6.315  1.00  0.00     0.293 HD
ENDBRANCH  17  20
ENDBRANCH   1  12
BRANCH   2  22
ATOM     22  O   UNL     1       7.753  -6.405  -0.955  1.00  0.00    -0.502 OA
ATOM     23  H   UNL     1       8.018  -5.934  -1.811  1.00  0.00     0.293 HD
ENDBRANCH   2  22
BRANCH   6  24
ATOM     24  O   UNL     1       5.985  -4.131   3.526  1.00  0.00    -0.507 OA
ATOM     25  H   UNL     1       5.927  -3.347   4.158  1.00  0.00     0.293 HD
ENDBRANCH   6  24
BRANCH   8  26
ATOM     26  O   UNL     1       1.258  -4.478   2.865  1.00  0.00    -0.508 OA
ATOM     27  H   UNL     1       0.693  -3.739   2.464  1.00  0.00     0.293 HD
ENDBRANCH   8  26
TORSDOF 6
ENDMDL
MODEL 5
REMARK VINA RESULT:    -6.019      2.091      7.538
REMARK INTER + INTRA:          -6.846
REMARK INTER:                  -6.578
REMARK INTRA:                  -0.268
REMARK UNBOUND:                 0.405
REMARK SMILES O=c1c(O)c(-c2ccc(O)c(O)c2)oc2cc(O)cc(O)c12
REMARK SMILES IDX 5 1 3 2 2 3 1 4 22 5 20 6 19 7 17 8 16 9 15 10 14 11 6 12
REMARK SMILES IDX 7 13 8 14 9 15 13 16 11 17 10 18 12 20 4 22 21 24 18 26
REMARK H PARENT 10 19 12 21 4 23 21 25 18 27
REMARK Flexibility Score: inf
ROOT
ATOM      1  C   UNL     1       4.528  -6.630  -0.055  1.00  0.00     0.180 A 
ATOM      2  C   UNL     1       3.235  -6.152   0.217  1.00  0.00     0.208 A 
ATOM      3  C   UNL     1       3.034  -5.337   1.343  1.00  0.00     0.238 A 
ATOM      4  O   UNL     1       1.865  -4.956   1.612  1.00  0.00    -0.285 OA
ATOM      5  C   UNL     1       4.130  -4.996   2.171  1.00  0.00     0.111 A 
ATOM      6  C   UNL     1       4.048  -4.144   3.314  1.00  0.00     0.134 A 
ATOM      7  C   UNL     1       5.171  -3.983   4.135  1.00  0.00     0.093 A 
ATOM      8  C   UNL     1       6.387  -4.587   3.822  1.00  0.00     0.123 A 
ATOM      9  C   UNL     1       6.494  -5.374   2.673  1.00  0.00     0.094 A 
ATOM     10  C   UNL     1       5.382  -5.584   1.854  1.00  0.00     0.146 A 
ATOM     11  O   UNL     1       5.523  -6.347   0.777  1.00  0.00    -0.452 OA
ENDROOT
BRANCH   1  12
ATOM     12  C   UNL     1       4.824  -7.473  -1.236  1.00  0.00     0.025 A 
ATOM     13  C   UNL     1       4.467  -8.833  -1.272  1.00  0.00     0.016 A 
ATOM     14  C   UNL     1       4.734  -9.604  -2.406  1.00  0.00     0.051 A 
ATOM     15  C   UNL     1       5.348  -9.026  -3.525  1.00  0.00     0.157 A 
ATOM     16  C   UNL     1       5.419  -6.895  -2.369  1.00  0.00     0.062 A 
ATOM     17  C   UNL     1       5.688  -7.668  -3.508  1.00  0.00     0.158 A 
BRANCH  15  18
ATOM     18  O   UNL     1       5.617  -9.792  -4.657  1.00  0.00    -0.504 OA
ATOM     19  H   UNL     1       4.911  -9.959  -5.365  1.00  0.00     0.293 HD
ENDBRANCH  15  18
BRANCH  17  20
ATOM     20  O   UNL     1       6.291  -7.093  -4.625  1.00  0.00    -0.504 OA
ATOM     21  H   UNL     1       7.236  -7.333  -4.899  1.00  0.00     0.293 HD
ENDBRANCH  17  20
ENDBRANCH   1  12
BRANCH   2  22
ATOM     22  O   UNL     1       2.163  -6.518  -0.601  1.00  0.00    -0.502 OA
ATOM     23  H   UNL     1       2.212  -6.478  -1.612  1.00  0.00     0.293 HD
ENDBRANCH   2  22
BRANCH   6  24
ATOM     24  O   UNL     1       2.907  -3.420   3.667  1.00  0.00    -0.507 OA
ATOM     25  H   UNL     1       2.321  -3.623   4.464  1.00  0.00     0.293 HD
ENDBRANCH   6  24
BRANCH   8  26
ATOM     26  O   UNL     1       7.488  -4.392   4.653  1.00  0.00    -0.508 OA
ATOM     27  H   UNL     1       7.576  -3.564   5.229  1.00  0.00     0.293 HD
ENDBRANCH   8  26
TORSDOF 6
ENDMDL
MODEL 6
REMARK VINA RESULT:    -5.906      1.561      7.231
REMARK INTER + INTRA:          -6.710
REMARK INTER:                  -6.658
REMARK INTRA:                  -0.051
REMARK UNBOUND:                 0.405
REMARK SMILES O=c1c(O)c(-c2ccc(O)c(O)c2)oc2cc(O)cc(O)c12
REMARK SMILES IDX 5 1 3 2 2 3 1 4 22 5 20 6 19 7 17 8 16 9 15 10 14 11 6 12
REMARK SMILES IDX 7 13 8 14 9 15 13 16 11 17 10 18 12 20 4 22 21 24 18 26
REMARK H PARENT 10 19 12 21 4 23 21 25 18 27
REMARK Flexibility Score: inf
ROOT
ATOM      1  C   UNL     1       5.514  -6.611  -1.221  1.00  0.00     0.180 A 
ATOM      2  C   UNL     1       4.444  -7.224  -0.547  1.00  0.00     0.208 A 
ATOM      3  C   UNL     1       4.061  -6.734   0.712  1.00  0.00     0.238 A 
ATOM      4  O   UNL     1       3.138  -7.320   1.334  1.00  0.00    -0.285 OA
ATOM      5  C   UNL     1       4.742  -5.627   1.273  1.00  0.00     0.111 A 
ATOM      6  C   UNL     1       4.412  -5.022   2.524  1.00  0.00     0.134 A 
ATOM      7  C   UNL     1       5.237  -4.016   3.042  1.00  0.00     0.093 A 
ATOM      8  C   UNL     1       6.339  -3.548   2.329  1.00  0.00     0.123 A 
ATOM      9  C   UNL     1       6.635  -4.091   1.077  1.00  0.00     0.094 A 
ATOM     10  C   UNL     1       5.853  -5.121   0.550  1.00  0.00     0.146 A 
ATOM     11  O   UNL     1       6.175  -5.617  -0.638  1.00  0.00    -0.452 OA
ENDROOT
BRANCH   1  12
ATOM     12  C   UNL     1       5.959  -7.055  -2.561  1.00  0.00     0.025 A 
ATOM     13  C   UNL     1       5.053  -7.182  -3.629  1.00  0.00     0.016 A 
ATOM     14  C   UNL     1       5.500  -7.580  -4.892  1.00  0.00     0.051 A 
ATOM     15  C   UNL     1       6.859  -7.843  -5.110  1.00  0.00     0.157 A 
ATOM     16  C   UNL     1       7.323  -7.301  -2.791  1.00  0.00     0.062 A 
ATOM     17  C   UNL     1       7.773  -7.700  -4.058  1.00  0.00     0.158 A 
BRANCH  15  18
ATOM     18  O   UNL     1       7.308  -8.241  -6.367  1.00  0.00    -0.504 OA
ATOM     19  H   UNL     1       7.095  -7.706  -7.201  1.00  0.00     0.293 HD
ENDBRANCH  15  18
BRANCH  17  20
ATOM     20  O   UNL     1       9.125  -7.955  -4.279  1.00  0.00    -0.504 OA
ATOM     21  H   UNL     1       9.674  -8.504  -3.628  1.00  0.00     0.293 HD
ENDBRANCH  17  20
ENDBRANCH   1  12
BRANCH   2  22
ATOM     22  O   UNL     1       3.799  -8.329  -1.110  1.00  0.00    -0.502 OA
ATOM     23  H   UNL     1       3.679  -8.438  -2.110  1.00  0.00     0.293 HD
ENDBRANCH   2  22
BRANCH   6  24
ATOM     24  O   UNL     1       3.282  -5.351   3.276  1.00  0.00    -0.507 OA
ATOM     25  H   UNL     1       3.166  -5.151   4.258  1.00  0.00     0.293 HD
ENDBRANCH   6  24
BRANCH   8  26
ATOM     26  O   UNL     1       7.128  -2.534   2.867  1.00  0.00    -0.508 OA
ATOM     27  H   UNL     1       7.966  -2.740   3.398  1.00  0.00     0.293 HD
ENDBRANCH   8  26
TORSDOF 6
ENDMDL
MODEL 7
REMARK VINA RESULT:    -5.863      1.310      6.625
REMARK INTER + INTRA:          -6.658
REMARK INTER:                  -6.719
REMARK INTRA:                   0.061
REMARK UNBOUND:                 0.405
REMARK SMILES O=c1c(O)c(-c2ccc(O)c(O)c2)oc2cc(O)cc(O)c12
REMARK SMILES IDX 5 1 3 2 2 3 1 4 22 5 20 6 19 7 17 8 16 9 15 10 14 11 6 12
REMARK SMILES IDX 7 13 8 14 9 15 13 16 11 17 10 18 12 20 4 22 21 24 18 26
REMARK H PARENT 10 19 12 21 4 23 21 25 18 27
REMARK Flexibility Score: inf
ROOT
ATOM      1  C   UNL     1       6.380  -7.450  -3.242  1.00  0.00     0.180 A 
ATOM      2  C   UNL     1       7.702  -7.320  -2.783  1.00  0.00     0.208 A 
ATOM      3  C   UNL     1       7.931  -6.747  -1.522  1.00  0.00     0.238 A 
ATOM      4  O   UNL     1       9.118  -6.583  -1.139  1.00  0.00    -0.285 OA
ATOM      5  C   UNL     1       6.835  -6.328  -0.729  1.00  0.00     0.111 A 
ATOM      6  C   UNL     1       6.949  -5.773   0.582  1.00  0.00     0.134 A 
ATOM      7  C   UNL     1       5.808  -5.273   1.220  1.00  0.00     0.093 A 
ATOM      8  C   UNL     1       4.550  -5.366   0.626  1.00  0.00     0.123 A 
ATOM      9  C   UNL     1       4.419  -5.962  -0.629  1.00  0.00     0.094 A 
ATOM     10  C   UNL     1       5.545  -6.438  -1.307  1.00  0.00     0.146 A 
ATOM     11  O   UNL     1       5.378  -6.988  -2.504  1.00  0.00    -0.452 OA
ENDROOT
BRANCH   1  12
ATOM     12  C   UNL     1       6.058  -8.065  -4.550  1.00  0.00     0.025 A 
ATOM     13  C   UNL     1       6.688  -9.247  -4.978  1.00  0.00     0.016 A 
ATOM     14  C   UNL     1       6.351  -9.824  -6.206  1.00  0.00     0.051 A 
ATOM     15  C   UNL     1       5.370  -9.236  -7.016  1.00  0.00     0.157 A 
ATOM     16  C   UNL     1       5.061  -7.493  -5.358  1.00  0.00     0.062 A 
ATOM     17  C   UNL     1       4.722  -8.070  -6.590  1.00  0.00     0.158 A 
BRANCH  15  18
ATOM     18  O   UNL     1       5.032  -9.807  -8.241  1.00  0.00    -0.504 OA
ATOM     19  H   UNL     1       5.738 -10.173  -8.869  1.00  0.00     0.293 HD
ENDBRANCH  15  18
BRANCH  17  20
ATOM     20  O   UNL     1       3.741  -7.492  -7.394  1.00  0.00    -0.504 OA
ATOM     21  H   UNL     1       3.047  -6.861  -7.012  1.00  0.00     0.293 HD
ENDBRANCH  17  20
ENDBRANCH   1  12
BRANCH   2  22
ATOM     22  O   UNL     1       8.770  -7.719  -3.592  1.00  0.00    -0.502 OA
ATOM     23  H   UNL     1       8.917  -8.684  -3.861  1.00  0.00     0.293 HD
ENDBRANCH   2  22
BRANCH   6  24
ATOM     24  O   UNL     1       8.144  -5.714   1.304  1.00  0.00    -0.507 OA
ATOM     25  H   UNL     1       8.991  -6.203   1.054  1.00  0.00     0.293 HD
ENDBRANCH   6  24
BRANCH   8  26
ATOM     26  O   UNL     1       3.433  -4.873   1.297  1.00  0.00    -0.508 OA
ATOM     27  H   UNL     1       2.493  -5.144   1.034  1.00  0.00     0.293 HD
ENDBRANCH   8  26
TORSDOF 6
ENDMDL
MODEL 8
REMARK VINA RESULT:    -5.814     17.896     18.462
REMARK INTER + INTRA:          -6.599
REMARK INTER:                  -6.614
REMARK INTRA:                   0.015
REMARK UNBOUND:                 0.405
REMARK SMILES O=c1c(O)c(-c2ccc(O)c(O)c2)oc2cc(O)cc(O)c12
REMARK SMILES IDX 5 1 3 2 2 3 1 4 22 5 20 6 19 7 17 8 16 9 15 10 14 11 6 12
REMARK SMILES IDX 7 13 8 14 9 15 13 16 11 17 10 18 12 20 4 22 21 24 18 26
REMARK H PARENT 10 19 12 21 4 23 21 25 18 27
REMARK Flexibility Score: inf
ROOT
ATOM      1  C   UNL     1       1.363   7.829 -11.749  1.00  0.00     0.180 A 
ATOM      2  C   UNL     1       1.296   6.539 -12.302  1.00  0.00     0.208 A 
ATOM      3  C   UNL     1       2.397   6.049 -13.023  1.00  0.00     0.238 A 
ATOM      4  O   UNL     1       2.311   4.915 -13.562  1.00  0.00    -0.285 OA
ATOM      5  C   UNL     1       3.557   6.847 -13.167  1.00  0.00     0.111 A 
ATOM      6  C   UNL     1       4.746   6.435 -13.841  1.00  0.00     0.134 A 
ATOM      7  C   UNL     1       5.783   7.356 -14.036  1.00  0.00     0.093 A 
ATOM      8  C   UNL     1       5.703   8.651 -13.525  1.00  0.00     0.123 A 
ATOM      9  C   UNL     1       4.569   9.045 -12.812  1.00  0.00     0.094 A 
ATOM     10  C   UNL     1       3.503   8.161 -12.633  1.00  0.00     0.146 A 
ATOM     11  O   UNL     1       2.439   8.579 -11.958  1.00  0.00    -0.452 OA
ENDROOT
BRANCH   1  12
ATOM     12  C   UNL     1       0.253   8.405 -10.957  1.00  0.00     0.025 A 
ATOM     13  C   UNL     1       0.477   8.979  -9.692  1.00  0.00     0.016 A 
ATOM     14  C   UNL     1      -0.581   9.538  -8.972  1.00  0.00     0.051 A 
ATOM     15  C   UNL     1      -1.875   9.546  -9.510  1.00  0.00     0.157 A 
ATOM     16  C   UNL     1      -1.042   8.434 -11.499  1.00  0.00     0.062 A 
ATOM     17  C   UNL     1      -2.105   8.995 -10.777  1.00  0.00     0.158 A 
BRANCH  15  18
ATOM     18  O   UNL     1      -2.934  10.102  -8.794  1.00  0.00    -0.504 OA
ATOM     19  H   UNL     1      -3.293  11.024  -9.010  1.00  0.00     0.293 HD
ENDBRANCH  15  18
BRANCH  17  20
ATOM     20  O   UNL     1      -3.392   9.011 -11.313  1.00  0.00    -0.504 OA
ATOM     21  H   UNL     1      -3.938   8.163 -11.405  1.00  0.00     0.293 HD
ENDBRANCH  17  20
ENDBRANCH   1  12
BRANCH   2  22
ATOM     22  O   UNL     1       0.133   5.776 -12.167  1.00  0.00    -0.502 OA
ATOM     23  H   UNL     1      -0.714   5.978 -12.685  1.00  0.00     0.293 HD
ENDBRANCH   2  22
BRANCH   6  24
ATOM     24  O   UNL     1       4.967   5.138 -14.311  1.00  0.00    -0.507 OA
ATOM     25  H   UNL     1       4.289   4.585 -14.813  1.00  0.00     0.293 HD
ENDBRANCH   6  24
BRANCH   8  26
ATOM     26  O   UNL     1       6.760   9.536 -13.723  1.00  0.00    -0.508 OA
ATOM     27  H   UNL     1       7.009  10.229 -13.028  1.00  0.00     0.293 HD
ENDBRANCH   8  26
TORSDOF 6
ENDMDL
MODEL 9
REMARK VINA RESULT:    -5.712      4.590      5.740
REMARK INTER + INTRA:          -6.476
REMARK INTER:                  -6.160
REMARK INTRA:                  -0.316
REMARK UNBOUND:                 0.405
REMARK SMILES O=c1c(O)c(-c2ccc(O)c(O)c2)oc2cc(O)cc(O)c12
REMARK SMILES IDX 5 1 3 2 2 3 1 4 22 5 20 6 19 7 17 8 16 9 15 10 14 11 6 12
REMARK SMILES IDX 7 13 8 14 9 15 13 16 11 17 10 18 12 20 4 22 21 24 18 26
REMARK H PARENT 10 19 12 21 4 23 21 25 18 27
REMARK Flexibility Score: inf
ROOT
ATOM      1  C   UNL     1       5.045  -6.122   1.738  1.00  0.00     0.180 A 
ATOM      2  C   UNL     1       5.277  -7.501   1.600  1.00  0.00     0.208 A 
ATOM      3  C   UNL     1       4.352  -8.279   0.886  1.00  0.00     0.238 A 
ATOM      4  O   UNL     1       4.537  -9.521   0.811  1.00  0.00    -0.285 OA
ATOM      5  C   UNL     1       3.216  -7.665   0.305  1.00  0.00     0.111 A 
ATOM      6  C   UNL     1       2.235  -8.350  -0.475  1.00  0.00     0.134 A 
ATOM      7  C   UNL     1       1.084  -7.669  -0.889  1.00  0.00     0.093 A 
ATOM      8  C   UNL     1       0.909  -6.314  -0.610  1.00  0.00     0.123 A 
ATOM      9  C   UNL     1       1.891  -5.620   0.099  1.00  0.00     0.094 A 
ATOM     10  C   UNL     1       3.033  -6.282   0.558  1.00  0.00     0.146 A 
ATOM     11  O   UNL     1       3.937  -5.588   1.238  1.00  0.00    -0.452 OA
ENDROOT
BRANCH   1  12
ATOM     12  C   UNL     1       5.987  -5.232   2.456  1.00  0.00     0.025 A 
ATOM     13  C   UNL     1       5.819  -4.936   3.820  1.00  0.00     0.016 A 
ATOM     14  C   UNL     1       6.733  -4.114   4.483  1.00  0.00     0.051 A 
ATOM     15  C   UNL     1       7.836  -3.587   3.797  1.00  0.00     0.157 A 
ATOM     16  C   UNL     1       7.105  -4.718   1.779  1.00  0.00     0.062 A 
ATOM     17  C   UNL     1       8.024  -3.892   2.443  1.00  0.00     0.158 A 
BRANCH  15  18
ATOM     18  O   UNL     1       8.749  -2.765   4.454  1.00  0.00    -0.504 OA
ATOM     19  H   UNL     1       8.732  -2.651   5.461  1.00  0.00     0.293 HD
ENDBRANCH  15  18
BRANCH  17  20
ATOM     20  O   UNL     1       9.125  -3.373   1.765  1.00  0.00    -0.504 OA
ATOM     21  H   UNL     1       9.641  -3.926   1.091  1.00  0.00     0.293 HD
ENDBRANCH  17  20
ENDBRANCH   1  12
BRANCH   2  22
ATOM     22  O   UNL     1       6.394  -8.090   2.200  1.00  0.00    -0.502 OA
ATOM     23  H   UNL     1       6.805  -8.950   1.858  1.00  0.00     0.293 HD
ENDBRANCH   2  22
BRANCH   6  24
ATOM     24  O   UNL     1       2.355  -9.680  -0.887  1.00  0.00    -0.507 OA
ATOM     25  H   UNL     1       1.606 -10.356  -0.873  1.00  0.00     0.293 HD
ENDBRANCH   6  24
BRANCH   8  26
ATOM     26  O   UNL     1      -0.241  -5.663  -1.052  1.00  0.00    -0.508 OA
ATOM     27  H   UNL     1      -0.836  -5.146  -0.416  1.00  0.00     0.293 HD
ENDBRANCH   8  26
TORSDOF 6
ENDMDL
