MODEL 1
REMARK VINA RESULT:    -2.577      0.000      0.000
REMARK INTER + INTRA:          -3.661
REMARK INTER:                  -3.481
REMARK INTRA:                  -0.180
REMARK UNBOUND:                -0.180
REMARK SMILES O=c1c(-c2ccc(O)cc2)coc2c([C@H]3O[C@H](CO)[C@@H](O)[C@@H](O)[C@@H]3O)c(O)ccc12
REMARK SMILES IDX 3 1 11 2 12 3 13 4 30 5 2 6 1 7 29 8 28 9 26 10 14 11 4 12
REMARK SMILES IDX 5 13 6 14 7 15 10 16 9 17 8 18 15 20 24 21 16 22 22 23 17 24
REMARK SMILES IDX 20 25 25 26 23 28 18 30 19 31 21 33 27 35
REMARK H PARENT 8 19 25 27 23 29 19 32 21 34 27 36
REMARK Flexibility Score: inf
ROOT
ATOM      1  C   UNL     1      37.602 -31.116  11.839  1.00  0.00     0.065 A 
ATOM      2  C   UNL     1      38.616 -31.844  12.477  1.00  0.00     0.208 A 
ATOM      3  O   UNL     1      39.893 -31.640  12.178  1.00  0.00    -0.463 OA
ATOM      4  C   UNL     1      40.296 -30.750  11.274  1.00  0.00     0.147 A 
ATOM      5  C   UNL     1      39.339 -29.971  10.583  1.00  0.00     0.066 A 
ATOM      6  C   UNL     1      37.977 -30.157  10.881  1.00  0.00     0.200 A 
ATOM      7  O   UNL     1      37.098 -29.456  10.307  1.00  0.00    -0.288 OA
ATOM      8  C   UNL     1      39.766 -29.039   9.626  1.00  0.00     0.020 A 
ATOM      9  C   UNL     1      41.123 -28.890   9.347  1.00  0.00     0.047 A 
ATOM     10  C   UNL     1      42.079 -29.659  10.022  1.00  0.00     0.125 A 
ATOM     11  C   UNL     1      41.677 -30.588  11.007  1.00  0.00     0.069 A 
ENDROOT
BRANCH   1  12
ATOM     12  C   UNL     1      36.180 -31.368  12.186  1.00  0.00    -0.011 A 
ATOM     13  C   UNL     1      35.403 -30.369  12.798  1.00  0.00     0.013 A 
ATOM     14  C   UNL     1      34.062 -30.609  13.112  1.00  0.00     0.047 A 
ATOM     15  C   UNL     1      33.480 -31.849  12.815  1.00  0.00     0.115 A 
ATOM     16  C   UNL     1      35.586 -32.607  11.884  1.00  0.00     0.013 A 
ATOM     17  C   UNL     1      34.245 -32.844  12.200  1.00  0.00     0.047 A 
BRANCH  15  18
ATOM     18  O   UNL     1      32.145 -32.099  13.125  1.00  0.00    -0.508 OA
ATOM     19  H   UNL     1      31.465 -32.313  12.404  1.00  0.00     0.293 HD
ENDBRANCH  15  18
ENDBRANCH   1  12
BRANCH  11  20
ATOM     20  C   UNL     1      42.711 -31.441  11.730  1.00  0.00     0.188 C 
ATOM     21  C   UNL     1      43.904 -30.562  12.166  1.00  0.00     0.179 C 
ATOM     22  O   UNL     1      43.119 -32.496  10.869  1.00  0.00    -0.362 OA
ATOM     23  C   UNL     1      44.970 -31.435  12.849  1.00  0.00     0.177 C 
ATOM     24  C   UNL     1      44.066 -33.370  11.468  1.00  0.00     0.176 C 
ATOM     25  C   UNL     1      45.336 -32.621  11.945  1.00  0.00     0.177 C 
BRANCH  21  26
ATOM     26  O   UNL     1      43.453 -29.578  13.064  1.00  0.00    -0.387 OA
ATOM     27  H   UNL     1      44.217 -28.968  13.234  1.00  0.00     0.211 HD
ENDBRANCH  21  26
BRANCH  23  28
ATOM     28  O   UNL     1      46.125 -30.677  13.109  1.00  0.00    -0.387 OA
ATOM     29  H   UNL     1      46.884 -31.146  12.674  1.00  0.00     0.211 HD
ENDBRANCH  23  28
BRANCH  24  30
ATOM     30  C   UNL     1      43.433 -34.272  12.548  1.00  0.00     0.191 C 
BRANCH  30  31
ATOM     31  O   UNL     1      43.811 -35.605  12.336  1.00  0.00    -0.394 OA
ATOM     32  H   UNL     1      42.991 -36.082  12.045  1.00  0.00     0.210 HD
ENDBRANCH  30  31
ENDBRANCH  24  30
BRANCH  25  33
ATOM     33  O   UNL     1      46.051 -32.151  10.828  1.00  0.00    -0.388 OA
ATOM     34  H   UNL     1      46.987 -32.007  11.124  1.00  0.00     0.211 HD
ENDBRANCH  25  33
ENDBRANCH  11  20
BRANCH  10  35
ATOM     35  O   UNL     1      43.429 -29.501   9.707  1.00  0.00    -0.507 OA
ATOM     36  H   UNL     1      44.049 -30.295   9.600  1.00  0.00     0.293 HD
ENDBRANCH  10  35
TORSDOF 9
ENDMDL
MODEL 2
REMARK VINA RESULT:    -0.579      1.741      2.562
REMARK INTER + INTRA:          -0.961
REMARK INTER:                  -0.444
REMARK INTRA:                  -0.518
REMARK UNBOUND:                -0.180
REMARK SMILES O=c1c(-c2ccc(O)cc2)coc2c([C@H]3O[C@H](CO)[C@@H](O)[C@@H](O)[C@@H]3O)c(O)ccc12
REMARK SMILES IDX 3 1 11 2 12 3 13 4 30 5 2 6 1 7 29 8 28 9 26 10 14 11 4 12
REMARK SMILES IDX 5 13 6 14 7 15 10 16 9 17 8 18 15 20 24 21 16 22 22 23 17 24
REMARK SMILES IDX 20 25 25 26 23 28 18 30 19 31 21 33 27 35
REMARK H PARENT 8 19 25 27 23 29 19 32 21 34 27 36
REMARK Flexibility Score: inf
ROOT
ATOM      1  C   UNL     1      35.459 -31.984  11.678  1.00  0.00     0.065 A 
ATOM      2  C   UNL     1      36.634 -32.342  12.354  1.00  0.00     0.208 A 
ATOM      3  O   UNL     1      37.800 -31.801  12.027  1.00  0.00    -0.463 OA
ATOM      4  C   UNL     1      37.939 -30.900  11.058  1.00  0.00     0.147 A 
ATOM      5  C   UNL     1      36.804 -30.481  10.324  1.00  0.00     0.066 A 
ATOM      6  C   UNL     1      35.551 -31.029  10.650  1.00  0.00     0.200 A 
ATOM      7  O   UNL     1      34.513 -30.653  10.037  1.00  0.00    -0.288 OA
ATOM      8  C   UNL     1      36.954 -29.536   9.297  1.00  0.00     0.020 A 
ATOM      9  C   UNL     1      38.214 -29.023   8.993  1.00  0.00     0.047 A 
ATOM     10  C   UNL     1      39.344 -29.434   9.710  1.00  0.00     0.125 A 
ATOM     11  C   UNL     1      39.217 -30.367  10.764  1.00  0.00     0.069 A 
ENDROOT
BRANCH   1  12
ATOM     12  C   UNL     1      34.166 -32.609  12.058  1.00  0.00    -0.011 A 
ATOM     13  C   UNL     1      33.203 -31.882  12.780  1.00  0.00     0.013 A 
ATOM     14  C   UNL     1      31.985 -32.473  13.125  1.00  0.00     0.047 A 
ATOM     15  C   UNL     1      31.711 -33.796  12.751  1.00  0.00     0.115 A 
ATOM     16  C   UNL     1      33.882 -33.933  11.679  1.00  0.00     0.013 A 
ATOM     17  C   UNL     1      32.662 -34.522  12.027  1.00  0.00     0.047 A 
BRANCH  15  18
ATOM     18  O   UNL     1      30.501 -34.394  13.091  1.00  0.00    -0.508 OA
ATOM     19  H   UNL     1      30.348 -35.389  12.968  1.00  0.00     0.293 HD
ENDBRANCH  15  18
ENDBRANCH   1  12
BRANCH  11  20
ATOM     20  C   UNL     1      40.446 -30.832  11.533  1.00  0.00     0.188 C 
ATOM     21  C   UNL     1      41.234 -29.609  12.053  1.00  0.00     0.179 C 
ATOM     22  O   UNL     1      41.239 -31.648  10.682  1.00  0.00    -0.362 OA
ATOM     23  C   UNL     1      42.502 -30.080  12.784  1.00  0.00     0.177 C 
ATOM     24  C   UNL     1      42.401 -32.159  11.323  1.00  0.00     0.176 C 
ATOM     25  C   UNL     1      43.304 -31.032  11.886  1.00  0.00     0.177 C 
BRANCH  21  26
ATOM     26  O   UNL     1      40.423 -28.875  12.937  1.00  0.00    -0.387 OA
ATOM     27  H   UNL     1      40.702 -29.119  13.858  1.00  0.00     0.211 HD
ENDBRANCH  21  26
BRANCH  23  28
ATOM     28  O   UNL     1      43.304 -28.978  13.125  1.00  0.00    -0.387 OA
ATOM     29  H   UNL     1      42.692 -28.245  13.396  1.00  0.00     0.211 HD
ENDBRANCH  23  28
BRANCH  24  30
ATOM     30  C   UNL     1      42.069 -33.262  12.349  1.00  0.00     0.191 C 
BRANCH  30  31
ATOM     31  O   UNL     1      43.167 -34.118  12.500  1.00  0.00    -0.394 OA
ATOM     32  H   UNL     1      43.909 -33.559  12.849  1.00  0.00     0.210 HD
ENDBRANCH  30  31
ENDBRANCH  24  30
BRANCH  25  33
ATOM     33  O   UNL     1      43.864 -30.305  10.821  1.00  0.00    -0.388 OA
ATOM     34  H   UNL     1      44.840 -30.246  10.994  1.00  0.00     0.211 HD
ENDBRANCH  25  33
ENDBRANCH  11  20
BRANCH  10  35
ATOM     35  O   UNL     1      40.594 -28.917   9.369  1.00  0.00    -0.507 OA
ATOM     36  H   UNL     1      41.397 -29.516   9.219  1.00  0.00     0.293 HD
ENDBRANCH  10  35
TORSDOF 9
ENDMDL
MODEL 3
REMARK VINA RESULT:     0.066      2.835      8.342
REMARK INTER + INTRA:          -0.091
REMARK INTER:                  -0.831
REMARK INTRA:                   0.740
REMARK UNBOUND:                -0.180
REMARK SMILES O=c1c(-c2ccc(O)cc2)coc2c([C@H]3O[C@H](CO)[C@@H](O)[C@@H](O)[C@@H]3O)c(O)ccc12
REMARK SMILES IDX 3 1 11 2 12 3 13 4 30 5 2 6 1 7 29 8 28 9 26 10 14 11 4 12
REMARK SMILES IDX 5 13 6 14 7 15 10 16 9 17 8 18 15 20 24 21 16 22 22 23 17 24
REMARK SMILES IDX 20 25 25 26 23 28 18 30 19 31 21 33 27 35
REMARK H PARENT 8 19 25 27 23 29 19 32 21 34 27 36
REMARK Flexibility Score: inf
ROOT
ATOM      1  C   UNL     1      40.880 -31.570  10.995  1.00  0.00     0.065 A 
ATOM      2  C   UNL     1      40.176 -31.727   9.793  1.00  0.00     0.208 A 
ATOM      3  O   UNL     1      38.957 -31.224   9.646  1.00  0.00    -0.463 OA
ATOM      4  C   UNL     1      38.327 -30.549  10.605  1.00  0.00     0.147 A 
ATOM      5  C   UNL     1      38.965 -30.343  11.851  1.00  0.00     0.066 A 
ATOM      6  C   UNL     1      40.261 -30.856  12.037  1.00  0.00     0.200 A 
ATOM      7  O   UNL     1      40.872 -30.662  13.125  1.00  0.00    -0.288 OA
ATOM      8  C   UNL     1      38.296 -29.638  12.863  1.00  0.00     0.020 A 
ATOM      9  C   UNL     1      37.007 -29.154  12.647  1.00  0.00     0.047 A 
ATOM     10  C   UNL     1      36.365 -29.356  11.420  1.00  0.00     0.125 A 
ATOM     11  C   UNL     1      37.025 -30.043  10.377  1.00  0.00     0.069 A 
ENDROOT
BRANCH   1  12
ATOM     12  C   UNL     1      42.241 -32.148  11.137  1.00  0.00    -0.011 A 
ATOM     13  C   UNL     1      43.338 -31.572  10.472  1.00  0.00     0.013 A 
ATOM     14  C   UNL     1      44.617 -32.115  10.618  1.00  0.00     0.047 A 
ATOM     15  C   UNL     1      44.818 -33.237  11.434  1.00  0.00     0.115 A 
ATOM     16  C   UNL     1      42.451 -33.269  11.959  1.00  0.00     0.013 A 
ATOM     17  C   UNL     1      43.733 -33.810  12.103  1.00  0.00     0.047 A 
BRANCH  15  18
ATOM     18  O   UNL     1      46.089 -33.787  11.585  1.00  0.00    -0.508 OA
ATOM     19  H   UNL     1      46.916 -33.203  11.640  1.00  0.00     0.293 HD
ENDBRANCH  15  18
ENDBRANCH   1  12
BRANCH  11  20
ATOM     20  C   UNL     1      36.324 -30.282   9.046  1.00  0.00     0.188 C 
ATOM     21  C   UNL     1      35.238 -31.368   9.213  1.00  0.00     0.179 C 
ATOM     22  O   UNL     1      37.294 -30.650   8.075  1.00  0.00    -0.362 OA
ATOM     23  C   UNL     1      34.567 -31.645   7.857  1.00  0.00     0.177 C 
ATOM     24  C   UNL     1      36.738 -30.866   6.785  1.00  0.00     0.176 C 
ATOM     25  C   UNL     1      35.633 -31.954   6.797  1.00  0.00     0.177 C 
BRANCH  21  26
ATOM     26  O   UNL     1      34.274 -30.924  10.135  1.00  0.00    -0.387 OA
ATOM     27  H   UNL     1      34.298 -31.550  10.905  1.00  0.00     0.211 HD
ENDBRANCH  21  26
BRANCH  23  28
ATOM     28  O   UNL     1      33.689 -32.737   7.963  1.00  0.00    -0.387 OA
ATOM     29  H   UNL     1      33.314 -32.897   7.058  1.00  0.00     0.211 HD
ENDBRANCH  23  28
BRANCH  24  30
ATOM     30  C   UNL     1      36.309 -29.551   6.101  1.00  0.00     0.191 C 
BRANCH  30  31
ATOM     31  O   UNL     1      37.439 -28.875   5.621  1.00  0.00    -0.394 OA
ATOM     32  H   UNL     1      38.192 -29.140   6.210  1.00  0.00     0.210 HD
ENDBRANCH  30  31
ENDBRANCH  24  30
BRANCH  25  33
ATOM     33  O   UNL     1      36.212 -33.206   7.069  1.00  0.00    -0.388 OA
ATOM     34  H   UNL     1      37.192 -33.106   6.941  1.00  0.00     0.211 HD
ENDBRANCH  25  33
ENDBRANCH  11  20
BRANCH  10  35
ATOM     35  O   UNL     1      35.067 -28.876  11.241  1.00  0.00    -0.507 OA
ATOM     36  H   UNL     1      34.832 -28.238  10.490  1.00  0.00     0.293 HD
ENDBRANCH  10  35
TORSDOF 9
ENDMDL
