MODEL 1
REMARK VINA RESULT:    -2.957      0.000      0.000
REMARK INTER + INTRA:          -4.212
REMARK INTER:                  -3.821
REMARK INTRA:                  -0.391
REMARK UNBOUND:                -0.391
REMARK SMILES CCO[C@@H]1O[C@H](CO)[C@@H](O)[C@@H](O)[C@@H]1O
REMARK SMILES IDX 4 1 13 2 11 3 9 4 6 5 5 6 3 7 2 8 1 9 14 10 12 12 7 14 8 15
REMARK SMILES IDX 10 17
REMARK H PARENT 14 11 12 13 8 16 10 18
REMARK Flexibility Score: inf
ROOT
ATOM      1  C   UNL     1      11.678  -4.630   1.903  1.00  0.00     0.281 C 
ATOM      2  C   UNL     1      10.975  -5.975   2.176  1.00  0.00     0.202 C 
ATOM      3  C   UNL     1       9.650  -5.748   2.904  1.00  0.00     0.179 C 
ATOM      4  C   UNL     1       8.790  -4.755   2.105  1.00  0.00     0.177 C 
ATOM      5  C   UNL     1       9.585  -3.468   1.790  1.00  0.00     0.178 C 
ATOM      6  O   UNL     1      10.852  -3.720   1.187  1.00  0.00    -0.341 OA
ENDROOT
BRANCH   1   7
ATOM      7  O   UNL     1      12.124  -4.048   3.123  1.00  0.00    -0.350 OA
BRANCH   7   8
ATOM      8  C   UNL     1      13.507  -3.750   3.103  1.00  0.00     0.160 C 
ATOM      9  C   UNL     1      13.829  -2.689   2.053  1.00  0.00     0.035 C 
ENDBRANCH   7   8
ENDBRANCH   1   7
BRANCH   2  10
ATOM     10  O   UNL     1      11.799  -6.802   2.957  1.00  0.00    -0.385 OA
ATOM     11  H   UNL     1      12.191  -7.477   2.344  1.00  0.00     0.211 HD
ENDBRANCH   2  10
BRANCH   3  12
ATOM     12  O   UNL     1       8.980  -6.973   3.047  1.00  0.00    -0.387 OA
ATOM     13  H   UNL     1       9.635  -7.686   2.830  1.00  0.00     0.211 HD
ENDBRANCH   3  12
BRANCH   5  14
ATOM     14  C   UNL     1       9.667  -2.495   2.987  1.00  0.00     0.191 C 
BRANCH  14  15
ATOM     15  O   UNL     1      10.626  -1.501   2.752  1.00  0.00    -0.394 OA
ATOM     16  H   UNL     1      11.514  -1.929   2.867  1.00  0.00     0.210 HD
ENDBRANCH  14  15
ENDBRANCH   5  14
BRANCH   4  17
ATOM     17  O   UNL     1       8.375  -5.339   0.894  1.00  0.00    -0.387 OA
ATOM     18  H   UNL     1       9.021  -6.062   0.681  1.00  0.00     0.211 HD
ENDBRANCH   4  17
TORSDOF 7
ENDMDL
MODEL 2
REMARK VINA RESULT:    -2.922      2.204      4.280
REMARK INTER + INTRA:          -4.167
REMARK INTER:                  -3.750
REMARK INTRA:                  -0.417
REMARK UNBOUND:                -0.391
REMARK SMILES CCO[C@@H]1O[C@H](CO)[C@@H](O)[C@@H](O)[C@@H]1O
REMARK SMILES IDX 4 1 13 2 11 3 9 4 6 5 5 6 3 7 2 8 1 9 14 10 12 12 7 14 8 15
REMARK SMILES IDX 10 17
REMARK H PARENT 14 11 12 13 8 16 10 18
REMARK Flexibility Score: inf
ROOT
ATOM      1  C   UNL     1       9.346  -6.232   2.815  1.00  0.00     0.281 C 
ATOM      2  C   UNL     1       7.975  -5.652   2.411  1.00  0.00     0.202 C 
ATOM      3  C   UNL     1       7.394  -6.429   1.230  1.00  0.00     0.179 C 
ATOM      4  C   UNL     1       7.352  -7.928   1.571  1.00  0.00     0.177 C 
ATOM      5  C   UNL     1       8.735  -8.421   2.052  1.00  0.00     0.178 C 
ATOM      6  O   UNL     1       9.285  -7.624   3.099  1.00  0.00    -0.341 OA
ENDROOT
BRANCH   1   7
ATOM      7  O   UNL     1      10.312  -5.969   1.804  1.00  0.00    -0.350 OA
BRANCH   7   8
ATOM      8  C   UNL     1      11.375  -5.160   2.272  1.00  0.00     0.160 C 
ATOM      9  C   UNL     1      11.531  -3.903   1.420  1.00  0.00     0.035 C 
ENDBRANCH   7   8
ENDBRANCH   1   7
BRANCH   2  10
ATOM     10  O   UNL     1       8.107  -4.299   2.059  1.00  0.00    -0.385 OA
ATOM     11  H   UNL     1       8.947  -3.975   2.477  1.00  0.00     0.211 HD
ENDBRANCH   2  10
BRANCH   3  12
ATOM     12  O   UNL     1       6.103  -5.954   0.947  1.00  0.00    -0.387 OA
ATOM     13  H   UNL     1       5.513  -6.280   1.675  1.00  0.00     0.211 HD
ENDBRANCH   3  12
BRANCH   5  14
ATOM     14  C   UNL     1       9.728  -8.672   0.897  1.00  0.00     0.191 C 
BRANCH  14  15
ATOM     15  O   UNL     1      11.025  -8.861   1.391  1.00  0.00    -0.394 OA
ATOM     16  H   UNL     1      11.565  -8.089   1.078  1.00  0.00     0.210 HD
ENDBRANCH  14  15
ENDBRANCH   5  14
BRANCH   4  17
ATOM     17  O   UNL     1       6.407  -8.167   2.586  1.00  0.00    -0.387 OA
ATOM     18  H   UNL     1       6.688  -7.638   3.378  1.00  0.00     0.211 HD
ENDBRANCH   4  17
TORSDOF 7
ENDMDL
MODEL 3
REMARK VINA RESULT:    -2.815      3.242      6.108
REMARK INTER + INTRA:          -4.028
REMARK INTER:                  -3.513
REMARK INTRA:                  -0.516
REMARK UNBOUND:                -0.391
REMARK SMILES CCO[C@@H]1O[C@H](CO)[C@@H](O)[C@@H](O)[C@@H]1O
REMARK SMILES IDX 4 1 13 2 11 3 9 4 6 5 5 6 3 7 2 8 1 9 14 10 12 12 7 14 8 15
REMARK SMILES IDX 10 17
REMARK H PARENT 14 11 12 13 8 16 10 18
REMARK Flexibility Score: inf
ROOT
ATOM      1  C   UNL     1       6.422  -7.104   1.672  1.00  0.00     0.281 C 
ATOM      2  C   UNL     1       6.309  -5.605   2.015  1.00  0.00     0.202 C 
ATOM      3  C   UNL     1       7.527  -5.148   2.818  1.00  0.00     0.179 C 
ATOM      4  C   UNL     1       8.811  -5.509   2.053  1.00  0.00     0.177 C 
ATOM      5  C   UNL     1       8.817  -7.005   1.664  1.00  0.00     0.178 C 
ATOM      6  O   UNL     1       7.630  -7.417   0.989  1.00  0.00    -0.341 OA
ENDROOT
BRANCH   1   7
ATOM      7  O   UNL     1       6.294  -7.893   2.850  1.00  0.00    -0.350 OA
BRANCH   7   8
ATOM      8  C   UNL     1       5.505  -9.049   2.640  1.00  0.00     0.160 C 
ATOM      9  C   UNL     1       4.121  -8.685   2.109  1.00  0.00     0.035 C 
ENDBRANCH   7   8
ENDBRANCH   1   7
BRANCH   2  10
ATOM     10  O   UNL     1       5.144  -5.366   2.761  1.00  0.00    -0.385 OA
ATOM     11  H   UNL     1       4.961  -4.392   2.703  1.00  0.00     0.211 HD
ENDBRANCH   2  10
BRANCH   3  12
ATOM     12  O   UNL     1       7.455  -3.761   3.028  1.00  0.00    -0.387 OA
ATOM     13  H   UNL     1       6.544  -3.477   2.754  1.00  0.00     0.211 HD
ENDBRANCH   3  12
BRANCH   5  14
ATOM     14  C   UNL     1       9.204  -7.936   2.832  1.00  0.00     0.191 C 
BRANCH  14  15
ATOM     15  O   UNL     1       9.038  -9.280   2.470  1.00  0.00    -0.394 OA
ATOM     16  H   UNL     1       8.700  -9.752   3.275  1.00  0.00     0.210 HD
ENDBRANCH  14  15
ENDBRANCH   5  14
BRANCH   4  17
ATOM     17  O   UNL     1       8.912  -4.736   0.882  1.00  0.00    -0.387 OA
ATOM     18  H   UNL     1       8.705  -3.797   1.133  1.00  0.00     0.211 HD
ENDBRANCH   4  17
TORSDOF 7
ENDMDL
MODEL 4
REMARK VINA RESULT:    -2.764      1.784      2.706
REMARK INTER + INTRA:          -3.963
REMARK INTER:                  -3.464
REMARK INTRA:                  -0.499
REMARK UNBOUND:                -0.391
REMARK SMILES CCO[C@@H]1O[C@H](CO)[C@@H](O)[C@@H](O)[C@@H]1O
REMARK SMILES IDX 4 1 13 2 11 3 9 4 6 5 5 6 3 7 2 8 1 9 14 10 12 12 7 14 8 15
REMARK SMILES IDX 10 17
REMARK H PARENT 14 11 12 13 8 16 10 18
REMARK Flexibility Score: inf
ROOT
ATOM      1  C   UNL     1      10.115  -4.717   1.879  1.00  0.00     0.281 C 
ATOM      2  C   UNL     1      10.981  -5.977   2.084  1.00  0.00     0.202 C 
ATOM      3  C   UNL     1      10.195  -7.050   2.837  1.00  0.00     0.179 C 
ATOM      4  C   UNL     1       8.871  -7.325   2.104  1.00  0.00     0.177 C 
ATOM      5  C   UNL     1       8.097  -6.012   1.854  1.00  0.00     0.178 C 
ATOM      6  O   UNL     1       8.884  -5.004   1.224  1.00  0.00    -0.341 OA
ENDROOT
BRANCH   1   7
ATOM      7  O   UNL     1       9.879  -4.071   3.125  1.00  0.00    -0.350 OA
BRANCH   7   8
ATOM      8  C   UNL     1       9.957  -2.661   3.022  1.00  0.00     0.160 C 
ATOM      9  C   UNL     1      11.401  -2.178   3.125  1.00  0.00     0.035 C 
ENDBRANCH   7   8
ENDBRANCH   1   7
BRANCH   2  10
ATOM     10  O   UNL     1      12.139  -5.654   2.808  1.00  0.00    -0.385 OA
ATOM     11  H   UNL     1      12.798  -6.375   2.631  1.00  0.00     0.211 HD
ENDBRANCH   2  10
BRANCH   3  12
ATOM     12  O   UNL     1      10.963  -8.222   2.919  1.00  0.00    -0.387 OA
ATOM     13  H   UNL     1      10.513  -8.899   2.350  1.00  0.00     0.211 HD
ENDBRANCH   3  12
BRANCH   5  14
ATOM     14  C   UNL     1       7.345  -5.501   3.102  1.00  0.00     0.191 C 
BRANCH  14  15
ATOM     15  O   UNL     1       6.780  -4.242   2.858  1.00  0.00    -0.394 OA
ATOM     16  H   UNL     1       6.080  -4.373   2.167  1.00  0.00     0.210 HD
ENDBRANCH  14  15
ENDBRANCH   5  14
BRANCH   4  17
ATOM     17  O   UNL     1       9.122  -7.946   0.867  1.00  0.00    -0.387 OA
ATOM     18  H   UNL     1       8.241  -8.154   0.459  1.00  0.00     0.211 HD
ENDBRANCH   4  17
TORSDOF 7
ENDMDL
MODEL 5
REMARK VINA RESULT:    -2.754      1.501      3.189
REMARK INTER + INTRA:          -3.950
REMARK INTER:                  -3.636
REMARK INTRA:                  -0.314
REMARK UNBOUND:                -0.391
REMARK SMILES CCO[C@@H]1O[C@H](CO)[C@@H](O)[C@@H](O)[C@@H]1O
REMARK SMILES IDX 4 1 13 2 11 3 9 4 6 5 5 6 3 7 2 8 1 9 14 10 12 12 7 14 8 15
REMARK SMILES IDX 10 17
REMARK H PARENT 14 11 12 13 8 16 10 18
REMARK Flexibility Score: inf
ROOT
ATOM      1  C   UNL     1      10.444  -5.856   1.856  1.00  0.00     0.281 C 
ATOM      2  C   UNL     1       9.010  -5.310   2.004  1.00  0.00     0.202 C 
ATOM      3  C   UNL     1       9.021  -3.974   2.747  1.00  0.00     0.179 C 
ATOM      4  C   UNL     1       9.980  -3.001   2.040  1.00  0.00     0.177 C 
ATOM      5  C   UNL     1      11.371  -3.645   1.845  1.00  0.00     0.178 C 
ATOM      6  O   UNL     1      11.317  -4.927   1.224  1.00  0.00    -0.341 OA
ENDROOT
BRANCH   1   7
ATOM      7  O   UNL     1      10.960  -6.244   3.124  1.00  0.00    -0.350 OA
BRANCH   7   8
ATOM      8  C   UNL     1      11.604  -7.504   3.080  1.00  0.00     0.160 C 
ATOM      9  C   UNL     1      11.009  -8.392   1.990  1.00  0.00     0.035 C 
ENDBRANCH   7   8
ENDBRANCH   1   7
BRANCH   2  10
ATOM     10  O   UNL     1       8.213  -6.227   2.709  1.00  0.00    -0.385 OA
ATOM     11  H   UNL     1       8.602  -6.304   3.619  1.00  0.00     0.211 HD
ENDBRANCH   2  10
BRANCH   3  12
ATOM     12  O   UNL     1       7.721  -3.445   2.778  1.00  0.00    -0.387 OA
ATOM     13  H   UNL     1       7.614  -2.899   1.956  1.00  0.00     0.211 HD
ENDBRANCH   3  12
BRANCH   5  14
ATOM     14  C   UNL     1      12.234  -3.628   3.125  1.00  0.00     0.191 C 
BRANCH  14  15
ATOM     15  O   UNL     1      13.593  -3.763   2.808  1.00  0.00    -0.394 OA
ATOM     16  H   UNL     1      14.028  -4.183   3.595  1.00  0.00     0.210 HD
ENDBRANCH  14  15
ENDBRANCH   5  14
BRANCH   4  17
ATOM     17  O   UNL     1       9.465  -2.644   0.781  1.00  0.00    -0.387 OA
ATOM     18  H   UNL     1       8.990  -3.438   0.422  1.00  0.00     0.211 HD
ENDBRANCH   4  17
TORSDOF 7
ENDMDL
MODEL 6
REMARK VINA RESULT:    -2.616      2.985      5.703
REMARK INTER + INTRA:          -3.772
REMARK INTER:                  -3.300
REMARK INTRA:                  -0.472
REMARK UNBOUND:                -0.391
REMARK SMILES CCO[C@@H]1O[C@H](CO)[C@@H](O)[C@@H](O)[C@@H]1O
REMARK SMILES IDX 4 1 13 2 11 3 9 4 6 5 5 6 3 7 2 8 1 9 14 10 12 12 7 14 8 15
REMARK SMILES IDX 10 17
REMARK H PARENT 14 11 12 13 8 16 10 18
REMARK Flexibility Score: inf
ROOT
ATOM      1  C   UNL     1       7.233  -6.136   1.376  1.00  0.00     0.281 C 
ATOM      2  C   UNL     1       8.536  -5.433   1.804  1.00  0.00     0.202 C 
ATOM      3  C   UNL     1       9.290  -6.282   2.828  1.00  0.00     0.179 C 
ATOM      4  C   UNL     1       9.511  -7.695   2.260  1.00  0.00     0.177 C 
ATOM      5  C   UNL     1       8.179  -8.304   1.769  1.00  0.00     0.178 C 
ATOM      6  O   UNL     1       7.461  -7.450   0.880  1.00  0.00    -0.341 OA
ENDROOT
BRANCH   1   7
ATOM      7  O   UNL     1       6.306  -6.163   2.456  1.00  0.00    -0.350 OA
BRANCH   7   8
ATOM      8  C   UNL     1       5.028  -5.685   2.080  1.00  0.00     0.160 C 
ATOM      9  C   UNL     1       4.540  -4.600   3.035  1.00  0.00     0.035 C 
ENDBRANCH   7   8
ENDBRANCH   1   7
BRANCH   2  10
ATOM     10  O   UNL     1       8.247  -4.178   2.364  1.00  0.00    -0.385 OA
ATOM     11  H   UNL     1       7.258  -4.105   2.409  1.00  0.00     0.211 HD
ENDBRANCH   2  10
BRANCH   3  12
ATOM     12  O   UNL     1      10.521  -5.674   3.124  1.00  0.00    -0.387 OA
ATOM     13  H   UNL     1      11.218  -6.373   3.018  1.00  0.00     0.211 HD
ENDBRANCH   3  12
BRANCH   5  14
ATOM     14  C   UNL     1       7.304  -8.858   2.914  1.00  0.00     0.191 C 
BRANCH  14  15
ATOM     15  O   UNL     1       6.023  -9.182   2.446  1.00  0.00    -0.394 OA
ATOM     16  H   UNL     1       6.060  -9.130   1.456  1.00  0.00     0.210 HD
ENDBRANCH  14  15
ENDBRANCH   5  14
BRANCH   4  17
ATOM     17  O   UNL     1      10.413  -7.647   1.182  1.00  0.00    -0.387 OA
ATOM     18  H   UNL     1      10.595  -8.585   0.911  1.00  0.00     0.211 HD
ENDBRANCH   4  17
TORSDOF 7
ENDMDL
MODEL 7
REMARK VINA RESULT:    -2.531      3.817      5.292
REMARK INTER + INTRA:          -3.661
REMARK INTER:                  -3.417
REMARK INTRA:                  -0.244
REMARK UNBOUND:                -0.391
REMARK SMILES CCO[C@@H]1O[C@H](CO)[C@@H](O)[C@@H](O)[C@@H]1O
REMARK SMILES IDX 4 1 13 2 11 3 9 4 6 5 5 6 3 7 2 8 1 9 14 10 12 12 7 14 8 15
REMARK SMILES IDX 10 17
REMARK H PARENT 14 11 12 13 8 16 10 18
REMARK Flexibility Score: inf
ROOT
ATOM      1  C   UNL     1       6.868  -6.823   1.336  1.00  0.00     0.281 C 
ATOM      2  C   UNL     1       6.377  -8.230   1.733  1.00  0.00     0.202 C 
ATOM      3  C   UNL     1       5.341  -8.138   2.853  1.00  0.00     0.179 C 
ATOM      4  C   UNL     1       4.208  -7.189   2.427  1.00  0.00     0.177 C 
ATOM      5  C   UNL     1       4.776  -5.831   1.958  1.00  0.00     0.178 C 
ATOM      6  O   UNL     1       5.799  -5.957   0.973  1.00  0.00    -0.341 OA
ENDROOT
BRANCH   1   7
ATOM      7  O   UNL     1       7.639  -6.253   2.387  1.00  0.00    -0.350 OA
BRANCH   7   8
ATOM      8  C   UNL     1       8.810  -5.616   1.910  1.00  0.00     0.160 C 
ATOM      9  C   UNL     1       8.923  -4.192   2.450  1.00  0.00     0.035 C 
ENDBRANCH   7   8
ENDBRANCH   1   7
BRANCH   2  10
ATOM     10  O   UNL     1       7.459  -9.016   2.163  1.00  0.00    -0.385 OA
ATOM     11  H   UNL     1       8.050  -9.145   1.377  1.00  0.00     0.211 HD
ENDBRANCH   2  10
BRANCH   3  12
ATOM     12  O   UNL     1       4.832  -9.418   3.125  1.00  0.00    -0.387 OA
ATOM     13  H   UNL     1       3.855  -9.314   3.265  1.00  0.00     0.211 HD
ENDBRANCH   3  12
BRANCH   5  14
ATOM     14  C   UNL     1       5.171  -4.900   3.125  1.00  0.00     0.191 C 
BRANCH  14  15
ATOM     15  O   UNL     1       4.391  -3.736   3.116  1.00  0.00    -0.394 OA
ATOM     16  H   UNL     1       3.444  -4.027   3.180  1.00  0.00     0.210 HD
ENDBRANCH  14  15
ENDBRANCH   5  14
BRANCH   4  17
ATOM     17  O   UNL     1       3.468  -7.759   1.375  1.00  0.00    -0.387 OA
ATOM     18  H   UNL     1       3.939  -8.590   1.103  1.00  0.00     0.211 HD
ENDBRANCH   4  17
TORSDOF 7
ENDMDL
MODEL 8
REMARK VINA RESULT:    -2.426     11.227     13.607
REMARK INTER + INTRA:          -3.526
REMARK INTER:                  -3.263
REMARK INTRA:                  -0.264
REMARK UNBOUND:                -0.391
REMARK SMILES CCO[C@@H]1O[C@H](CO)[C@@H](O)[C@@H](O)[C@@H]1O
REMARK SMILES IDX 4 1 13 2 11 3 9 4 6 5 5 6 3 7 2 8 1 9 14 10 12 12 7 14 8 15
REMARK SMILES IDX 10 17
REMARK H PARENT 14 11 12 13 8 16 10 18
REMARK Flexibility Score: inf
ROOT
ATOM      1  C   UNL     1      -0.842  -8.417   2.012  1.00  0.00     0.281 C 
ATOM      2  C   UNL     1      -1.211  -6.971   1.626  1.00  0.00     0.202 C 
ATOM      3  C   UNL     1      -2.503  -6.948   0.810  1.00  0.00     0.179 C 
ATOM      4  C   UNL     1      -3.612  -7.680   1.584  1.00  0.00     0.177 C 
ATOM      5  C   UNL     1      -3.144  -9.087   2.016  1.00  0.00     0.178 C 
ATOM      6  O   UNL     1      -1.895  -9.081   2.703  1.00  0.00    -0.341 OA
ENDROOT
BRANCH   1   7
ATOM      7  O   UNL     1      -0.459  -9.155   0.858  1.00  0.00    -0.350 OA
BRANCH   7   8
ATOM      8  C   UNL     1       0.818  -9.750   0.999  1.00  0.00     0.160 C 
ATOM      9  C   UNL     1       1.791  -9.228  -0.056  1.00  0.00     0.035 C 
ENDBRANCH   7   8
ENDBRANCH   1   7
BRANCH   2  10
ATOM     10  O   UNL     1      -0.175  -6.392   0.875  1.00  0.00    -0.385 OA
ATOM     11  H   UNL     1      -0.231  -6.781  -0.037  1.00  0.00     0.211 HD
ENDBRANCH   2  10
BRANCH   3  12
ATOM     12  O   UNL     1      -2.875  -5.617   0.560  1.00  0.00    -0.387 OA
ATOM     13  H   UNL     1      -3.566  -5.642  -0.152  1.00  0.00     0.211 HD
ENDBRANCH   3  12
BRANCH   5  14
ATOM     14  C   UNL     1      -3.202 -10.125   0.874  1.00  0.00     0.191 C 
BRANCH  14  15
ATOM     15  O   UNL     1      -4.335  -9.920   0.075  1.00  0.00    -0.394 OA
ATOM     16  H   UNL     1      -4.237  -9.020  -0.332  1.00  0.00     0.210 HD
ENDBRANCH  14  15
ENDBRANCH   5  14
BRANCH   4  17
ATOM     17  O   UNL     1      -3.966  -6.947   2.732  1.00  0.00    -0.387 OA
ATOM     18  H   UNL     1      -3.210  -6.336   2.933  1.00  0.00     0.211 HD
ENDBRANCH   4  17
TORSDOF 7
ENDMDL
MODEL 9
REMARK VINA RESULT:    -2.408      2.101      4.325
REMARK INTER + INTRA:          -3.503
REMARK INTER:                  -3.079
REMARK INTRA:                  -0.424
REMARK UNBOUND:                -0.391
REMARK SMILES CCO[C@@H]1O[C@H](CO)[C@@H](O)[C@@H](O)[C@@H]1O
REMARK SMILES IDX 4 1 13 2 11 3 9 4 6 5 5 6 3 7 2 8 1 9 14 10 12 12 7 14 8 15
REMARK SMILES IDX 10 17
REMARK H PARENT 14 11 12 13 8 16 10 18
REMARK Flexibility Score: inf
ROOT
ATOM      1  C   UNL     1      10.312  -6.454   2.705  1.00  0.00     0.281 C 
ATOM      2  C   UNL     1      10.455  -4.967   2.319  1.00  0.00     0.202 C 
ATOM      3  C   UNL     1       9.429  -4.591   1.251  1.00  0.00     0.179 C 
ATOM      4  C   UNL     1       8.019  -4.968   1.738  1.00  0.00     0.177 C 
ATOM      5  C   UNL     1       7.971  -6.444   2.191  1.00  0.00     0.178 C 
ATOM      6  O   UNL     1       8.993  -6.782   3.125  1.00  0.00    -0.341 OA
ENDROOT
BRANCH   1   7
ATOM      7  O   UNL     1      10.715  -7.286   1.623  1.00  0.00    -0.350 OA
BRANCH   7   8
ATOM      8  C   UNL     1      11.234  -8.527   2.064  1.00  0.00     0.160 C 
ATOM      9  C   UNL     1      11.319  -9.530   0.916  1.00  0.00     0.035 C 
ENDBRANCH   7   8
ENDBRANCH   1   7
BRANCH   2  10
ATOM     10  O   UNL     1      11.748  -4.717   1.831  1.00  0.00    -0.385 OA
ATOM     11  H   UNL     1      12.049  -3.864   2.241  1.00  0.00     0.211 HD
ENDBRANCH   2  10
BRANCH   3  12
ATOM     12  O   UNL     1       9.507  -3.213   0.992  1.00  0.00    -0.387 OA
ATOM     13  H   UNL     1       9.226  -2.750   1.824  1.00  0.00     0.211 HD
ENDBRANCH   3  12
BRANCH   5  14
ATOM     14  C   UNL     1       7.873  -7.439   1.014  1.00  0.00     0.191 C 
BRANCH  14  15
ATOM     15  O   UNL     1       7.847  -8.760   1.483  1.00  0.00    -0.394 OA
ATOM     16  H   UNL     1       8.302  -8.757   2.365  1.00  0.00     0.210 HD
ENDBRANCH  14  15
ENDBRANCH   5  14
BRANCH   4  17
ATOM     17  O   UNL     1       7.646  -4.149   2.819  1.00  0.00    -0.387 OA
ATOM     18  H   UNL     1       6.808  -3.685   2.558  1.00  0.00     0.211 HD
ENDBRANCH   4  17
TORSDOF 7
ENDMDL
