MODEL 1
REMARK VINA RESULT:    -3.110      0.000      0.000
REMARK INTER + INTRA:          -4.169
REMARK INTER:                  -4.019
REMARK INTRA:                  -0.150
REMARK UNBOUND:                -0.150
REMARK SMILES CCCCCCC(=O)[O-]
REMARK SMILES IDX 5 1 6 2 7 3 8 4 9 5 4 6 3 7 2 8 1 9
REMARK H PARENT
REMARK Flexibility Score: inf
ROOT
ATOM      1  C   UNL     1      57.595  34.470  12.269  1.00  0.00     0.006 C 
ENDROOT
BRANCH   1   2
ATOM      2  C   UNL     1      56.547  35.206  13.114  1.00  0.00     0.053 C 
BRANCH   2   3
ATOM      3  C   UNL     1      55.835  36.261  12.324  1.00  0.00     0.041 C 
ATOM      4  O   UNL     1      54.679  36.630  12.658  1.00  0.00    -0.550 OA
ATOM      5  O   UNL     1      56.462  36.859  11.238  1.00  0.00    -0.550 OA
ENDBRANCH   2   3
ENDBRANCH   1   2
BRANCH   1   6
ATOM      6  C   UNL     1      58.837  34.085  13.086  1.00  0.00     0.000 C 
BRANCH   6   7
ATOM      7  C   UNL     1      60.119  34.300  12.273  1.00  0.00    -0.000 C 
BRANCH   7   8
ATOM      8  C   UNL     1      61.350  34.333  13.184  1.00  0.00    -0.003 C 
ATOM      9  C   UNL     1      60.970  34.055  14.635  1.00  0.00     0.004 C 
ENDBRANCH   7   8
ENDBRANCH   6   7
ENDBRANCH   1   6
TORSDOF 5
ENDMDL
MODEL 2
REMARK VINA RESULT:    -3.085      0.236      1.104
REMARK INTER + INTRA:          -4.137
REMARK INTER:                  -3.980
REMARK INTRA:                  -0.156
REMARK UNBOUND:                -0.150
REMARK SMILES CCCCCCC(=O)[O-]
REMARK SMILES IDX 5 1 6 2 7 3 8 4 9 5 4 6 3 7 2 8 1 9
REMARK H PARENT
REMARK Flexibility Score: inf
ROOT
ATOM      1  C   UNL     1      57.531  34.539  12.166  1.00  0.00     0.006 C 
ENDROOT
BRANCH   1   2
ATOM      2  C   UNL     1      56.506  35.256  13.056  1.00  0.00     0.053 C 
BRANCH   2   3
ATOM      3  C   UNL     1      55.791  36.344  12.314  1.00  0.00     0.041 C 
ATOM      4  O   UNL     1      56.303  36.850  11.282  1.00  0.00    -0.550 OA
ATOM      5  O   UNL     1      54.542  36.774  12.746  1.00  0.00    -0.550 OA
ENDBRANCH   2   3
ENDBRANCH   1   2
BRANCH   1   6
ATOM      6  C   UNL     1      58.664  33.901  12.983  1.00  0.00     0.000 C 
BRANCH   6   7
ATOM      7  C   UNL     1      59.974  33.884  12.185  1.00  0.00    -0.000 C 
BRANCH   7   8
ATOM      8  C   UNL     1      61.136  34.427  13.022  1.00  0.00    -0.003 C 
ATOM      9  C   UNL     1      60.908  34.175  14.510  1.00  0.00     0.004 C 
ENDBRANCH   7   8
ENDBRANCH   6   7
ENDBRANCH   1   6
TORSDOF 5
ENDMDL
MODEL 3
REMARK VINA RESULT:    -3.080     13.813     15.683
REMARK INTER + INTRA:          -4.130
REMARK INTER:                  -4.007
REMARK INTRA:                  -0.123
REMARK UNBOUND:                -0.150
REMARK SMILES CCCCCCC(=O)[O-]
REMARK SMILES IDX 5 1 6 2 7 3 8 4 9 5 4 6 3 7 2 8 1 9
REMARK H PARENT
REMARK Flexibility Score: inf
ROOT
ATOM      1  C   UNL     1      51.175  49.325  12.267  1.00  0.00     0.006 C 
ENDROOT
BRANCH   1   2
ATOM      2  C   UNL     1      50.488  50.276  11.278  1.00  0.00     0.053 C 
BRANCH   2   3
ATOM      3  C   UNL     1      50.948  50.043   9.871  1.00  0.00     0.041 C 
ATOM      4  O   UNL     1      50.120  50.061   8.922  1.00  0.00    -0.550 OA
ATOM      5  O   UNL     1      52.296  49.839   9.604  1.00  0.00    -0.550 OA
ENDBRANCH   2   3
ENDBRANCH   1   2
BRANCH   1   6
ATOM      6  C   UNL     1      50.244  48.911  13.417  1.00  0.00     0.000 C 
BRANCH   6   7
ATOM      7  C   UNL     1      50.966  47.982  14.400  1.00  0.00    -0.000 C 
BRANCH   7   8
ATOM      8  C   UNL     1      51.323  46.648  13.737  1.00  0.00    -0.003 C 
ATOM      9  C   UNL     1      50.558  45.493  14.376  1.00  0.00     0.004 C 
ENDBRANCH   7   8
ENDBRANCH   6   7
ENDBRANCH   1   6
TORSDOF 5
ENDMDL
MODEL 4
REMARK VINA RESULT:    -3.048     14.184     16.373
REMARK INTER + INTRA:          -4.089
REMARK INTER:                  -3.882
REMARK INTRA:                  -0.207
REMARK UNBOUND:                -0.150
REMARK SMILES CCCCCCC(=O)[O-]
REMARK SMILES IDX 5 1 6 2 7 3 8 4 9 5 4 6 3 7 2 8 1 9
REMARK H PARENT
REMARK Flexibility Score: inf
ROOT
ATOM      1  C   UNL     1      50.898  50.417  12.241  1.00  0.00     0.006 C 
ENDROOT
BRANCH   1   2
ATOM      2  C   UNL     1      50.571  50.978  10.851  1.00  0.00     0.053 C 
BRANCH   2   3
ATOM      3  C   UNL     1      50.932  50.013   9.762  1.00  0.00     0.041 C 
ATOM      4  O   UNL     1      52.065  49.464   9.752  1.00  0.00    -0.550 OA
ATOM      5  O   UNL     1      50.003  49.694   8.779  1.00  0.00    -0.550 OA
ENDBRANCH   2   3
ENDBRANCH   1   2
BRANCH   1   6
ATOM      6  C   UNL     1      49.632  50.077  13.043  1.00  0.00     0.000 C 
BRANCH   6   7
ATOM      7  C   UNL     1      49.793  48.745  13.785  1.00  0.00    -0.000 C 
BRANCH   7   8
ATOM      8  C   UNL     1      51.266  48.333  13.864  1.00  0.00    -0.003 C 
ATOM      9  C   UNL     1      51.440  46.847  13.563  1.00  0.00     0.004 C 
ENDBRANCH   7   8
ENDBRANCH   6   7
ENDBRANCH   1   6
TORSDOF 5
ENDMDL
MODEL 5
REMARK VINA RESULT:    -2.967     10.312     11.105
REMARK INTER + INTRA:          -3.984
REMARK INTER:                  -3.795
REMARK INTRA:                  -0.188
REMARK UNBOUND:                -0.150
REMARK SMILES CCCCCCC(=O)[O-]
REMARK SMILES IDX 5 1 6 2 7 3 8 4 9 5 4 6 3 7 2 8 1 9
REMARK H PARENT
REMARK Flexibility Score: inf
ROOT
ATOM      1  C   UNL     1      63.690  43.450  15.080  1.00  0.00     0.006 C 
ENDROOT
BRANCH   1   2
ATOM      2  C   UNL     1      64.456  44.756  15.328  1.00  0.00     0.053 C 
BRANCH   2   3
ATOM      3  C   UNL     1      63.725  45.658  16.276  1.00  0.00     0.041 C 
ATOM      4  O   UNL     1      62.813  45.199  17.012  1.00  0.00    -0.550 OA
ATOM      5  O   UNL     1      64.076  47.000  16.370  1.00  0.00    -0.550 OA
ENDBRANCH   2   3
ENDBRANCH   1   2
BRANCH   1   6
ATOM      6  C   UNL     1      64.606  42.219  15.140  1.00  0.00     0.000 C 
BRANCH   6   7
ATOM      7  C   UNL     1      63.974  41.104  15.982  1.00  0.00    -0.000 C 
BRANCH   7   8
ATOM      8  C   UNL     1      64.029  41.443  17.475  1.00  0.00    -0.003 C 
ATOM      9  C   UNL     1      63.631  40.243  18.328  1.00  0.00     0.004 C 
ENDBRANCH   7   8
ENDBRANCH   6   7
ENDBRANCH   1   6
TORSDOF 5
ENDMDL
MODEL 6
REMARK VINA RESULT:    -2.960      1.328      1.932
REMARK INTER + INTRA:          -3.975
REMARK INTER:                  -3.763
REMARK INTRA:                  -0.212
REMARK UNBOUND:                -0.150
REMARK SMILES CCCCCCC(=O)[O-]
REMARK SMILES IDX 5 1 6 2 7 3 8 4 9 5 4 6 3 7 2 8 1 9
REMARK H PARENT
REMARK Flexibility Score: inf
ROOT
ATOM      1  C   UNL     1      56.434  34.601  12.597  1.00  0.00     0.006 C 
ENDROOT
BRANCH   1   2
ATOM      2  C   UNL     1      56.063  36.066  12.331  1.00  0.00     0.053 C 
BRANCH   2   3
ATOM      3  C   UNL     1      55.279  36.656  13.464  1.00  0.00     0.041 C 
ATOM      4  O   UNL     1      55.808  36.790  14.598  1.00  0.00    -0.550 OA
ATOM      5  O   UNL     1      53.975  37.089  13.256  1.00  0.00    -0.550 OA
ENDBRANCH   2   3
ENDBRANCH   1   2
BRANCH   1   6
ATOM      6  C   UNL     1      57.950  34.363  12.528  1.00  0.00     0.000 C 
BRANCH   6   7
ATOM      7  C   UNL     1      58.548  34.223  13.934  1.00  0.00    -0.000 C 
BRANCH   7   8
ATOM      8  C   UNL     1      60.066  34.030  13.869  1.00  0.00    -0.003 C 
ATOM      9  C   UNL     1      60.620  34.464  12.515  1.00  0.00     0.004 C 
ENDBRANCH   7   8
ENDBRANCH   6   7
ENDBRANCH   1   6
TORSDOF 5
ENDMDL
MODEL 7
REMARK VINA RESULT:    -2.876      3.022      4.898
REMARK INTER + INTRA:          -3.866
REMARK INTER:                  -3.588
REMARK INTRA:                  -0.279
REMARK UNBOUND:                -0.150
REMARK SMILES CCCCCCC(=O)[O-]
REMARK SMILES IDX 5 1 6 2 7 3 8 4 9 5 4 6 3 7 2 8 1 9
REMARK H PARENT
REMARK Flexibility Score: inf
ROOT
ATOM      1  C   UNL     1      58.841  33.418  12.434  1.00  0.00     0.006 C 
ENDROOT
BRANCH   1   2
ATOM      2  C   UNL     1      60.058  34.337  12.274  1.00  0.00     0.053 C 
BRANCH   2   3
ATOM      3  C   UNL     1      60.929  34.325  13.494  1.00  0.00     0.041 C 
ATOM      4  O   UNL     1      60.414  34.396  14.641  1.00  0.00    -0.550 OA
ATOM      5  O   UNL     1      62.307  34.201  13.364  1.00  0.00    -0.550 OA
ENDBRANCH   2   3
ENDBRANCH   1   2
BRANCH   1   6
ATOM      6  C   UNL     1      57.520  34.144  12.137  1.00  0.00     0.000 C 
BRANCH   6   7
ATOM      7  C   UNL     1      56.988  34.852  13.389  1.00  0.00    -0.000 C 
BRANCH   7   8
ATOM      8  C   UNL     1      56.083  36.029  13.014  1.00  0.00    -0.003 C 
ATOM      9  C   UNL     1      56.398  36.542  11.612  1.00  0.00     0.004 C 
ENDBRANCH   7   8
ENDBRANCH   6   7
ENDBRANCH   1   6
TORSDOF 5
ENDMDL
MODEL 8
REMARK VINA RESULT:    -2.737     13.977     16.017
REMARK INTER + INTRA:          -3.686
REMARK INTER:                  -3.355
REMARK INTRA:                  -0.331
REMARK UNBOUND:                -0.150
REMARK SMILES CCCCCCC(=O)[O-]
REMARK SMILES IDX 5 1 6 2 7 3 8 4 9 5 4 6 3 7 2 8 1 9
REMARK H PARENT
REMARK Flexibility Score: inf
ROOT
ATOM      1  C   UNL     1      50.575  49.580  13.979  1.00  0.00     0.006 C 
ENDROOT
BRANCH   1   2
ATOM      2  C   UNL     1      50.042  48.146  14.098  1.00  0.00     0.053 C 
BRANCH   2   3
ATOM      3  C   UNL     1      51.076  47.133  13.710  1.00  0.00     0.041 C 
ATOM      4  O   UNL     1      52.110  47.490  13.088  1.00  0.00    -0.550 OA
ATOM      5  O   UNL     1      50.911  45.800  14.065  1.00  0.00    -0.550 OA
ENDBRANCH   2   3
ENDBRANCH   1   2
BRANCH   1   6
ATOM      6  C   UNL     1      49.747  50.428  13.003  1.00  0.00     0.000 C 
BRANCH   6   7
ATOM      7  C   UNL     1      50.630  51.000  11.886  1.00  0.00    -0.000 C 
BRANCH   7   8
ATOM      8  C   UNL     1      50.650  50.070  10.670  1.00  0.00    -0.003 C 
ATOM      9  C   UNL     1      52.080  49.736  10.254  1.00  0.00     0.004 C 
ENDBRANCH   7   8
ENDBRANCH   6   7
ENDBRANCH   1   6
TORSDOF 5
ENDMDL
MODEL 9
REMARK VINA RESULT:    -2.692      9.903     10.914
REMARK INTER + INTRA:          -3.629
REMARK INTER:                  -3.302
REMARK INTRA:                  -0.327
REMARK UNBOUND:                -0.150
REMARK SMILES CCCCCCC(=O)[O-]
REMARK SMILES IDX 5 1 6 2 7 3 8 4 9 5 4 6 3 7 2 8 1 9
REMARK H PARENT
REMARK Flexibility Score: inf
ROOT
ATOM      1  C   UNL     1      64.864  41.448  15.979  1.00  0.00     0.006 C 
ENDROOT
BRANCH   1   2
ATOM      2  C   UNL     1      63.996  40.483  16.797  1.00  0.00     0.053 C 
BRANCH   2   3
ATOM      3  C   UNL     1      64.076  40.772  18.266  1.00  0.00     0.041 C 
ATOM      4  O   UNL     1      63.250  40.250  19.060  1.00  0.00    -0.550 OA
ATOM      5  O   UNL     1      65.084  41.590  18.760  1.00  0.00    -0.550 OA
ENDBRANCH   2   3
ENDBRANCH   1   2
BRANCH   1   6
ATOM      6  C   UNL     1      64.020  42.419  15.139  1.00  0.00     0.000 C 
BRANCH   6   7
ATOM      7  C   UNL     1      64.423  43.873  15.411  1.00  0.00    -0.000 C 
BRANCH   7   8
ATOM      8  C   UNL     1      63.252  44.667  15.999  1.00  0.00    -0.003 C 
ATOM      9  C   UNL     1      62.998  44.279  17.453  1.00  0.00     0.004 C 
ENDBRANCH   7   8
ENDBRANCH   6   7
ENDBRANCH   1   6
TORSDOF 5
ENDMDL
