MODEL 1
REMARK VINA RESULT:    -1.522      0.000      0.000
REMARK INTER + INTRA:          -3.401
REMARK INTER:                  -2.857
REMARK INTRA:                  -0.544
REMARK UNBOUND:                -0.544
REMARK SMILES O=C([O-])CCCCCCCCCCCCCCC(=O)[O-]
REMARK SMILES IDX 10 1 9 2 8 3 7 4 6 5 5 6 4 7 2 8 1 9 3 10 11 11 12 12 13 13
REMARK SMILES IDX 14 14 15 15 16 16 17 17 18 18 19 19 20 20
REMARK H PARENT
REMARK Flexibility Score: inf
ROOT
ATOM      1  C   UNL     1      45.505 -25.436   1.296  1.00  0.00     0.000 C 
ENDROOT
BRANCH   1   2
ATOM      2  C   UNL     1      45.355 -24.090   0.572  1.00  0.00     0.000 C 
BRANCH   2   3
ATOM      3  C   UNL     1      45.625 -24.191  -0.937  1.00  0.00     0.000 C 
BRANCH   3   4
ATOM      4  C   UNL     1      45.981 -25.631  -1.333  1.00  0.00     0.000 C 
BRANCH   4   5
ATOM      5  C   UNL     1      46.125 -25.809  -2.853  1.00  0.00     0.000 C 
BRANCH   5   6
ATOM      6  C   UNL     1      46.105 -24.471  -3.611  1.00  0.00     0.006 C 
BRANCH   6   7
ATOM      7  C   UNL     1      45.088 -24.471  -4.761  1.00  0.00     0.053 C 
BRANCH   7   8
ATOM      8  C   UNL     1      45.732 -24.130  -6.071  1.00  0.00     0.041 C 
ATOM      9  O   UNL     1      46.088 -25.046  -6.858  1.00  0.00    -0.550 OA
ATOM     10  O   UNL     1      45.903 -22.802  -6.438  1.00  0.00    -0.550 OA
ENDBRANCH   7   8
ENDBRANCH   6   7
ENDBRANCH   5   6
ENDBRANCH   4   5
ENDBRANCH   3   4
ENDBRANCH   2   3
ENDBRANCH   1   2
BRANCH   1  11
ATOM     11  C   UNL     1      44.811 -25.451   2.669  1.00  0.00     0.000 C 
BRANCH  11  12
ATOM     12  C   UNL     1      45.157 -26.703   3.491  1.00  0.00     0.000 C 
BRANCH  12  13
ATOM     13  C   UNL     1      46.123 -26.403   4.651  1.00  0.00     0.000 C 
BRANCH  13  14
ATOM     14  C   UNL     1      45.538 -26.775   6.023  1.00  0.00     0.000 C 
BRANCH  14  15
ATOM     15  C   UNL     1      45.954 -28.183   6.480  1.00  0.00     0.000 C 
BRANCH  15  16
ATOM     16  C   UNL     1      45.944 -28.333   8.010  1.00  0.00     0.006 C 
BRANCH  16  17
ATOM     17  C   UNL     1      46.053 -29.796   8.463  1.00  0.00     0.053 C 
BRANCH  17  18
ATOM     18  C   UNL     1      45.337 -29.994   9.762  1.00  0.00     0.041 C 
ATOM     19  O   UNL     1      45.587 -31.000  10.476  1.00  0.00    -0.550 OA
ATOM     20  O   UNL     1      44.359 -29.092  10.161  1.00  0.00    -0.550 OA
ENDBRANCH  17  18
ENDBRANCH  16  17
ENDBRANCH  15  16
ENDBRANCH  14  15
ENDBRANCH  13  14
ENDBRANCH  12  13
ENDBRANCH  11  12
ENDBRANCH   1  11
TORSDOF 15
ENDMDL
