MODEL 1
REMARK VINA RESULT:    -5.001      0.000      0.000
REMARK INTER + INTRA:          -5.001
REMARK INTER:                  -5.001
REMARK INTRA:                   0.000
REMARK UNBOUND:                 0.000
REMARK SMILES C=C1CCC[C@]2(C)CC(=O)C(=C(C)C)C[C@H]12
REMARK SMILES IDX 13 1 12 2 11 3 15 4 16 5 2 6 1 7 3 8 4 9 5 10 6 11 8 12 9 13
REMARK SMILES IDX 10 14 7 15 14 16
REMARK H PARENT
REMARK Flexibility Score: inf
ROOT
ATOM      1  C   UNL     1     -16.235  21.315  41.083  1.00  0.00     0.039 C 
ATOM      2  C   UNL     1     -17.513  20.720  41.626  1.00  0.00    -0.070 C 
ATOM      3  C   UNL     1     -18.717  21.336  41.445  1.00  0.00    -0.006 C 
ATOM      4  C   UNL     1     -18.845  22.647  40.697  1.00  0.00     0.047 C 
ATOM      5  C   UNL     1     -20.164  22.769  39.889  1.00  0.00     0.025 C 
ATOM      6  C   UNL     1     -20.297  24.197  39.386  1.00  0.00    -0.073 C 
ATOM      7  C   UNL     1     -19.939  24.514  38.132  1.00  0.00     0.008 C 
ATOM      8  C   UNL     1     -20.688  25.282  40.368  1.00  0.00     0.031 C 
ATOM      9  C   UNL     1     -21.882  24.856  41.233  1.00  0.00     0.005 C 
ATOM     10  C   UNL     1     -21.731  23.432  41.799  1.00  0.00     0.008 C 
ATOM     11  C   UNL     1     -21.440  22.371  40.697  1.00  0.00    -0.018 C 
ATOM     12  C   UNL     1     -21.255  20.971  41.341  1.00  0.00     0.088 C 
ATOM     13  C   UNL     1     -19.961  20.844  42.078  1.00  0.00     0.159 C 
ATOM     14  O   UNL     1     -19.951  20.322  43.226  1.00  0.00    -0.295 OA
ATOM     15  C   UNL     1     -22.654  22.264  39.737  1.00  0.00     0.012 C 
ATOM     16  C   UNL     1     -17.407  19.394  42.345  1.00  0.00     0.039 C 
ENDROOT
TORSDOF 0
ENDMDL
MODEL 2
REMARK VINA RESULT:    -4.997     14.629     16.634
REMARK INTER + INTRA:          -4.997
REMARK INTER:                  -4.997
REMARK INTRA:                   0.000
REMARK UNBOUND:                 0.000
REMARK SMILES C=C1CCC[C@]2(C)CC(=O)C(=C(C)C)C[C@H]12
REMARK SMILES IDX 13 1 12 2 11 3 15 4 16 5 2 6 1 7 3 8 4 9 5 10 6 11 8 12 9 13
REMARK SMILES IDX 10 14 7 15 14 16
REMARK H PARENT
REMARK Flexibility Score: inf
ROOT
ATOM      1  C   UNL     1      -8.388  27.629  44.293  1.00  0.00     0.039 C 
ATOM      2  C   UNL     1      -7.375  27.837  45.396  1.00  0.00    -0.070 C 
ATOM      3  C   UNL     1      -6.943  29.085  45.736  1.00  0.00    -0.006 C 
ATOM      4  C   UNL     1      -7.445  30.331  45.034  1.00  0.00     0.047 C 
ATOM      5  C   UNL     1      -7.557  31.562  45.970  1.00  0.00     0.025 C 
ATOM      6  C   UNL     1      -7.829  32.794  45.122  1.00  0.00    -0.073 C 
ATOM      7  C   UNL     1      -9.079  33.260  44.978  1.00  0.00     0.008 C 
ATOM      8  C   UNL     1      -6.692  33.391  44.318  1.00  0.00     0.031 C 
ATOM      9  C   UNL     1      -5.419  33.535  45.161  1.00  0.00     0.005 C 
ATOM     10  C   UNL     1      -5.098  32.270  45.978  1.00  0.00     0.008 C 
ATOM     11  C   UNL     1      -6.294  31.799  46.859  1.00  0.00    -0.018 C 
ATOM     12  C   UNL     1      -5.917  30.499  47.617  1.00  0.00     0.088 C 
ATOM     13  C   UNL     1      -5.857  29.306  46.718  1.00  0.00     0.159 C 
ATOM     14  O   UNL     1      -4.885  28.510  46.811  1.00  0.00    -0.295 OA
ATOM     15  C   UNL     1      -6.607  32.871  47.936  1.00  0.00     0.012 C 
ATOM     16  C   UNL     1      -6.891  26.608  46.130  1.00  0.00     0.039 C 
ENDROOT
TORSDOF 0
ENDMDL
MODEL 3
REMARK VINA RESULT:    -4.819      2.673      4.724
REMARK INTER + INTRA:          -4.819
REMARK INTER:                  -4.819
REMARK INTRA:                   0.000
REMARK UNBOUND:                 0.000
REMARK SMILES C=C1CCC[C@]2(C)CC(=O)C(=C(C)C)C[C@H]12
REMARK SMILES IDX 13 1 12 2 11 3 15 4 16 5 2 6 1 7 3 8 4 9 5 10 6 11 8 12 9 13
REMARK SMILES IDX 10 14 7 15 14 16
REMARK H PARENT
REMARK Flexibility Score: inf
ROOT
ATOM      1  C   UNL     1     -21.009  22.576  34.967  1.00  0.00     0.039 C 
ATOM      2  C   UNL     1     -22.053  21.972  35.879  1.00  0.00    -0.070 C 
ATOM      3  C   UNL     1     -21.934  22.041  37.236  1.00  0.00    -0.006 C 
ATOM      4  C   UNL     1     -20.758  22.717  37.909  1.00  0.00     0.047 C 
ATOM      5  C   UNL     1     -21.131  23.424  39.238  1.00  0.00     0.025 C 
ATOM      6  C   UNL     1     -19.851  23.851  39.939  1.00  0.00    -0.073 C 
ATOM      7  C   UNL     1     -19.402  25.111  39.830  1.00  0.00     0.008 C 
ATOM      8  C   UNL     1     -19.011  22.795  40.627  1.00  0.00     0.031 C 
ATOM      9  C   UNL     1     -19.870  21.869  41.498  1.00  0.00     0.005 C 
ATOM     10  C   UNL     1     -21.140  21.380  40.777  1.00  0.00     0.008 C 
ATOM     11  C   UNL     1     -21.995  22.547  40.200  1.00  0.00    -0.018 C 
ATOM     12  C   UNL     1     -23.231  21.983  39.451  1.00  0.00     0.088 C 
ATOM     13  C   UNL     1     -22.871  21.345  38.147  1.00  0.00     0.159 C 
ATOM     14  O   UNL     1     -23.368  20.226  37.848  1.00  0.00    -0.295 OA
ATOM     15  C   UNL     1     -22.537  23.424  41.360  1.00  0.00     0.012 C 
ATOM     16  C   UNL     1     -23.250  21.324  35.223  1.00  0.00     0.039 C 
ENDROOT
TORSDOF 0
ENDMDL
MODEL 4
REMARK VINA RESULT:    -4.534     15.308     17.582
REMARK INTER + INTRA:          -4.534
REMARK INTER:                  -4.534
REMARK INTRA:                   0.000
REMARK UNBOUND:                 0.000
REMARK SMILES C=C1CCC[C@]2(C)CC(=O)C(=C(C)C)C[C@H]12
REMARK SMILES IDX 13 1 12 2 11 3 15 4 16 5 2 6 1 7 3 8 4 9 5 10 6 11 8 12 9 13
REMARK SMILES IDX 10 14 7 15 14 16
REMARK H PARENT
REMARK Flexibility Score: inf
ROOT
ATOM      1  C   UNL     1      -3.940  33.252  48.253  1.00  0.00     0.039 C 
ATOM      2  C   UNL     1      -5.418  33.155  47.952  1.00  0.00    -0.070 C 
ATOM      3  C   UNL     1      -5.899  32.261  47.040  1.00  0.00    -0.006 C 
ATOM      4  C   UNL     1      -4.990  31.321  46.276  1.00  0.00     0.047 C 
ATOM      5  C   UNL     1      -5.635  29.940  45.987  1.00  0.00     0.025 C 
ATOM      6  C   UNL     1      -4.742  29.180  45.020  1.00  0.00    -0.073 C 
ATOM      7  C   UNL     1      -3.875  28.260  45.472  1.00  0.00     0.008 C 
ATOM      8  C   UNL     1      -4.734  29.588  43.561  1.00  0.00     0.031 C 
ATOM      9  C   UNL     1      -6.157  29.769  43.017  1.00  0.00     0.005 C 
ATOM     10  C   UNL     1      -7.055  30.592  43.961  1.00  0.00     0.008 C 
ATOM     11  C   UNL     1      -7.085  30.027  45.412  1.00  0.00    -0.018 C 
ATOM     12  C   UNL     1      -7.969  30.927  46.316  1.00  0.00     0.088 C 
ATOM     13  C   UNL     1      -7.322  32.238  46.631  1.00  0.00     0.159 C 
ATOM     14  O   UNL     1      -7.997  33.298  46.543  1.00  0.00    -0.295 OA
ATOM     15  C   UNL     1      -7.733  28.617  45.414  1.00  0.00     0.012 C 
ATOM     16  C   UNL     1      -6.343  34.062  48.731  1.00  0.00     0.039 C 
ENDROOT
TORSDOF 0
ENDMDL
MODEL 5
REMARK VINA RESULT:    -4.526     14.869     17.059
REMARK INTER + INTRA:          -4.526
REMARK INTER:                  -4.526
REMARK INTRA:                   0.000
REMARK UNBOUND:                 0.000
REMARK SMILES C=C1CCC[C@]2(C)CC(=O)C(=C(C)C)C[C@H]12
REMARK SMILES IDX 13 1 12 2 11 3 15 4 16 5 2 6 1 7 3 8 4 9 5 10 6 11 8 12 9 13
REMARK SMILES IDX 10 14 7 15 14 16
REMARK H PARENT
REMARK Flexibility Score: inf
ROOT
ATOM      1  C   UNL     1      -9.124  33.263  44.988  1.00  0.00     0.039 C 
ATOM      2  C   UNL     1      -7.918  33.158  45.894  1.00  0.00    -0.070 C 
ATOM      3  C   UNL     1      -7.177  32.015  45.959  1.00  0.00    -0.006 C 
ATOM      4  C   UNL     1      -7.516  30.788  45.138  1.00  0.00     0.047 C 
ATOM      5  C   UNL     1      -6.267  29.989  44.680  1.00  0.00     0.025 C 
ATOM      6  C   UNL     1      -6.726  28.668  44.084  1.00  0.00    -0.073 C 
ATOM      7  C   UNL     1      -6.842  28.524  42.754  1.00  0.00     0.008 C 
ATOM      8  C   UNL     1      -7.200  27.573  45.017  1.00  0.00     0.031 C 
ATOM      9  C   UNL     1      -6.235  27.376  46.193  1.00  0.00     0.005 C 
ATOM     10  C   UNL     1      -5.810  28.706  46.845  1.00  0.00     0.008 C 
ATOM     11  C   UNL     1      -5.232  29.725  45.819  1.00  0.00    -0.018 C 
ATOM     12  C   UNL     1      -4.868  31.053  46.535  1.00  0.00     0.088 C 
ATOM     13  C   UNL     1      -6.075  31.841  46.932  1.00  0.00     0.159 C 
ATOM     14  O   UNL     1      -6.134  32.343  48.087  1.00  0.00    -0.295 OA
ATOM     15  C   UNL     1      -3.917  29.170  45.211  1.00  0.00     0.012 C 
ATOM     16  C   UNL     1      -7.546  34.385  46.693  1.00  0.00     0.039 C 
ENDROOT
TORSDOF 0
ENDMDL
MODEL 6
REMARK VINA RESULT:    -4.521     13.279     15.729
REMARK INTER + INTRA:          -4.521
REMARK INTER:                  -4.521
REMARK INTRA:                   0.000
REMARK UNBOUND:                 0.000
REMARK SMILES C=C1CCC[C@]2(C)CC(=O)C(=C(C)C)C[C@H]12
REMARK SMILES IDX 13 1 12 2 11 3 15 4 16 5 2 6 1 7 3 8 4 9 5 10 6 11 8 12 9 13
REMARK SMILES IDX 10 14 7 15 14 16
REMARK H PARENT
REMARK Flexibility Score: inf
ROOT
ATOM      1  C   UNL     1      -5.524  31.757  47.701  1.00  0.00     0.039 C 
ATOM      2  C   UNL     1      -6.678  31.988  46.753  1.00  0.00    -0.070 C 
ATOM      3  C   UNL     1      -7.113  31.005  45.913  1.00  0.00    -0.006 C 
ATOM      4  C   UNL     1      -6.470  29.634  45.875  1.00  0.00     0.047 C 
ATOM      5  C   UNL     1      -7.475  28.490  45.582  1.00  0.00     0.025 C 
ATOM      6  C   UNL     1      -6.695  27.210  45.328  1.00  0.00    -0.073 C 
ATOM      7  C   UNL     1      -6.530  26.307  46.307  1.00  0.00     0.008 C 
ATOM      8  C   UNL     1      -5.977  27.045  44.004  1.00  0.00     0.031 C 
ATOM      9  C   UNL     1      -6.879  27.421  42.821  1.00  0.00     0.005 C 
ATOM     10  C   UNL     1      -7.629  28.748  43.041  1.00  0.00     0.008 C 
ATOM     11  C   UNL     1      -8.428  28.778  44.377  1.00  0.00    -0.018 C 
ATOM     12  C   UNL     1      -9.119  30.156  44.555  1.00  0.00     0.088 C 
ATOM     13  C   UNL     1      -8.151  31.246  44.884  1.00  0.00     0.159 C 
ATOM     14  O   UNL     1      -8.233  32.350  44.281  1.00  0.00    -0.295 OA
ATOM     15  C   UNL     1      -9.556  27.713  44.339  1.00  0.00     0.012 C 
ATOM     16  C   UNL     1      -7.353  33.339  46.802  1.00  0.00     0.039 C 
ENDROOT
TORSDOF 0
ENDMDL
MODEL 7
REMARK VINA RESULT:    -4.431      2.096      3.987
REMARK INTER + INTRA:          -4.431
REMARK INTER:                  -4.431
REMARK INTRA:                   0.000
REMARK UNBOUND:                 0.000
REMARK SMILES C=C1CCC[C@]2(C)CC(=O)C(=C(C)C)C[C@H]12
REMARK SMILES IDX 13 1 12 2 11 3 15 4 16 5 2 6 1 7 3 8 4 9 5 10 6 11 8 12 9 13
REMARK SMILES IDX 10 14 7 15 14 16
REMARK H PARENT
REMARK Flexibility Score: inf
ROOT
ATOM      1  C   UNL     1     -20.164  20.589  42.066  1.00  0.00     0.039 C 
ATOM      2  C   UNL     1     -19.441  21.796  41.514  1.00  0.00    -0.070 C 
ATOM      3  C   UNL     1     -20.065  23.002  41.391  1.00  0.00    -0.006 C 
ATOM      4  C   UNL     1     -21.512  23.205  41.792  1.00  0.00     0.047 C 
ATOM      5  C   UNL     1     -21.799  24.614  42.372  1.00  0.00     0.025 C 
ATOM      6  C   UNL     1     -23.303  24.787  42.509  1.00  0.00    -0.073 C 
ATOM      7  C   UNL     1     -23.907  24.589  43.691  1.00  0.00     0.008 C 
ATOM      8  C   UNL     1     -24.125  25.031  41.260  1.00  0.00     0.031 C 
ATOM      9  C   UNL     1     -23.494  26.110  40.370  1.00  0.00     0.005 C 
ATOM     10  C   UNL     1     -21.979  25.910  40.174  1.00  0.00     0.008 C 
ATOM     11  C   UNL     1     -21.206  25.782  41.520  1.00  0.00    -0.018 C 
ATOM     12  C   UNL     1     -19.698  25.539  41.247  1.00  0.00     0.088 C 
ATOM     13  C   UNL     1     -19.422  24.162  40.733  1.00  0.00     0.159 C 
ATOM     14  O   UNL     1     -18.649  24.012  39.749  1.00  0.00    -0.295 OA
ATOM     15  C   UNL     1     -21.308  27.111  42.313  1.00  0.00     0.012 C 
ATOM     16  C   UNL     1     -17.986  21.619  41.142  1.00  0.00     0.039 C 
ENDROOT
TORSDOF 0
ENDMDL
MODEL 8
REMARK VINA RESULT:    -4.410     14.695     16.122
REMARK INTER + INTRA:          -4.410
REMARK INTER:                  -4.410
REMARK INTRA:                   0.000
REMARK UNBOUND:                 0.000
REMARK SMILES C=C1CCC[C@]2(C)CC(=O)C(=C(C)C)C[C@H]12
REMARK SMILES IDX 13 1 12 2 11 3 15 4 16 5 2 6 1 7 3 8 4 9 5 10 6 11 8 12 9 13
REMARK SMILES IDX 10 14 7 15 14 16
REMARK H PARENT
REMARK Flexibility Score: inf
ROOT
ATOM      1  C   UNL     1      -3.875  26.888  42.610  1.00  0.00     0.039 C 
ATOM      2  C   UNL     1      -4.957  26.546  43.608  1.00  0.00    -0.070 C 
ATOM      3  C   UNL     1      -5.513  27.502  44.406  1.00  0.00    -0.006 C 
ATOM      4  C   UNL     1      -5.081  28.953  44.346  1.00  0.00     0.047 C 
ATOM      5  C   UNL     1      -6.239  29.951  44.610  1.00  0.00     0.025 C 
ATOM      6  C   UNL     1      -5.653  31.345  44.766  1.00  0.00    -0.073 C 
ATOM      7  C   UNL     1      -5.649  32.202  43.733  1.00  0.00     0.008 C 
ATOM      8  C   UNL     1      -4.934  31.693  46.053  1.00  0.00     0.031 C 
ATOM      9  C   UNL     1      -5.740  31.260  47.285  1.00  0.00     0.005 C 
ATOM     10  C   UNL     1      -6.288  29.825  47.164  1.00  0.00     0.008 C 
ATOM     11  C   UNL     1      -7.107  29.598  45.860  1.00  0.00    -0.018 C 
ATOM     12  C   UNL     1      -7.589  28.125  45.782  1.00  0.00     0.088 C 
ATOM     13  C   UNL     1      -6.477  27.172  45.481  1.00  0.00     0.159 C 
ATOM     14  O   UNL     1      -6.378  26.106  46.147  1.00  0.00    -0.295 OA
ATOM     15  C   UNL     1      -8.380  30.485  45.878  1.00  0.00     0.012 C 
ATOM     16  C   UNL     1      -5.424  25.109  43.656  1.00  0.00     0.039 C 
ENDROOT
TORSDOF 0
ENDMDL
MODEL 9
REMARK VINA RESULT:    -4.220     14.217     16.508
REMARK INTER + INTRA:          -4.220
REMARK INTER:                  -4.220
REMARK INTRA:                   0.000
REMARK UNBOUND:                 0.000
REMARK SMILES C=C1CCC[C@]2(C)CC(=O)C(=C(C)C)C[C@H]12
REMARK SMILES IDX 13 1 12 2 11 3 15 4 16 5 2 6 1 7 3 8 4 9 5 10 6 11 8 12 9 13
REMARK SMILES IDX 10 14 7 15 14 16
REMARK H PARENT
REMARK Flexibility Score: inf
ROOT
ATOM      1  C   UNL     1      -3.881  32.806  44.239  1.00  0.00     0.039 C 
ATOM      2  C   UNL     1      -4.422  32.220  45.523  1.00  0.00    -0.070 C 
ATOM      3  C   UNL     1      -5.317  31.191  45.511  1.00  0.00    -0.006 C 
ATOM      4  C   UNL     1      -5.823  30.579  44.221  1.00  0.00     0.047 C 
ATOM      5  C   UNL     1      -6.092  29.055  44.326  1.00  0.00     0.025 C 
ATOM      6  C   UNL     1      -6.817  28.600  43.070  1.00  0.00    -0.073 C 
ATOM      7  C   UNL     1      -6.139  28.030  42.061  1.00  0.00     0.008 C 
ATOM      8  C   UNL     1      -8.283  28.944  42.910  1.00  0.00     0.031 C 
ATOM      9  C   UNL     1      -9.079  28.632  44.184  1.00  0.00     0.005 C 
ATOM     10  C   UNL     1      -8.384  29.142  45.460  1.00  0.00     0.008 C 
ATOM     11  C   UNL     1      -6.914  28.644  45.590  1.00  0.00    -0.018 C 
ATOM     12  C   UNL     1      -6.263  29.230  46.870  1.00  0.00     0.088 C 
ATOM     13  C   UNL     1      -5.962  30.690  46.745  1.00  0.00     0.159 C 
ATOM     14  O   UNL     1      -6.263  31.467  47.691  1.00  0.00    -0.295 OA
ATOM     15  C   UNL     1      -6.895  27.100  45.745  1.00  0.00     0.012 C 
ATOM     16  C   UNL     1      -3.901  32.797  46.819  1.00  0.00     0.039 C 
ENDROOT
TORSDOF 0
ENDMDL
