MODEL 1
REMARK VINA RESULT:    -3.048      0.000      0.000
REMARK INTER + INTRA:          -5.326
REMARK INTER:                  -4.740
REMARK INTRA:                  -0.586
REMARK UNBOUND:                -0.586
REMARK SMILES C[C@]12C[C@]3(O)O[C@H](O1)[C@@]1(COC(=O)c4ccccc4)[C@@H]3C[C@]12O[C@@H]1O[C@@H](CO)[C@@H](O)[C@@H](O)[C@@H]1O
REMARK SMILES IDX 1 1 2 2 3 3 4 4 20 5 21 6 22 7 9 8 7 9 8 10 6 11 23 12 24 13
REMARK SMILES IDX 33 14 25 15 31 16 26 17 29 18 34 19 32 21 27 23 28 24 30 26
REMARK SMILES IDX 5 28 10 30 11 31 12 32 13 33 14 34 15 35 19 36 16 37 18 38
REMARK SMILES IDX 17 39
REMARK H PARENT 34 20 32 22 28 25 30 27 5 29
REMARK Flexibility Score: inf
ROOT
ATOM      1  C   UNL     1     -37.896  73.297 -27.658  1.00  0.00     0.046 C 
ATOM      2  C   UNL     1     -37.243  74.439 -26.879  1.00  0.00     0.104 C 
ATOM      3  C   UNL     1     -36.001  75.025 -27.638  1.00  0.00     0.104 C 
ATOM      4  C   UNL     1     -35.554  76.225 -26.735  1.00  0.00     0.175 C 
ATOM      5  C   UNL     1     -36.781  77.124 -26.372  1.00  0.00     0.070 C 
ATOM      6  C   UNL     1     -37.980  76.898 -27.310  1.00  0.00     0.050 C 
ATOM      7  C   UNL     1     -38.241  75.599 -26.499  1.00  0.00     0.115 C 
ATOM      8  C   UNL     1     -37.434  76.200 -25.347  1.00  0.00     0.096 C 
ATOM      9  C   UNL     1     -36.381  75.174 -24.963  1.00  0.00     0.267 C 
ATOM     10  O   UNL     1     -36.745  73.981 -25.638  1.00  0.00    -0.342 OA
ATOM     11  O   UNL     1     -35.158  75.657 -25.505  1.00  0.00    -0.320 OA
ENDROOT
BRANCH   7  12
ATOM     12  O   UNL     1     -39.545  75.127 -26.145  1.00  0.00    -0.339 OA
BRANCH  12  13
ATOM     13  C   UNL     1     -40.640  75.897 -26.618  1.00  0.00     0.282 C 
ATOM     14  C   UNL     1     -41.742  75.023 -27.299  1.00  0.00     0.202 C 
ATOM     15  O   UNL     1     -41.163  76.685 -25.555  1.00  0.00    -0.341 OA
ATOM     16  C   UNL     1     -43.104  75.245 -26.621  1.00  0.00     0.179 C 
ATOM     17  C   UNL     1     -41.770  75.911 -24.523  1.00  0.00     0.178 C 
ATOM     18  C   UNL     1     -42.924  74.992 -25.084  1.00  0.00     0.177 C 
BRANCH  14  19
ATOM     19  O   UNL     1     -41.406  73.667 -27.238  1.00  0.00    -0.385 OA
ATOM     20  H   UNL     1     -41.567  73.381 -26.301  1.00  0.00     0.211 HD
ENDBRANCH  14  19
BRANCH  16  21
ATOM     21  O   UNL     1     -43.573  76.551 -26.917  1.00  0.00    -0.387 OA
ATOM     22  H   UNL     1     -44.109  76.888 -26.149  1.00  0.00     0.211 HD
ENDBRANCH  16  21
BRANCH  17  23
ATOM     23  C   UNL     1     -42.225  76.883 -23.394  1.00  0.00     0.191 C 
BRANCH  23  24
ATOM     24  O   UNL     1     -42.750  76.197 -22.288  1.00  0.00    -0.394 OA
ATOM     25  H   UNL     1     -42.051  76.258 -21.576  1.00  0.00     0.210 HD
ENDBRANCH  23  24
ENDBRANCH  17  23
BRANCH  18  26
ATOM     26  O   UNL     1     -44.125  75.113 -24.349  1.00  0.00    -0.387 OA
ATOM     27  H   UNL     1     -44.189  74.383 -23.677  1.00  0.00     0.211 HD
ENDBRANCH  18  26
ENDBRANCH  12  13
ENDBRANCH   7  12
BRANCH   4  28
ATOM     28  O   UNL     1     -34.506  76.960 -27.308  1.00  0.00    -0.365 OA
ATOM     29  H   UNL     1     -34.024  76.352 -27.921  1.00  0.00     0.214 HD
ENDBRANCH   4  28
BRANCH   8  30
ATOM     30  C   UNL     1     -38.187  76.900 -24.202  1.00  0.00     0.249 C 
BRANCH  30  31
ATOM     31  O   UNL     1     -38.195  76.072 -23.044  1.00  0.00    -0.461 OA
BRANCH  31  32
ATOM     32  C   UNL     1     -38.962  76.381 -21.908  1.00  0.00     0.338 C 
ATOM     33  O   UNL     1     -39.976  77.125 -22.014  1.00  0.00    -0.246 OA
BRANCH  32  34
ATOM     34  C   UNL     1     -38.597  75.803 -20.598  1.00  0.00     0.060 A 
ATOM     35  C   UNL     1     -38.168  74.467 -20.497  1.00  0.00     0.015 A 
ATOM     36  C   UNL     1     -38.648  76.590 -19.433  1.00  0.00     0.015 A 
ATOM     37  C   UNL     1     -37.789  73.934 -19.258  1.00  0.00     0.001 A 
ATOM     38  C   UNL     1     -38.267  76.056 -18.199  1.00  0.00     0.001 A 
ATOM     39  C   UNL     1     -37.836  74.730 -18.112  1.00  0.00     0.000 A 
ENDBRANCH  32  34
ENDBRANCH  31  32
ENDBRANCH  30  31
ENDBRANCH   8  30
TORSDOF 12
ENDMDL
