MODEL 1
REMARK VINA RESULT:     8.927      0.000      0.000
REMARK INTER + INTRA:          15.041
REMARK INTER:                  15.711
REMARK INTRA:                  -0.670
REMARK UNBOUND:                -0.670
REMARK SMILES CCCCCCCCCCCCCCC(=O)[O-]
REMARK SMILES IDX 9 1 10 2 11 3 12 4 13 5 14 6 15 7 16 8 17 9 8 10 7 11 6 12
REMARK SMILES IDX 5 13 4 14 3 15 2 16 1 17
REMARK H PARENT
REMARK Flexibility Score: inf
ROOT
ATOM      1  C   UNL     1       2.206  -7.474  11.398  1.00  0.00     0.000 C 
ENDROOT
BRANCH   1   2
ATOM      2  C   UNL     1       2.462  -5.962  11.525  1.00  0.00     0.000 C 
BRANCH   2   3
ATOM      3  C   UNL     1       2.071  -5.124  10.292  1.00  0.00     0.000 C 
BRANCH   3   4
ATOM      4  C   UNL     1       1.235  -5.868   9.233  1.00  0.00     0.000 C 
BRANCH   4   5
ATOM      5  C   UNL     1      -0.293  -5.758   9.413  1.00  0.00     0.006 C 
BRANCH   5   6
ATOM      6  C   UNL     1      -1.039  -7.099   9.331  1.00  0.00     0.053 C 
BRANCH   6   7
ATOM      7  C   UNL     1      -0.804  -7.948  10.542  1.00  0.00     0.041 C 
ATOM      8  O   UNL     1      -0.522  -9.168  10.414  1.00  0.00    -0.550 OA
ATOM      9  O   UNL     1      -0.931  -7.400  11.812  1.00  0.00    -0.550 OA
ENDBRANCH   6   7
ENDBRANCH   5   6
ENDBRANCH   4   5
ENDBRANCH   3   4
ENDBRANCH   2   3
ENDBRANCH   1   2
BRANCH   1  10
ATOM     10  C   UNL     1       3.505  -8.296  11.339  1.00  0.00     0.000 C 
BRANCH  10  11
ATOM     11  C   UNL     1       4.071  -8.621  12.733  1.00  0.00    -0.000 C 
BRANCH  11  12
ATOM     12  C   UNL     1       5.395  -7.914  13.090  1.00  0.00    -0.000 C 
BRANCH  12  13
ATOM     13  C   UNL     1       5.901  -6.907  12.041  1.00  0.00    -0.000 C 
BRANCH  13  14
ATOM     14  C   UNL     1       7.319  -6.399  12.337  1.00  0.00    -0.000 C 
BRANCH  14  15
ATOM     15  C   UNL     1       7.749  -6.774  13.760  1.00  0.00    -0.000 C 
BRANCH  15  16
ATOM     16  C   UNL     1       8.161  -5.529  14.556  1.00  0.00    -0.003 C 
ATOM     17  C   UNL     1       6.981  -4.960  15.339  1.00  0.00     0.004 C 
ENDBRANCH  15  16
ENDBRANCH  14  15
ENDBRANCH  13  14
ENDBRANCH  12  13
ENDBRANCH  11  12
ENDBRANCH  10  11
ENDBRANCH   1  10
TORSDOF 13
ENDMDL
MODEL 2
REMARK VINA RESULT:     9.059      3.533      7.529
REMARK INTER + INTRA:          15.273
REMARK INTER:                  15.630
REMARK INTRA:                  -0.357
REMARK UNBOUND:                -0.670
REMARK SMILES CCCCCCCCCCCCCCC(=O)[O-]
REMARK SMILES IDX 9 1 10 2 11 3 12 4 13 5 14 6 15 7 16 8 17 9 8 10 7 11 6 12
REMARK SMILES IDX 5 13 4 14 3 15 2 16 1 17
REMARK H PARENT
REMARK Flexibility Score: inf
ROOT
ATOM      1  C   UNL     1       4.146  -8.611  10.961  1.00  0.00     0.000 C 
ENDROOT
BRANCH   1   2
ATOM      2  C   UNL     1       4.202  -8.528  12.498  1.00  0.00     0.000 C 
BRANCH   2   3
ATOM      3  C   UNL     1       5.177  -7.478  13.064  1.00  0.00     0.000 C 
BRANCH   3   4
ATOM      4  C   UNL     1       6.147  -6.864  12.036  1.00  0.00     0.000 C 
BRANCH   4   5
ATOM      5  C   UNL     1       7.487  -6.368  12.618  1.00  0.00     0.006 C 
BRANCH   5   6
ATOM      6  C   UNL     1       7.658  -6.628  14.122  1.00  0.00     0.053 C 
BRANCH   6   7
ATOM      7  C   UNL     1       7.914  -5.365  14.886  1.00  0.00     0.041 C 
ATOM      8  O   UNL     1       9.057  -4.836  14.869  1.00  0.00    -0.550 OA
ATOM      9  O   UNL     1       6.900  -4.791  15.642  1.00  0.00    -0.550 OA
ENDBRANCH   6   7
ENDBRANCH   5   6
ENDBRANCH   4   5
ENDBRANCH   3   4
ENDBRANCH   2   3
ENDBRANCH   1   2
BRANCH   1  10
ATOM     10  C   UNL     1       2.797  -8.145  10.388  1.00  0.00     0.000 C 
BRANCH  10  11
ATOM     11  C   UNL     1       2.570  -6.631  10.550  1.00  0.00    -0.000 C 
BRANCH  11  12
ATOM     12  C   UNL     1       2.348  -6.148  11.999  1.00  0.00    -0.000 C 
BRANCH  12  13
ATOM     13  C   UNL     1       0.950  -6.436  12.576  1.00  0.00    -0.000 C 
BRANCH  13  14
ATOM     14  C   UNL     1       0.393  -7.798  12.138  1.00  0.00    -0.000 C 
BRANCH  14  15
ATOM     15  C   UNL     1      -0.988  -7.642  11.489  1.00  0.00    -0.000 C 
BRANCH  15  16
ATOM     16  C   UNL     1      -1.042  -8.356  10.133  1.00  0.00    -0.003 C 
ATOM     17  C   UNL     1      -1.124  -7.353   8.985  1.00  0.00     0.004 C 
ENDBRANCH  15  16
ENDBRANCH  14  15
ENDBRANCH  13  14
ENDBRANCH  12  13
ENDBRANCH  11  12
ENDBRANCH  10  11
ENDBRANCH   1  10
TORSDOF 13
ENDMDL
MODEL 3
REMARK VINA RESULT:     9.277      1.789      2.802
REMARK INTER + INTRA:          15.657
REMARK INTER:                  15.890
REMARK INTRA:                  -0.233
REMARK UNBOUND:                -0.670
REMARK SMILES CCCCCCCCCCCCCCC(=O)[O-]
REMARK SMILES IDX 9 1 10 2 11 3 12 4 13 5 14 6 15 7 16 8 17 9 8 10 7 11 6 12
REMARK SMILES IDX 5 13 4 14 3 15 2 16 1 17
REMARK H PARENT
REMARK Flexibility Score: inf
ROOT
ATOM      1  C   UNL     1       1.445  -7.805  12.110  1.00  0.00     0.000 C 
ENDROOT
BRANCH   1   2
ATOM      2  C   UNL     1      -0.057  -7.622  11.825  1.00  0.00     0.000 C 
BRANCH   2   3
ATOM      3  C   UNL     1      -0.536  -8.154  10.460  1.00  0.00     0.000 C 
BRANCH   3   4
ATOM      4  C   UNL     1      -0.730  -7.082   9.370  1.00  0.00     0.000 C 
BRANCH   4   5
ATOM      5  C   UNL     1      -0.072  -5.720   9.672  1.00  0.00     0.006 C 
BRANCH   5   6
ATOM      6  C   UNL     1       1.378  -5.594   9.179  1.00  0.00     0.053 C 
BRANCH   6   7
ATOM      7  C   UNL     1       2.229  -4.810  10.130  1.00  0.00     0.041 C 
ATOM      8  O   UNL     1       2.644  -5.343  11.194  1.00  0.00    -0.550 OA
ATOM      9  O   UNL     1       2.537  -3.484   9.859  1.00  0.00    -0.550 OA
ENDBRANCH   6   7
ENDBRANCH   5   6
ENDBRANCH   4   5
ENDBRANCH   3   4
ENDBRANCH   2   3
ENDBRANCH   1   2
BRANCH   1  10
ATOM     10  C   UNL     1       2.224  -8.328  10.891  1.00  0.00     0.000 C 
BRANCH  10  11
ATOM     11  C   UNL     1       3.732  -8.475  11.162  1.00  0.00    -0.000 C 
BRANCH  11  12
ATOM     12  C   UNL     1       4.127  -8.588  12.649  1.00  0.00    -0.000 C 
BRANCH  12  13
ATOM     13  C   UNL     1       5.098  -7.505  13.151  1.00  0.00    -0.000 C 
BRANCH  13  14
ATOM     14  C   UNL     1       5.790  -6.748  12.008  1.00  0.00    -0.000 C 
BRANCH  14  15
ATOM     15  C   UNL     1       7.286  -6.573  12.292  1.00  0.00    -0.000 C 
BRANCH  15  16
ATOM     16  C   UNL     1       7.593  -6.794  13.779  1.00  0.00    -0.003 C 
ATOM     17  C   UNL     1       7.650  -5.469  14.533  1.00  0.00     0.004 C 
ENDBRANCH  15  16
ENDBRANCH  14  15
ENDBRANCH  13  14
ENDBRANCH  12  13
ENDBRANCH  11  12
ENDBRANCH  10  11
ENDBRANCH   1  10
TORSDOF 13
ENDMDL
MODEL 4
REMARK VINA RESULT:     9.668      1.731      2.553
REMARK INTER + INTRA:          16.345
REMARK INTER:                  16.756
REMARK INTRA:                  -0.411
REMARK UNBOUND:                -0.670
REMARK SMILES CCCCCCCCCCCCCCC(=O)[O-]
REMARK SMILES IDX 9 1 10 2 11 3 12 4 13 5 14 6 15 7 16 8 17 9 8 10 7 11 6 12
REMARK SMILES IDX 5 13 4 14 3 15 2 16 1 17
REMARK H PARENT
REMARK Flexibility Score: inf
ROOT
ATOM      1  C   UNL     1       2.200  -8.678  10.681  1.00  0.00     0.000 C 
ENDROOT
BRANCH   1   2
ATOM      2  C   UNL     1       1.198  -8.021  11.647  1.00  0.00     0.000 C 
BRANCH   2   3
ATOM      3  C   UNL     1      -0.268  -8.016  11.169  1.00  0.00     0.000 C 
BRANCH   3   4
ATOM      4  C   UNL     1      -0.505  -7.364   9.793  1.00  0.00     0.000 C 
BRANCH   4   5
ATOM      5  C   UNL     1      -0.053  -5.894   9.681  1.00  0.00     0.006 C 
BRANCH   5   6
ATOM      6  C   UNL     1       1.408  -5.712   9.240  1.00  0.00     0.053 C 
BRANCH   6   7
ATOM      7  C   UNL     1       2.191  -4.888  10.214  1.00  0.00     0.041 C 
ATOM      8  O   UNL     1       2.510  -3.703   9.928  1.00  0.00    -0.550 OA
ATOM      9  O   UNL     1       2.596  -5.436  11.424  1.00  0.00    -0.550 OA
ENDBRANCH   6   7
ENDBRANCH   5   6
ENDBRANCH   4   5
ENDBRANCH   3   4
ENDBRANCH   2   3
ENDBRANCH   1   2
BRANCH   1  10
ATOM     10  C   UNL     1       3.664  -8.432  11.083  1.00  0.00     0.000 C 
BRANCH  10  11
ATOM     11  C   UNL     1       3.869  -8.403  12.608  1.00  0.00    -0.000 C 
BRANCH  11  12
ATOM     12  C   UNL     1       5.089  -7.594  13.096  1.00  0.00    -0.000 C 
BRANCH  12  13
ATOM     13  C   UNL     1       5.824  -6.798  12.002  1.00  0.00    -0.000 C 
BRANCH  13  14
ATOM     14  C   UNL     1       7.328  -6.657  12.277  1.00  0.00    -0.000 C 
BRANCH  14  15
ATOM     15  C   UNL     1       7.636  -6.868  13.764  1.00  0.00    -0.000 C 
BRANCH  15  16
ATOM     16  C   UNL     1       8.005  -5.544  14.443  1.00  0.00    -0.003 C 
ATOM     17  C   UNL     1       6.899  -5.080  15.387  1.00  0.00     0.004 C 
ENDBRANCH  15  16
ENDBRANCH  14  15
ENDBRANCH  13  14
ENDBRANCH  12  13
ENDBRANCH  11  12
ENDBRANCH  10  11
ENDBRANCH   1  10
TORSDOF 13
ENDMDL
MODEL 5
REMARK VINA RESULT:     9.930      3.513      6.825
REMARK INTER + INTRA:          16.807
REMARK INTER:                  16.632
REMARK INTRA:                   0.175
REMARK UNBOUND:                -0.670
REMARK SMILES CCCCCCCCCCCCCCC(=O)[O-]
REMARK SMILES IDX 9 1 10 2 11 3 12 4 13 5 14 6 15 7 16 8 17 9 8 10 7 11 6 12
REMARK SMILES IDX 5 13 4 14 3 15 2 16 1 17
REMARK H PARENT
REMARK Flexibility Score: inf
ROOT
ATOM      1  C   UNL     1       4.127  -8.812  10.826  1.00  0.00     0.000 C 
ENDROOT
BRANCH   1   2
ATOM      2  C   UNL     1       4.116  -8.682  12.360  1.00  0.00     0.000 C 
BRANCH   2   3
ATOM      3  C   UNL     1       4.905  -7.484  12.923  1.00  0.00     0.000 C 
BRANCH   3   4
ATOM      4  C   UNL     1       5.876  -6.815  11.931  1.00  0.00     0.000 C 
BRANCH   4   5
ATOM      5  C   UNL     1       7.304  -6.588  12.469  1.00  0.00     0.006 C 
BRANCH   5   6
ATOM      6  C   UNL     1       7.453  -6.809  13.982  1.00  0.00     0.053 C 
BRANCH   6   7
ATOM      7  C   UNL     1       7.871  -5.559  14.694  1.00  0.00     0.041 C 
ATOM      8  O   UNL     1       9.087  -5.232  14.736  1.00  0.00    -0.550 OA
ATOM      9  O   UNL     1       6.924  -4.774  15.338  1.00  0.00    -0.550 OA
ENDBRANCH   6   7
ENDBRANCH   5   6
ENDBRANCH   4   5
ENDBRANCH   3   4
ENDBRANCH   2   3
ENDBRANCH   1   2
BRANCH   1  10
ATOM     10  C   UNL     1       2.799  -8.380  10.182  1.00  0.00     0.000 C 
BRANCH  10  11
ATOM     11  C   UNL     1       1.634  -9.329  10.519  1.00  0.00    -0.000 C 
BRANCH  11  12
ATOM     12  C   UNL     1       0.225  -8.713  10.397  1.00  0.00    -0.000 C 
BRANCH  12  13
ATOM     13  C   UNL     1      -0.049  -7.519  11.330  1.00  0.00    -0.000 C 
BRANCH  13  14
ATOM     14  C   UNL     1       1.073  -7.293  12.354  1.00  0.00    -0.000 C 
BRANCH  14  15
ATOM     15  C   UNL     1       1.610  -5.859  12.272  1.00  0.00    -0.000 C 
BRANCH  15  16
ATOM     16  C   UNL     1       2.666  -5.730  11.168  1.00  0.00    -0.003 C 
ATOM     17  C   UNL     1       2.172  -4.837  10.033  1.00  0.00     0.004 C 
ENDBRANCH  15  16
ENDBRANCH  14  15
ENDBRANCH  13  14
ENDBRANCH  12  13
ENDBRANCH  11  12
ENDBRANCH  10  11
ENDBRANCH   1  10
TORSDOF 13
ENDMDL
MODEL 6
REMARK VINA RESULT:    10.211      2.459      3.828
REMARK INTER + INTRA:          17.301
REMARK INTER:                  17.561
REMARK INTRA:                  -0.261
REMARK UNBOUND:                -0.670
REMARK SMILES CCCCCCCCCCCCCCC(=O)[O-]
REMARK SMILES IDX 9 1 10 2 11 3 12 4 13 5 14 6 15 7 16 8 17 9 8 10 7 11 6 12
REMARK SMILES IDX 5 13 4 14 3 15 2 16 1 17
REMARK H PARENT
REMARK Flexibility Score: inf
ROOT
ATOM      1  C   UNL     1       1.506  -7.911  11.848  1.00  0.00     0.000 C 
ENDROOT
BRANCH   1   2
ATOM      2  C   UNL     1      -0.003  -7.640  11.711  1.00  0.00     0.000 C 
BRANCH   2   3
ATOM      3  C   UNL     1      -0.640  -8.127  10.395  1.00  0.00     0.000 C 
BRANCH   3   4
ATOM      4  C   UNL     1      -0.768  -7.055   9.294  1.00  0.00     0.000 C 
BRANCH   4   5
ATOM      5  C   UNL     1      -0.148  -5.686   9.642  1.00  0.00     0.006 C 
BRANCH   5   6
ATOM      6  C   UNL     1       1.285  -5.490   9.125  1.00  0.00     0.053 C 
BRANCH   6   7
ATOM      7  C   UNL     1       2.114  -4.668  10.064  1.00  0.00     0.041 C 
ATOM      8  O   UNL     1       2.590  -5.188  11.108  1.00  0.00    -0.550 OA
ATOM      9  O   UNL     1       2.332  -3.321   9.804  1.00  0.00    -0.550 OA
ENDBRANCH   6   7
ENDBRANCH   5   6
ENDBRANCH   4   5
ENDBRANCH   3   4
ENDBRANCH   2   3
ENDBRANCH   1   2
BRANCH   1  10
ATOM     10  C   UNL     1       2.132  -8.466  10.558  1.00  0.00     0.000 C 
BRANCH  10  11
ATOM     11  C   UNL     1       3.667  -8.562  10.631  1.00  0.00    -0.000 C 
BRANCH  11  12
ATOM     12  C   UNL     1       4.375  -7.346  11.264  1.00  0.00    -0.000 C 
BRANCH  12  13
ATOM     13  C   UNL     1       5.241  -7.663  12.496  1.00  0.00    -0.000 C 
BRANCH  13  14
ATOM     14  C   UNL     1       4.859  -8.990  13.167  1.00  0.00    -0.000 C 
BRANCH  14  15
ATOM     15  C   UNL     1       3.714  -8.790  14.167  1.00  0.00    -0.000 C 
BRANCH  15  16
ATOM     16  C   UNL     1       3.305 -10.121  14.808  1.00  0.00    -0.003 C 
ATOM     17  C   UNL     1       3.167  -9.984  16.322  1.00  0.00     0.004 C 
ENDBRANCH  15  16
ENDBRANCH  14  15
ENDBRANCH  13  14
ENDBRANCH  12  13
ENDBRANCH  11  12
ENDBRANCH  10  11
ENDBRANCH   1  10
TORSDOF 13
ENDMDL
MODEL 7
REMARK VINA RESULT:    10.279      1.999      3.760
REMARK INTER + INTRA:          17.420
REMARK INTER:                  16.041
REMARK INTRA:                   1.379
REMARK UNBOUND:                -0.670
REMARK SMILES CCCCCCCCCCCCCCC(=O)[O-]
REMARK SMILES IDX 9 1 10 2 11 3 12 4 13 5 14 6 15 7 16 8 17 9 8 10 7 11 6 12
REMARK SMILES IDX 5 13 4 14 3 15 2 16 1 17
REMARK H PARENT
REMARK Flexibility Score: inf
ROOT
ATOM      1  C   UNL     1      -0.484  -8.639   9.940  1.00  0.00     0.000 C 
ENDROOT
BRANCH   1   2
ATOM      2  C   UNL     1      -0.836  -7.469  10.877  1.00  0.00     0.000 C 
BRANCH   2   3
ATOM      3  C   UNL     1      -0.311  -7.602  12.320  1.00  0.00     0.000 C 
BRANCH   3   4
ATOM      4  C   UNL     1       1.204  -7.370  12.489  1.00  0.00     0.000 C 
BRANCH   4   5
ATOM      5  C   UNL     1       1.662  -5.907  12.321  1.00  0.00     0.006 C 
BRANCH   5   6
ATOM      6  C   UNL     1       2.718  -5.697  11.225  1.00  0.00     0.053 C 
BRANCH   6   7
ATOM      7  C   UNL     1       2.206  -4.838  10.109  1.00  0.00     0.041 C 
ATOM      8  O   UNL     1       1.345  -5.289   9.308  1.00  0.00    -0.550 OA
ATOM      9  O   UNL     1       2.704  -3.554   9.934  1.00  0.00    -0.550 OA
ENDBRANCH   6   7
ENDBRANCH   5   6
ENDBRANCH   4   5
ENDBRANCH   3   4
ENDBRANCH   2   3
ENDBRANCH   1   2
BRANCH   1  10
ATOM     10  C   UNL     1       0.800  -9.373  10.360  1.00  0.00     0.000 C 
BRANCH  10  11
ATOM     11  C   UNL     1       2.057  -8.490  10.252  1.00  0.00    -0.000 C 
BRANCH  11  12
ATOM     12  C   UNL     1       3.393  -9.254  10.144  1.00  0.00    -0.000 C 
BRANCH  12  13
ATOM     13  C   UNL     1       4.551  -8.662  10.968  1.00  0.00    -0.000 C 
BRANCH  13  14
ATOM     14  C   UNL     1       4.215  -8.530  12.460  1.00  0.00    -0.000 C 
BRANCH  14  15
ATOM     15  C   UNL     1       4.927  -7.320  13.077  1.00  0.00    -0.000 C 
BRANCH  15  16
ATOM     16  C   UNL     1       6.010  -6.780  12.134  1.00  0.00    -0.003 C 
ATOM     17  C   UNL     1       7.379  -6.784  12.808  1.00  0.00     0.004 C 
ENDBRANCH  15  16
ENDBRANCH  14  15
ENDBRANCH  13  14
ENDBRANCH  12  13
ENDBRANCH  11  12
ENDBRANCH  10  11
ENDBRANCH   1  10
TORSDOF 13
ENDMDL
MODEL 8
REMARK VINA RESULT:    10.522      1.417      2.093
REMARK INTER + INTRA:          17.849
REMARK INTER:                  16.201
REMARK INTRA:                   1.648
REMARK UNBOUND:                -0.670
REMARK SMILES CCCCCCCCCCCCCCC(=O)[O-]
REMARK SMILES IDX 9 1 10 2 11 3 12 4 13 5 14 6 15 7 16 8 17 9 8 10 7 11 6 12
REMARK SMILES IDX 5 13 4 14 3 15 2 16 1 17
REMARK H PARENT
REMARK Flexibility Score: inf
ROOT
ATOM      1  C   UNL     1       2.826  -6.416  11.657  1.00  0.00     0.000 C 
ENDROOT
BRANCH   1   2
ATOM      2  C   UNL     1       1.443  -6.467  12.331  1.00  0.00     0.000 C 
BRANCH   2   3
ATOM      3  C   UNL     1       0.703  -7.814  12.212  1.00  0.00     0.000 C 
BRANCH   3   4
ATOM      4  C   UNL     1      -0.727  -7.727  11.643  1.00  0.00     0.000 C 
BRANCH   4   5
ATOM      5  C   UNL     1      -1.107  -8.855  10.662  1.00  0.00     0.006 C 
BRANCH   5   6
ATOM      6  C   UNL     1      -1.115  -8.432   9.185  1.00  0.00     0.053 C 
BRANCH   6   7
ATOM      7  C   UNL     1      -1.053  -6.944   9.025  1.00  0.00     0.041 C 
ATOM      8  O   UNL     1      -1.125  -6.427   7.879  1.00  0.00    -0.550 OA
ATOM      9  O   UNL     1      -0.881  -6.131  10.138  1.00  0.00    -0.550 OA
ENDBRANCH   6   7
ENDBRANCH   5   6
ENDBRANCH   4   5
ENDBRANCH   3   4
ENDBRANCH   2   3
ENDBRANCH   1   2
BRANCH   1  10
ATOM     10  C   UNL     1       3.050  -7.572  10.668  1.00  0.00     0.000 C 
BRANCH  10  11
ATOM     11  C   UNL     1       4.035  -8.630  11.198  1.00  0.00    -0.000 C 
BRANCH  11  12
ATOM     12  C   UNL     1       4.507  -8.423  12.653  1.00  0.00    -0.000 C 
BRANCH  12  13
ATOM     13  C   UNL     1       5.270  -7.111  12.911  1.00  0.00    -0.000 C 
BRANCH  13  14
ATOM     14  C   UNL     1       6.672  -7.104  12.285  1.00  0.00    -0.000 C 
BRANCH  14  15
ATOM     15  C   UNL     1       7.695  -6.476  13.239  1.00  0.00    -0.000 C 
BRANCH  15  16
ATOM     16  C   UNL     1       7.036  -6.071  14.564  1.00  0.00    -0.003 C 
ATOM     17  C   UNL     1       7.677  -4.810  15.135  1.00  0.00     0.004 C 
ENDBRANCH  15  16
ENDBRANCH  14  15
ENDBRANCH  13  14
ENDBRANCH  12  13
ENDBRANCH  11  12
ENDBRANCH  10  11
ENDBRANCH   1  10
TORSDOF 13
ENDMDL
