MODEL 1
REMARK VINA RESULT:    -4.689      0.000      0.000
REMARK INTER + INTRA:          -5.711
REMARK INTER:                  -5.374
REMARK INTRA:                  -0.337
REMARK UNBOUND:                -0.337
REMARK SMILES COc1ccc(C(C)=O)c(O)c1
REMARK SMILES IDX 6 1 10 2 12 3 3 4 4 5 5 6 7 7 8 8 9 9 11 10 2 12 1 13
REMARK H PARENT 11 11
REMARK Flexibility Score: inf
ROOT
ATOM      1  C   UNL     1       0.973 -16.842  18.870  1.00  0.00     0.059 A 
ATOM      2  C   UNL     1       0.977 -17.511  20.116  1.00  0.00     0.130 A 
ATOM      3  C   UNL     1      -0.191 -18.137  20.579  1.00  0.00     0.093 A 
ATOM      4  C   UNL     1      -1.376 -18.093  19.825  1.00  0.00     0.122 A 
ATOM      5  C   UNL     1      -1.381 -17.415  18.604  1.00  0.00     0.047 A 
ATOM      6  C   UNL     1      -0.223 -16.794  18.132  1.00  0.00     0.019 A 
ENDROOT
BRANCH   1   7
ATOM      7  C   UNL     1       2.182 -16.176  18.315  1.00  0.00     0.163 C 
ATOM      8  C   UNL     1       2.685 -16.445  16.929  1.00  0.00     0.093 C 
ATOM      9  O   UNL     1       2.816 -15.350  19.028  1.00  0.00    -0.294 OA
ENDBRANCH   1   7
BRANCH   2  10
ATOM     10  O   UNL     1       2.125 -17.540  20.907  1.00  0.00    -0.507 OA
ATOM     11  H   UNL     1       2.082 -17.718  21.903  1.00  0.00     0.293 HD
ENDBRANCH   2  10
BRANCH   4  12
ATOM     12  O   UNL     1      -2.565 -18.704  20.253  1.00  0.00    -0.497 OA
ATOM     13  C   UNL     1      -3.125 -19.874  19.667  1.00  0.00     0.278 C 
ENDBRANCH   4  12
TORSDOF 3
ENDMDL
MODEL 2
REMARK VINA RESULT:    -4.633      1.316      4.570
REMARK INTER + INTRA:          -5.647
REMARK INTER:                  -5.345
REMARK INTRA:                  -0.302
REMARK UNBOUND:                -0.337
REMARK SMILES COc1ccc(C(C)=O)c(O)c1
REMARK SMILES IDX 6 1 10 2 12 3 3 4 4 5 5 6 7 7 8 8 9 9 11 10 2 12 1 13
REMARK H PARENT 11 11
REMARK Flexibility Score: inf
ROOT
ATOM      1  C   UNL     1       0.084 -17.460  18.995  1.00  0.00     0.059 A 
ATOM      2  C   UNL     1       1.337 -17.136  19.564  1.00  0.00     0.130 A 
ATOM      3  C   UNL     1       2.280 -16.412  18.817  1.00  0.00     0.093 A 
ATOM      4  C   UNL     1       2.000 -16.018  17.498  1.00  0.00     0.122 A 
ATOM      5  C   UNL     1       0.769 -16.356  16.933  1.00  0.00     0.047 A 
ATOM      6  C   UNL     1      -0.178 -17.071  17.668  1.00  0.00     0.019 A 
ENDROOT
BRANCH   1   7
ATOM      7  C   UNL     1      -0.964 -18.207  19.740  1.00  0.00     0.163 C 
ATOM      8  C   UNL     1      -2.042 -18.987  19.048  1.00  0.00     0.093 C 
ATOM      9  O   UNL     1      -0.957 -18.193  21.001  1.00  0.00    -0.294 OA
ENDBRANCH   1   7
BRANCH   2  10
ATOM     10  O   UNL     1       1.661 -17.546  20.857  1.00  0.00    -0.507 OA
ATOM     11  H   UNL     1       0.950 -17.714  21.558  1.00  0.00     0.293 HD
ENDBRANCH   2  10
BRANCH   4  12
ATOM     12  O   UNL     1       2.916 -15.295  16.717  1.00  0.00    -0.497 OA
ATOM     13  C   UNL     1       2.944 -15.305  15.294  1.00  0.00     0.278 C 
ENDBRANCH   4  12
TORSDOF 3
ENDMDL
MODEL 3
REMARK VINA RESULT:    -4.569     17.343     18.865
REMARK INTER + INTRA:          -5.573
REMARK INTER:                  -5.292
REMARK INTRA:                  -0.281
REMARK UNBOUND:                -0.337
REMARK SMILES COc1ccc(C(C)=O)c(O)c1
REMARK SMILES IDX 6 1 10 2 12 3 3 4 4 5 5 6 7 7 8 8 9 9 11 10 2 12 1 13
REMARK H PARENT 11 11
REMARK Flexibility Score: inf
ROOT
ATOM      1  C   UNL     1      13.887  -9.982  31.081  1.00  0.00     0.059 A 
ATOM      2  C   UNL     1      14.595 -10.582  30.015  1.00  0.00     0.130 A 
ATOM      3  C   UNL     1      13.895 -11.113  28.919  1.00  0.00     0.093 A 
ATOM      4  C   UNL     1      12.491 -11.069  28.875  1.00  0.00     0.122 A 
ATOM      5  C   UNL     1      11.795 -10.492  29.939  1.00  0.00     0.047 A 
ATOM      6  C   UNL     1      12.481  -9.957  31.031  1.00  0.00     0.019 A 
ENDROOT
BRANCH   1   7
ATOM      7  C   UNL     1      14.570  -9.386  32.260  1.00  0.00     0.163 C 
ATOM      8  C   UNL     1      14.478  -9.986  33.631  1.00  0.00     0.093 C 
ATOM      9  O   UNL     1      15.255  -8.337  32.114  1.00  0.00    -0.294 OA
ENDBRANCH   1   7
BRANCH   2  10
ATOM     10  O   UNL     1      15.986 -10.677  30.045  1.00  0.00    -0.507 OA
ATOM     11  H   UNL     1      16.569 -10.186  29.378  1.00  0.00     0.293 HD
ENDBRANCH   2  10
BRANCH   4  12
ATOM     12  O   UNL     1      11.754 -11.589  27.800  1.00  0.00    -0.497 OA
ATOM     13  C   UNL     1      11.806 -11.084  26.469  1.00  0.00     0.278 C 
ENDBRANCH   4  12
TORSDOF 3
ENDMDL
MODEL 4
REMARK VINA RESULT:    -4.540     17.014     18.563
REMARK INTER + INTRA:          -5.540
REMARK INTER:                  -5.205
REMARK INTRA:                  -0.335
REMARK UNBOUND:                -0.337
REMARK SMILES COc1ccc(C(C)=O)c(O)c1
REMARK SMILES IDX 6 1 10 2 12 3 3 4 4 5 5 6 7 7 8 8 9 9 11 10 2 12 1 13
REMARK H PARENT 11 11
REMARK Flexibility Score: inf
ROOT
ATOM      1  C   UNL     1      13.411  -9.992  31.147  1.00  0.00     0.059 A 
ATOM      2  C   UNL     1      12.046 -10.023  30.779  1.00  0.00     0.130 A 
ATOM      3  C   UNL     1      11.664 -10.584  29.550  1.00  0.00     0.093 A 
ATOM      4  C   UNL     1      12.627 -11.104  28.668  1.00  0.00     0.122 A 
ATOM      5  C   UNL     1      13.975 -11.054  29.027  1.00  0.00     0.047 A 
ATOM      6  C   UNL     1      14.365 -10.503  30.249  1.00  0.00     0.019 A 
ENDROOT
BRANCH   1   7
ATOM      7  C   UNL     1      13.877  -9.429  32.442  1.00  0.00     0.163 C 
ATOM      8  C   UNL     1      14.947  -8.382  32.525  1.00  0.00     0.093 C 
ATOM      9  O   UNL     1      13.361  -9.839  33.517  1.00  0.00    -0.294 OA
ENDBRANCH   1   7
BRANCH   2  10
ATOM     10  O   UNL     1      11.068  -9.481  31.613  1.00  0.00    -0.507 OA
ATOM     11  H   UNL     1      10.761  -8.520  31.522  1.00  0.00     0.293 HD
ENDBRANCH   2  10
BRANCH   4  12
ATOM     12  O   UNL     1      12.288 -11.671  27.430  1.00  0.00    -0.497 OA
ATOM     13  C   UNL     1      11.313 -11.138  26.540  1.00  0.00     0.278 C 
ENDBRANCH   4  12
TORSDOF 3
ENDMDL
MODEL 5
REMARK VINA RESULT:    -4.534     10.479     12.302
REMARK INTER + INTRA:          -5.534
REMARK INTER:                  -5.248
REMARK INTRA:                  -0.286
REMARK UNBOUND:                -0.337
REMARK SMILES COc1ccc(C(C)=O)c(O)c1
REMARK SMILES IDX 6 1 10 2 12 3 3 4 4 5 5 6 7 7 8 8 9 9 11 10 2 12 1 13
REMARK H PARENT 11 11
REMARK Flexibility Score: inf
ROOT
ATOM      1  C   UNL     1       1.844 -16.104  31.300  1.00  0.00     0.059 A 
ATOM      2  C   UNL     1       1.137 -15.419  30.285  1.00  0.00     0.130 A 
ATOM      3  C   UNL     1       1.806 -15.002  29.123  1.00  0.00     0.093 A 
ATOM      4  C   UNL     1       3.181 -15.245  28.961  1.00  0.00     0.122 A 
ATOM      5  C   UNL     1       3.879 -15.904  29.974  1.00  0.00     0.047 A 
ATOM      6  C   UNL     1       3.222 -16.327  31.131  1.00  0.00     0.019 A 
ENDROOT
BRANCH   1   7
ATOM      7  C   UNL     1       1.189 -16.586  32.545  1.00  0.00     0.163 C 
ATOM      8  C   UNL     1       1.493 -16.004  33.892  1.00  0.00     0.093 C 
ATOM      9  O   UNL     1       0.343 -17.520  32.477  1.00  0.00    -0.294 OA
ENDBRANCH   1   7
BRANCH   2  10
ATOM     10  O   UNL     1      -0.219 -15.128  30.430  1.00  0.00    -0.507 OA
ATOM     11  H   UNL     1      -0.821 -15.675  31.035  1.00  0.00     0.293 HD
ENDBRANCH   2  10
BRANCH   4  12
ATOM     12  O   UNL     1       3.887 -14.844  27.816  1.00  0.00    -0.497 OA
ATOM     13  C   UNL     1       3.507 -15.164  26.482  1.00  0.00     0.278 C 
ENDBRANCH   4  12
TORSDOF 3
ENDMDL
MODEL 6
REMARK VINA RESULT:    -4.528     11.425     12.613
REMARK INTER + INTRA:          -5.527
REMARK INTER:                  -5.207
REMARK INTRA:                  -0.320
REMARK UNBOUND:                -0.337
REMARK SMILES COc1ccc(C(C)=O)c(O)c1
REMARK SMILES IDX 6 1 10 2 12 3 3 4 4 5 5 6 7 7 8 8 9 9 11 10 2 12 1 13
REMARK H PARENT 11 11
REMARK Flexibility Score: inf
ROOT
ATOM      1  C   UNL     1       2.466 -16.770  31.173  1.00  0.00     0.059 A 
ATOM      2  C   UNL     1       2.289 -18.172  31.220  1.00  0.00     0.130 A 
ATOM      3  C   UNL     1       1.289 -18.726  32.035  1.00  0.00     0.093 A 
ATOM      4  C   UNL     1       0.467 -17.901  32.821  1.00  0.00     0.122 A 
ATOM      5  C   UNL     1       0.657 -16.518  32.787  1.00  0.00     0.047 A 
ATOM      6  C   UNL     1       1.645 -15.957  31.976  1.00  0.00     0.019 A 
ENDROOT
BRANCH   1   7
ATOM      7  C   UNL     1       3.494 -16.121  30.317  1.00  0.00     0.163 C 
ATOM      8  C   UNL     1       3.139 -15.183  29.203  1.00  0.00     0.093 C 
ATOM      9  O   UNL     1       4.715 -16.361  30.527  1.00  0.00    -0.294 OA
ENDBRANCH   1   7
BRANCH   2  10
ATOM     10  O   UNL     1       3.113 -19.021  30.482  1.00  0.00    -0.507 OA
ATOM     11  H   UNL     1       2.749 -19.603  29.737  1.00  0.00     0.293 HD
ENDBRANCH   2  10
BRANCH   4  12
ATOM     12  O   UNL     1      -0.543 -18.414  33.650  1.00  0.00    -0.497 OA
ATOM     13  C   UNL     1      -0.749 -19.799  33.906  1.00  0.00     0.278 C 
ENDBRANCH   4  12
TORSDOF 3
ENDMDL
MODEL 7
REMARK VINA RESULT:    -4.393      2.044      2.929
REMARK INTER + INTRA:          -5.372
REMARK INTER:                  -5.026
REMARK INTRA:                  -0.346
REMARK UNBOUND:                -0.337
REMARK SMILES COc1ccc(C(C)=O)c(O)c1
REMARK SMILES IDX 6 1 10 2 12 3 3 4 4 5 5 6 7 7 8 8 9 9 11 10 2 12 1 13
REMARK H PARENT 11 11
REMARK Flexibility Score: inf
ROOT
ATOM      1  C   UNL     1       1.063 -15.732  16.856  1.00  0.00     0.059 A 
ATOM      2  C   UNL     1       1.999 -15.751  17.915  1.00  0.00     0.130 A 
ATOM      3  C   UNL     1       1.710 -16.459  19.093  1.00  0.00     0.093 A 
ATOM      4  C   UNL     1       0.489 -17.139  19.239  1.00  0.00     0.122 A 
ATOM      5  C   UNL     1      -0.440 -17.102  18.198  1.00  0.00     0.047 A 
ATOM      6  C   UNL     1      -0.160 -16.405  17.021  1.00  0.00     0.019 A 
ENDROOT
BRANCH   1   7
ATOM      7  C   UNL     1       1.318 -15.016  15.577  1.00  0.00     0.163 C 
ATOM      8  C   UNL     1       0.280 -14.163  14.912  1.00  0.00     0.093 C 
ATOM      9  O   UNL     1       2.445 -15.123  15.022  1.00  0.00    -0.294 OA
ENDBRANCH   1   7
BRANCH   2  10
ATOM     10  O   UNL     1       3.204 -15.055  17.818  1.00  0.00    -0.507 OA
ATOM     11  H   UNL     1       3.582 -14.531  18.598  1.00  0.00     0.293 HD
ENDBRANCH   2  10
BRANCH   4  12
ATOM     12  O   UNL     1       0.161 -17.857  20.400  1.00  0.00    -0.497 OA
ATOM     13  C   UNL     1      -1.068 -18.548  20.598  1.00  0.00     0.278 C 
ENDBRANCH   4  12
TORSDOF 3
ENDMDL
MODEL 8
REMARK VINA RESULT:    -4.357      1.501      2.291
REMARK INTER + INTRA:          -5.330
REMARK INTER:                  -5.016
REMARK INTRA:                  -0.315
REMARK UNBOUND:                -0.337
REMARK SMILES COc1ccc(C(C)=O)c(O)c1
REMARK SMILES IDX 6 1 10 2 12 3 3 4 4 5 5 6 7 7 8 8 9 9 11 10 2 12 1 13
REMARK H PARENT 11 11
REMARK Flexibility Score: inf
ROOT
ATOM      1  C   UNL     1       0.994 -16.687  18.482  1.00  0.00     0.059 A 
ATOM      2  C   UNL     1      -0.245 -16.780  17.807  1.00  0.00     0.130 A 
ATOM      3  C   UNL     1      -1.336 -17.411  18.426  1.00  0.00     0.093 A 
ATOM      4  C   UNL     1      -1.207 -17.969  19.709  1.00  0.00     0.122 A 
ATOM      5  C   UNL     1       0.023 -17.893  20.365  1.00  0.00     0.047 A 
ATOM      6  C   UNL     1       1.112 -17.263  19.760  1.00  0.00     0.019 A 
ENDROOT
BRANCH   1   7
ATOM      7  C   UNL     1       2.181 -16.016  17.888  1.00  0.00     0.163 C 
ATOM      8  C   UNL     1       2.797 -14.790  18.491  1.00  0.00     0.093 C 
ATOM      9  O   UNL     1       2.698 -16.487  16.839  1.00  0.00    -0.294 OA
ENDBRANCH   1   7
BRANCH   2  10
ATOM     10  O   UNL     1      -0.395 -16.271  16.517  1.00  0.00    -0.507 OA
ATOM     11  H   UNL     1      -0.054 -15.351  16.263  1.00  0.00     0.293 HD
ENDBRANCH   2  10
BRANCH   4  12
ATOM     12  O   UNL     1      -2.272 -18.610  20.362  1.00  0.00    -0.497 OA
ATOM     13  C   UNL     1      -3.120 -19.581  19.758  1.00  0.00     0.278 C 
ENDBRANCH   4  12
TORSDOF 3
ENDMDL
MODEL 9
REMARK VINA RESULT:    -4.346     15.471     17.087
REMARK INTER + INTRA:          -5.318
REMARK INTER:                  -5.000
REMARK INTRA:                  -0.318
REMARK UNBOUND:                -0.337
REMARK SMILES COc1ccc(C(C)=O)c(O)c1
REMARK SMILES IDX 6 1 10 2 12 3 3 4 4 5 5 6 7 7 8 8 9 9 11 10 2 12 1 13
REMARK H PARENT 11 11
REMARK Flexibility Score: inf
ROOT
ATOM      1  C   UNL     1      15.352  -8.999  18.820  1.00  0.00     0.059 A 
ATOM      2  C   UNL     1      14.015  -9.432  18.674  1.00  0.00     0.130 A 
ATOM      3  C   UNL     1      13.668 -10.300  17.626  1.00  0.00     0.093 A 
ATOM      4  C   UNL     1      14.637 -10.733  16.705  1.00  0.00     0.122 A 
ATOM      5  C   UNL     1      15.953 -10.288  16.841  1.00  0.00     0.047 A 
ATOM      6  C   UNL     1      16.309  -9.430  17.883  1.00  0.00     0.019 A 
ENDROOT
BRANCH   1   7
ATOM      7  C   UNL     1      15.786  -8.096  19.919  1.00  0.00     0.163 C 
ATOM      8  C   UNL     1      16.943  -7.153  19.777  1.00  0.00     0.093 C 
ATOM      9  O   UNL     1      15.164  -8.114  21.017  1.00  0.00    -0.294 OA
ENDBRANCH   1   7
BRANCH   2  10
ATOM     10  O   UNL     1      13.021  -8.991  19.548  1.00  0.00    -0.507 OA
ATOM     11  H   UNL     1      12.803  -8.007  19.655  1.00  0.00     0.293 HD
ENDBRANCH   2  10
BRANCH   4  12
ATOM     12  O   UNL     1      14.333 -11.599  15.642  1.00  0.00    -0.497 OA
ATOM     13  C   UNL     1      15.299 -12.166  14.764  1.00  0.00     0.278 C 
ENDBRANCH   4  12
TORSDOF 3
ENDMDL
