MODEL 1
REMARK VINA RESULT:    -8.834      0.000      0.000
REMARK INTER + INTRA:         -10.942
REMARK INTER:                 -10.641
REMARK INTRA:                  -0.301
REMARK UNBOUND:                -0.301
REMARK SMILES O=c1c(O)c(-c2ccc(O)c(O)c2)oc2cc(O)cc(O)c12
REMARK SMILES IDX 5 1 3 2 2 3 1 4 22 5 20 6 19 7 17 8 16 9 15 10 14 11 6 12
REMARK SMILES IDX 7 13 8 14 9 15 13 16 11 17 10 18 12 20 4 22 21 24 18 26
REMARK H PARENT 10 19 12 21 4 23 21 25 18 27
REMARK Flexibility Score: inf
ROOT
ATOM      1  C   UNL     1      10.069 -45.972  35.641  1.00  0.00     0.180 A 
ATOM      2  C   UNL     1       9.271 -46.187  36.778  1.00  0.00     0.208 A 
ATOM      3  C   UNL     1       9.893 -46.460  38.006  1.00  0.00     0.238 A 
ATOM      4  O   UNL     1       9.172 -46.704  39.008  1.00  0.00    -0.285 OA
ATOM      5  C   UNL     1      11.307 -46.498  38.087  1.00  0.00     0.111 A 
ATOM      6  C   UNL     1      12.043 -46.726  39.288  1.00  0.00     0.134 A 
ATOM      7  C   UNL     1      13.435 -46.873  39.226  1.00  0.00     0.093 A 
ATOM      8  C   UNL     1      14.121 -46.736  38.017  1.00  0.00     0.123 A 
ATOM      9  C   UNL     1      13.416 -46.455  36.849  1.00  0.00     0.094 A 
ATOM     10  C   UNL     1      12.024 -46.338  36.873  1.00  0.00     0.146 A 
ATOM     11  O   UNL     1      11.390 -46.080  35.736  1.00  0.00    -0.452 OA
ENDROOT
BRANCH   1  12
ATOM     12  C   UNL     1       9.487 -45.655  34.317  1.00  0.00     0.025 A 
ATOM     13  C   UNL     1       9.373 -44.314  33.916  1.00  0.00     0.016 A 
ATOM     14  C   UNL     1       8.808 -43.992  32.680  1.00  0.00     0.051 A 
ATOM     15  C   UNL     1       8.334 -44.999  31.834  1.00  0.00     0.157 A 
ATOM     16  C   UNL     1       8.992 -46.666  33.474  1.00  0.00     0.062 A 
ATOM     17  C   UNL     1       8.423 -46.343  32.233  1.00  0.00     0.158 A 
BRANCH  15  18
ATOM     18  O   UNL     1       7.777 -44.647  30.605  1.00  0.00    -0.504 OA
ATOM     19  H   UNL     1       8.122 -43.864  30.063  1.00  0.00     0.293 HD
ENDBRANCH  15  18
BRANCH  17  20
ATOM     20  O   UNL     1       7.940 -47.352  31.400  1.00  0.00    -0.504 OA
ATOM     21  H   UNL     1       8.239 -47.433  30.435  1.00  0.00     0.293 HD
ENDBRANCH  17  20
ENDBRANCH   1  12
BRANCH   2  22
ATOM     22  O   UNL     1       7.877 -46.165  36.671  1.00  0.00    -0.502 OA
ATOM     23  H   UNL     1       7.399 -45.777  35.867  1.00  0.00     0.293 HD
ENDBRANCH   2  22
BRANCH   6  24
ATOM     24  O   UNL     1      11.465 -46.787  40.559  1.00  0.00    -0.507 OA
ATOM     25  H   UNL     1      10.509 -47.050  40.743  1.00  0.00     0.293 HD
ENDBRANCH   6  24
BRANCH   8  26
ATOM     26  O   UNL     1      15.507 -46.868  37.967  1.00  0.00    -0.508 OA
ATOM     27  H   UNL     1      16.044 -46.529  37.178  1.00  0.00     0.293 HD
ENDBRANCH   8  26
TORSDOF 6
ENDMDL
MODEL 2
REMARK VINA RESULT:    -8.670      0.908      1.582
REMARK INTER + INTRA:         -10.745
REMARK INTER:                 -10.562
REMARK INTRA:                  -0.184
REMARK UNBOUND:                -0.301
REMARK SMILES O=c1c(O)c(-c2ccc(O)c(O)c2)oc2cc(O)cc(O)c12
REMARK SMILES IDX 5 1 3 2 2 3 1 4 22 5 20 6 19 7 17 8 16 9 15 10 14 11 6 12
REMARK SMILES IDX 7 13 8 14 9 15 13 16 11 17 10 18 12 20 4 22 21 24 18 26
REMARK H PARENT 10 19 12 21 4 23 21 25 18 27
REMARK Flexibility Score: inf
ROOT
ATOM      1  C   UNL     1       9.603 -46.341  35.528  1.00  0.00     0.180 A 
ATOM      2  C   UNL     1       8.846 -46.953  36.541  1.00  0.00     0.208 A 
ATOM      3  C   UNL     1       9.465 -47.265  37.761  1.00  0.00     0.238 A 
ATOM      4  O   UNL     1       8.796 -47.863  38.645  1.00  0.00    -0.285 OA
ATOM      5  C   UNL     1      10.831 -46.946  37.960  1.00  0.00     0.111 A 
ATOM      6  C   UNL     1      11.550 -47.181  39.171  1.00  0.00     0.134 A 
ATOM      7  C   UNL     1      12.930 -46.946  39.210  1.00  0.00     0.093 A 
ATOM      8  C   UNL     1      13.604 -46.423  38.103  1.00  0.00     0.123 A 
ATOM      9  C   UNL     1      12.899 -46.135  36.937  1.00  0.00     0.094 A 
ATOM     10  C   UNL     1      11.529 -46.393  36.855  1.00  0.00     0.146 A 
ATOM     11  O   UNL     1      10.897 -46.114  35.721  1.00  0.00    -0.452 OA
ENDROOT
BRANCH   1  12
ATOM     12  C   UNL     1       9.014 -45.959  34.224  1.00  0.00     0.025 A 
ATOM     13  C   UNL     1       8.622 -46.962  33.323  1.00  0.00     0.016 A 
ATOM     14  C   UNL     1       8.083 -46.625  32.080  1.00  0.00     0.051 A 
ATOM     15  C   UNL     1       7.941 -45.284  31.711  1.00  0.00     0.157 A 
ATOM     16  C   UNL     1       8.889 -44.611  33.844  1.00  0.00     0.062 A 
ATOM     17  C   UNL     1       8.349 -44.271  32.595  1.00  0.00     0.158 A 
BRANCH  15  18
ATOM     18  O   UNL     1       7.397 -44.977  30.464  1.00  0.00    -0.504 OA
ATOM     19  H   UNL     1       6.400 -44.868  30.324  1.00  0.00     0.293 HD
ENDBRANCH  15  18
BRANCH  17  20
ATOM     20  O   UNL     1       8.223 -42.931  32.228  1.00  0.00    -0.504 OA
ATOM     21  H   UNL     1       8.867 -42.225  32.565  1.00  0.00     0.293 HD
ENDBRANCH  17  20
ENDBRANCH   1  12
BRANCH   2  22
ATOM     22  O   UNL     1       7.505 -47.279  36.316  1.00  0.00    -0.502 OA
ATOM     23  H   UNL     1       6.797 -47.199  37.037  1.00  0.00     0.293 HD
ENDBRANCH   2  22
BRANCH   6  24
ATOM     24  O   UNL     1      10.957 -47.614  40.360  1.00  0.00    -0.507 OA
ATOM     25  H   UNL     1      11.216 -47.292  41.281  1.00  0.00     0.293 HD
ENDBRANCH   6  24
BRANCH   8  26
ATOM     26  O   UNL     1      14.975 -46.177  38.157  1.00  0.00    -0.508 OA
ATOM     27  H   UNL     1      15.428 -45.887  39.015  1.00  0.00     0.293 HD
ENDBRANCH   8  26
TORSDOF 6
ENDMDL
MODEL 3
REMARK VINA RESULT:    -8.065      4.098      5.702
REMARK INTER + INTRA:         -10.016
REMARK INTER:                  -9.694
REMARK INTRA:                  -0.322
REMARK UNBOUND:                -0.301
REMARK SMILES O=c1c(O)c(-c2ccc(O)c(O)c2)oc2cc(O)cc(O)c12
REMARK SMILES IDX 5 1 3 2 2 3 1 4 22 5 20 6 19 7 17 8 16 9 15 10 14 11 6 12
REMARK SMILES IDX 7 13 8 14 9 15 13 16 11 17 10 18 12 20 4 22 21 24 18 26
REMARK H PARENT 10 19 12 21 4 23 21 25 18 27
REMARK Flexibility Score: inf
ROOT
ATOM      1  C   UNL     1       7.531 -48.753  36.045  1.00  0.00     0.180 A 
ATOM      2  C   UNL     1       7.972 -48.185  34.837  1.00  0.00     0.208 A 
ATOM      3  C   UNL     1       9.071 -47.312  34.856  1.00  0.00     0.238 A 
ATOM      4  O   UNL     1       9.427 -46.764  33.780  1.00  0.00    -0.285 OA
ATOM      5  C   UNL     1       9.726 -47.031  36.080  1.00  0.00     0.111 A 
ATOM      6  C   UNL     1      10.874 -46.193  36.210  1.00  0.00     0.134 A 
ATOM      7  C   UNL     1      11.359 -45.880  37.486  1.00  0.00     0.093 A 
ATOM      8  C   UNL     1      10.778 -46.429  38.632  1.00  0.00     0.123 A 
ATOM      9  C   UNL     1       9.694 -47.295  38.511  1.00  0.00     0.094 A 
ATOM     10  C   UNL     1       9.165 -47.597  37.254  1.00  0.00     0.146 A 
ATOM     11  O   UNL     1       8.125 -48.418  37.184  1.00  0.00    -0.452 OA
ENDROOT
BRANCH   1  12
ATOM     12  C   UNL     1       6.395 -49.702  36.101  1.00  0.00     0.025 A 
ATOM     13  C   UNL     1       6.629 -51.072  35.902  1.00  0.00     0.016 A 
ATOM     14  C   UNL     1       5.569 -51.982  35.930  1.00  0.00     0.051 A 
ATOM     15  C   UNL     1       4.261 -51.536  36.141  1.00  0.00     0.157 A 
ATOM     16  C   UNL     1       5.076 -49.253  36.293  1.00  0.00     0.062 A 
ATOM     17  C   UNL     1       4.011 -50.166  36.320  1.00  0.00     0.158 A 
BRANCH  15  18
ATOM     18  O   UNL     1       3.223 -52.469  36.167  1.00  0.00    -0.504 OA
ATOM     19  H   UNL     1       2.895 -52.931  35.328  1.00  0.00     0.293 HD
ENDBRANCH  15  18
BRANCH  17  20
ATOM     20  O   UNL     1       2.706 -49.714  36.517  1.00  0.00    -0.504 OA
ATOM     21  H   UNL     1       1.950 -50.352  36.731  1.00  0.00     0.293 HD
ENDBRANCH  17  20
ENDBRANCH   1  12
BRANCH   2  22
ATOM     22  O   UNL     1       7.298 -48.460  33.644  1.00  0.00    -0.502 OA
ATOM     23  H   UNL     1       6.385 -48.899  33.623  1.00  0.00     0.293 HD
ENDBRANCH   2  22
BRANCH   6  24
ATOM     24  O   UNL     1      11.585 -45.668  35.127  1.00  0.00    -0.507 OA
ATOM     25  H   UNL     1      12.250 -44.912  35.188  1.00  0.00     0.293 HD
ENDBRANCH   6  24
BRANCH   8  26
ATOM     26  O   UNL     1      11.277 -46.125  39.897  1.00  0.00    -0.508 OA
ATOM     27  H   UNL     1      10.676 -45.777  40.635  1.00  0.00     0.293 HD
ENDBRANCH   8  26
TORSDOF 6
ENDMDL
MODEL 4
REMARK VINA RESULT:    -7.783      3.343      5.328
REMARK INTER + INTRA:          -9.677
REMARK INTER:                  -9.405
REMARK INTRA:                  -0.272
REMARK UNBOUND:                -0.301
REMARK SMILES O=c1c(O)c(-c2ccc(O)c(O)c2)oc2cc(O)cc(O)c12
REMARK SMILES IDX 5 1 3 2 2 3 1 4 22 5 20 6 19 7 17 8 16 9 15 10 14 11 6 12
REMARK SMILES IDX 7 13 8 14 9 15 13 16 11 17 10 18 12 20 4 22 21 24 18 26
REMARK H PARENT 10 19 12 21 4 23 21 25 18 27
REMARK Flexibility Score: inf
ROOT
ATOM      1  C   UNL     1       8.169 -47.561  38.035  1.00  0.00     0.180 A 
ATOM      2  C   UNL     1       8.478 -46.892  36.838  1.00  0.00     0.208 A 
ATOM      3  C   UNL     1       9.806 -46.507  36.597  1.00  0.00     0.238 A 
ATOM      4  O   UNL     1      10.068 -45.860  35.549  1.00  0.00    -0.285 OA
ATOM      5  C   UNL     1      10.812 -46.810  37.548  1.00  0.00     0.111 A 
ATOM      6  C   UNL     1      12.196 -46.503  37.388  1.00  0.00     0.134 A 
ATOM      7  C   UNL     1      13.081 -46.731  38.450  1.00  0.00     0.093 A 
ATOM      8  C   UNL     1      12.642 -47.317  39.640  1.00  0.00     0.123 A 
ATOM      9  C   UNL     1      11.303 -47.674  39.783  1.00  0.00     0.094 A 
ATOM     10  C   UNL     1      10.390 -47.425  38.755  1.00  0.00     0.146 A 
ATOM     11  O   UNL     1       9.122 -47.772  38.936  1.00  0.00    -0.452 OA
ENDROOT
BRANCH   1  12
ATOM     12  C   UNL     1       6.796 -48.020  38.349  1.00  0.00     0.025 A 
ATOM     13  C   UNL     1       6.062 -47.367  39.352  1.00  0.00     0.016 A 
ATOM     14  C   UNL     1       4.774 -47.797  39.679  1.00  0.00     0.051 A 
ATOM     15  C   UNL     1       4.205 -48.892  39.021  1.00  0.00     0.157 A 
ATOM     16  C   UNL     1       6.231 -49.133  37.702  1.00  0.00     0.062 A 
ATOM     17  C   UNL     1       4.938 -49.567  38.030  1.00  0.00     0.158 A 
BRANCH  15  18
ATOM     18  O   UNL     1       2.916 -49.296  39.367  1.00  0.00    -0.504 OA
ATOM     19  H   UNL     1       2.152 -49.283  38.703  1.00  0.00     0.293 HD
ENDBRANCH  15  18
BRANCH  17  20
ATOM     20  O   UNL     1       4.382 -50.668  37.380  1.00  0.00    -0.504 OA
ATOM     21  H   UNL     1       4.285 -50.696  36.372  1.00  0.00     0.293 HD
ENDBRANCH  17  20
ENDBRANCH   1  12
BRANCH   2  22
ATOM     22  O   UNL     1       7.467 -46.583  35.924  1.00  0.00    -0.502 OA
ATOM     23  H   UNL     1       7.131 -47.250  35.239  1.00  0.00     0.293 HD
ENDBRANCH   2  22
BRANCH   6  24
ATOM     24  O   UNL     1      12.755 -46.003  36.208  1.00  0.00    -0.507 OA
ATOM     25  H   UNL     1      13.172 -45.089  36.113  1.00  0.00     0.293 HD
ENDBRANCH   6  24
BRANCH   8  26
ATOM     26  O   UNL     1      13.531 -47.555  40.685  1.00  0.00    -0.508 OA
ATOM     27  H   UNL     1      14.393 -48.069  40.542  1.00  0.00     0.293 HD
ENDBRANCH   8  26
TORSDOF 6
ENDMDL
MODEL 5
REMARK VINA RESULT:    -7.767      4.113      8.026
REMARK INTER + INTRA:          -9.658
REMARK INTER:                  -9.444
REMARK INTRA:                  -0.214
REMARK UNBOUND:                -0.301
REMARK SMILES O=c1c(O)c(-c2ccc(O)c(O)c2)oc2cc(O)cc(O)c12
REMARK SMILES IDX 5 1 3 2 2 3 1 4 22 5 20 6 19 7 17 8 16 9 15 10 14 11 6 12
REMARK SMILES IDX 7 13 8 14 9 15 13 16 11 17 10 18 12 20 4 22 21 24 18 26
REMARK H PARENT 10 19 12 21 4 23 21 25 18 27
REMARK Flexibility Score: inf
ROOT
ATOM      1  C   UNL     1       7.053 -47.919  34.662  1.00  0.00     0.180 A 
ATOM      2  C   UNL     1       8.320 -47.432  34.297  1.00  0.00     0.208 A 
ATOM      3  C   UNL     1       8.433 -46.598  33.173  1.00  0.00     0.238 A 
ATOM      4  O   UNL     1       9.577 -46.210  32.820  1.00  0.00    -0.285 OA
ATOM      5  C   UNL     1       7.274 -46.248  32.438  1.00  0.00     0.111 A 
ATOM      6  C   UNL     1       7.266 -45.377  31.306  1.00  0.00     0.134 A 
ATOM      7  C   UNL     1       6.083 -45.206  30.577  1.00  0.00     0.093 A 
ATOM      8  C   UNL     1       4.894 -45.821  30.977  1.00  0.00     0.123 A 
ATOM      9  C   UNL     1       4.879 -46.625  32.114  1.00  0.00     0.094 A 
ATOM     10  C   UNL     1       6.052 -46.844  32.842  1.00  0.00     0.146 A 
ATOM     11  O   UNL     1       5.996 -47.625  33.913  1.00  0.00    -0.452 OA
ENDROOT
BRANCH   1  12
ATOM     12  C   UNL     1       6.852 -48.782  35.848  1.00  0.00     0.025 A 
ATOM     13  C   UNL     1       7.024 -48.242  37.133  1.00  0.00     0.016 A 
ATOM     14  C   UNL     1       6.860 -49.043  38.265  1.00  0.00     0.051 A 
ATOM     15  C   UNL     1       6.537 -50.397  38.132  1.00  0.00     0.157 A 
ATOM     16  C   UNL     1       6.547 -50.149  35.716  1.00  0.00     0.062 A 
ATOM     17  C   UNL     1       6.383 -50.955  36.851  1.00  0.00     0.158 A 
BRANCH  15  18
ATOM     18  O   UNL     1       6.377 -51.172  39.280  1.00  0.00    -0.504 OA
ATOM     19  H   UNL     1       6.422 -52.183  39.258  1.00  0.00     0.293 HD
ENDBRANCH  15  18
BRANCH  17  20
ATOM     20  O   UNL     1       6.075 -52.308  36.712  1.00  0.00    -0.504 OA
ATOM     21  H   UNL     1       5.196 -52.689  37.042  1.00  0.00     0.293 HD
ENDBRANCH  17  20
ENDBRANCH   1  12
BRANCH   2  22
ATOM     22  O   UNL     1       9.453 -47.808  35.025  1.00  0.00    -0.502 OA
ATOM     23  H   UNL     1       9.438 -48.555  35.708  1.00  0.00     0.293 HD
ENDBRANCH   2  22
BRANCH   6  24
ATOM     24  O   UNL     1       8.375 -44.643  30.877  1.00  0.00    -0.507 OA
ATOM     25  H   UNL     1       8.741 -43.828  31.346  1.00  0.00     0.293 HD
ENDBRANCH   6  24
BRANCH   8  26
ATOM     26  O   UNL     1       3.717 -45.632  30.254  1.00  0.00    -0.508 OA
ATOM     27  H   UNL     1       3.513 -44.752  29.796  1.00  0.00     0.293 HD
ENDBRANCH   8  26
TORSDOF 6
ENDMDL
MODEL 6
REMARK VINA RESULT:    -7.686      1.655      7.102
REMARK INTER + INTRA:          -9.559
REMARK INTER:                  -9.525
REMARK INTRA:                  -0.035
REMARK UNBOUND:                -0.301
REMARK SMILES O=c1c(O)c(-c2ccc(O)c(O)c2)oc2cc(O)cc(O)c12
REMARK SMILES IDX 5 1 3 2 2 3 1 4 22 5 20 6 19 7 17 8 16 9 15 10 14 11 6 12
REMARK SMILES IDX 7 13 8 14 9 15 13 16 11 17 10 18 12 20 4 22 21 24 18 26
REMARK H PARENT 10 19 12 21 4 23 21 25 18 27
REMARK Flexibility Score: inf
ROOT
ATOM      1  C   UNL     1       9.258 -46.579  35.490  1.00  0.00     0.180 A 
ATOM      2  C   UNL     1       8.587 -47.699  34.968  1.00  0.00     0.208 A 
ATOM      3  C   UNL     1       7.836 -47.555  33.791  1.00  0.00     0.238 A 
ATOM      4  O   UNL     1       7.193 -48.548  33.359  1.00  0.00    -0.285 OA
ATOM      5  C   UNL     1       7.778 -46.298  33.141  1.00  0.00     0.111 A 
ATOM      6  C   UNL     1       7.080 -46.049  31.921  1.00  0.00     0.134 A 
ATOM      7  C   UNL     1       6.982 -44.738  31.438  1.00  0.00     0.093 A 
ATOM      8  C   UNL     1       7.612 -43.678  32.096  1.00  0.00     0.123 A 
ATOM      9  C   UNL     1       8.345 -43.922  33.255  1.00  0.00     0.094 A 
ATOM     10  C   UNL     1       8.431 -45.213  33.781  1.00  0.00     0.146 A 
ATOM     11  O   UNL     1       9.130 -45.400  34.893  1.00  0.00    -0.452 OA
ENDROOT
BRANCH   1  12
ATOM     12  C   UNL     1      10.089 -46.658  36.713  1.00  0.00     0.025 A 
ATOM     13  C   UNL     1       9.517 -47.120  37.909  1.00  0.00     0.016 A 
ATOM     14  C   UNL     1      10.277 -47.182  39.079  1.00  0.00     0.051 A 
ATOM     15  C   UNL     1      11.613 -46.771  39.077  1.00  0.00     0.157 A 
ATOM     16  C   UNL     1      11.428 -46.225  36.718  1.00  0.00     0.062 A 
ATOM     17  C   UNL     1      12.192 -46.287  37.892  1.00  0.00     0.158 A 
BRANCH  15  18
ATOM     18  O   UNL     1      12.348 -46.848  40.260  1.00  0.00    -0.504 OA
ATOM     19  H   UNL     1      12.206 -47.589  40.934  1.00  0.00     0.293 HD
ENDBRANCH  15  18
BRANCH  17  20
ATOM     20  O   UNL     1      13.520 -45.862  37.887  1.00  0.00    -0.504 OA
ATOM     21  H   UNL     1      14.231 -46.348  37.353  1.00  0.00     0.293 HD
ENDBRANCH  17  20
ENDBRANCH   1  12
BRANCH   2  22
ATOM     22  O   UNL     1       8.640 -48.924  35.638  1.00  0.00    -0.502 OA
ATOM     23  H   UNL     1       9.359 -49.614  35.455  1.00  0.00     0.293 HD
ENDBRANCH   2  22
BRANCH   6  24
ATOM     24  O   UNL     1       6.495 -47.048  31.138  1.00  0.00    -0.507 OA
ATOM     25  H   UNL     1       5.516 -47.091  30.899  1.00  0.00     0.293 HD
ENDBRANCH   6  24
BRANCH   8  26
ATOM     26  O   UNL     1       7.522 -42.380  31.600  1.00  0.00    -0.508 OA
ATOM     27  H   UNL     1       8.331 -41.772  31.556  1.00  0.00     0.293 HD
ENDBRANCH   8  26
TORSDOF 6
ENDMDL
MODEL 7
REMARK VINA RESULT:    -7.676      3.850      6.931
REMARK INTER + INTRA:          -9.548
REMARK INTER:                  -9.404
REMARK INTRA:                  -0.144
REMARK UNBOUND:                -0.301
REMARK SMILES O=c1c(O)c(-c2ccc(O)c(O)c2)oc2cc(O)cc(O)c12
REMARK SMILES IDX 5 1 3 2 2 3 1 4 22 5 20 6 19 7 17 8 16 9 15 10 14 11 6 12
REMARK SMILES IDX 7 13 8 14 9 15 13 16 11 17 10 18 12 20 4 22 21 24 18 26
REMARK H PARENT 10 19 12 21 4 23 21 25 18 27
REMARK Flexibility Score: inf
ROOT
ATOM      1  C   UNL     1       8.297 -47.843  37.731  1.00  0.00     0.180 A 
ATOM      2  C   UNL     1       7.332 -47.503  38.695  1.00  0.00     0.208 A 
ATOM      3  C   UNL     1       6.104 -48.183  38.698  1.00  0.00     0.238 A 
ATOM      4  O   UNL     1       5.223 -47.837  39.528  1.00  0.00    -0.285 OA
ATOM      5  C   UNL     1       5.863 -49.206  37.749  1.00  0.00     0.111 A 
ATOM      6  C   UNL     1       4.670 -49.988  37.687  1.00  0.00     0.134 A 
ATOM      7  C   UNL     1       4.487 -50.883  36.625  1.00  0.00     0.093 A 
ATOM      8  C   UNL     1       5.481 -51.072  35.662  1.00  0.00     0.123 A 
ATOM      9  C   UNL     1       6.673 -50.356  35.748  1.00  0.00     0.094 A 
ATOM     10  C   UNL     1       6.870 -49.429  36.775  1.00  0.00     0.146 A 
ATOM     11  O   UNL     1       8.016 -48.761  36.814  1.00  0.00    -0.452 OA
ENDROOT
BRANCH   1  12
ATOM     12  C   UNL     1       9.625 -47.187  37.680  1.00  0.00     0.025 A 
ATOM     13  C   UNL     1      10.027 -46.534  36.505  1.00  0.00     0.016 A 
ATOM     14  C   UNL     1      11.283 -45.928  36.427  1.00  0.00     0.051 A 
ATOM     15  C   UNL     1      12.160 -45.977  37.515  1.00  0.00     0.157 A 
ATOM     16  C   UNL     1      10.516 -47.254  38.766  1.00  0.00     0.062 A 
ATOM     17  C   UNL     1      11.778 -46.646  38.690  1.00  0.00     0.158 A 
BRANCH  15  18
ATOM     18  O   UNL     1      13.407 -45.360  37.409  1.00  0.00    -0.504 OA
ATOM     19  H   UNL     1      14.213 -45.684  37.929  1.00  0.00     0.293 HD
ENDBRANCH  15  18
BRANCH  17  20
ATOM     20  O   UNL     1      12.653 -46.711  39.773  1.00  0.00    -0.504 OA
ATOM     21  H   UNL     1      13.354 -45.996  39.933  1.00  0.00     0.293 HD
ENDBRANCH  17  20
ENDBRANCH   1  12
BRANCH   2  22
ATOM     22  O   UNL     1       7.582 -46.475  39.608  1.00  0.00    -0.502 OA
ATOM     23  H   UNL     1       7.349 -46.551  40.591  1.00  0.00     0.293 HD
ENDBRANCH   2  22
BRANCH   6  24
ATOM     24  O   UNL     1       3.656 -49.945  38.648  1.00  0.00    -0.507 OA
ATOM     25  H   UNL     1       3.765 -50.225  39.611  1.00  0.00     0.293 HD
ENDBRANCH   6  24
BRANCH   8  26
ATOM     26  O   UNL     1       5.296 -51.976  34.618  1.00  0.00    -0.508 OA
ATOM     27  H   UNL     1       6.081 -52.423  34.159  1.00  0.00     0.293 HD
ENDBRANCH   8  26
TORSDOF 6
ENDMDL
MODEL 8
REMARK VINA RESULT:    -7.595      4.378      6.786
REMARK INTER + INTRA:          -9.451
REMARK INTER:                  -9.139
REMARK INTRA:                  -0.312
REMARK UNBOUND:                -0.301
REMARK SMILES O=c1c(O)c(-c2ccc(O)c(O)c2)oc2cc(O)cc(O)c12
REMARK SMILES IDX 5 1 3 2 2 3 1 4 22 5 20 6 19 7 17 8 16 9 15 10 14 11 6 12
REMARK SMILES IDX 7 13 8 14 9 15 13 16 11 17 10 18 12 20 4 22 21 24 18 26
REMARK H PARENT 10 19 12 21 4 23 21 25 18 27
REMARK Flexibility Score: inf
ROOT
ATOM      1  C   UNL     1       6.768 -48.686  35.233  1.00  0.00     0.180 A 
ATOM      2  C   UNL     1       7.830 -48.408  36.111  1.00  0.00     0.208 A 
ATOM      3  C   UNL     1       8.787 -47.451  35.740  1.00  0.00     0.238 A 
ATOM      4  O   UNL     1       9.765 -47.245  36.506  1.00  0.00    -0.285 OA
ATOM      5  C   UNL     1       8.662 -46.770  34.504  1.00  0.00     0.111 A 
ATOM      6  C   UNL     1       9.551 -45.752  34.047  1.00  0.00     0.134 A 
ATOM      7  C   UNL     1       9.406 -45.241  32.751  1.00  0.00     0.093 A 
ATOM      8  C   UNL     1       8.364 -45.663  31.922  1.00  0.00     0.123 A 
ATOM      9  C   UNL     1       7.455 -46.614  32.383  1.00  0.00     0.094 A 
ATOM     10  C   UNL     1       7.596 -47.169  33.657  1.00  0.00     0.146 A 
ATOM     11  O   UNL     1       6.715 -48.079  34.053  1.00  0.00    -0.452 OA
ENDROOT
BRANCH   1  12
ATOM     12  C   UNL     1       5.707 -49.664  35.564  1.00  0.00     0.025 A 
ATOM     13  C   UNL     1       4.628 -49.267  36.370  1.00  0.00     0.016 A 
ATOM     14  C   UNL     1       3.627 -50.179  36.712  1.00  0.00     0.051 A 
ATOM     15  C   UNL     1       3.695 -51.503  36.268  1.00  0.00     0.157 A 
ATOM     16  C   UNL     1       5.785 -51.002  35.136  1.00  0.00     0.062 A 
ATOM     17  C   UNL     1       4.781 -51.919  35.480  1.00  0.00     0.158 A 
BRANCH  15  18
ATOM     18  O   UNL     1       2.680 -52.391  36.624  1.00  0.00    -0.504 OA
ATOM     19  H   UNL     1       2.779 -53.393  36.517  1.00  0.00     0.293 HD
ENDBRANCH  15  18
BRANCH  17  20
ATOM     20  O   UNL     1       4.862 -53.242  35.045  1.00  0.00    -0.504 OA
ATOM     21  H   UNL     1       5.715 -53.780  35.141  1.00  0.00     0.293 HD
ENDBRANCH  17  20
ENDBRANCH   1  12
BRANCH   2  22
ATOM     22  O   UNL     1       7.946 -49.107  37.316  1.00  0.00    -0.502 OA
ATOM     23  H   UNL     1       7.141 -49.374  37.870  1.00  0.00     0.293 HD
ENDBRANCH   2  22
BRANCH   6  24
ATOM     24  O   UNL     1      10.568 -45.194  34.827  1.00  0.00    -0.507 OA
ATOM     25  H   UNL     1      11.488 -44.958  34.488  1.00  0.00     0.293 HD
ENDBRANCH   6  24
BRANCH   8  26
ATOM     26  O   UNL     1       8.217 -45.138  30.640  1.00  0.00    -0.508 OA
ATOM     27  H   UNL     1       7.304 -44.929  30.254  1.00  0.00     0.293 HD
ENDBRANCH   8  26
TORSDOF 6
ENDMDL
MODEL 9
REMARK VINA RESULT:    -7.408      4.268      7.134
REMARK INTER + INTRA:          -9.225
REMARK INTER:                  -9.034
REMARK INTRA:                  -0.191
REMARK UNBOUND:                -0.301
REMARK SMILES O=c1c(O)c(-c2ccc(O)c(O)c2)oc2cc(O)cc(O)c12
REMARK SMILES IDX 5 1 3 2 2 3 1 4 22 5 20 6 19 7 17 8 16 9 15 10 14 11 6 12
REMARK SMILES IDX 7 13 8 14 9 15 13 16 11 17 10 18 12 20 4 22 21 24 18 26
REMARK H PARENT 10 19 12 21 4 23 21 25 18 27
REMARK Flexibility Score: inf
ROOT
ATOM      1  C   UNL     1       7.764 -47.931  38.013  1.00  0.00     0.180 A 
ATOM      2  C   UNL     1       7.361 -49.106  37.356  1.00  0.00     0.208 A 
ATOM      3  C   UNL     1       6.084 -49.628  37.616  1.00  0.00     0.238 A 
ATOM      4  O   UNL     1       5.750 -50.710  37.066  1.00  0.00    -0.285 OA
ATOM      5  C   UNL     1       5.219 -48.959  38.516  1.00  0.00     0.111 A 
ATOM      6  C   UNL     1       3.889 -49.377  38.822  1.00  0.00     0.134 A 
ATOM      7  C   UNL     1       3.172 -48.714  39.827  1.00  0.00     0.093 A 
ATOM      8  C   UNL     1       3.713 -47.608  40.488  1.00  0.00     0.123 A 
ATOM      9  C   UNL     1       4.988 -47.157  40.154  1.00  0.00     0.094 A 
ATOM     10  C   UNL     1       5.742 -47.820  39.182  1.00  0.00     0.146 A 
ATOM     11  O   UNL     1       6.956 -47.364  38.901  1.00  0.00    -0.452 OA
ENDROOT
BRANCH   1  12
ATOM     12  C   UNL     1       9.086 -47.307  37.773  1.00  0.00     0.025 A 
ATOM     13  C   UNL     1       9.998 -47.192  38.833  1.00  0.00     0.016 A 
ATOM     14  C   UNL     1      11.242 -46.588  38.634  1.00  0.00     0.051 A 
ATOM     15  C   UNL     1      11.587 -46.077  37.378  1.00  0.00     0.157 A 
ATOM     16  C   UNL     1       9.426 -46.775  36.516  1.00  0.00     0.062 A 
ATOM     17  C   UNL     1      10.674 -46.167  36.314  1.00  0.00     0.158 A 
BRANCH  15  18
ATOM     18  O   UNL     1      12.837 -45.482  37.209  1.00  0.00    -0.504 OA
ATOM     19  H   UNL     1      13.699 -45.992  37.353  1.00  0.00     0.293 HD
ENDBRANCH  15  18
BRANCH  17  20
ATOM     20  O   UNL     1      11.006 -45.647  35.064  1.00  0.00    -0.504 OA
ATOM     21  H   UNL     1      11.666 -44.885  34.964  1.00  0.00     0.293 HD
ENDBRANCH  17  20
ENDBRANCH   1  12
BRANCH   2  22
ATOM     22  O   UNL     1       8.239 -49.762  36.488  1.00  0.00    -0.502 OA
ATOM     23  H   UNL     1       8.183 -49.663  35.482  1.00  0.00     0.293 HD
ENDBRANCH   2  22
BRANCH   6  24
ATOM     24  O   UNL     1       3.222 -50.409  38.158  1.00  0.00    -0.507 OA
ATOM     25  H   UNL     1       3.673 -51.205  37.733  1.00  0.00     0.293 HD
ENDBRANCH   6  24
BRANCH   8  26
ATOM     26  O   UNL     1       2.986 -46.945  41.475  1.00  0.00    -0.508 OA
ATOM     27  H   UNL     1       3.341 -46.108  41.922  1.00  0.00     0.293 HD
ENDBRANCH   8  26
TORSDOF 6
ENDMDL
