MODEL 1
REMARK VINA RESULT:    -2.900      0.000      0.000
REMARK INTER + INTRA:          -3.514
REMARK INTER:                  -3.409
REMARK INTRA:                  -0.105
REMARK UNBOUND:                -0.105
REMARK SMILES CCCCC(=O)[O-]
REMARK SMILES IDX 4 1 5 2 6 3 7 4 3 5 2 6 1 7
REMARK H PARENT
REMARK Flexibility Score: inf
ROOT
ATOM      1  C   UNL     1       6.308  40.289  14.836  1.00  0.00     0.053 C 
ENDROOT
BRANCH   1   2
ATOM      2  C   UNL     1       5.333  39.424  15.573  1.00  0.00     0.041 C 
ATOM      3  O   UNL     1       5.694  38.307  16.029  1.00  0.00    -0.550 OA
ATOM      4  O   UNL     1       4.032  39.865  15.784  1.00  0.00    -0.550 OA
ENDBRANCH   1   2
BRANCH   1   5
ATOM      5  C   UNL     1       7.649  40.405  15.579  1.00  0.00     0.006 C 
BRANCH   5   6
ATOM      6  C   UNL     1       8.839  39.775  14.832  1.00  0.00    -0.003 C 
ATOM      7  C   UNL     1       9.146  38.352  15.298  1.00  0.00     0.004 C 
ENDBRANCH   5   6
ENDBRANCH   1   5
TORSDOF 3
ENDMDL
MODEL 2
REMARK VINA RESULT:    -2.734      1.772      2.228
REMARK INTER + INTRA:          -3.318
REMARK INTER:                  -3.299
REMARK INTRA:                  -0.019
REMARK UNBOUND:                -0.105
REMARK SMILES CCCCC(=O)[O-]
REMARK SMILES IDX 4 1 5 2 6 3 7 4 3 5 2 6 1 7
REMARK H PARENT
REMARK Flexibility Score: inf
ROOT
ATOM      1  C   UNL     1       8.059  40.138  14.860  1.00  0.00     0.053 C 
ENDROOT
BRANCH   1   2
ATOM      2  C   UNL     1       6.860  40.849  15.410  1.00  0.00     0.041 C 
ATOM      3  O   UNL     1       7.004  41.875  16.125  1.00  0.00    -0.550 OA
ATOM      4  O   UNL     1       5.582  40.396  15.106  1.00  0.00    -0.550 OA
ENDBRANCH   1   2
BRANCH   1   5
ATOM      5  C   UNL     1       8.190  38.713  15.422  1.00  0.00     0.006 C 
BRANCH   5   6
ATOM      6  C   UNL     1       9.551  38.050  15.142  1.00  0.00    -0.003 C 
ATOM      7  C   UNL     1      10.692  38.673  15.945  1.00  0.00     0.004 C 
ENDBRANCH   5   6
ENDBRANCH   1   5
TORSDOF 3
ENDMDL
MODEL 3
REMARK VINA RESULT:    -2.613      1.420      2.137
REMARK INTER + INTRA:          -3.176
REMARK INTER:                  -3.070
REMARK INTRA:                  -0.106
REMARK UNBOUND:                -0.105
REMARK SMILES CCCCC(=O)[O-]
REMARK SMILES IDX 4 1 5 2 6 3 7 4 3 5 2 6 1 7
REMARK H PARENT
REMARK Flexibility Score: inf
ROOT
ATOM      1  C   UNL     1       5.579  37.895  15.353  1.00  0.00     0.053 C 
ENDROOT
BRANCH   1   2
ATOM      2  C   UNL     1       4.279  38.558  15.691  1.00  0.00     0.041 C 
ATOM      3  O   UNL     1       4.263  39.745  16.110  1.00  0.00    -0.550 OA
ATOM      4  O   UNL     1       3.082  37.875  15.513  1.00  0.00    -0.550 OA
ENDBRANCH   1   2
BRANCH   1   5
ATOM      5  C   UNL     1       6.761  38.529  16.104  1.00  0.00     0.006 C 
BRANCH   5   6
ATOM      6  C   UNL     1       7.737  39.304  15.200  1.00  0.00    -0.003 C 
ATOM      7  C   UNL     1       7.648  40.818  15.389  1.00  0.00     0.004 C 
ENDBRANCH   5   6
ENDBRANCH   1   5
TORSDOF 3
ENDMDL
MODEL 4
REMARK VINA RESULT:    -2.486      2.429      3.466
REMARK INTER + INTRA:          -3.027
REMARK INTER:                  -2.976
REMARK INTRA:                  -0.051
REMARK UNBOUND:                -0.105
REMARK SMILES CCCCC(=O)[O-]
REMARK SMILES IDX 4 1 5 2 6 3 7 4 3 5 2 6 1 7
REMARK H PARENT
REMARK Flexibility Score: inf
ROOT
ATOM      1  C   UNL     1       6.350  40.118  15.007  1.00  0.00     0.053 C 
ENDROOT
BRANCH   1   2
ATOM      2  C   UNL     1       7.344  40.932  15.777  1.00  0.00     0.041 C 
ATOM      3  O   UNL     1       8.462  40.441  16.087  1.00  0.00    -0.550 OA
ATOM      4  O   UNL     1       7.049  42.244  16.125  1.00  0.00    -0.550 OA
ENDBRANCH   1   2
BRANCH   1   5
ATOM      5  C   UNL     1       6.435  38.624  15.359  1.00  0.00     0.006 C 
BRANCH   5   6
ATOM      6  C   UNL     1       5.072  37.967  15.648  1.00  0.00    -0.003 C 
ATOM      7  C   UNL     1       3.935  38.982  15.758  1.00  0.00     0.004 C 
ENDBRANCH   5   6
ENDBRANCH   1   5
TORSDOF 3
ENDMDL
MODEL 5
REMARK VINA RESULT:    -1.154      2.243      4.082
REMARK INTER + INTRA:          -1.461
REMARK INTER:                  -1.445
REMARK INTRA:                  -0.017
REMARK UNBOUND:                -0.105
REMARK SMILES CCCCC(=O)[O-]
REMARK SMILES IDX 4 1 5 2 6 3 7 4 3 5 2 6 1 7
REMARK H PARENT
REMARK Flexibility Score: inf
ROOT
ATOM      1  C   UNL     1       5.347  40.026  14.380  1.00  0.00     0.053 C 
ENDROOT
BRANCH   1   2
ATOM      2  C   UNL     1       6.618  40.367  15.094  1.00  0.00     0.041 C 
ATOM      3  O   UNL     1       6.621  41.243  16.000  1.00  0.00    -0.550 OA
ATOM      4  O   UNL     1       7.794  39.696  14.784  1.00  0.00    -0.550 OA
ENDBRANCH   1   2
BRANCH   1   5
ATOM      5  C   UNL     1       4.211  39.686  15.358  1.00  0.00     0.006 C 
BRANCH   5   6
ATOM      6  C   UNL     1       3.386  38.448  14.958  1.00  0.00    -0.003 C 
ATOM      7  C   UNL     1       2.573  37.876  16.119  1.00  0.00     0.004 C 
ENDBRANCH   5   6
ENDBRANCH   1   5
TORSDOF 3
ENDMDL
MODEL 6
REMARK VINA RESULT:    -0.144      8.503      9.199
REMARK INTER + INTRA:          -0.274
REMARK INTER:                  -0.247
REMARK INTRA:                  -0.027
REMARK UNBOUND:                -0.105
REMARK SMILES CCCCC(=O)[O-]
REMARK SMILES IDX 4 1 5 2 6 3 7 4 3 5 2 6 1 7
REMARK H PARENT
REMARK Flexibility Score: inf
ROOT
ATOM      1  C   UNL     1       6.836  42.709   7.226  1.00  0.00     0.053 C 
ENDROOT
BRANCH   1   2
ATOM      2  C   UNL     1       8.134  42.276   6.618  1.00  0.00     0.041 C 
ATOM      3  O   UNL     1       8.190  41.226   5.925  1.00  0.00    -0.550 OA
ATOM      4  O   UNL     1       9.275  43.050   6.788  1.00  0.00    -0.550 OA
ENDBRANCH   1   2
BRANCH   1   5
ATOM      5  C   UNL     1       6.780  42.412   8.734  1.00  0.00     0.006 C 
BRANCH   5   6
ATOM      6  C   UNL     1       5.469  42.848   9.413  1.00  0.00    -0.003 C 
ATOM      7  C   UNL     1       4.454  43.428   8.429  1.00  0.00     0.004 C 
ENDBRANCH   5   6
ENDBRANCH   1   5
TORSDOF 3
ENDMDL
