MODEL 1
REMARK VINA RESULT:    -3.852      0.000      0.000
REMARK INTER + INTRA:          -4.204
REMARK INTER:                  -4.190
REMARK INTRA:                  -0.014
REMARK UNBOUND:                -0.014
REMARK SMILES OCc1ccco1
REMARK SMILES IDX 2 1 3 2 5 3 6 4 4 5 7 6 1 7
REMARK H PARENT 1 8
REMARK Flexibility Score: inf
ROOT
ATOM      1  C   UNL     1       2.410  -4.233 -21.336  1.00  0.00     0.231 C 
ENDROOT
BRANCH   1   2
ATOM      2  C   UNL     1       3.581  -3.338 -21.592  1.00  0.00     0.129 A 
ATOM      3  C   UNL     1       4.945  -1.617 -21.606  1.00  0.00     0.042 A 
ATOM      4  C   UNL     1       5.506  -2.702 -22.252  1.00  0.00     0.195 A 
ATOM      5  C   UNL     1       3.702  -2.028 -21.177  1.00  0.00     0.048 A 
ATOM      6  O   UNL     1       4.670  -3.714 -22.224  1.00  0.00    -0.467 OA
ENDBRANCH   1   2
BRANCH   1   7
ATOM      7  O   UNL     1       2.364  -4.587 -19.981  1.00  0.00    -0.388 OA
ATOM      8  H   UNL     1       1.534  -5.118 -19.855  1.00  0.00     0.211 HD
ENDBRANCH   1   7
TORSDOF 2
ENDMDL
MODEL 2
REMARK VINA RESULT:    -3.809      1.144      1.481
REMARK INTER + INTRA:          -4.157
REMARK INTER:                  -4.142
REMARK INTRA:                  -0.015
REMARK UNBOUND:                -0.014
REMARK SMILES OCc1ccco1
REMARK SMILES IDX 2 1 3 2 5 3 6 4 4 5 7 6 1 7
REMARK H PARENT 1 8
REMARK Flexibility Score: inf
ROOT
ATOM      1  C   UNL     1       2.548  -4.084 -21.374  1.00  0.00     0.231 C 
ENDROOT
BRANCH   1   2
ATOM      2  C   UNL     1       3.583  -3.005 -21.419  1.00  0.00     0.129 A 
ATOM      3  C   UNL     1       5.386  -1.844 -21.893  1.00  0.00     0.042 A 
ATOM      4  C   UNL     1       4.528  -1.125 -21.083  1.00  0.00     0.195 A 
ATOM      5  C   UNL     1       4.774  -3.058 -22.114  1.00  0.00     0.048 A 
ATOM      6  O   UNL     1       3.461  -1.843 -20.820  1.00  0.00    -0.467 OA
ENDBRANCH   1   2
BRANCH   1   7
ATOM      7  O   UNL     1       2.422  -4.573 -20.068  1.00  0.00    -0.388 OA
ATOM      8  H   UNL     1       1.448  -4.643 -19.884  1.00  0.00     0.211 HD
ENDBRANCH   1   7
TORSDOF 2
ENDMDL
MODEL 3
REMARK VINA RESULT:    -3.796      0.970      1.498
REMARK INTER + INTRA:          -4.142
REMARK INTER:                  -4.129
REMARK INTRA:                  -0.014
REMARK UNBOUND:                -0.014
REMARK SMILES OCc1ccco1
REMARK SMILES IDX 2 1 3 2 5 3 6 4 4 5 7 6 1 7
REMARK H PARENT 1 8
REMARK Flexibility Score: inf
ROOT
ATOM      1  C   UNL     1       2.287  -4.135 -21.291  1.00  0.00     0.231 C 
ENDROOT
BRANCH   1   2
ATOM      2  C   UNL     1       3.616  -3.629 -21.753  1.00  0.00     0.129 A 
ATOM      3  C   UNL     1       5.547  -3.435 -22.781  1.00  0.00     0.042 A 
ATOM      4  C   UNL     1       5.279  -2.321 -22.010  1.00  0.00     0.195 A 
ATOM      5  C   UNL     1       4.471  -4.280 -22.618  1.00  0.00     0.048 A 
ATOM      6  O   UNL     1       4.119  -2.465 -21.412  1.00  0.00    -0.467 OA
ENDBRANCH   1   2
BRANCH   1   7
ATOM      7  O   UNL     1       2.379  -4.589 -19.969  1.00  0.00    -0.388 OA
ATOM      8  H   UNL     1       1.448  -4.740 -19.655  1.00  0.00     0.211 HD
ENDBRANCH   1   7
TORSDOF 2
ENDMDL
MODEL 4
REMARK VINA RESULT:    -3.703      1.420      2.816
REMARK INTER + INTRA:          -4.041
REMARK INTER:                  -4.022
REMARK INTRA:                  -0.019
REMARK UNBOUND:                -0.014
REMARK SMILES OCc1ccco1
REMARK SMILES IDX 2 1 3 2 5 3 6 4 4 5 7 6 1 7
REMARK H PARENT 1 8
REMARK Flexibility Score: inf
ROOT
ATOM      1  C   UNL     1       6.064  -3.936 -23.140  1.00  0.00     0.231 C 
ENDROOT
BRANCH   1   2
ATOM      2  C   UNL     1       5.176  -3.091 -22.281  1.00  0.00     0.129 A 
ATOM      3  C   UNL     1       4.350  -1.419 -21.123  1.00  0.00     0.042 A 
ATOM      4  C   UNL     1       3.471  -2.484 -21.157  1.00  0.00     0.195 A 
ATOM      5  C   UNL     1       5.451  -1.809 -21.852  1.00  0.00     0.048 A 
ATOM      6  O   UNL     1       3.991  -3.465 -21.858  1.00  0.00    -0.467 OA
ENDBRANCH   1   2
BRANCH   1   7
ATOM      7  O   UNL     1       5.299  -4.621 -24.092  1.00  0.00    -0.388 OA
ATOM      8  H   UNL     1       4.379  -4.250 -24.037  1.00  0.00     0.211 HD
ENDBRANCH   1   7
TORSDOF 2
ENDMDL
MODEL 5
REMARK VINA RESULT:    -3.641     13.207     14.435
REMARK INTER + INTRA:          -3.974
REMARK INTER:                  -3.960
REMARK INTRA:                  -0.014
REMARK UNBOUND:                -0.014
REMARK SMILES OCc1ccco1
REMARK SMILES IDX 2 1 3 2 5 3 6 4 4 5 7 6 1 7
REMARK H PARENT 1 8
REMARK Flexibility Score: inf
ROOT
ATOM      1  C   UNL     1       7.311  11.483 -24.025  1.00  0.00     0.231 C 
ENDROOT
BRANCH   1   2
ATOM      2  C   UNL     1       6.211  10.715 -23.363  1.00  0.00     0.129 A 
ATOM      3  C   UNL     1       5.076   9.157 -22.311  1.00  0.00     0.042 A 
ATOM      4  C   UNL     1       4.296  10.274 -22.538  1.00  0.00     0.195 A 
ATOM      5  C   UNL     1       6.316   9.443 -22.841  1.00  0.00     0.048 A 
ATOM      6  O   UNL     1       5.002  11.188 -23.164  1.00  0.00    -0.467 OA
ENDBRANCH   1   2
BRANCH   1   7
ATOM      7  O   UNL     1       8.085  12.141 -23.060  1.00  0.00    -0.388 OA
ATOM      8  H   UNL     1       8.197  13.076 -23.376  1.00  0.00     0.211 HD
ENDBRANCH   1   7
TORSDOF 2
ENDMDL
MODEL 6
REMARK VINA RESULT:    -3.534     12.314     13.492
REMARK INTER + INTRA:          -3.857
REMARK INTER:                  -3.843
REMARK INTRA:                  -0.015
REMARK UNBOUND:                -0.014
REMARK SMILES OCc1ccco1
REMARK SMILES IDX 2 1 3 2 5 3 6 4 4 5 7 6 1 7
REMARK H PARENT 1 8
REMARK Flexibility Score: inf
ROOT
ATOM      1  C   UNL     1       5.998  11.240 -23.752  1.00  0.00     0.231 C 
ENDROOT
BRANCH   1   2
ATOM      2  C   UNL     1       5.740  10.021 -22.924  1.00  0.00     0.129 A 
ATOM      3  C   UNL     1       4.759   8.478 -21.708  1.00  0.00     0.042 A 
ATOM      4  C   UNL     1       6.080   8.154 -21.953  1.00  0.00     0.195 A 
ATOM      5  C   UNL     1       4.538   9.683 -22.338  1.00  0.00     0.048 A 
ATOM      6  O   UNL     1       6.637   9.093 -22.683  1.00  0.00    -0.467 OA
ENDBRANCH   1   2
BRANCH   1   7
ATOM      7  O   UNL     1       5.150  12.280 -23.353  1.00  0.00    -0.388 OA
ATOM      8  H   UNL     1       4.566  12.485 -24.131  1.00  0.00     0.211 HD
ENDBRANCH   1   7
TORSDOF 2
ENDMDL
MODEL 7
REMARK VINA RESULT:    -3.516     13.495     14.085
REMARK INTER + INTRA:          -3.838
REMARK INTER:                  -3.824
REMARK INTRA:                  -0.015
REMARK UNBOUND:                -0.014
REMARK SMILES OCc1ccco1
REMARK SMILES IDX 2 1 3 2 5 3 6 4 4 5 7 6 1 7
REMARK H PARENT 1 8
REMARK Flexibility Score: inf
ROOT
ATOM      1  C   UNL     1       2.600  11.504 -22.968  1.00  0.00     0.231 C 
ENDROOT
BRANCH   1   2
ATOM      2  C   UNL     1       3.978  10.921 -22.938  1.00  0.00     0.129 A 
ATOM      3  C   UNL     1       5.688   9.592 -22.575  1.00  0.00     0.042 A 
ATOM      4  C   UNL     1       6.056  10.679 -23.344  1.00  0.00     0.195 A 
ATOM      5  C   UNL     1       4.344   9.746 -22.315  1.00  0.00     0.048 A 
ATOM      6  O   UNL     1       5.014  11.452 -23.547  1.00  0.00    -0.467 OA
ENDBRANCH   1   2
BRANCH   1   7
ATOM      7  O   UNL     1       1.931  11.216 -21.772  1.00  0.00    -0.388 OA
ATOM      8  H   UNL     1       1.343  10.436 -21.956  1.00  0.00     0.211 HD
ENDBRANCH   1   7
TORSDOF 2
ENDMDL
MODEL 8
REMARK VINA RESULT:    -3.431      1.773      3.537
REMARK INTER + INTRA:          -3.745
REMARK INTER:                  -3.733
REMARK INTRA:                  -0.013
REMARK UNBOUND:                -0.014
REMARK SMILES OCc1ccco1
REMARK SMILES IDX 2 1 3 2 5 3 6 4 4 5 7 6 1 7
REMARK H PARENT 1 8
REMARK Flexibility Score: inf
ROOT
ATOM      1  C   UNL     1       5.715  -0.871 -21.559  1.00  0.00     0.231 C 
ENDROOT
BRANCH   1   2
ATOM      2  C   UNL     1       5.008  -2.162 -21.828  1.00  0.00     0.129 A 
ATOM      3  C   UNL     1       4.520  -4.177 -22.552  1.00  0.00     0.042 A 
ATOM      4  C   UNL     1       3.530  -3.694 -21.718  1.00  0.00     0.195 A 
ATOM      5  C   UNL     1       5.477  -3.189 -22.621  1.00  0.00     0.048 A 
ATOM      6  O   UNL     1       3.852  -2.491 -21.300  1.00  0.00    -0.467 OA
ENDBRANCH   1   2
BRANCH   1   7
ATOM      7  O   UNL     1       5.817  -0.125 -22.740  1.00  0.00    -0.388 OA
ATOM      8  H   UNL     1       4.935   0.310 -22.878  1.00  0.00     0.211 HD
ENDBRANCH   1   7
TORSDOF 2
ENDMDL
MODEL 9
REMARK VINA RESULT:    -3.388      3.008      4.519
REMARK INTER + INTRA:          -3.699
REMARK INTER:                  -3.684
REMARK INTRA:                  -0.014
REMARK UNBOUND:                -0.014
REMARK SMILES OCc1ccco1
REMARK SMILES IDX 2 1 3 2 5 3 6 4 4 5 7 6 1 7
REMARK H PARENT 1 8
REMARK Flexibility Score: inf
ROOT
ATOM      1  C   UNL     1       5.387  -2.496 -25.944  1.00  0.00     0.231 C 
ENDROOT
BRANCH   1   2
ATOM      2  C   UNL     1       4.858  -3.259 -24.771  1.00  0.00     0.129 A 
ATOM      3  C   UNL     1       4.713  -4.400 -22.900  1.00  0.00     0.042 A 
ATOM      4  C   UNL     1       3.460  -4.119 -23.411  1.00  0.00     0.195 A 
ATOM      5  C   UNL     1       5.617  -3.841 -23.777  1.00  0.00     0.048 A 
ATOM      6  O   UNL     1       3.580  -3.435 -24.525  1.00  0.00    -0.467 OA
ENDBRANCH   1   2
BRANCH   1   7
ATOM      7  O   UNL     1       5.184  -3.225 -27.122  1.00  0.00    -0.388 OA
ATOM      8  H   UNL     1       4.806  -4.104 -26.851  1.00  0.00     0.211 HD
ENDBRANCH   1   7
TORSDOF 2
ENDMDL
