MODEL 1
REMARK VINA RESULT:    -5.829      0.000      0.000
REMARK INTER + INTRA:          -6.992
REMARK INTER:                  -6.681
REMARK INTRA:                  -0.311
REMARK UNBOUND:                -0.311
REMARK SMILES O=C1C[C@@H](c2ccc(O)cc2)Oc2cc(O)cc(O)c21
REMARK SMILES IDX 3 1 4 2 12 3 13 4 14 5 15 6 17 7 18 8 20 9 2 10 1 11 5 12
REMARK SMILES IDX 6 13 11 14 7 15 10 16 8 17 9 18 19 20 16 22
REMARK H PARENT 9 19 19 21 16 23
REMARK Flexibility Score: inf
ROOT
ATOM      1  C   UNL     1      -8.815  -8.863  -2.396  1.00  0.00     0.131 C 
ATOM      2  C   UNL     1      -7.662  -8.067  -3.025  1.00  0.00     0.211 C 
ATOM      3  O   UNL     1      -7.443  -6.848  -2.309  1.00  0.00    -0.484 OA
ATOM      4  C   UNL     1      -7.523  -6.767  -0.911  1.00  0.00     0.138 A 
ATOM      5  C   UNL     1      -7.030  -5.629  -0.270  1.00  0.00     0.093 A 
ATOM      6  C   UNL     1      -7.082  -5.524   1.119  1.00  0.00     0.123 A 
ATOM      7  C   UNL     1      -7.658  -6.553   1.873  1.00  0.00     0.093 A 
ATOM      8  C   UNL     1      -8.195  -7.686   1.248  1.00  0.00     0.133 A 
ATOM      9  C   UNL     1      -8.100  -7.816  -0.163  1.00  0.00     0.102 A 
ATOM     10  C   UNL     1      -8.571  -9.000  -0.924  1.00  0.00     0.174 C 
ATOM     11  O   UNL     1      -8.715 -10.125  -0.375  1.00  0.00    -0.294 OA
ENDROOT
BRANCH   2  12
ATOM     12  C   UNL     1      -7.948  -7.769  -4.477  1.00  0.00    -0.007 A 
ATOM     13  C   UNL     1      -7.883  -8.795  -5.435  1.00  0.00     0.011 A 
ATOM     14  C   UNL     1      -8.338  -6.479  -4.880  1.00  0.00     0.011 A 
ATOM     15  C   UNL     1      -8.176  -8.529  -6.776  1.00  0.00     0.046 A 
ATOM     16  C   UNL     1      -8.631  -6.216  -6.221  1.00  0.00     0.046 A 
ATOM     17  C   UNL     1      -8.550  -7.241  -7.173  1.00  0.00     0.115 A 
BRANCH  17  18
ATOM     18  O   UNL     1      -8.840  -6.990  -8.513  1.00  0.00    -0.508 OA
ATOM     19  H   UNL     1      -8.135  -6.637  -9.149  1.00  0.00     0.293 HD
ENDBRANCH  17  18
ENDBRANCH   2  12
BRANCH   8  20
ATOM     20  O   UNL     1      -8.836  -8.624   2.059  1.00  0.00    -0.507 OA
ATOM     21  H   UNL     1      -8.920  -8.540   3.061  1.00  0.00     0.293 HD
ENDBRANCH   8  20
BRANCH   6  22
ATOM     22  O   UNL     1      -6.564  -4.391   1.744  1.00  0.00    -0.508 OA
ATOM     23  H   UNL     1      -7.118  -3.551   1.860  1.00  0.00     0.293 HD
ENDBRANCH   6  22
TORSDOF 4
ENDMDL
MODEL 2
REMARK VINA RESULT:    -5.414      2.948      4.903
REMARK INTER + INTRA:          -6.516
REMARK INTER:                  -6.229
REMARK INTRA:                  -0.287
REMARK UNBOUND:                -0.311
REMARK SMILES O=C1C[C@@H](c2ccc(O)cc2)Oc2cc(O)cc(O)c21
REMARK SMILES IDX 3 1 4 2 12 3 13 4 14 5 15 6 17 7 18 8 20 9 2 10 1 11 5 12
REMARK SMILES IDX 6 13 11 14 7 15 10 16 8 17 9 18 19 20 16 22
REMARK H PARENT 9 19 19 21 16 23
REMARK Flexibility Score: inf
ROOT
ATOM      1  C   UNL     1      -6.811  -6.307  -2.332  1.00  0.00     0.131 C 
ATOM      2  C   UNL     1      -5.985  -5.640  -1.223  1.00  0.00     0.211 C 
ATOM      3  O   UNL     1      -6.783  -5.443  -0.051  1.00  0.00    -0.484 OA
ATOM      4  C   UNL     1      -7.717  -6.388   0.396  1.00  0.00     0.138 A 
ATOM      5  C   UNL     1      -8.250  -6.257   1.680  1.00  0.00     0.093 A 
ATOM      6  C   UNL     1      -9.170  -7.189   2.159  1.00  0.00     0.123 A 
ATOM      7  C   UNL     1      -9.585  -8.243   1.336  1.00  0.00     0.093 A 
ATOM      8  C   UNL     1      -9.093  -8.370   0.031  1.00  0.00     0.133 A 
ATOM      9  C   UNL     1      -8.121  -7.450  -0.442  1.00  0.00     0.102 A 
ATOM     10  C   UNL     1      -7.481  -7.529  -1.778  1.00  0.00     0.174 C 
ATOM     11  O   UNL     1      -7.438  -8.606  -2.430  1.00  0.00    -0.294 OA
ENDROOT
BRANCH   2  12
ATOM     12  C   UNL     1      -5.424  -4.321  -1.694  1.00  0.00    -0.007 A 
ATOM     13  C   UNL     1      -6.131  -3.545  -2.629  1.00  0.00     0.011 A 
ATOM     14  C   UNL     1      -4.218  -3.827  -1.166  1.00  0.00     0.011 A 
ATOM     15  C   UNL     1      -5.628  -2.309  -3.045  1.00  0.00     0.046 A 
ATOM     16  C   UNL     1      -3.717  -2.590  -1.584  1.00  0.00     0.046 A 
ATOM     17  C   UNL     1      -4.421  -1.829  -2.526  1.00  0.00     0.115 A 
BRANCH  17  18
ATOM     18  O   UNL     1      -3.932  -0.594  -2.950  1.00  0.00    -0.508 OA
ATOM     19  H   UNL     1      -2.938  -0.428  -3.056  1.00  0.00     0.293 HD
ENDBRANCH  17  18
ENDBRANCH   2  12
BRANCH   8  20
ATOM     20  O   UNL     1      -9.625  -9.392  -0.759  1.00  0.00    -0.507 OA
ATOM     21  H   UNL     1      -9.716 -10.350  -0.455  1.00  0.00     0.293 HD
ENDBRANCH   8  20
BRANCH   6  22
ATOM     22  O   UNL     1      -9.674  -7.056   3.451  1.00  0.00    -0.508 OA
ATOM     23  H   UNL     1     -10.391  -7.678   3.807  1.00  0.00     0.293 HD
ENDBRANCH   6  22
TORSDOF 4
ENDMDL
MODEL 3
REMARK VINA RESULT:    -5.400      2.051      6.734
REMARK INTER + INTRA:          -6.501
REMARK INTER:                  -6.185
REMARK INTRA:                  -0.316
REMARK UNBOUND:                -0.311
REMARK SMILES O=C1C[C@@H](c2ccc(O)cc2)Oc2cc(O)cc(O)c21
REMARK SMILES IDX 3 1 4 2 12 3 13 4 14 5 15 6 17 7 18 8 20 9 2 10 1 11 5 12
REMARK SMILES IDX 6 13 11 14 7 15 10 16 8 17 9 18 19 20 16 22
REMARK H PARENT 9 19 19 21 16 23
REMARK Flexibility Score: inf
ROOT
ATOM      1  C   UNL     1      -7.795  -7.055   1.270  1.00  0.00     0.131 C 
ATOM      2  C   UNL     1      -7.402  -5.747   0.565  1.00  0.00     0.211 C 
ATOM      3  O   UNL     1      -7.008  -6.003  -0.786  1.00  0.00    -0.484 OA
ATOM      4  C   UNL     1      -7.661  -6.939  -1.600  1.00  0.00     0.138 A 
ATOM      5  C   UNL     1      -7.407  -6.935  -2.973  1.00  0.00     0.093 A 
ATOM      6  C   UNL     1      -8.052  -7.845  -3.812  1.00  0.00     0.123 A 
ATOM      7  C   UNL     1      -8.935  -8.785  -3.270  1.00  0.00     0.093 A 
ATOM      8  C   UNL     1      -9.174  -8.833  -1.890  1.00  0.00     0.133 A 
ATOM      9  C   UNL     1      -8.556  -7.878  -1.041  1.00  0.00     0.102 A 
ATOM     10  C   UNL     1      -8.789  -7.789   0.422  1.00  0.00     0.174 C 
ATOM     11  O   UNL     1      -9.825  -8.267   0.958  1.00  0.00    -0.294 OA
ENDROOT
BRANCH   2  12
ATOM     12  C   UNL     1      -6.286  -5.055   1.308  1.00  0.00    -0.007 A 
ATOM     13  C   UNL     1      -6.106  -5.279   2.683  1.00  0.00     0.011 A 
ATOM     14  C   UNL     1      -5.379  -4.225   0.624  1.00  0.00     0.011 A 
ATOM     15  C   UNL     1      -5.054  -4.662   3.368  1.00  0.00     0.046 A 
ATOM     16  C   UNL     1      -4.328  -3.610   1.311  1.00  0.00     0.046 A 
ATOM     17  C   UNL     1      -4.164  -3.827   2.686  1.00  0.00     0.115 A 
BRANCH  17  18
ATOM     18  O   UNL     1      -3.120  -3.219   3.380  1.00  0.00    -0.508 OA
ATOM     19  H   UNL     1      -2.396  -3.765   3.831  1.00  0.00     0.293 HD
ENDBRANCH  17  18
ENDBRANCH   2  12
BRANCH   8  20
ATOM     20  O   UNL     1      -9.994  -9.858  -1.415  1.00  0.00    -0.507 OA
ATOM     21  H   UNL     1      -9.654 -10.756  -1.106  1.00  0.00     0.293 HD
ENDBRANCH   8  20
BRANCH   6  22
ATOM     22  O   UNL     1      -7.803  -7.811  -5.182  1.00  0.00    -0.508 OA
ATOM     23  H   UNL     1      -7.960  -8.623  -5.769  1.00  0.00     0.293 HD
ENDBRANCH   6  22
TORSDOF 4
ENDMDL
MODEL 4
REMARK VINA RESULT:    -5.338      2.972      5.037
REMARK INTER + INTRA:          -6.429
REMARK INTER:                  -6.147
REMARK INTRA:                  -0.283
REMARK UNBOUND:                -0.311
REMARK SMILES O=C1C[C@@H](c2ccc(O)cc2)Oc2cc(O)cc(O)c21
REMARK SMILES IDX 3 1 4 2 12 3 13 4 14 5 15 6 17 7 18 8 20 9 2 10 1 11 5 12
REMARK SMILES IDX 6 13 11 14 7 15 10 16 8 17 9 18 19 20 16 22
REMARK H PARENT 9 19 19 21 16 23
REMARK Flexibility Score: inf
ROOT
ATOM      1  C   UNL     1      -6.630  -6.119  -2.345  1.00  0.00     0.131 C 
ATOM      2  C   UNL     1      -5.833  -5.476  -1.201  1.00  0.00     0.211 C 
ATOM      3  O   UNL     1      -6.650  -5.336  -0.034  1.00  0.00    -0.484 OA
ATOM      4  C   UNL     1      -7.571  -6.314   0.366  1.00  0.00     0.138 A 
ATOM      5  C   UNL     1      -8.124  -6.240   1.646  1.00  0.00     0.093 A 
ATOM      6  C   UNL     1      -9.032  -7.206   2.078  1.00  0.00     0.123 A 
ATOM      7  C   UNL     1      -9.415  -8.238   1.213  1.00  0.00     0.093 A 
ATOM      8  C   UNL     1      -8.903  -8.309  -0.088  1.00  0.00     0.133 A 
ATOM      9  C   UNL     1      -7.942  -7.354  -0.515  1.00  0.00     0.102 A 
ATOM     10  C   UNL     1      -7.283  -7.373  -1.844  1.00  0.00     0.174 C 
ATOM     11  O   UNL     1      -7.210  -8.425  -2.533  1.00  0.00    -0.294 OA
ENDROOT
BRANCH   2  12
ATOM     12  C   UNL     1      -5.292  -4.131  -1.618  1.00  0.00    -0.007 A 
ATOM     13  C   UNL     1      -4.053  -3.683  -1.128  1.00  0.00     0.011 A 
ATOM     14  C   UNL     1      -5.990  -3.334  -2.543  1.00  0.00     0.011 A 
ATOM     15  C   UNL     1      -3.535  -2.451  -1.535  1.00  0.00     0.046 A 
ATOM     16  C   UNL     1      -5.470  -2.102  -2.950  1.00  0.00     0.046 A 
ATOM     17  C   UNL     1      -4.241  -1.657  -2.445  1.00  0.00     0.115 A 
BRANCH  17  18
ATOM     18  O   UNL     1      -3.712  -0.430  -2.843  1.00  0.00    -0.508 OA
ATOM     19  H   UNL     1      -3.564  -0.210  -3.821  1.00  0.00     0.293 HD
ENDBRANCH  17  18
ENDBRANCH   2  12
BRANCH   8  20
ATOM     20  O   UNL     1      -9.403  -9.312  -0.921  1.00  0.00    -0.507 OA
ATOM     21  H   UNL     1     -10.287  -9.256  -1.405  1.00  0.00     0.293 HD
ENDBRANCH   8  20
BRANCH   6  22
ATOM     22  O   UNL     1      -9.556  -7.129   3.367  1.00  0.00    -0.508 OA
ATOM     23  H   UNL     1     -10.516  -6.847   3.533  1.00  0.00     0.293 HD
ENDBRANCH   6  22
TORSDOF 4
ENDMDL
MODEL 5
REMARK VINA RESULT:    -5.177      1.485      3.106
REMARK INTER + INTRA:          -6.245
REMARK INTER:                  -5.924
REMARK INTRA:                  -0.321
REMARK UNBOUND:                -0.311
REMARK SMILES O=C1C[C@@H](c2ccc(O)cc2)Oc2cc(O)cc(O)c21
REMARK SMILES IDX 3 1 4 2 12 3 13 4 14 5 15 6 17 7 18 8 20 9 2 10 1 11 5 12
REMARK SMILES IDX 6 13 11 14 7 15 10 16 8 17 9 18 19 20 16 22
REMARK H PARENT 9 19 19 21 16 23
REMARK Flexibility Score: inf
ROOT
ATOM      1  C   UNL     1      -7.879  -6.097  -3.782  1.00  0.00     0.131 C 
ATOM      2  C   UNL     1      -8.638  -7.408  -4.039  1.00  0.00     0.211 C 
ATOM      3  O   UNL     1      -8.384  -8.350  -2.993  1.00  0.00    -0.484 OA
ATOM      4  C   UNL     1      -8.291  -7.977  -1.645  1.00  0.00     0.138 A 
ATOM      5  C   UNL     1      -8.320  -8.971  -0.665  1.00  0.00     0.093 A 
ATOM      6  C   UNL     1      -8.244  -8.631   0.686  1.00  0.00     0.123 A 
ATOM      7  C   UNL     1      -8.108  -7.289   1.059  1.00  0.00     0.093 A 
ATOM      8  C   UNL     1      -8.036  -6.280   0.090  1.00  0.00     0.133 A 
ATOM      9  C   UNL     1      -8.161  -6.619  -1.283  1.00  0.00     0.102 A 
ATOM     10  C   UNL     1      -8.170  -5.628  -2.387  1.00  0.00     0.174 C 
ATOM     11  O   UNL     1      -8.468  -4.420  -2.192  1.00  0.00    -0.294 OA
ENDROOT
BRANCH   2  12
ATOM     12  C   UNL     1      -8.248  -7.996  -5.373  1.00  0.00    -0.007 A 
ATOM     13  C   UNL     1      -8.218  -7.188  -6.522  1.00  0.00     0.011 A 
ATOM     14  C   UNL     1      -7.857  -9.344  -5.473  1.00  0.00     0.011 A 
ATOM     15  C   UNL     1      -7.829  -7.724  -7.753  1.00  0.00     0.046 A 
ATOM     16  C   UNL     1      -7.467  -9.877  -6.705  1.00  0.00     0.046 A 
ATOM     17  C   UNL     1      -7.454  -9.068  -7.849  1.00  0.00     0.115 A 
BRANCH  17  18
ATOM     18  O   UNL     1      -7.068  -9.589  -9.083  1.00  0.00    -0.508 OA
ATOM     19  H   UNL     1      -7.229  -9.082  -9.945  1.00  0.00     0.293 HD
ENDBRANCH  17  18
ENDBRANCH   2  12
BRANCH   8  20
ATOM     20  O   UNL     1      -7.806  -4.977   0.537  1.00  0.00    -0.507 OA
ATOM     21  H   UNL     1      -8.534  -4.291   0.675  1.00  0.00     0.293 HD
ENDBRANCH   8  20
BRANCH   6  22
ATOM     22  O   UNL     1      -8.298  -9.635   1.651  1.00  0.00    -0.508 OA
ATOM     23  H   UNL     1      -7.459 -10.098   1.981  1.00  0.00     0.293 HD
ENDBRANCH   6  22
TORSDOF 4
ENDMDL
MODEL 6
REMARK VINA RESULT:    -5.169      3.113      5.986
REMARK INTER + INTRA:          -6.236
REMARK INTER:                  -5.951
REMARK INTRA:                  -0.285
REMARK UNBOUND:                -0.311
REMARK SMILES O=C1C[C@@H](c2ccc(O)cc2)Oc2cc(O)cc(O)c21
REMARK SMILES IDX 3 1 4 2 12 3 13 4 14 5 15 6 17 7 18 8 20 9 2 10 1 11 5 12
REMARK SMILES IDX 6 13 11 14 7 15 10 16 8 17 9 18 19 20 16 22
REMARK H PARENT 9 19 19 21 16 23
REMARK Flexibility Score: inf
ROOT
ATOM      1  C   UNL     1      -6.412  -5.314   0.284  1.00  0.00     0.131 C 
ATOM      2  C   UNL     1      -6.297  -4.646  -1.094  1.00  0.00     0.211 C 
ATOM      3  O   UNL     1      -6.343  -5.627  -2.134  1.00  0.00    -0.484 OA
ATOM      4  C   UNL     1      -7.194  -6.739  -2.088  1.00  0.00     0.138 A 
ATOM      5  C   UNL     1      -7.387  -7.493  -3.247  1.00  0.00     0.093 A 
ATOM      6  C   UNL     1      -8.238  -8.598  -3.236  1.00  0.00     0.123 A 
ATOM      7  C   UNL     1      -8.880  -8.970  -2.049  1.00  0.00     0.093 A 
ATOM      8  C   UNL     1      -8.670  -8.251  -0.865  1.00  0.00     0.133 A 
ATOM      9  C   UNL     1      -7.841  -7.099  -0.885  1.00  0.00     0.102 A 
ATOM     10  C   UNL     1      -7.603  -6.224   0.290  1.00  0.00     0.174 C 
ATOM     11  O   UNL     1      -8.403  -6.188   1.262  1.00  0.00    -0.294 OA
ENDROOT
BRANCH   2  12
ATOM     12  C   UNL     1      -5.022  -3.845  -1.194  1.00  0.00    -0.007 A 
ATOM     13  C   UNL     1      -3.794  -4.419  -0.821  1.00  0.00     0.011 A 
ATOM     14  C   UNL     1      -5.037  -2.538  -1.713  1.00  0.00     0.011 A 
ATOM     15  C   UNL     1      -2.608  -3.689  -0.940  1.00  0.00     0.046 A 
ATOM     16  C   UNL     1      -3.849  -1.811  -1.832  1.00  0.00     0.046 A 
ATOM     17  C   UNL     1      -2.631  -2.385  -1.444  1.00  0.00     0.115 A 
BRANCH  17  18
ATOM     18  O   UNL     1      -1.440  -1.670  -1.558  1.00  0.00    -0.508 OA
ATOM     19  H   UNL     1      -0.611  -2.084  -1.968  1.00  0.00     0.293 HD
ENDBRANCH  17  18
ENDBRANCH   2  12
BRANCH   8  20
ATOM     20  O   UNL     1      -9.271  -8.740   0.297  1.00  0.00    -0.507 OA
ATOM     21  H   UNL     1      -9.132  -9.673   0.655  1.00  0.00     0.293 HD
ENDBRANCH   8  20
BRANCH   6  22
ATOM     22  O   UNL     1      -8.436  -9.324  -4.408  1.00  0.00    -0.508 OA
ATOM     23  H   UNL     1      -9.198  -9.110  -5.042  1.00  0.00     0.293 HD
ENDBRANCH   6  22
TORSDOF 4
ENDMDL
MODEL 7
REMARK VINA RESULT:    -5.137      3.595      6.097
REMARK INTER + INTRA:          -6.199
REMARK INTER:                  -5.910
REMARK INTRA:                  -0.289
REMARK UNBOUND:                -0.311
REMARK SMILES O=C1C[C@@H](c2ccc(O)cc2)Oc2cc(O)cc(O)c21
REMARK SMILES IDX 3 1 4 2 12 3 13 4 14 5 15 6 17 7 18 8 20 9 2 10 1 11 5 12
REMARK SMILES IDX 6 13 11 14 7 15 10 16 8 17 9 18 19 20 16 22
REMARK H PARENT 9 19 19 21 16 23
REMARK Flexibility Score: inf
ROOT
ATOM      1  C   UNL     1      -5.511  -5.249  -0.977  1.00  0.00     0.131 C 
ATOM      2  C   UNL     1      -6.098  -5.790  -2.289  1.00  0.00     0.211 C 
ATOM      3  O   UNL     1      -6.755  -4.746  -3.015  1.00  0.00    -0.484 OA
ATOM      4  C   UNL     1      -6.247  -3.442  -3.090  1.00  0.00     0.138 A 
ATOM      5  C   UNL     1      -6.783  -2.560  -4.030  1.00  0.00     0.093 A 
ATOM      6  C   UNL     1      -6.290  -1.260  -4.138  1.00  0.00     0.123 A 
ATOM      7  C   UNL     1      -5.274  -0.827  -3.279  1.00  0.00     0.093 A 
ATOM      8  C   UNL     1      -4.750  -1.683  -2.301  1.00  0.00     0.133 A 
ATOM      9  C   UNL     1      -5.217  -3.021  -2.221  1.00  0.00     0.102 A 
ATOM     10  C   UNL     1      -4.686  -4.032  -1.274  1.00  0.00     0.174 C 
ATOM     11  O   UNL     1      -3.542  -3.922  -0.758  1.00  0.00    -0.294 OA
ENDROOT
BRANCH   2  12
ATOM     12  C   UNL     1      -7.062  -6.918  -2.018  1.00  0.00    -0.007 A 
ATOM     13  C   UNL     1      -7.546  -7.137  -0.717  1.00  0.00     0.011 A 
ATOM     14  C   UNL     1      -7.532  -7.726  -3.069  1.00  0.00     0.011 A 
ATOM     15  C   UNL     1      -8.463  -8.163  -0.468  1.00  0.00     0.046 A 
ATOM     16  C   UNL     1      -8.449  -8.751  -2.817  1.00  0.00     0.046 A 
ATOM     17  C   UNL     1      -8.916  -8.972  -1.514  1.00  0.00     0.115 A 
BRANCH  17  18
ATOM     18  O   UNL     1      -9.830  -9.991  -1.251  1.00  0.00    -0.508 OA
ATOM     19  H   UNL     1     -10.819  -9.875  -1.439  1.00  0.00     0.293 HD
ENDBRANCH  17  18
ENDBRANCH   2  12
BRANCH   8  20
ATOM     20  O   UNL     1      -3.805  -1.149  -1.421  1.00  0.00    -0.507 OA
ATOM     21  H   UNL     1      -3.919  -1.123  -0.419  1.00  0.00     0.293 HD
ENDBRANCH   8  20
BRANCH   6  22
ATOM     22  O   UNL     1      -6.821  -0.401  -5.099  1.00  0.00    -0.508 OA
ATOM     23  H   UNL     1      -7.194  -0.751  -5.974  1.00  0.00     0.293 HD
ENDBRANCH   6  22
TORSDOF 4
ENDMDL
MODEL 8
REMARK VINA RESULT:    -5.053      3.509      6.210
REMARK INTER + INTRA:          -6.102
REMARK INTER:                  -5.808
REMARK INTRA:                  -0.294
REMARK UNBOUND:                -0.311
REMARK SMILES O=C1C[C@@H](c2ccc(O)cc2)Oc2cc(O)cc(O)c21
REMARK SMILES IDX 3 1 4 2 12 3 13 4 14 5 15 6 17 7 18 8 20 9 2 10 1 11 5 12
REMARK SMILES IDX 6 13 11 14 7 15 10 16 8 17 9 18 19 20 16 22
REMARK H PARENT 9 19 19 21 16 23
REMARK Flexibility Score: inf
ROOT
ATOM      1  C   UNL     1      -6.058  -4.536  -2.202  1.00  0.00     0.131 C 
ATOM      2  C   UNL     1      -6.545  -4.899  -0.792  1.00  0.00     0.211 C 
ATOM      3  O   UNL     1      -5.460  -4.859   0.141  1.00  0.00    -0.484 OA
ATOM      4  C   UNL     1      -4.460  -3.878   0.096  1.00  0.00     0.138 A 
ATOM      5  C   UNL     1      -3.602  -3.736   1.188  1.00  0.00     0.093 A 
ATOM      6  C   UNL     1      -2.606  -2.760   1.180  1.00  0.00     0.123 A 
ATOM      7  C   UNL     1      -2.447  -1.938   0.058  1.00  0.00     0.093 A 
ATOM      8  C   UNL     1      -3.271  -2.090  -1.064  1.00  0.00     0.133 A 
ATOM      9  C   UNL     1      -4.316  -3.051  -1.039  1.00  0.00     0.102 A 
ATOM     10  C   UNL     1      -5.290  -3.250  -2.140  1.00  0.00     0.174 C 
ATOM     11  O   UNL     1      -5.526  -2.348  -2.988  1.00  0.00    -0.294 OA
ENDROOT
BRANCH   2  12
ATOM     12  C   UNL     1      -7.185  -6.265  -0.783  1.00  0.00    -0.007 A 
ATOM     13  C   UNL     1      -7.140  -7.075  -1.930  1.00  0.00     0.011 A 
ATOM     14  C   UNL     1      -7.784  -6.767   0.386  1.00  0.00     0.011 A 
ATOM     15  C   UNL     1      -7.706  -8.354  -1.916  1.00  0.00     0.046 A 
ATOM     16  C   UNL     1      -8.349  -8.046   0.399  1.00  0.00     0.046 A 
ATOM     17  C   UNL     1      -8.312  -8.842  -0.754  1.00  0.00     0.115 A 
BRANCH  17  18
ATOM     18  O   UNL     1      -8.872 -10.118  -0.754  1.00  0.00    -0.508 OA
ATOM     19  H   UNL     1      -8.878 -10.694  -1.588  1.00  0.00     0.293 HD
ENDBRANCH  17  18
ENDBRANCH   2  12
BRANCH   8  20
ATOM     20  O   UNL     1      -2.989  -1.297  -2.179  1.00  0.00    -0.507 OA
ATOM     21  H   UNL     1      -2.057  -1.092  -2.505  1.00  0.00     0.293 HD
ENDBRANCH   8  20
BRANCH   6  22
ATOM     22  O   UNL     1      -1.774  -2.618   2.289  1.00  0.00    -0.508 OA
ATOM     23  H   UNL     1      -1.974  -1.943   3.018  1.00  0.00     0.293 HD
ENDBRANCH   6  22
TORSDOF 4
ENDMDL
MODEL 9
REMARK VINA RESULT:    -4.992      2.841      6.562
REMARK INTER + INTRA:          -6.033
REMARK INTER:                  -5.715
REMARK INTRA:                  -0.318
REMARK UNBOUND:                -0.311
REMARK SMILES O=C1C[C@@H](c2ccc(O)cc2)Oc2cc(O)cc(O)c21
REMARK SMILES IDX 3 1 4 2 12 3 13 4 14 5 15 6 17 7 18 8 20 9 2 10 1 11 5 12
REMARK SMILES IDX 6 13 11 14 7 15 10 16 8 17 9 18 19 20 16 22
REMARK H PARENT 9 19 19 21 16 23
REMARK Flexibility Score: inf
ROOT
ATOM      1  C   UNL     1      -6.746  -5.594   1.210  1.00  0.00     0.131 C 
ATOM      2  C   UNL     1      -6.243  -4.872  -0.048  1.00  0.00     0.211 C 
ATOM      3  O   UNL     1      -6.144  -5.785  -1.146  1.00  0.00    -0.484 OA
ATOM      4  C   UNL     1      -7.093  -6.790  -1.382  1.00  0.00     0.138 A 
ATOM      5  C   UNL     1      -7.084  -7.454  -2.610  1.00  0.00     0.093 A 
ATOM      6  C   UNL     1      -8.024  -8.448  -2.880  1.00  0.00     0.123 A 
ATOM      7  C   UNL     1      -8.961  -8.804  -1.903  1.00  0.00     0.093 A 
ATOM      8  C   UNL     1      -8.962  -8.179  -0.650  1.00  0.00     0.133 A 
ATOM      9  C   UNL     1      -8.037  -7.133  -0.389  1.00  0.00     0.102 A 
ATOM     10  C   UNL     1      -7.993  -6.356   0.873  1.00  0.00     0.174 C 
ATOM     11  O   UNL     1      -8.991  -6.276   1.638  1.00  0.00    -0.294 OA
ENDROOT
BRANCH   2  12
ATOM     12  C   UNL     1      -4.904  -4.224   0.207  1.00  0.00    -0.007 A 
ATOM     13  C   UNL     1      -4.586  -3.740   1.488  1.00  0.00     0.011 A 
ATOM     14  C   UNL     1      -3.940  -4.146  -0.814  1.00  0.00     0.011 A 
ATOM     15  C   UNL     1      -3.335  -3.165   1.735  1.00  0.00     0.046 A 
ATOM     16  C   UNL     1      -2.690  -3.572  -0.564  1.00  0.00     0.046 A 
ATOM     17  C   UNL     1      -2.386  -3.079   0.712  1.00  0.00     0.115 A 
BRANCH  17  18
ATOM     18  O   UNL     1      -1.143  -2.504   0.973  1.00  0.00    -0.508 OA
ATOM     19  H   UNL     1      -0.415  -3.015   1.457  1.00  0.00     0.293 HD
ENDBRANCH  17  18
ENDBRANCH   2  12
BRANCH   8  20
ATOM     20  O   UNL     1      -9.866  -8.653   0.304  1.00  0.00    -0.507 OA
ATOM     21  H   UNL     1      -9.792  -8.467   1.293  1.00  0.00     0.293 HD
ENDBRANCH   8  20
BRANCH   6  22
ATOM     22  O   UNL     1      -8.015  -9.084  -4.120  1.00  0.00    -0.508 OA
ATOM     23  H   UNL     1      -8.802  -9.638  -4.437  1.00  0.00     0.293 HD
ENDBRANCH   6  22
TORSDOF 4
ENDMDL
