MODEL 1
REMARK VINA RESULT:    -5.550      0.000      0.000
REMARK INTER + INTRA:          -9.925
REMARK INTER:                  -8.145
REMARK INTRA:                  -1.780
REMARK UNBOUND:                -1.780
REMARK SMILES O=c1c(O[C@@H]2O[C@H](CO)[C@@H](O)[C@@H](O)[C@H]2O)c(-c2ccc(O)c(O)c2)oc2cc(O)cc(O)c12
REMARK SMILES IDX 4 1 3 2 16 3 25 4 2 5 26 6 1 7 33 8 27 9 31 10 28 11 30 12
REMARK SMILES IDX 17 13 18 14 19 15 20 16 24 17 22 18 21 19 23 21 32 23 29 25
REMARK SMILES IDX 5 27 14 28 6 29 12 30 7 31 10 32 15 33 13 35 8 37 9 38 11 40
REMARK H PARENT 21 20 23 22 32 24 29 26 15 34 13 36 9 39 11 41
REMARK Flexibility Score: inf
ROOT
ATOM      1  O   UNL     1       9.318  -0.325 -24.580  1.00  0.00    -0.454 OA
ENDROOT
BRANCH   1   2
ATOM      2  C   UNL     1      10.346  -0.621 -25.485  1.00  0.00     0.214 A 
ATOM      3  C   UNL     1      10.344  -1.806 -26.244  1.00  0.00     0.180 A 
ATOM      4  O   UNL     1      11.392  -2.097 -27.008  1.00  0.00    -0.452 OA
ATOM      5  C   UNL     1      11.410   0.278 -25.628  1.00  0.00     0.239 A 
ATOM      6  C   UNL     1      12.437  -1.291 -27.151  1.00  0.00     0.146 A 
ATOM      7  O   UNL     1      11.407   1.325 -24.931  1.00  0.00    -0.285 OA
ATOM      8  C   UNL     1      12.479  -0.029 -26.503  1.00  0.00     0.111 A 
ATOM      9  C   UNL     1      13.498  -1.712 -27.957  1.00  0.00     0.094 A 
ATOM     10  C   UNL     1      13.602   0.819 -26.739  1.00  0.00     0.134 A 
ATOM     11  C   UNL     1      14.616  -0.900 -28.133  1.00  0.00     0.123 A 
ATOM     12  C   UNL     1      14.666   0.356 -27.523  1.00  0.00     0.093 A 
BRANCH   3  13
ATOM     13  C   UNL     1       9.208  -2.755 -26.229  1.00  0.00     0.025 A 
ATOM     14  C   UNL     1       8.164  -2.602 -27.151  1.00  0.00     0.016 A 
ATOM     15  C   UNL     1       7.086  -3.489 -27.150  1.00  0.00     0.051 A 
ATOM     16  C   UNL     1       7.023  -4.536 -26.223  1.00  0.00     0.157 A 
ATOM     17  C   UNL     1       9.136  -3.788 -25.279  1.00  0.00     0.062 A 
ATOM     18  C   UNL     1       8.060  -4.685 -25.271  1.00  0.00     0.158 A 
BRANCH  16  19
ATOM     19  O   UNL     1       5.923  -5.393 -26.280  1.00  0.00    -0.504 OA
ATOM     20  H   UNL     1       5.170  -5.301 -26.948  1.00  0.00     0.293 HD
ENDBRANCH  16  19
BRANCH  18  21
ATOM     21  O   UNL     1       8.061  -5.693 -24.307  1.00  0.00    -0.504 OA
ATOM     22  H   UNL     1       7.256  -6.263 -24.084  1.00  0.00     0.293 HD
ENDBRANCH  18  21
ENDBRANCH   3  13
BRANCH  10  23
ATOM     23  O   UNL     1      13.711   2.125 -26.251  1.00  0.00    -0.507 OA
ATOM     24  H   UNL     1      13.118   2.893 -26.526  1.00  0.00     0.293 HD
ENDBRANCH  10  23
BRANCH  11  25
ATOM     25  O   UNL     1      15.672  -1.348 -28.925  1.00  0.00    -0.508 OA
ATOM     26  H   UNL     1      15.770  -1.059 -29.891  1.00  0.00     0.293 HD
ENDBRANCH  11  25
ENDBRANCH   1   2
BRANCH   1  27
ATOM     27  C   UNL     1       8.174   0.456 -24.932  1.00  0.00     0.339 C 
ATOM     28  C   UNL     1       6.873  -0.354 -24.768  1.00  0.00     0.214 C 
ATOM     29  O   UNL     1       8.153   1.677 -24.206  1.00  0.00    -0.332 OA
ATOM     30  C   UNL     1       6.583  -0.594 -23.280  1.00  0.00     0.180 C 
ATOM     31  C   UNL     1       7.903   1.526 -22.811  1.00  0.00     0.179 C 
ATOM     32  C   UNL     1       6.610   0.735 -22.507  1.00  0.00     0.177 C 
BRANCH  28  33
ATOM     33  O   UNL     1       5.799   0.332 -25.362  1.00  0.00    -0.384 OA
ATOM     34  H   UNL     1       6.122   1.247 -25.570  1.00  0.00     0.211 HD
ENDBRANCH  28  33
BRANCH  30  35
ATOM     35  O   UNL     1       5.334  -1.218 -23.117  1.00  0.00    -0.387 OA
ATOM     36  H   UNL     1       5.513  -2.180 -22.954  1.00  0.00     0.211 HD
ENDBRANCH  30  35
BRANCH  31  37
ATOM     37  C   UNL     1       9.130   1.013 -22.027  1.00  0.00     0.191 C 
BRANCH  37  38
ATOM     38  O   UNL     1      10.285   1.715 -22.399  1.00  0.00    -0.394 OA
ATOM     39  H   UNL     1      10.472   2.362 -21.671  1.00  0.00     0.210 HD
ENDBRANCH  37  38
ENDBRANCH  31  37
BRANCH  32  40
ATOM     40  O   UNL     1       5.500   1.527 -22.855  1.00  0.00    -0.387 OA
ATOM     41  H   UNL     1       5.208   1.998 -22.032  1.00  0.00     0.211 HD
ENDBRANCH  32  40
ENDBRANCH   1  27
TORSDOF 12
ENDMDL
MODEL 2
REMARK VINA RESULT:    -5.257      0.759      1.322
REMARK INTER + INTRA:          -9.495
REMARK INTER:                  -7.684
REMARK INTRA:                  -1.811
REMARK UNBOUND:                -1.780
REMARK SMILES O=c1c(O[C@@H]2O[C@H](CO)[C@@H](O)[C@@H](O)[C@H]2O)c(-c2ccc(O)c(O)c2)oc2cc(O)cc(O)c12
REMARK SMILES IDX 4 1 3 2 16 3 25 4 2 5 26 6 1 7 33 8 27 9 31 10 28 11 30 12
REMARK SMILES IDX 17 13 18 14 19 15 20 16 24 17 22 18 21 19 23 21 32 23 29 25
REMARK SMILES IDX 5 27 14 28 6 29 12 30 7 31 10 32 15 33 13 35 8 37 9 38 11 40
REMARK H PARENT 21 20 23 22 32 24 29 26 15 34 13 36 9 39 11 41
REMARK Flexibility Score: inf
ROOT
ATOM      1  O   UNL     1       9.123  -0.157 -24.480  1.00  0.00    -0.454 OA
ENDROOT
BRANCH   1   2
ATOM      2  C   UNL     1      10.081  -0.591 -25.405  1.00  0.00     0.214 A 
ATOM      3  C   UNL     1       9.930  -1.797 -26.115  1.00  0.00     0.180 A 
ATOM      4  O   UNL     1      10.914  -2.223 -26.899  1.00  0.00    -0.452 OA
ATOM      5  C   UNL     1      11.225   0.187 -25.620  1.00  0.00     0.239 A 
ATOM      6  C   UNL     1      12.030  -1.536 -27.110  1.00  0.00     0.146 A 
ATOM      7  O   UNL     1      11.354   1.255 -24.967  1.00  0.00    -0.285 OA
ATOM      8  C   UNL     1      12.225  -0.261 -26.516  1.00  0.00     0.111 A 
ATOM      9  C   UNL     1      13.013  -2.094 -27.932  1.00  0.00     0.094 A 
ATOM     10  C   UNL     1      13.419   0.458 -26.823  1.00  0.00     0.134 A 
ATOM     11  C   UNL     1      14.201  -1.409 -28.177  1.00  0.00     0.123 A 
ATOM     12  C   UNL     1      14.400  -0.142 -27.622  1.00  0.00     0.093 A 
BRANCH   3  13
ATOM     13  C   UNL     1       8.705  -2.622 -26.023  1.00  0.00     0.025 A 
ATOM     14  C   UNL     1       8.557  -3.530 -24.967  1.00  0.00     0.016 A 
ATOM     15  C   UNL     1       7.407  -4.315 -24.866  1.00  0.00     0.051 A 
ATOM     16  C   UNL     1       6.391  -4.218 -25.823  1.00  0.00     0.157 A 
ATOM     17  C   UNL     1       7.700  -2.541 -27.001  1.00  0.00     0.062 A 
ATOM     18  C   UNL     1       6.541  -3.323 -26.909  1.00  0.00     0.158 A 
BRANCH  16  19
ATOM     19  O   UNL     1       5.263  -5.025 -25.661  1.00  0.00    -0.504 OA
ATOM     20  H   UNL     1       5.217  -5.995 -25.940  1.00  0.00     0.293 HD
ENDBRANCH  16  19
BRANCH  18  21
ATOM     21  O   UNL     1       5.578  -3.181 -27.909  1.00  0.00    -0.504 OA
ATOM     22  H   UNL     1       4.876  -2.455 -27.918  1.00  0.00     0.293 HD
ENDBRANCH  18  21
ENDBRANCH   3  13
BRANCH  10  23
ATOM     23  O   UNL     1      13.677   1.763 -26.393  1.00  0.00    -0.507 OA
ATOM     24  H   UNL     1      14.579   2.101 -26.092  1.00  0.00     0.293 HD
ENDBRANCH  10  23
BRANCH  11  25
ATOM     25  O   UNL     1      15.176  -1.993 -28.983  1.00  0.00    -0.508 OA
ATOM     26  H   UNL     1      15.213  -2.995 -29.128  1.00  0.00     0.293 HD
ENDBRANCH  11  25
ENDBRANCH   1   2
BRANCH   1  27
ATOM     27  C   UNL     1       8.042   0.712 -24.830  1.00  0.00     0.339 C 
ATOM     28  C   UNL     1       6.680   0.023 -24.620  1.00  0.00     0.214 C 
ATOM     29  O   UNL     1       8.143   1.948 -24.137  1.00  0.00    -0.332 OA
ATOM     30  C   UNL     1       6.403  -0.154 -23.120  1.00  0.00     0.180 C 
ATOM     31  C   UNL     1       7.911   1.854 -22.734  1.00  0.00     0.179 C 
ATOM     32  C   UNL     1       6.561   1.186 -22.384  1.00  0.00     0.177 C 
BRANCH  28  33
ATOM     33  O   UNL     1       5.657   0.784 -25.210  1.00  0.00    -0.384 OA
ATOM     34  H   UNL     1       5.601   0.504 -26.161  1.00  0.00     0.211 HD
ENDBRANCH  28  33
BRANCH  30  35
ATOM     35  O   UNL     1       5.108  -0.663 -22.917  1.00  0.00    -0.387 OA
ATOM     36  H   UNL     1       5.129  -1.617 -23.191  1.00  0.00     0.211 HD
ENDBRANCH  30  35
BRANCH  31  37
ATOM     37  C   UNL     1       9.106   1.256 -21.960  1.00  0.00     0.191 C 
BRANCH  37  38
ATOM     38  O   UNL     1      10.314   1.804 -22.413  1.00  0.00    -0.394 OA
ATOM     39  H   UNL     1      10.296   2.767 -22.176  1.00  0.00     0.210 HD
ENDBRANCH  37  38
ENDBRANCH  31  37
BRANCH  32  40
ATOM     40  O   UNL     1       5.517   2.062 -22.731  1.00  0.00    -0.387 OA
ATOM     41  H   UNL     1       5.739   2.949 -22.345  1.00  0.00     0.211 HD
ENDBRANCH  32  40
ENDBRANCH   1  27
TORSDOF 12
ENDMDL
MODEL 3
REMARK VINA RESULT:    -5.189      1.160      2.233
REMARK INTER + INTRA:          -9.395
REMARK INTER:                  -8.039
REMARK INTRA:                  -1.356
REMARK UNBOUND:                -1.780
REMARK SMILES O=c1c(O[C@@H]2O[C@H](CO)[C@@H](O)[C@@H](O)[C@H]2O)c(-c2ccc(O)c(O)c2)oc2cc(O)cc(O)c12
REMARK SMILES IDX 4 1 3 2 16 3 25 4 2 5 26 6 1 7 33 8 27 9 31 10 28 11 30 12
REMARK SMILES IDX 17 13 18 14 19 15 20 16 24 17 22 18 21 19 23 21 32 23 29 25
REMARK SMILES IDX 5 27 14 28 6 29 12 30 7 31 10 32 15 33 13 35 8 37 9 38 11 40
REMARK H PARENT 21 20 23 22 32 24 29 26 15 34 13 36 9 39 11 41
REMARK Flexibility Score: inf
ROOT
ATOM      1  O   UNL     1       8.961   0.176 -25.202  1.00  0.00    -0.454 OA
ENDROOT
BRANCH   1   2
ATOM      2  C   UNL     1      10.015  -0.313 -25.983  1.00  0.00     0.214 A 
ATOM      3  C   UNL     1       9.910  -1.528 -26.688  1.00  0.00     0.180 A 
ATOM      4  O   UNL     1      10.972  -2.007 -27.327  1.00  0.00    -0.452 OA
ATOM      5  C   UNL     1      11.208   0.415 -26.056  1.00  0.00     0.239 A 
ATOM      6  C   UNL     1      12.133  -1.368 -27.398  1.00  0.00     0.146 A 
ATOM      7  O   UNL     1      11.293   1.491 -25.408  1.00  0.00    -0.285 OA
ATOM      8  C   UNL     1      12.299  -0.090 -26.803  1.00  0.00     0.111 A 
ATOM      9  C   UNL     1      13.192  -1.981 -28.073  1.00  0.00     0.094 A 
ATOM     10  C   UNL     1      13.551   0.576 -26.960  1.00  0.00     0.134 A 
ATOM     11  C   UNL     1      14.429  -1.347 -28.168  1.00  0.00     0.123 A 
ATOM     12  C   UNL     1      14.604  -0.078 -27.611  1.00  0.00     0.093 A 
BRANCH   3  13
ATOM     13  C   UNL     1       8.652  -2.303 -26.748  1.00  0.00     0.025 A 
ATOM     14  C   UNL     1       7.590  -1.843 -27.536  1.00  0.00     0.016 A 
ATOM     15  C   UNL     1       6.396  -2.563 -27.604  1.00  0.00     0.051 A 
ATOM     16  C   UNL     1       6.235  -3.748 -26.877  1.00  0.00     0.157 A 
ATOM     17  C   UNL     1       8.485  -3.478 -25.995  1.00  0.00     0.062 A 
ATOM     18  C   UNL     1       7.292  -4.210 -26.057  1.00  0.00     0.158 A 
BRANCH  16  19
ATOM     19  O   UNL     1       5.019  -4.426 -26.995  1.00  0.00    -0.504 OA
ATOM     20  H   UNL     1       4.142  -3.976 -27.218  1.00  0.00     0.293 HD
ENDBRANCH  16  19
BRANCH  18  21
ATOM     21  O   UNL     1       7.201  -5.374 -25.293  1.00  0.00    -0.504 OA
ATOM     22  H   UNL     1       7.985  -5.975 -25.084  1.00  0.00     0.293 HD
ENDBRANCH  18  21
ENDBRANCH   3  13
BRANCH  10  23
ATOM     23  O   UNL     1      13.804   1.879 -26.520  1.00  0.00    -0.507 OA
ATOM     24  H   UNL     1      14.325   2.570 -27.038  1.00  0.00     0.293 HD
ENDBRANCH  10  23
BRANCH  11  25
ATOM     25  O   UNL     1      15.478  -1.985 -28.828  1.00  0.00    -0.508 OA
ATOM     26  H   UNL     1      15.349  -2.413 -29.737  1.00  0.00     0.293 HD
ENDBRANCH  11  25
ENDBRANCH   1   2
BRANCH   1  27
ATOM     27  C   UNL     1       8.644  -0.345 -23.909  1.00  0.00     0.339 C 
ATOM     28  C   UNL     1       9.624   0.177 -22.840  1.00  0.00     0.214 C 
ATOM     29  O   UNL     1       7.286  -0.087 -23.579  1.00  0.00    -0.332 OA
ATOM     30  C   UNL     1       9.385   1.672 -22.588  1.00  0.00     0.180 C 
ATOM     31  C   UNL     1       6.991   1.288 -23.346  1.00  0.00     0.179 C 
ATOM     32  C   UNL     1       7.903   1.933 -22.277  1.00  0.00     0.177 C 
BRANCH  28  33
ATOM     33  O   UNL     1       9.462  -0.544 -21.644  1.00  0.00    -0.384 OA
ATOM     34  H   UNL     1      10.212  -1.192 -21.594  1.00  0.00     0.211 HD
ENDBRANCH  28  33
BRANCH  30  35
ATOM     35  O   UNL     1      10.185   2.125 -21.524  1.00  0.00    -0.387 OA
ATOM     36  H   UNL     1       9.567   2.383 -20.791  1.00  0.00     0.211 HD
ENDBRANCH  30  35
BRANCH  31  37
ATOM     37  C   UNL     1       6.893   2.116 -24.646  1.00  0.00     0.191 C 
BRANCH  37  38
ATOM     38  O   UNL     1       6.176   1.416 -25.626  1.00  0.00    -0.394 OA
ATOM     39  H   UNL     1       6.839   1.106 -26.296  1.00  0.00     0.210 HD
ENDBRANCH  37  38
ENDBRANCH  31  37
BRANCH  32  40
ATOM     40  O   UNL     1       7.567   1.409 -21.016  1.00  0.00    -0.387 OA
ATOM     41  H   UNL     1       7.969   0.504 -20.958  1.00  0.00     0.211 HD
ENDBRANCH  32  40
ENDBRANCH   1  27
TORSDOF 12
ENDMDL
MODEL 4
REMARK VINA RESULT:    -5.167      1.731      4.689
REMARK INTER + INTRA:          -9.364
REMARK INTER:                  -8.104
REMARK INTRA:                  -1.260
REMARK UNBOUND:                -1.780
REMARK SMILES O=c1c(O[C@@H]2O[C@H](CO)[C@@H](O)[C@@H](O)[C@H]2O)c(-c2ccc(O)c(O)c2)oc2cc(O)cc(O)c12
REMARK SMILES IDX 4 1 3 2 16 3 25 4 2 5 26 6 1 7 33 8 27 9 31 10 28 11 30 12
REMARK SMILES IDX 17 13 18 14 19 15 20 16 24 17 22 18 21 19 23 21 32 23 29 25
REMARK SMILES IDX 5 27 14 28 6 29 12 30 7 31 10 32 15 33 13 35 8 37 9 38 11 40
REMARK H PARENT 21 20 23 22 32 24 29 26 15 34 13 36 9 39 11 41
REMARK Flexibility Score: inf
ROOT
ATOM      1  O   UNL     1       9.619  -1.296 -27.029  1.00  0.00    -0.454 OA
ENDROOT
BRANCH   1   2
ATOM      2  C   UNL     1      10.875  -0.700 -26.860  1.00  0.00     0.214 A 
ATOM      3  C   UNL     1      11.080   0.344 -25.937  1.00  0.00     0.180 A 
ATOM      4  O   UNL     1      12.260   0.952 -25.888  1.00  0.00    -0.452 OA
ATOM      5  C   UNL     1      11.952  -1.142 -27.637  1.00  0.00     0.239 A 
ATOM      6  C   UNL     1      13.300   0.589 -26.627  1.00  0.00     0.146 A 
ATOM      7  O   UNL     1      11.751  -2.064 -28.469  1.00  0.00    -0.285 OA
ATOM      8  C   UNL     1      13.216  -0.518 -27.512  1.00  0.00     0.111 A 
ATOM      9  C   UNL     1      14.486   1.321 -26.515  1.00  0.00     0.094 A 
ATOM     10  C   UNL     1      14.384  -0.898 -28.239  1.00  0.00     0.134 A 
ATOM     11  C   UNL     1      15.602   0.977 -27.274  1.00  0.00     0.123 A 
ATOM     12  C   UNL     1      15.546  -0.125 -28.132  1.00  0.00     0.093 A 
BRANCH   3  13
ATOM     13  C   UNL     1      10.022   0.796 -25.006  1.00  0.00     0.025 A 
ATOM     14  C   UNL     1       8.855   1.381 -25.513  1.00  0.00     0.016 A 
ATOM     15  C   UNL     1       7.848   1.813 -24.648  1.00  0.00     0.051 A 
ATOM     16  C   UNL     1       7.992   1.681 -23.262  1.00  0.00     0.157 A 
ATOM     17  C   UNL     1      10.183   0.687 -23.614  1.00  0.00     0.062 A 
ATOM     18  C   UNL     1       9.178   1.115 -22.737  1.00  0.00     0.158 A 
BRANCH  16  19
ATOM     19  O   UNL     1       6.945   2.125 -22.452  1.00  0.00    -0.504 OA
ATOM     20  H   UNL     1       6.439   2.986 -22.605  1.00  0.00     0.293 HD
ENDBRANCH  16  19
BRANCH  18  21
ATOM     21  O   UNL     1       9.400   0.963 -21.368  1.00  0.00    -0.504 OA
ATOM     22  H   UNL     1       8.682   1.060 -20.665  1.00  0.00     0.293 HD
ENDBRANCH  18  21
ENDBRANCH   3  13
BRANCH  10  23
ATOM     23  O   UNL     1      14.461  -2.031 -29.054  1.00  0.00    -0.507 OA
ATOM     24  H   UNL     1      13.739  -2.332 -29.691  1.00  0.00     0.293 HD
ENDBRANCH  10  23
BRANCH  11  25
ATOM     25  O   UNL     1      16.768   1.732 -27.163  1.00  0.00    -0.508 OA
ATOM     26  H   UNL     1      17.662   1.300 -26.959  1.00  0.00     0.293 HD
ENDBRANCH  11  25
ENDBRANCH   1   2
BRANCH   1  27
ATOM     27  C   UNL     1       9.369  -2.675 -26.746  1.00  0.00     0.339 C 
ATOM     28  C   UNL     1       9.505  -2.971 -25.240  1.00  0.00     0.214 C 
ATOM     29  O   UNL     1       8.111  -3.078 -27.272  1.00  0.00    -0.332 OA
ATOM     30  C   UNL     1       8.345  -2.327 -24.468  1.00  0.00     0.180 C 
ATOM     31  C   UNL     1       6.988  -2.505 -26.609  1.00  0.00     0.179 C 
ATOM     32  C   UNL     1       6.997  -2.742 -25.081  1.00  0.00     0.177 C 
BRANCH  28  33
ATOM     33  O   UNL     1       9.517  -4.359 -25.020  1.00  0.00    -0.384 OA
ATOM     34  H   UNL     1       8.599  -4.615 -24.741  1.00  0.00     0.211 HD
ENDBRANCH  28  33
BRANCH  30  35
ATOM     35  O   UNL     1       8.389  -2.700 -23.113  1.00  0.00    -0.387 OA
ATOM     36  H   UNL     1       8.393  -3.693 -23.089  1.00  0.00     0.211 HD
ENDBRANCH  30  35
BRANCH  31  37
ATOM     37  C   UNL     1       6.743  -1.030 -26.996  1.00  0.00     0.191 C 
BRANCH  37  38
ATOM     38  O   UNL     1       7.088  -0.806 -28.336  1.00  0.00    -0.394 OA
ATOM     39  H   UNL     1       7.232   0.171 -28.433  1.00  0.00     0.210 HD
ENDBRANCH  37  38
ENDBRANCH  31  37
BRANCH  32  40
ATOM     40  O   UNL     1       6.742  -4.102 -24.830  1.00  0.00    -0.387 OA
ATOM     41  H   UNL     1       5.820  -4.165 -24.469  1.00  0.00     0.211 HD
ENDBRANCH  32  40
ENDBRANCH   1  27
TORSDOF 12
ENDMDL
MODEL 5
REMARK VINA RESULT:    -4.608      2.020      6.614
REMARK INTER + INTRA:          -8.543
REMARK INTER:                  -7.960
REMARK INTRA:                  -0.583
REMARK UNBOUND:                -1.780
REMARK SMILES O=c1c(O[C@@H]2O[C@H](CO)[C@@H](O)[C@@H](O)[C@H]2O)c(-c2ccc(O)c(O)c2)oc2cc(O)cc(O)c12
REMARK SMILES IDX 4 1 3 2 16 3 25 4 2 5 26 6 1 7 33 8 27 9 31 10 28 11 30 12
REMARK SMILES IDX 17 13 18 14 19 15 20 16 24 17 22 18 21 19 23 21 32 23 29 25
REMARK SMILES IDX 5 27 14 28 6 29 12 30 7 31 10 32 15 33 13 35 8 37 9 38 11 40
REMARK H PARENT 21 20 23 22 32 24 29 26 15 34 13 36 9 39 11 41
REMARK Flexibility Score: inf
ROOT
ATOM      1  O   UNL     1       8.667  -0.971 -25.229  1.00  0.00    -0.454 OA
ENDROOT
BRANCH   1   2
ATOM      2  C   UNL     1       7.778  -0.757 -24.169  1.00  0.00     0.214 A 
ATOM      3  C   UNL     1       6.581  -1.488 -24.049  1.00  0.00     0.180 A 
ATOM      4  O   UNL     1       5.716  -1.177 -23.089  1.00  0.00    -0.452 OA
ATOM      5  C   UNL     1       8.079   0.217 -23.210  1.00  0.00     0.239 A 
ATOM      6  C   UNL     1       5.944  -0.240 -22.177  1.00  0.00     0.146 A 
ATOM      7  O   UNL     1       9.145   0.874 -23.339  1.00  0.00    -0.285 OA
ATOM      8  C   UNL     1       7.169   0.478 -22.158  1.00  0.00     0.111 A 
ATOM      9  C   UNL     1       4.951   0.025 -21.230  1.00  0.00     0.094 A 
ATOM     10  C   UNL     1       7.382   1.434 -21.120  1.00  0.00     0.134 A 
ATOM     11  C   UNL     1       5.146   1.002 -20.256  1.00  0.00     0.123 A 
ATOM     12  C   UNL     1       6.354   1.702 -20.207  1.00  0.00     0.093 A 
BRANCH   3  13
ATOM     13  C   UNL     1       6.240  -2.605 -24.958  1.00  0.00     0.025 A 
ATOM     14  C   UNL     1       6.561  -3.919 -24.595  1.00  0.00     0.016 A 
ATOM     15  C   UNL     1       6.245  -4.983 -25.441  1.00  0.00     0.051 A 
ATOM     16  C   UNL     1       5.615  -4.755 -26.670  1.00  0.00     0.157 A 
ATOM     17  C   UNL     1       5.632  -2.369 -26.203  1.00  0.00     0.062 A 
ATOM     18  C   UNL     1       5.309  -3.429 -27.059  1.00  0.00     0.158 A 
BRANCH  16  19
ATOM     19  O   UNL     1       5.319  -5.863 -27.467  1.00  0.00    -0.504 OA
ATOM     20  H   UNL     1       5.028  -6.759 -27.101  1.00  0.00     0.293 HD
ENDBRANCH  16  19
BRANCH  18  21
ATOM     21  O   UNL     1       4.695  -3.122 -28.274  1.00  0.00    -0.504 OA
ATOM     22  H   UNL     1       4.439  -2.186 -28.557  1.00  0.00     0.293 HD
ENDBRANCH  18  21
ENDBRANCH   3  13
BRANCH  10  23
ATOM     23  O   UNL     1       8.583   2.122 -20.927  1.00  0.00    -0.507 OA
ATOM     24  H   UNL     1       9.014   2.728 -21.609  1.00  0.00     0.293 HD
ENDBRANCH  10  23
BRANCH  11  25
ATOM     25  O   UNL     1       4.135   1.265 -19.335  1.00  0.00    -0.508 OA
ATOM     26  H   UNL     1       3.988   2.195 -18.960  1.00  0.00     0.293 HD
ENDBRANCH  11  25
ENDBRANCH   1   2
BRANCH   1  27
ATOM     27  C   UNL     1       9.917  -1.648 -25.072  1.00  0.00     0.339 C 
ATOM     28  C   UNL     1      10.232  -2.533 -26.294  1.00  0.00     0.214 C 
ATOM     29  O   UNL     1      10.958  -0.725 -24.782  1.00  0.00    -0.332 OA
ATOM     30  C   UNL     1      10.556  -1.657 -27.512  1.00  0.00     0.180 C 
ATOM     31  C   UNL     1      11.301   0.132 -25.868  1.00  0.00     0.179 C 
ATOM     32  C   UNL     1      11.652  -0.637 -27.162  1.00  0.00     0.177 C 
BRANCH  28  33
ATOM     33  O   UNL     1      11.316  -3.380 -26.009  1.00  0.00    -0.384 OA
ATOM     34  H   UNL     1      11.283  -3.574 -25.036  1.00  0.00     0.211 HD
ENDBRANCH  28  33
BRANCH  30  35
ATOM     35  O   UNL     1      10.970  -2.453 -28.593  1.00  0.00    -0.387 OA
ATOM     36  H   UNL     1      10.665  -1.995 -29.420  1.00  0.00     0.211 HD
ENDBRANCH  30  35
BRANCH  31  37
ATOM     37  C   UNL     1      10.277   1.267 -26.091  1.00  0.00     0.191 C 
BRANCH  37  38
ATOM     38  O   UNL     1      10.588   1.993 -27.249  1.00  0.00    -0.394 OA
ATOM     39  H   UNL     1       9.729   2.165 -27.716  1.00  0.00     0.210 HD
ENDBRANCH  37  38
ENDBRANCH  31  37
BRANCH  32  40
ATOM     40  O   UNL     1      12.887  -1.287 -26.984  1.00  0.00    -0.387 OA
ATOM     41  H   UNL     1      12.816  -2.175 -27.420  1.00  0.00     0.211 HD
ENDBRANCH  32  40
ENDBRANCH   1  27
TORSDOF 12
ENDMDL
MODEL 6
REMARK VINA RESULT:    -4.504      2.419      6.603
REMARK INTER + INTRA:          -8.390
REMARK INTER:                  -7.252
REMARK INTRA:                  -1.138
REMARK UNBOUND:                -1.780
REMARK SMILES O=c1c(O[C@@H]2O[C@H](CO)[C@@H](O)[C@@H](O)[C@H]2O)c(-c2ccc(O)c(O)c2)oc2cc(O)cc(O)c12
REMARK SMILES IDX 4 1 3 2 16 3 25 4 2 5 26 6 1 7 33 8 27 9 31 10 28 11 30 12
REMARK SMILES IDX 17 13 18 14 19 15 20 16 24 17 22 18 21 19 23 21 32 23 29 25
REMARK SMILES IDX 5 27 14 28 6 29 12 30 7 31 10 32 15 33 13 35 8 37 9 38 11 40
REMARK H PARENT 21 20 23 22 32 24 29 26 15 34 13 36 9 39 11 41
REMARK Flexibility Score: inf
ROOT
ATOM      1  O   UNL     1       7.199   0.051 -25.478  1.00  0.00    -0.454 OA
ENDROOT
BRANCH   1   2
ATOM      2  C   UNL     1       7.275  -1.300 -25.118  1.00  0.00     0.214 A 
ATOM      3  C   UNL     1       8.450  -2.052 -25.307  1.00  0.00     0.180 A 
ATOM      4  O   UNL     1       8.442  -3.356 -25.052  1.00  0.00    -0.452 OA
ATOM      5  C   UNL     1       6.149  -1.925 -24.568  1.00  0.00     0.239 A 
ATOM      6  C   UNL     1       7.390  -3.997 -24.560  1.00  0.00     0.146 A 
ATOM      7  O   UNL     1       5.100  -1.245 -24.420  1.00  0.00    -0.285 OA
ATOM      8  C   UNL     1       6.194  -3.301 -24.242  1.00  0.00     0.111 A 
ATOM      9  C   UNL     1       7.483  -5.377 -24.359  1.00  0.00     0.094 A 
ATOM     10  C   UNL     1       5.114  -4.033 -23.662  1.00  0.00     0.134 A 
ATOM     11  C   UNL     1       6.402  -6.091 -23.847  1.00  0.00     0.123 A 
ATOM     12  C   UNL     1       5.225  -5.420 -23.505  1.00  0.00     0.093 A 
BRANCH   3  13
ATOM     13  C   UNL     1       9.712  -1.442 -25.783  1.00  0.00     0.025 A 
ATOM     14  C   UNL     1      10.204  -1.769 -27.053  1.00  0.00     0.016 A 
ATOM     15  C   UNL     1      11.393  -1.202 -27.517  1.00  0.00     0.051 A 
ATOM     16  C   UNL     1      12.117  -0.310 -26.719  1.00  0.00     0.157 A 
ATOM     17  C   UNL     1      10.450  -0.568 -24.967  1.00  0.00     0.062 A 
ATOM     18  C   UNL     1      11.643   0.008 -25.424  1.00  0.00     0.158 A 
BRANCH  16  19
ATOM     19  O   UNL     1      13.293   0.229 -27.245  1.00  0.00    -0.504 OA
ATOM     20  H   UNL     1      13.843  -0.215 -27.968  1.00  0.00     0.293 HD
ENDBRANCH  16  19
BRANCH  18  21
ATOM     21  O   UNL     1      12.317   0.877 -24.565  1.00  0.00    -0.504 OA
ATOM     22  H   UNL     1      12.870   1.663 -24.877  1.00  0.00     0.293 HD
ENDBRANCH  18  21
ENDBRANCH   3  13
BRANCH  10  23
ATOM     23  O   UNL     1       3.931  -3.446 -23.204  1.00  0.00    -0.507 OA
ATOM     24  H   UNL     1       3.054  -3.454 -23.703  1.00  0.00     0.293 HD
ENDBRANCH  10  23
BRANCH  11  25
ATOM     25  O   UNL     1       6.510  -7.469 -23.673  1.00  0.00    -0.508 OA
ATOM     26  H   UNL     1       7.190  -8.017 -24.188  1.00  0.00     0.293 HD
ENDBRANCH  11  25
ENDBRANCH   1   2
BRANCH   1  27
ATOM     27  C   UNL     1       7.322   0.503 -26.829  1.00  0.00     0.339 C 
ATOM     28  C   UNL     1       6.532  -0.402 -27.795  1.00  0.00     0.214 C 
ATOM     29  O   UNL     1       6.956   1.872 -26.939  1.00  0.00    -0.332 OA
ATOM     30  C   UNL     1       5.023  -0.209 -27.587  1.00  0.00     0.180 C 
ATOM     31  C   UNL     1       5.567   2.125 -26.741  1.00  0.00     0.179 C 
ATOM     32  C   UNL     1       4.658   1.282 -27.665  1.00  0.00     0.177 C 
BRANCH  28  33
ATOM     33  O   UNL     1       6.875  -0.103 -29.125  1.00  0.00    -0.384 OA
ATOM     34  H   UNL     1       7.441   0.712 -29.101  1.00  0.00     0.211 HD
ENDBRANCH  28  33
BRANCH  30  35
ATOM     35  O   UNL     1       4.298  -0.931 -28.550  1.00  0.00    -0.387 OA
ATOM     36  H   UNL     1       4.081  -1.811 -28.145  1.00  0.00     0.211 HD
ENDBRANCH  30  35
BRANCH  31  37
ATOM     37  C   UNL     1       5.146   2.071 -25.256  1.00  0.00     0.191 C 
BRANCH  37  38
ATOM     38  O   UNL     1       3.934   1.383 -25.110  1.00  0.00    -0.394 OA
ATOM     39  H   UNL     1       4.062   0.735 -24.369  1.00  0.00     0.210 HD
ENDBRANCH  37  38
ENDBRANCH  31  37
BRANCH  32  40
ATOM     40  O   UNL     1       4.791   1.751 -28.985  1.00  0.00    -0.387 OA
ATOM     41  H   UNL     1       5.336   1.085 -29.478  1.00  0.00     0.211 HD
ENDBRANCH  32  40
ENDBRANCH   1  27
TORSDOF 12
ENDMDL
MODEL 7
REMARK VINA RESULT:    -4.204      1.819      5.558
REMARK INTER + INTRA:          -7.951
REMARK INTER:                  -7.686
REMARK INTRA:                  -0.265
REMARK UNBOUND:                -1.780
REMARK SMILES O=c1c(O[C@@H]2O[C@H](CO)[C@@H](O)[C@@H](O)[C@H]2O)c(-c2ccc(O)c(O)c2)oc2cc(O)cc(O)c12
REMARK SMILES IDX 4 1 3 2 16 3 25 4 2 5 26 6 1 7 33 8 27 9 31 10 28 11 30 12
REMARK SMILES IDX 17 13 18 14 19 15 20 16 24 17 22 18 21 19 23 21 32 23 29 25
REMARK SMILES IDX 5 27 14 28 6 29 12 30 7 31 10 32 15 33 13 35 8 37 9 38 11 40
REMARK H PARENT 21 20 23 22 32 24 29 26 15 34 13 36 9 39 11 41
REMARK Flexibility Score: inf
ROOT
ATOM      1  O   UNL     1       7.043  -2.853 -25.503  1.00  0.00    -0.454 OA
ENDROOT
BRANCH   1   2
ATOM      2  C   UNL     1       8.090  -1.922 -25.498  1.00  0.00     0.214 A 
ATOM      3  C   UNL     1       8.062  -0.782 -24.673  1.00  0.00     0.180 A 
ATOM      4  O   UNL     1       9.023   0.129 -24.781  1.00  0.00    -0.452 OA
ATOM      5  C   UNL     1       9.187  -2.122 -26.345  1.00  0.00     0.239 A 
ATOM      6  C   UNL     1      10.065  -0.002 -25.592  1.00  0.00     0.146 A 
ATOM      7  O   UNL     1       9.190  -3.137 -27.089  1.00  0.00    -0.285 OA
ATOM      8  C   UNL     1      10.229  -1.166 -26.387  1.00  0.00     0.111 A 
ATOM      9  C   UNL     1      11.002   1.034 -25.647  1.00  0.00     0.094 A 
ATOM     10  C   UNL     1      11.399  -1.278 -27.197  1.00  0.00     0.134 A 
ATOM     11  C   UNL     1      12.110   0.940 -26.486  1.00  0.00     0.123 A 
ATOM     12  C   UNL     1      12.302  -0.209 -27.257  1.00  0.00     0.093 A 
BRANCH   3  13
ATOM     13  C   UNL     1       6.993  -0.552 -23.676  1.00  0.00     0.025 A 
ATOM     14  C   UNL     1       5.784  -1.252 -23.780  1.00  0.00     0.016 A 
ATOM     15  C   UNL     1       4.766  -1.047 -22.847  1.00  0.00     0.051 A 
ATOM     16  C   UNL     1       4.930  -0.131 -21.801  1.00  0.00     0.157 A 
ATOM     17  C   UNL     1       7.151   0.389 -22.643  1.00  0.00     0.062 A 
ATOM     18  C   UNL     1       6.137   0.601 -21.701  1.00  0.00     0.158 A 
BRANCH  16  19
ATOM     19  O   UNL     1       3.877   0.022 -20.897  1.00  0.00    -0.504 OA
ATOM     20  H   UNL     1       3.444   0.908 -20.679  1.00  0.00     0.293 HD
ENDBRANCH  16  19
BRANCH  18  21
ATOM     21  O   UNL     1       6.368   1.540 -20.696  1.00  0.00    -0.504 OA
ATOM     22  H   UNL     1       6.740   2.465 -20.861  1.00  0.00     0.293 HD
ENDBRANCH  18  21
ENDBRANCH   3  13
BRANCH  10  23
ATOM     23  O   UNL     1      11.731  -2.417 -27.937  1.00  0.00    -0.507 OA
ATOM     24  H   UNL     1      12.330  -2.421 -28.748  1.00  0.00     0.293 HD
ENDBRANCH  10  23
BRANCH  11  25
ATOM     25  O   UNL     1      13.021   1.992 -26.541  1.00  0.00    -0.508 OA
ATOM     26  H   UNL     1      12.740   2.947 -26.351  1.00  0.00     0.293 HD
ENDBRANCH  11  25
ENDBRANCH   1   2
BRANCH   1  27
ATOM     27  C   UNL     1       7.257  -4.263 -25.410  1.00  0.00     0.339 C 
ATOM     28  C   UNL     1       6.787  -4.812 -24.048  1.00  0.00     0.214 C 
ATOM     29  O   UNL     1       6.658  -4.938 -26.508  1.00  0.00    -0.332 OA
ATOM     30  C   UNL     1       5.255  -4.769 -23.961  1.00  0.00     0.180 C 
ATOM     31  C   UNL     1       5.233  -4.925 -26.497  1.00  0.00     0.179 C 
ATOM     32  C   UNL     1       4.629  -5.465 -25.181  1.00  0.00     0.177 C 
BRANCH  28  33
ATOM     33  O   UNL     1       7.241  -6.131 -23.877  1.00  0.00    -0.384 OA
ATOM     34  H   UNL     1       6.851  -6.668 -24.614  1.00  0.00     0.211 HD
ENDBRANCH  28  33
BRANCH  30  35
ATOM     35  O   UNL     1       4.813  -5.387 -22.778  1.00  0.00    -0.387 OA
ATOM     36  H   UNL     1       5.399  -5.058 -22.048  1.00  0.00     0.211 HD
ENDBRANCH  30  35
BRANCH  31  37
ATOM     37  C   UNL     1       4.636  -3.568 -26.930  1.00  0.00     0.191 C 
BRANCH  37  38
ATOM     38  O   UNL     1       5.366  -3.022 -27.995  1.00  0.00    -0.394 OA
ATOM     39  H   UNL     1       5.543  -3.765 -28.629  1.00  0.00     0.210 HD
ENDBRANCH  37  38
ENDBRANCH  31  37
BRANCH  32  40
ATOM     40  O   UNL     1       4.846  -6.854 -25.118  1.00  0.00    -0.387 OA
ATOM     41  H   UNL     1       4.096  -7.289 -25.600  1.00  0.00     0.211 HD
ENDBRANCH  32  40
ENDBRANCH   1  27
TORSDOF 12
ENDMDL
MODEL 8
REMARK VINA RESULT:    -4.203      1.941      6.673
REMARK INTER + INTRA:          -7.949
REMARK INTER:                  -6.723
REMARK INTRA:                  -1.226
REMARK UNBOUND:                -1.780
REMARK SMILES O=c1c(O[C@@H]2O[C@H](CO)[C@@H](O)[C@@H](O)[C@H]2O)c(-c2ccc(O)c(O)c2)oc2cc(O)cc(O)c12
REMARK SMILES IDX 4 1 3 2 16 3 25 4 2 5 26 6 1 7 33 8 27 9 31 10 28 11 30 12
REMARK SMILES IDX 17 13 18 14 19 15 20 16 24 17 22 18 21 19 23 21 32 23 29 25
REMARK SMILES IDX 5 27 14 28 6 29 12 30 7 31 10 32 15 33 13 35 8 37 9 38 11 40
REMARK H PARENT 21 20 23 22 32 24 29 26 15 34 13 36 9 39 11 41
REMARK Flexibility Score: inf
ROOT
ATOM      1  O   UNL     1       8.760  -1.319 -24.857  1.00  0.00    -0.454 OA
ENDROOT
BRANCH   1   2
ATOM      2  C   UNL     1       7.782  -0.897 -23.948  1.00  0.00     0.214 A 
ATOM      3  C   UNL     1       6.486  -1.449 -23.946  1.00  0.00     0.180 A 
ATOM      4  O   UNL     1       5.560  -0.942 -23.139  1.00  0.00    -0.452 OA
ATOM      5  C   UNL     1       8.094   0.110 -23.026  1.00  0.00     0.239 A 
ATOM      6  C   UNL     1       5.801   0.033 -22.272  1.00  0.00     0.146 A 
ATOM      7  O   UNL     1       9.250   0.605 -23.051  1.00  0.00    -0.285 OA
ATOM      8  C   UNL     1       7.103   0.581 -22.133  1.00  0.00     0.111 A 
ATOM      9  C   UNL     1       4.743   0.510 -21.493  1.00  0.00     0.094 A 
ATOM     10  C   UNL     1       7.316   1.587 -21.144  1.00  0.00     0.134 A 
ATOM     11  C   UNL     1       4.949   1.534 -20.572  1.00  0.00     0.123 A 
ATOM     12  C   UNL     1       6.229   2.069 -20.403  1.00  0.00     0.093 A 
BRANCH   3  13
ATOM     13  C   UNL     1       6.108  -2.586 -24.814  1.00  0.00     0.025 A 
ATOM     14  C   UNL     1       6.308  -3.898 -24.366  1.00  0.00     0.016 A 
ATOM     15  C   UNL     1       5.955  -4.981 -25.173  1.00  0.00     0.051 A 
ATOM     16  C   UNL     1       5.411  -4.776 -26.446  1.00  0.00     0.157 A 
ATOM     17  C   UNL     1       5.587  -2.375 -26.102  1.00  0.00     0.062 A 
ATOM     18  C   UNL     1       5.228  -3.455 -26.919  1.00  0.00     0.158 A 
BRANCH  16  19
ATOM     19  O   UNL     1       5.072  -5.901 -27.200  1.00  0.00    -0.504 OA
ATOM     20  H   UNL     1       4.122  -6.193 -27.382  1.00  0.00     0.293 HD
ENDBRANCH  16  19
BRANCH  18  21
ATOM     21  O   UNL     1       4.704  -3.171 -28.181  1.00  0.00    -0.504 OA
ATOM     22  H   UNL     1       4.150  -2.353 -28.391  1.00  0.00     0.293 HD
ENDBRANCH  18  21
ENDBRANCH   3  13
BRANCH  10  23
ATOM     23  O   UNL     1       8.568   2.125 -20.834  1.00  0.00    -0.507 OA
ATOM     24  H   UNL     1       9.437   1.841 -21.260  1.00  0.00     0.293 HD
ENDBRANCH  10  23
BRANCH  11  25
ATOM     25  O   UNL     1       3.876   2.008 -19.821  1.00  0.00    -0.508 OA
ATOM     26  H   UNL     1       3.895   2.003 -18.808  1.00  0.00     0.293 HD
ENDBRANCH  11  25
ENDBRANCH   1   2
BRANCH   1  27
ATOM     27  C   UNL     1       8.959  -0.698 -26.130  1.00  0.00     0.339 C 
ATOM     28  C   UNL     1       9.919   0.503 -26.021  1.00  0.00     0.214 C 
ATOM     29  O   UNL     1       9.381  -1.651 -27.096  1.00  0.00    -0.332 OA
ATOM     30  C   UNL     1      11.346   0.015 -25.738  1.00  0.00     0.180 C 
ATOM     31  C   UNL     1      10.696  -2.157 -26.884  1.00  0.00     0.179 C 
ATOM     32  C   UNL     1      11.765  -1.046 -26.768  1.00  0.00     0.177 C 
BRANCH  28  33
ATOM     33  O   UNL     1       9.893   1.250 -27.211  1.00  0.00    -0.384 OA
ATOM     34  H   UNL     1       9.657   2.181 -26.962  1.00  0.00     0.211 HD
ENDBRANCH  28  33
BRANCH  30  35
ATOM     35  O   UNL     1      12.248   1.093 -25.767  1.00  0.00    -0.387 OA
ATOM     36  H   UNL     1      12.426   1.343 -24.823  1.00  0.00     0.211 HD
ENDBRANCH  30  35
BRANCH  31  37
ATOM     37  C   UNL     1      10.769  -3.196 -25.744  1.00  0.00     0.191 C 
BRANCH  37  38
ATOM     38  O   UNL     1       9.603  -3.972 -25.705  1.00  0.00    -0.394 OA
ATOM     39  H   UNL     1       9.211  -3.852 -24.801  1.00  0.00     0.210 HD
ENDBRANCH  37  38
ENDBRANCH  31  37
BRANCH  32  40
ATOM     40  O   UNL     1      11.947  -0.457 -28.033  1.00  0.00    -0.387 OA
ATOM     41  H   UNL     1      11.200  -0.764 -28.609  1.00  0.00     0.211 HD
ENDBRANCH  32  40
ENDBRANCH   1  27
TORSDOF 12
ENDMDL
MODEL 9
REMARK VINA RESULT:    -4.121      3.455      7.922
REMARK INTER + INTRA:          -7.828
REMARK INTER:                  -6.476
REMARK INTRA:                  -1.352
REMARK UNBOUND:                -1.780
REMARK SMILES O=c1c(O[C@@H]2O[C@H](CO)[C@@H](O)[C@@H](O)[C@H]2O)c(-c2ccc(O)c(O)c2)oc2cc(O)cc(O)c12
REMARK SMILES IDX 4 1 3 2 16 3 25 4 2 5 26 6 1 7 33 8 27 9 31 10 28 11 30 12
REMARK SMILES IDX 17 13 18 14 19 15 20 16 24 17 22 18 21 19 23 21 32 23 29 25
REMARK SMILES IDX 5 27 14 28 6 29 12 30 7 31 10 32 15 33 13 35 8 37 9 38 11 40
REMARK H PARENT 21 20 23 22 32 24 29 26 15 34 13 36 9 39 11 41
REMARK Flexibility Score: inf
ROOT
ATOM      1  O   UNL     1       6.352  -2.727 -26.285  1.00  0.00    -0.454 OA
ENDROOT
BRANCH   1   2
ATOM      2  C   UNL     1       5.801  -3.721 -25.467  1.00  0.00     0.214 A 
ATOM      3  C   UNL     1       5.435  -3.461 -24.133  1.00  0.00     0.180 A 
ATOM      4  O   UNL     1       5.018  -4.459 -23.361  1.00  0.00    -0.452 OA
ATOM      5  C   UNL     1       5.622  -5.010 -25.983  1.00  0.00     0.239 A 
ATOM      6  C   UNL     1       4.863  -5.703 -23.797  1.00  0.00     0.146 A 
ATOM      7  O   UNL     1       5.969  -5.232 -27.172  1.00  0.00    -0.285 OA
ATOM      8  C   UNL     1       5.111  -6.037 -25.154  1.00  0.00     0.111 A 
ATOM      9  C   UNL     1       4.447  -6.681 -22.889  1.00  0.00     0.094 A 
ATOM     10  C   UNL     1       4.872  -7.378 -25.579  1.00  0.00     0.134 A 
ATOM     11  C   UNL     1       4.274  -8.000 -23.302  1.00  0.00     0.123 A 
ATOM     12  C   UNL     1       4.490  -8.343 -24.639  1.00  0.00     0.093 A 
BRANCH   3  13
ATOM     13  C   UNL     1       5.494  -2.104 -23.545  1.00  0.00     0.025 A 
ATOM     14  C   UNL     1       4.318  -1.491 -23.094  1.00  0.00     0.016 A 
ATOM     15  C   UNL     1       4.357  -0.212 -22.537  1.00  0.00     0.051 A 
ATOM     16  C   UNL     1       5.566   0.484 -22.431  1.00  0.00     0.157 A 
ATOM     17  C   UNL     1       6.706  -1.398 -23.466  1.00  0.00     0.062 A 
ATOM     18  C   UNL     1       6.757  -0.114 -22.906  1.00  0.00     0.158 A 
BRANCH  16  19
ATOM     19  O   UNL     1       5.538   1.757 -21.856  1.00  0.00    -0.504 OA
ATOM     20  H   UNL     1       5.522   1.926 -20.861  1.00  0.00     0.293 HD
ENDBRANCH  16  19
BRANCH  18  21
ATOM     21  O   UNL     1       7.997   0.522 -22.848  1.00  0.00    -0.504 OA
ATOM     22  H   UNL     1       8.732   0.391 -23.529  1.00  0.00     0.293 HD
ENDBRANCH  18  21
ENDBRANCH   3  13
BRANCH  10  23
ATOM     23  O   UNL     1       4.971  -7.806 -26.907  1.00  0.00    -0.507 OA
ATOM     24  H   UNL     1       4.555  -8.649 -27.271  1.00  0.00     0.293 HD
ENDBRANCH  10  23
BRANCH  11  25
ATOM     25  O   UNL     1       3.879  -8.963 -22.376  1.00  0.00    -0.508 OA
ATOM     26  H   UNL     1       4.542  -9.616 -21.975  1.00  0.00     0.293 HD
ENDBRANCH  11  25
ENDBRANCH   1   2
BRANCH   1  27
ATOM     27  C   UNL     1       5.617  -2.084 -27.329  1.00  0.00     0.339 C 
ATOM     28  C   UNL     1       4.788  -0.904 -26.784  1.00  0.00     0.214 C 
ATOM     29  O   UNL     1       6.479  -1.702 -28.393  1.00  0.00    -0.332 OA
ATOM     30  C   UNL     1       5.715   0.245 -26.366  1.00  0.00     0.180 C 
ATOM     31  C   UNL     1       7.379  -0.646 -28.067  1.00  0.00     0.179 C 
ATOM     32  C   UNL     1       6.668   0.611 -27.515  1.00  0.00     0.177 C 
BRANCH  28  33
ATOM     33  O   UNL     1       3.882  -0.459 -27.762  1.00  0.00    -0.384 OA
ATOM     34  H   UNL     1       3.032  -0.250 -27.293  1.00  0.00     0.211 HD
ENDBRANCH  28  33
BRANCH  30  35
ATOM     35  O   UNL     1       4.962   1.371 -25.990  1.00  0.00    -0.387 OA
ATOM     36  H   UNL     1       4.422   1.105 -25.201  1.00  0.00     0.211 HD
ENDBRANCH  30  35
BRANCH  31  37
ATOM     37  C   UNL     1       8.566  -1.108 -27.194  1.00  0.00     0.191 C 
BRANCH  37  38
ATOM     38  O   UNL     1       9.032  -2.360 -27.615  1.00  0.00    -0.394 OA
ATOM     39  H   UNL     1       8.487  -3.041 -27.143  1.00  0.00     0.210 HD
ENDBRANCH  37  38
ENDBRANCH  31  37
BRANCH  32  40
ATOM     40  O   UNL     1       5.959   1.229 -28.562  1.00  0.00    -0.387 OA
ATOM     41  H   UNL     1       5.763   0.527 -29.236  1.00  0.00     0.211 HD
ENDBRANCH  32  40
ENDBRANCH   1  27
TORSDOF 12
ENDMDL
