MODEL 1
REMARK VINA RESULT:    -4.623      0.000      0.000
REMARK INTER + INTRA:          -6.160
REMARK INTER:                  -6.515
REMARK INTRA:                   0.355
REMARK UNBOUND:                 0.355
REMARK SMILES CC1=CCC(=C(C)C)C(=O)CC(C)=CCC1
REMARK SMILES IDX 12 1 14 2 13 3 15 4 16 5 2 6 1 7 3 8 11 10 9 11 10 12 5 13
REMARK SMILES IDX 6 14 7 15 8 16 4 17
REMARK H PARENT
REMARK Flexibility Score: 60.00
ROOT
ATOM      1  C   UNL     1      21.102 -13.100  68.409  1.00  0.00    -0.070 C 
ATOM      2  C   UNL     1      22.024 -12.961  67.429  1.00  0.00    -0.027 C 
ATOM      3  C   UNL     1      21.573 -13.546  69.770  1.00  0.00     0.039 C 
ENDROOT
BRANCH   2   4
ATOM      4  C   UNL     1      21.752 -12.387  66.061  1.00  0.00     0.032 C 
BRANCH   4   5
ATOM      5  C   UNL     1      21.883 -10.861  66.102  1.00  0.00     0.034 C 
BRANCH   5   6
ATOM      6  C   UNL     1      20.942 -10.173  65.134  1.00  0.00    -0.077 C 
ATOM      7  C   UNL     1      21.271 -10.201  63.663  1.00  0.00     0.039 C 
ATOM      8  C   UNL     1      19.851  -9.466  65.523  1.00  0.00    -0.023 CG0
ATOM      9  G   UNL     1      19.285  -9.339  66.925  1.00  0.00     0.000 G0
ENDBRANCH   5   6
ENDBRANCH   4   5
ENDBRANCH   2   4
BRANCH   1  10
ATOM     10  C   UNL     1      19.621 -12.851  68.201  1.00  0.00     0.111 C 
BRANCH  10  11
ATOM     11  C   UNL     1      19.249 -11.413  68.469  1.00  0.00     0.163 C 
ATOM     12  O   UNL     1      19.560 -10.940  69.596  1.00  0.00    -0.294 OA
BRANCH  11  13
ATOM     13  C   UNL     1      18.521 -10.543  67.487  1.00  0.00    -0.002 C 
ATOM     14  C   UNL     1      17.302 -10.922  66.991  1.00  0.00    -0.069 C 
ATOM     15  C   UNL     1      16.647 -10.198  65.836  1.00  0.00     0.039 C 
ATOM     16  C   UNL     1      16.517 -12.058  67.607  1.00  0.00     0.039 C 
BRANCH  13  17
ATOM     17  C   UNL     1      19.257  -9.329  66.928  1.00  0.00     0.066 CG0
ATOM     18  G   UNL     1      19.849  -9.480  65.539  1.00  0.00     0.000 G0
ENDBRANCH  13  17
ENDBRANCH  11  13
ENDBRANCH  10  11
ENDBRANCH   1  10
TORSDOF 0
ENDMDL
MODEL 2
REMARK VINA RESULT:    -4.608     15.946     18.600
REMARK INTER + INTRA:          -6.139
REMARK INTER:                  -6.017
REMARK INTRA:                  -0.123
REMARK UNBOUND:                 0.355
REMARK SMILES CC1=CCC(=C(C)C)C(=O)CC(C)=CCC1
REMARK SMILES IDX 12 1 14 2 13 3 15 4 16 5 2 6 1 7 3 8 11 10 9 11 10 12 5 13
REMARK SMILES IDX 6 14 7 15 8 16 4 17
REMARK H PARENT
REMARK Flexibility Score: 60.00
ROOT
ATOM      1  C   UNL     1       6.257   4.144  63.101  1.00  0.00    -0.070 C 
ATOM      2  C   UNL     1       7.112   5.052  62.575  1.00  0.00    -0.027 C 
ATOM      3  C   UNL     1       5.267   4.615  64.135  1.00  0.00     0.039 C 
ENDROOT
BRANCH   2   4
ATOM      4  C   UNL     1       8.060   4.787  61.433  1.00  0.00     0.032 C 
BRANCH   4   5
ATOM      5  C   UNL     1       9.403   4.285  61.977  1.00  0.00     0.034 C 
BRANCH   5   6
ATOM      6  C   UNL     1       9.997   3.183  61.124  1.00  0.00    -0.077 C 
ATOM      7  C   UNL     1      10.509   3.531  59.749  1.00  0.00     0.039 C 
ATOM      8  C   UNL     1      10.030   1.880  61.498  1.00  0.00    -0.023 CG0
ATOM      9  G   UNL     1       9.633   1.294  62.841  1.00  0.00     0.000 G0
ENDBRANCH   5   6
ENDBRANCH   4   5
ENDBRANCH   2   4
BRANCH   1  10
ATOM     10  C   UNL     1       6.261   2.677  62.717  1.00  0.00     0.111 C 
BRANCH  10  11
ATOM     11  C   UNL     1       7.216   1.874  63.567  1.00  0.00     0.163 C 
ATOM     12  O   UNL     1       7.204   2.096  64.808  1.00  0.00    -0.294 OA
BRANCH  11  13
ATOM     13  C   UNL     1       8.174   0.861  63.014  1.00  0.00    -0.002 C 
ATOM     14  C   UNL     1       7.783  -0.439  62.829  1.00  0.00    -0.069 C 
ATOM     15  C   UNL     1       8.773  -1.534  62.499  1.00  0.00     0.039 C 
ATOM     16  C   UNL     1       6.327  -0.842  62.894  1.00  0.00     0.039 C 
BRANCH  13  17
ATOM     17  C   UNL     1       9.632   1.277  62.844  1.00  0.00     0.066 CG0
ATOM     18  G   UNL     1      10.013   1.864  61.497  1.00  0.00     0.000 G0
ENDBRANCH  13  17
ENDBRANCH  11  13
ENDBRANCH  10  11
ENDBRANCH   1  10
TORSDOF 0
ENDMDL
MODEL 3
REMARK VINA RESULT:    -4.591      3.385      5.364
REMARK INTER + INTRA:          -6.115
REMARK INTER:                  -6.339
REMARK INTRA:                   0.223
REMARK UNBOUND:                 0.355
REMARK SMILES CC1=CCC(=C(C)C)C(=O)CC(C)=CCC1
REMARK SMILES IDX 12 1 14 2 13 3 15 4 16 5 2 6 1 7 3 8 11 10 9 11 10 12 5 13
REMARK SMILES IDX 6 14 7 15 8 16 4 17
REMARK H PARENT
REMARK Flexibility Score: 60.00
ROOT
ATOM      1  C   UNL     1      15.309 -11.827  65.199  1.00  0.00    -0.070 C 
ATOM      2  C   UNL     1      15.787 -11.347  66.371  1.00  0.00    -0.027 C 
ATOM      3  C   UNL     1      13.859 -11.582  64.870  1.00  0.00     0.039 C 
ENDROOT
BRANCH   2   4
ATOM      4  C   UNL     1      17.236 -11.372  66.789  1.00  0.00     0.032 C 
BRANCH   4   5
ATOM      5  C   UNL     1      17.901 -10.036  66.440  1.00  0.00     0.034 C 
BRANCH   5   6
ATOM      6  C   UNL     1      18.813 -10.142  65.235  1.00  0.00    -0.077 C 
ATOM      7  C   UNL     1      20.228 -10.622  65.440  1.00  0.00     0.039 C 
ATOM      8  C   UNL     1      18.453  -9.758  63.985  1.00  0.00    -0.023 CG0
ATOM      9  G   UNL     1      17.083  -9.301  63.518  1.00  0.00     0.000 G0
ENDBRANCH   5   6
ENDBRANCH   4   5
ENDBRANCH   2   4
BRANCH   1  10
ATOM     10  C   UNL     1      16.153 -12.612  64.215  1.00  0.00     0.111 C 
BRANCH  10  11
ATOM     11  C   UNL     1      16.552 -11.777  63.023  1.00  0.00     0.163 C 
ATOM     12  O   UNL     1      17.246 -12.341  62.133  1.00  0.00    -0.294 OA
BRANCH  11  13
ATOM     13  C   UNL     1      16.189 -10.331  62.858  1.00  0.00    -0.002 C 
ATOM     14  C   UNL     1      15.179  -9.959  62.011  1.00  0.00    -0.069 C 
ATOM     15  C   UNL     1      14.937  -8.513  61.640  1.00  0.00     0.039 C 
ATOM     16  C   UNL     1      14.216 -10.973  61.436  1.00  0.00     0.039 C 
BRANCH  13  17
ATOM     17  C   UNL     1      17.090  -9.290  63.516  1.00  0.00     0.066 CG0
ATOM     18  G   UNL     1      18.448  -9.776  63.990  1.00  0.00     0.000 G0
ENDBRANCH  13  17
ENDBRANCH  11  13
ENDBRANCH  10  11
ENDBRANCH   1  10
TORSDOF 0
ENDMDL
MODEL 4
REMARK VINA RESULT:    -4.531      1.953      4.320
REMARK INTER + INTRA:          -6.031
REMARK INTER:                  -6.022
REMARK INTRA:                  -0.009
REMARK UNBOUND:                 0.355
REMARK SMILES CC1=CCC(=C(C)C)C(=O)CC(C)=CCC1
REMARK SMILES IDX 12 1 14 2 13 3 15 4 16 5 2 6 1 7 3 8 11 10 9 11 10 12 5 13
REMARK SMILES IDX 6 14 7 15 8 16 4 17
REMARK H PARENT
REMARK Flexibility Score: 60.00
ROOT
ATOM      1  C   UNL     1      18.362 -11.538  67.572  1.00  0.00    -0.070 C 
ATOM      2  C   UNL     1      17.044 -11.326  67.352  1.00  0.00    -0.027 C 
ATOM      3  C   UNL     1      18.865 -11.472  68.992  1.00  0.00     0.039 C 
ENDROOT
BRANCH   2   4
ATOM      4  C   UNL     1      16.350 -11.499  66.025  1.00  0.00     0.032 C 
BRANCH   4   5
ATOM      5  C   UNL     1      16.430 -10.195  65.222  1.00  0.00     0.034 C 
BRANCH   5   6
ATOM      6  C   UNL     1      16.855 -10.425  63.786  1.00  0.00    -0.077 C 
ATOM      7  C   UNL     1      15.908 -11.144  62.858  1.00  0.00     0.039 C 
ATOM      8  C   UNL     1      18.076 -10.085  63.301  1.00  0.00    -0.023 CG0
ATOM      9  G   UNL     1      19.169  -9.310  64.013  1.00  0.00     0.000 G0
ENDBRANCH   5   6
ENDBRANCH   4   5
ENDBRANCH   2   4
BRANCH   1  10
ATOM     10  C   UNL     1      19.357 -11.818  66.463  1.00  0.00     0.111 C 
BRANCH  10  11
ATOM     11  C   UNL     1      20.123 -10.580  66.068  1.00  0.00     0.163 C 
ATOM     12  O   UNL     1      20.628  -9.895  66.998  1.00  0.00    -0.294 OA
BRANCH  11  13
ATOM     13  C   UNL     1      20.291 -10.120  64.649  1.00  0.00    -0.002 C 
ATOM     14  C   UNL     1      21.484 -10.292  63.998  1.00  0.00    -0.069 C 
ATOM     15  C   UNL     1      21.769  -9.642  62.663  1.00  0.00     0.039 C 
ATOM     16  C   UNL     1      22.567 -11.187  64.558  1.00  0.00     0.039 C 
BRANCH  13  17
ATOM     17  C   UNL     1      19.165  -9.300  64.027  1.00  0.00     0.066 CG0
ATOM     18  G   UNL     1      18.089 -10.079  63.294  1.00  0.00     0.000 G0
ENDBRANCH  13  17
ENDBRANCH  11  13
ENDBRANCH  10  11
ENDBRANCH   1  10
TORSDOF 0
ENDMDL
MODEL 5
REMARK VINA RESULT:    -4.466      2.607      4.583
REMARK INTER + INTRA:          -5.938
REMARK INTER:                  -6.375
REMARK INTRA:                   0.437
REMARK UNBOUND:                 0.355
REMARK SMILES CC1=CCC(=C(C)C)C(=O)CC(C)=CCC1
REMARK SMILES IDX 12 1 14 2 13 3 15 4 16 5 2 6 1 7 3 8 11 10 9 11 10 12 5 13
REMARK SMILES IDX 6 14 7 15 8 16 4 17
REMARK H PARENT
REMARK Flexibility Score: 60.00
ROOT
ATOM      1  C   UNL     1      19.426  -9.581  64.915  1.00  0.00    -0.070 C 
ATOM      2  C   UNL     1      19.650  -9.535  66.249  1.00  0.00    -0.027 C 
ATOM      3  C   UNL     1      20.620  -9.637  63.996  1.00  0.00     0.039 C 
ENDROOT
BRANCH   2   4
ATOM      4  C   UNL     1      18.581  -9.624  67.309  1.00  0.00     0.032 C 
BRANCH   4   5
ATOM      5  C   UNL     1      18.850 -10.828  68.219  1.00  0.00     0.034 C 
BRANCH   5   6
ATOM      6  C   UNL     1      18.953 -12.127  67.446  1.00  0.00    -0.077 C 
ATOM      7  C   UNL     1      20.216 -12.943  67.571  1.00  0.00     0.039 C 
ATOM      8  C   UNL     1      18.001 -12.566  66.586  1.00  0.00    -0.023 CG0
ATOM      9  G   UNL     1      16.633 -11.959  66.335  1.00  0.00     0.000 G0
ENDBRANCH   5   6
ENDBRANCH   4   5
ENDBRANCH   2   4
BRANCH   1  10
ATOM     10  C   UNL     1      18.040  -9.560  64.302  1.00  0.00     0.111 C 
BRANCH  10  11
ATOM     11  C   UNL     1      17.494 -10.951  64.095  1.00  0.00     0.163 C 
ATOM     12  O   UNL     1      18.029 -11.649  63.191  1.00  0.00    -0.294 OA
BRANCH  11  13
ATOM     13  C   UNL     1      16.353 -11.526  64.882  1.00  0.00    -0.002 C 
ATOM     14  C   UNL     1      15.078 -11.498  64.382  1.00  0.00    -0.069 C 
ATOM     15  C   UNL     1      13.877 -11.850  65.230  1.00  0.00     0.039 C 
ATOM     16  C   UNL     1      14.806 -11.160  62.933  1.00  0.00     0.039 C 
BRANCH  13  17
ATOM     17  C   UNL     1      16.628 -11.969  66.315  1.00  0.00     0.066 CG0
ATOM     18  G   UNL     1      18.000 -12.559  66.589  1.00  0.00     0.000 G0
ENDBRANCH  13  17
ENDBRANCH  11  13
ENDBRANCH  10  11
ENDBRANCH   1  10
TORSDOF 0
ENDMDL
MODEL 6
REMARK VINA RESULT:    -4.451      2.944      4.014
REMARK INTER + INTRA:          -5.917
REMARK INTER:                  -6.013
REMARK INTRA:                   0.096
REMARK UNBOUND:                 0.355
REMARK SMILES CC1=CCC(=C(C)C)C(=O)CC(C)=CCC1
REMARK SMILES IDX 12 1 14 2 13 3 15 4 16 5 2 6 1 7 3 8 11 10 9 11 10 12 5 13
REMARK SMILES IDX 6 14 7 15 8 16 4 17
REMARK H PARENT
REMARK Flexibility Score: 60.00
ROOT
ATOM      1  C   UNL     1      17.387 -11.766  66.647  1.00  0.00    -0.070 C 
ATOM      2  C   UNL     1      18.280 -10.840  67.065  1.00  0.00    -0.027 C 
ATOM      3  C   UNL     1      16.049 -11.827  67.338  1.00  0.00     0.039 C 
ENDROOT
BRANCH   2   4
ATOM      4  C   UNL     1      19.598 -10.544  66.394  1.00  0.00     0.032 C 
BRANCH   4   5
ATOM      5  C   UNL     1      19.472  -9.282  65.533  1.00  0.00     0.034 C 
BRANCH   5   6
ATOM      6  C   UNL     1      19.439  -9.592  64.051  1.00  0.00    -0.077 C 
ATOM      7  C   UNL     1      20.745  -9.679  63.302  1.00  0.00     0.039 C 
ATOM      8  C   UNL     1      18.293  -9.725  63.337  1.00  0.00    -0.023 CG0
ATOM      9  G   UNL     1      16.871  -9.736  63.867  1.00  0.00     0.000 G0
ENDBRANCH   5   6
ENDBRANCH   4   5
ENDBRANCH   2   4
BRANCH   1  10
ATOM     10  C   UNL     1      17.673 -12.756  65.534  1.00  0.00     0.111 C 
BRANCH  10  11
ATOM     11  C   UNL     1      17.105 -12.298  64.213  1.00  0.00     0.163 C 
ATOM     12  O   UNL     1      17.428 -12.959  63.189  1.00  0.00    -0.294 OA
BRANCH  11  13
ATOM     13  C   UNL     1      16.210 -11.103  64.059  1.00  0.00    -0.002 C 
ATOM     14  C   UNL     1      14.857 -11.261  63.919  1.00  0.00    -0.069 C 
ATOM     15  C   UNL     1      13.952 -10.113  63.531  1.00  0.00     0.039 C 
ATOM     16  C   UNL     1      14.184 -12.587  64.195  1.00  0.00     0.039 C 
BRANCH  13  17
ATOM     17  C   UNL     1      16.867  -9.738  63.880  1.00  0.00     0.066 CG0
ATOM     18  G   UNL     1      18.283  -9.737  63.334  1.00  0.00     0.000 G0
ENDBRANCH  13  17
ENDBRANCH  11  13
ENDBRANCH  10  11
ENDBRANCH   1  10
TORSDOF 0
ENDMDL
MODEL 7
REMARK VINA RESULT:    -4.411      1.364      3.661
REMARK INTER + INTRA:          -5.861
REMARK INTER:                  -6.057
REMARK INTRA:                   0.196
REMARK UNBOUND:                 0.355
REMARK SMILES CC1=CCC(=C(C)C)C(=O)CC(C)=CCC1
REMARK SMILES IDX 12 1 14 2 13 3 15 4 16 5 2 6 1 7 3 8 11 10 9 11 10 12 5 13
REMARK SMILES IDX 6 14 7 15 8 16 4 17
REMARK H PARENT
REMARK Flexibility Score: 60.00
ROOT
ATOM      1  C   UNL     1      18.160 -12.952  66.798  1.00  0.00    -0.070 C 
ATOM      2  C   UNL     1      17.169 -12.233  66.223  1.00  0.00    -0.027 C 
ATOM      3  C   UNL     1      18.811 -14.041  65.985  1.00  0.00     0.039 C 
ENDROOT
BRANCH   2   4
ATOM      4  C   UNL     1      16.515 -11.019  66.834  1.00  0.00     0.032 C 
BRANCH   4   5
ATOM      5  C   UNL     1      17.210  -9.747  66.337  1.00  0.00     0.034 C 
BRANCH   5   6
ATOM      6  C   UNL     1      18.068  -9.996  65.113  1.00  0.00    -0.077 C 
ATOM      7  C   UNL     1      17.393 -10.116  63.770  1.00  0.00     0.039 C 
ATOM      8  C   UNL     1      19.409 -10.193  65.164  1.00  0.00    -0.023 CG0
ATOM      9  G   UNL     1      20.316 -10.067  66.375  1.00  0.00     0.000 G0
ENDBRANCH   5   6
ENDBRANCH   4   5
ENDBRANCH   2   4
BRANCH   1  10
ATOM     10  C   UNL     1      18.631 -12.730  68.222  1.00  0.00     0.111 C 
BRANCH  10  11
ATOM     11  C   UNL     1      19.722 -11.690  68.299  1.00  0.00     0.163 C 
ATOM     12  O   UNL     1      19.852 -11.074  69.391  1.00  0.00    -0.294 OA
BRANCH  11  13
ATOM     13  C   UNL     1      20.626 -11.343  67.153  1.00  0.00    -0.002 C 
ATOM     14  C   UNL     1      21.773 -12.059  66.930  1.00  0.00    -0.069 C 
ATOM     15  C   UNL     1      22.822 -11.603  65.940  1.00  0.00     0.039 C 
ATOM     16  C   UNL     1      22.030 -13.375  67.628  1.00  0.00     0.039 C 
BRANCH  13  17
ATOM     17  C   UNL     1      20.326 -10.070  66.368  1.00  0.00     0.066 CG0
ATOM     18  G   UNL     1      19.410 -10.217  65.167  1.00  0.00     0.000 G0
ENDBRANCH  13  17
ENDBRANCH  11  13
ENDBRANCH  10  11
ENDBRANCH   1  10
TORSDOF 0
ENDMDL
MODEL 8
REMARK VINA RESULT:    -4.253      2.833      5.166
REMARK INTER + INTRA:          -5.639
REMARK INTER:                  -5.970
REMARK INTRA:                   0.331
REMARK UNBOUND:                 0.355
REMARK SMILES CC1=CCC(=C(C)C)C(=O)CC(C)=CCC1
REMARK SMILES IDX 12 1 14 2 13 3 15 4 16 5 2 6 1 7 3 8 11 10 9 11 10 12 5 13
REMARK SMILES IDX 6 14 7 15 8 16 4 17
REMARK H PARENT
REMARK Flexibility Score: 60.00
ROOT
ATOM      1  C   UNL     1      16.582 -12.573  65.176  1.00  0.00    -0.070 C 
ATOM      2  C   UNL     1      15.422 -12.450  64.489  1.00  0.00    -0.027 C 
ATOM      3  C   UNL     1      17.645 -13.484  64.618  1.00  0.00     0.039 C 
ENDROOT
BRANCH   2   4
ATOM      4  C   UNL     1      14.319 -11.477  64.821  1.00  0.00     0.032 C 
BRANCH   4   5
ATOM      5  C   UNL     1      14.242 -10.390  63.743  1.00  0.00     0.034 C 
BRANCH   5   6
ATOM      6  C   UNL     1      15.310 -10.550  62.681  1.00  0.00    -0.077 C 
ATOM      7  C   UNL     1      14.970 -11.313  61.425  1.00  0.00     0.039 C 
ATOM      8  C   UNL     1      16.585 -10.109  62.825  1.00  0.00    -0.023 CG0
ATOM      9  G   UNL     1      17.150  -9.274  63.960  1.00  0.00     0.000 G0
ENDBRANCH   5   6
ENDBRANCH   4   5
ENDBRANCH   2   4
BRANCH   1  10
ATOM     10  C   UNL     1      16.854 -11.858  66.484  1.00  0.00     0.111 C 
BRANCH  10  11
ATOM     11  C   UNL     1      17.352 -10.450  66.264  1.00  0.00     0.163 C 
ATOM     12  O   UNL     1      17.174  -9.625  67.200  1.00  0.00    -0.294 OA
BRANCH  11  13
ATOM     13  C   UNL     1      18.015  -9.988  64.999  1.00  0.00    -0.002 C 
ATOM     14  C   UNL     1      19.375 -10.062  64.859  1.00  0.00    -0.069 C 
ATOM     15  C   UNL     1      20.099  -9.400  63.709  1.00  0.00     0.039 C 
ATOM     16  C   UNL     1      20.226 -10.857  65.824  1.00  0.00     0.039 C 
BRANCH  13  17
ATOM     17  C   UNL     1      17.153  -9.272  63.964  1.00  0.00     0.066 CG0
ATOM     18  G   UNL     1      16.602 -10.126  62.837  1.00  0.00     0.000 G0
ENDBRANCH  13  17
ENDBRANCH  11  13
ENDBRANCH  10  11
ENDBRANCH   1  10
TORSDOF 0
ENDMDL
MODEL 9
REMARK VINA RESULT:    -4.113      9.485     12.396
REMARK INTER + INTRA:          -5.442
REMARK INTER:                  -5.292
REMARK INTRA:                  -0.149
REMARK UNBOUND:                 0.355
REMARK SMILES CC1=CCC(=C(C)C)C(=O)CC(C)=CCC1
REMARK SMILES IDX 12 1 14 2 13 3 15 4 16 5 2 6 1 7 3 8 11 10 9 11 10 12 5 13
REMARK SMILES IDX 6 14 7 15 8 16 4 17
REMARK H PARENT
REMARK Flexibility Score: 60.00
ROOT
ATOM      1  C   UNL     1      10.920  -2.795  62.177  1.00  0.00    -0.070 C 
ATOM      2  C   UNL     1      10.620  -4.048  62.591  1.00  0.00    -0.027 C 
ATOM      3  C   UNL     1       9.790  -1.811  62.018  1.00  0.00     0.039 C 
ENDROOT
BRANCH   2   4
ATOM      4  C   UNL     1      11.634  -5.108  62.943  1.00  0.00     0.032 C 
BRANCH   4   5
ATOM      5  C   UNL     1      11.876  -6.018  61.733  1.00  0.00     0.034 C 
BRANCH   5   6
ATOM      6  C   UNL     1      13.334  -6.400  61.578  1.00  0.00    -0.077 C 
ATOM      7  C   UNL     1      13.913  -7.431  62.515  1.00  0.00     0.039 C 
ATOM      8  C   UNL     1      14.173  -5.813  60.689  1.00  0.00    -0.023 CG0
ATOM      9  G   UNL     1      13.819  -4.803  59.613  1.00  0.00     0.000 G0
ENDBRANCH   5   6
ENDBRANCH   4   5
ENDBRANCH   2   4
BRANCH   1  10
ATOM     10  C   UNL     1      12.329  -2.342  61.847  1.00  0.00     0.111 C 
BRANCH  10  11
ATOM     11  C   UNL     1      12.688  -2.622  60.408  1.00  0.00     0.163 C 
ATOM     12  O   UNL     1      11.867  -2.248  59.528  1.00  0.00    -0.294 OA
BRANCH  11  13
ATOM     13  C   UNL     1      13.941  -3.330  59.984  1.00  0.00    -0.002 C 
ATOM     14  C   UNL     1      15.105  -2.633  59.795  1.00  0.00    -0.069 C 
ATOM     15  C   UNL     1      16.320  -3.261  59.149  1.00  0.00     0.039 C 
ATOM     16  C   UNL     1      15.256  -1.205  60.269  1.00  0.00     0.039 C 
BRANCH  13  17
ATOM     17  C   UNL     1      13.833  -4.802  59.597  1.00  0.00     0.066 CG0
ATOM     18  G   UNL     1      14.161  -5.811  60.682  1.00  0.00     0.000 G0
ENDBRANCH  13  17
ENDBRANCH  11  13
ENDBRANCH  10  11
ENDBRANCH   1  10
TORSDOF 0
ENDMDL
