MODEL 1
REMARK VINA RESULT:    -1.713      0.000      0.000
REMARK INTER + INTRA:          -0.033
REMARK INTER:                  -2.615
REMARK INTRA:                   2.581
REMARK UNBOUND:                 2.581
REMARK SMILES CC1=CCC[C@@H](C)C(=O)C[C@@H](C(C)C)C(=O)C1
REMARK SMILES IDX 8 1 9 2 6 3 7 4 5 5 4 6 3 7 2 8 1 9 10 11 11 12 15 13 16 14
REMARK SMILES IDX 17 15 12 17 13 18 14 19
REMARK H PARENT
REMARK Flexibility Score: 70.00
ROOT
ATOM      1  C   UNL     1      25.266 -12.345   7.163  1.00  0.00     0.136 C 
ATOM      2  O   UNL     1      24.418 -11.959   7.953  1.00  0.00    -0.299 OA
ENDROOT
BRANCH   1   3
ATOM      3  C   UNL     1      26.727 -12.072   7.468  1.00  0.00     0.053 C 
ATOM      4  C   UNL     1      27.102 -12.600   8.859  1.00  0.00     0.016 C 
BRANCH   3   5
ATOM      5  C   UNL     1      27.065 -10.575   7.335  1.00  0.00     0.015 C 
BRANCH   5   6
ATOM      6  C   UNL     1      26.515  -9.974   6.030  1.00  0.00     0.028 C 
BRANCH   6   7
ATOM      7  C   UNL     1      27.047 -10.719   4.833  1.00  0.00    -0.028 C 
ATOM      8  C   UNL     1      26.328 -11.000   3.721  1.00  0.00    -0.070 CG0
ATOM      9  C   UNL     1      27.027 -11.700   2.584  1.00  0.00     0.039 C 
ATOM     10  G   UNL     1      24.852 -10.654   3.582  1.00  0.00     0.000 G0
ENDBRANCH   6   7
ENDBRANCH   5   6
ENDBRANCH   3   5
ENDBRANCH   1   3
BRANCH   1  11
ATOM     11  C   UNL     1      24.815 -13.052   5.903  1.00  0.00     0.087 C 
BRANCH  11  12
ATOM     12  C   UNL     1      23.615 -12.335   5.225  1.00  0.00     0.066 C 
BRANCH  12  13
ATOM     13  C   UNL     1      23.971 -11.872   3.819  1.00  0.00     0.140 C 
ATOM     14  O   UNL     1      23.603 -12.524   2.852  1.00  0.00    -0.299 OA
BRANCH  13  15
ATOM     15  C   UNL     1      24.841 -10.658   3.596  1.00  0.00     0.106 CG0
ATOM     16  G   UNL     1      26.322 -10.981   3.729  1.00  0.00     0.000 G0
ENDBRANCH  13  15
ENDBRANCH  12  13
BRANCH  12  17
ATOM     17  C   UNL     1      23.044 -11.146   6.065  1.00  0.00    -0.006 C 
ATOM     18  C   UNL     1      21.640 -11.405   6.644  1.00  0.00     0.008 C 
ATOM     19  C   UNL     1      23.046  -9.835   5.261  1.00  0.00     0.008 C 
ENDBRANCH  12  17
ENDBRANCH  11  12
ENDBRANCH   1  11
TORSDOF 1
ENDMDL
MODEL 2
REMARK VINA RESULT:    -0.937      1.656      3.306
REMARK INTER + INTRA:           1.152
REMARK INTER:                  -4.253
REMARK INTRA:                   5.405
REMARK UNBOUND:                 2.581
REMARK SMILES CC1=CCC[C@@H](C)C(=O)C[C@@H](C(C)C)C(=O)C1
REMARK SMILES IDX 8 1 9 2 6 3 7 4 5 5 4 6 3 7 2 8 1 9 10 11 11 12 15 13 16 14
REMARK SMILES IDX 17 15 12 17 13 18 14 19
REMARK H PARENT
REMARK Flexibility Score: 70.00
ROOT
ATOM      1  C   UNL     1      23.421 -11.978   5.481  1.00  0.00     0.136 C 
ATOM      2  O   UNL     1      23.094 -10.918   4.968  1.00  0.00    -0.299 OA
ENDROOT
BRANCH   1   3
ATOM      3  C   UNL     1      23.055 -12.231   6.932  1.00  0.00     0.053 C 
ATOM      4  C   UNL     1      21.806 -11.434   7.327  1.00  0.00     0.016 C 
BRANCH   3   5
ATOM      5  C   UNL     1      24.231 -11.922   7.877  1.00  0.00     0.015 C 
BRANCH   5   6
ATOM      6  C   UNL     1      25.590 -12.253   7.233  1.00  0.00     0.028 C 
BRANCH   6   7
ATOM      7  C   UNL     1      26.425 -11.008   7.080  1.00  0.00    -0.028 C 
ATOM      8  C   UNL     1      26.236 -10.069   6.126  1.00  0.00    -0.070 CG0
ATOM      9  C   UNL     1      27.121  -8.849   6.146  1.00  0.00     0.039 C 
ATOM     10  G   UNL     1      25.185 -10.200   5.033  1.00  0.00     0.000 G0
ENDBRANCH   6   7
ENDBRANCH   5   6
ENDBRANCH   3   5
ENDBRANCH   1   3
BRANCH   1  11
ATOM     11  C   UNL     1      24.201 -12.975   4.651  1.00  0.00     0.087 C 
BRANCH  11  12
ATOM     12  C   UNL     1      24.900 -12.307   3.435  1.00  0.00     0.066 C 
BRANCH  12  13
ATOM     13  C   UNL     1      25.652 -11.051   3.851  1.00  0.00     0.140 C 
ATOM     14  O   UNL     1      26.696 -10.753   3.288  1.00  0.00    -0.299 OA
BRANCH  13  15
ATOM     15  C   UNL     1      25.174 -10.203   5.005  1.00  0.00     0.106 CG0
ATOM     16  G   UNL     1      26.226 -10.073   6.097  1.00  0.00     0.000 G0
ENDBRANCH  13  15
ENDBRANCH  12  13
BRANCH  12  17
ATOM     17  C   UNL     1      23.927 -11.995   2.252  1.00  0.00    -0.006 C 
ATOM     18  C   UNL     1      23.640 -10.494   2.055  1.00  0.00     0.008 C 
ATOM     19  C   UNL     1      22.604 -12.768   2.389  1.00  0.00     0.008 C 
ENDBRANCH  12  17
ENDBRANCH  11  12
ENDBRANCH   1  11
TORSDOF 1
ENDMDL
