MODEL 1
REMARK VINA RESULT:    -3.964      0.000      0.000
REMARK INTER + INTRA:          -3.964
REMARK INTER:                  -3.964
REMARK INTRA:                   0.000
REMARK UNBOUND:                 0.000
REMARK SMILES O=C1CCCCC1
REMARK SMILES IDX 5 1 4 2 3 3 2 4 1 5 7 6 6 7
REMARK H PARENT
REMARK Flexibility Score: inf
ROOT
ATOM      1  C   UNL     1      15.748  41.529 -13.971  1.00  0.00     0.001 C 
ATOM      2  C   UNL     1      15.135  42.233 -12.752  1.00  0.00     0.008 C 
ATOM      3  C   UNL     1      13.973  43.148 -13.160  1.00  0.00     0.075 C 
ATOM      4  C   UNL     1      14.392  44.057 -14.283  1.00  0.00     0.132 C 
ATOM      5  O   UNL     1      14.083  45.239 -14.269  1.00  0.00    -0.300 OA
ATOM      6  C   UNL     1      15.115  43.475 -15.468  1.00  0.00     0.075 C 
ATOM      7  C   UNL     1      16.247  42.552 -15.002  1.00  0.00     0.008 C 
ENDROOT
TORSDOF 0
ENDMDL
MODEL 2
REMARK VINA RESULT:    -3.858      1.578      2.779
REMARK INTER + INTRA:          -3.858
REMARK INTER:                  -3.858
REMARK INTRA:                   0.000
REMARK UNBOUND:                 0.000
REMARK SMILES O=C1CCCCC1
REMARK SMILES IDX 5 1 4 2 3 3 2 4 1 5 7 6 6 7
REMARK H PARENT
REMARK Flexibility Score: inf
ROOT
ATOM      1  C   UNL     1      13.875  43.062 -13.156  1.00  0.00     0.001 C 
ATOM      2  C   UNL     1      14.258  44.186 -14.130  1.00  0.00     0.008 C 
ATOM      3  C   UNL     1      14.938  43.630 -15.388  1.00  0.00     0.075 C 
ATOM      4  C   UNL     1      16.058  42.700 -15.009  1.00  0.00     0.132 C 
ATOM      5  O   UNL     1      17.129  42.753 -15.593  1.00  0.00    -0.300 OA
ATOM      6  C   UNL     1      15.814  41.643 -13.966  1.00  0.00     0.075 C 
ATOM      7  C   UNL     1      15.111  42.249 -12.746  1.00  0.00     0.008 C 
ENDROOT
TORSDOF 0
ENDMDL
MODEL 3
REMARK VINA RESULT:    -3.581      1.895      2.694
REMARK INTER + INTRA:          -3.581
REMARK INTER:                  -3.581
REMARK INTRA:                   0.000
REMARK UNBOUND:                 0.000
REMARK SMILES O=C1CCCCC1
REMARK SMILES IDX 5 1 4 2 3 3 2 4 1 5 7 6 6 7
REMARK H PARENT
REMARK Flexibility Score: inf
ROOT
ATOM      1  C   UNL     1      14.366  44.369 -14.627  1.00  0.00     0.001 C 
ATOM      2  C   UNL     1      13.875  43.475 -13.479  1.00  0.00     0.008 C 
ATOM      3  C   UNL     1      15.037  42.715 -12.825  1.00  0.00     0.075 C 
ATOM      4  C   UNL     1      15.863  42.020 -13.872  1.00  0.00     0.132 C 
ATOM      5  O   UNL     1      16.250  40.875 -13.693  1.00  0.00    -0.300 OA
ATOM      6  C   UNL     1      16.287  42.782 -15.098  1.00  0.00     0.075 C 
ATOM      7  C   UNL     1      15.095  43.539 -15.695  1.00  0.00     0.008 C 
ENDROOT
TORSDOF 0
ENDMDL
MODEL 4
REMARK VINA RESULT:    -3.539     13.896     14.760
REMARK INTER + INTRA:          -3.539
REMARK INTER:                  -3.539
REMARK INTRA:                   0.000
REMARK UNBOUND:                 0.000
REMARK SMILES O=C1CCCCC1
REMARK SMILES IDX 5 1 4 2 3 3 2 4 1 5 7 6 6 7
REMARK H PARENT
REMARK Flexibility Score: inf
ROOT
ATOM      1  C   UNL     1      19.638  44.183   0.973  1.00  0.00     0.001 C 
ATOM      2  C   UNL     1      19.154  44.801  -0.347  1.00  0.00     0.008 C 
ATOM      3  C   UNL     1      17.654  44.559  -0.562  1.00  0.00     0.075 C 
ATOM      4  C   UNL     1      17.327  43.103  -0.377  1.00  0.00     0.132 C 
ATOM      5  O   UNL     1      16.573  42.536  -1.153  1.00  0.00    -0.300 OA
ATOM      6  C   UNL     1      17.864  42.377   0.827  1.00  0.00     0.075 C 
ATOM      7  C   UNL     1      19.357  42.673   1.007  1.00  0.00     0.008 C 
ENDROOT
TORSDOF 0
ENDMDL
MODEL 5
REMARK VINA RESULT:    -3.534      1.688      2.937
REMARK INTER + INTRA:          -3.534
REMARK INTER:                  -3.534
REMARK INTRA:                   0.000
REMARK UNBOUND:                 0.000
REMARK SMILES O=C1CCCCC1
REMARK SMILES IDX 5 1 4 2 3 3 2 4 1 5 7 6 6 7
REMARK H PARENT
REMARK Flexibility Score: inf
ROOT
ATOM      1  C   UNL     1      15.201  43.594 -15.799  1.00  0.00     0.001 C 
ATOM      2  C   UNL     1      16.492  42.849 -15.430  1.00  0.00     0.008 C 
ATOM      3  C   UNL     1      16.218  41.716 -14.431  1.00  0.00     0.075 C 
ATOM      4  C   UNL     1      15.417  42.229 -13.266  1.00  0.00     0.132 C 
ATOM      5  O   UNL     1      15.705  41.898 -12.126  1.00  0.00    -0.300 OA
ATOM      6  C   UNL     1      14.202  43.078 -13.526  1.00  0.00     0.075 C 
ATOM      7  C   UNL     1      14.526  44.175 -14.547  1.00  0.00     0.008 C 
ENDROOT
TORSDOF 0
ENDMDL
MODEL 6
REMARK VINA RESULT:    -3.531     13.951     14.741
REMARK INTER + INTRA:          -3.531
REMARK INTER:                  -3.531
REMARK INTRA:                   0.000
REMARK UNBOUND:                 0.000
REMARK SMILES O=C1CCCCC1
REMARK SMILES IDX 5 1 4 2 3 3 2 4 1 5 7 6 6 7
REMARK H PARENT
REMARK Flexibility Score: inf
ROOT
ATOM      1  C   UNL     1      19.597  42.744   1.022  1.00  0.00     0.001 C 
ATOM      2  C   UNL     1      18.109  42.375   0.935  1.00  0.00     0.008 C 
ATOM      3  C   UNL     1      17.472  42.917  -0.351  1.00  0.00     0.075 C 
ATOM      4  C   UNL     1      17.780  44.381  -0.511  1.00  0.00     0.132 C 
ATOM      5  O   UNL     1      16.909  45.160  -0.866  1.00  0.00    -0.300 OA
ATOM      6  C   UNL     1      19.194  44.858  -0.319  1.00  0.00     0.075 C 
ATOM      7  C   UNL     1      19.788  44.267   0.965  1.00  0.00     0.008 C 
ENDROOT
TORSDOF 0
ENDMDL
MODEL 7
REMARK VINA RESULT:    -3.456     14.236     15.173
REMARK INTER + INTRA:          -3.456
REMARK INTER:                  -3.456
REMARK INTRA:                   0.000
REMARK UNBOUND:                 0.000
REMARK SMILES O=C1CCCCC1
REMARK SMILES IDX 5 1 4 2 3 3 2 4 1 5 7 6 6 7
REMARK H PARENT
REMARK Flexibility Score: inf
ROOT
ATOM      1  C   UNL     1      16.617  44.432  -0.647  1.00  0.00     0.001 C 
ATOM      2  C   UNL     1      17.824  45.367  -0.818  1.00  0.00     0.008 C 
ATOM      3  C   UNL     1      19.139  44.651  -0.481  1.00  0.00     0.075 C 
ATOM      4  C   UNL     1      19.037  43.973   0.858  1.00  0.00     0.132 C 
ATOM      5  O   UNL     1      19.960  44.039   1.655  1.00  0.00    -0.300 OA
ATOM      6  C   UNL     1      17.826  43.135   1.166  1.00  0.00     0.075 C 
ATOM      7  C   UNL     1      16.545  43.888   0.788  1.00  0.00     0.008 C 
ENDROOT
TORSDOF 0
ENDMDL
MODEL 8
REMARK VINA RESULT:    -3.438     14.134     15.049
REMARK INTER + INTRA:          -3.438
REMARK INTER:                  -3.438
REMARK INTRA:                   0.000
REMARK UNBOUND:                 0.000
REMARK SMILES O=C1CCCCC1
REMARK SMILES IDX 5 1 4 2 3 3 2 4 1 5 7 6 6 7
REMARK H PARENT
REMARK Flexibility Score: inf
ROOT
ATOM      1  C   UNL     1      19.145  44.813  -0.320  1.00  0.00     0.001 C 
ATOM      2  C   UNL     1      19.587  44.106   0.970  1.00  0.00     0.008 C 
ATOM      3  C   UNL     1      19.209  42.619   0.951  1.00  0.00     0.075 C 
ATOM      4  C   UNL     1      17.758  42.453   0.593  1.00  0.00     0.132 C 
ATOM      5  O   UNL     1      17.058  41.658   1.202  1.00  0.00    -0.300 OA
ATOM      6  C   UNL     1      17.201  43.207  -0.584  1.00  0.00     0.075 C 
ATOM      7  C   UNL     1      17.629  44.678  -0.527  1.00  0.00     0.008 C 
ENDROOT
TORSDOF 0
ENDMDL
MODEL 9
REMARK VINA RESULT:    -3.422     14.348     15.004
REMARK INTER + INTRA:          -3.422
REMARK INTER:                  -3.422
REMARK INTRA:                   0.000
REMARK UNBOUND:                 0.000
REMARK SMILES O=C1CCCCC1
REMARK SMILES IDX 5 1 4 2 3 3 2 4 1 5 7 6 6 7
REMARK H PARENT
REMARK Flexibility Score: inf
ROOT
ATOM      1  C   UNL     1      17.239  44.303  -0.422  1.00  0.00     0.001 C 
ATOM      2  C   UNL     1      17.318  42.769  -0.399  1.00  0.00     0.008 C 
ATOM      3  C   UNL     1      18.288  42.275   0.683  1.00  0.00     0.075 C 
ATOM      4  C   UNL     1      19.609  42.984   0.564  1.00  0.00     0.132 C 
ATOM      5  O   UNL     1      20.656  42.362   0.668  1.00  0.00    -0.300 OA
ATOM      6  C   UNL     1      19.628  44.480   0.409  1.00  0.00     0.075 C 
ATOM      7  C   UNL     1      18.625  44.919  -0.664  1.00  0.00     0.008 C 
ENDROOT
TORSDOF 0
ENDMDL
