MODEL 1
REMARK VINA RESULT:    -3.665      0.000      0.000
REMARK INTER + INTRA:          -4.339
REMARK INTER:                  -4.201
REMARK INTRA:                  -0.138
REMARK UNBOUND:                -0.138
REMARK SMILES O=C([O-])C=Cc1ccc(O)cc1
REMARK SMILES IDX 6 1 7 2 12 3 8 4 11 5 9 6 5 7 4 8 2 9 1 10 3 11 10 12
REMARK H PARENT 10 13
REMARK Flexibility Score: inf
ROOT
ATOM      1  C   UNL     1      12.555 -11.020 -27.460  1.00  0.00    -0.025 A 
ATOM      2  C   UNL     1      12.572 -11.572 -26.163  1.00  0.00     0.012 A 
ATOM      3  C   UNL     1      11.784 -11.648 -28.453  1.00  0.00     0.012 A 
ATOM      4  C   UNL     1      11.815 -12.711 -25.868  1.00  0.00     0.047 A 
ATOM      5  C   UNL     1      11.028 -12.785 -28.154  1.00  0.00     0.047 A 
ATOM      6  C   UNL     1      11.040 -13.318 -26.860  1.00  0.00     0.115 A 
ENDROOT
BRANCH   1   7
ATOM      7  C   UNL     1      13.348  -9.821 -27.829  1.00  0.00     0.010 C 
ATOM      8  C   UNL     1      12.804  -8.654 -28.203  1.00  0.00     0.025 C 
BRANCH   8   9
ATOM      9  C   UNL     1      13.624  -7.488 -28.572  1.00  0.00     0.064 C 
ATOM     10  O   UNL     1      13.294  -6.322 -28.226  1.00  0.00    -0.545 OA
ATOM     11  O   UNL     1      14.781  -7.676 -29.317  1.00  0.00    -0.545 OA
ENDBRANCH   8   9
ENDBRANCH   1   7
BRANCH   6  12
ATOM     12  O   UNL     1      10.291 -14.451 -26.550  1.00  0.00    -0.508 OA
ATOM     13  H   UNL     1      10.642 -15.162 -25.920  1.00  0.00     0.293 HD
ENDBRANCH   6  12
TORSDOF 3
ENDMDL
MODEL 2
REMARK VINA RESULT:    -3.563      0.095      1.399
REMARK INTER + INTRA:          -4.222
REMARK INTER:                  -4.086
REMARK INTRA:                  -0.136
REMARK UNBOUND:                -0.138
REMARK SMILES O=C([O-])C=Cc1ccc(O)cc1
REMARK SMILES IDX 6 1 7 2 12 3 8 4 11 5 9 6 5 7 4 8 2 9 1 10 3 11 10 12
REMARK H PARENT 10 13
REMARK Flexibility Score: inf
ROOT
ATOM      1  C   UNL     1      12.526 -11.011 -27.513  1.00  0.00    -0.025 A 
ATOM      2  C   UNL     1      11.761 -11.712 -28.466  1.00  0.00     0.012 A 
ATOM      3  C   UNL     1      12.517 -11.451 -26.179  1.00  0.00     0.012 A 
ATOM      4  C   UNL     1      11.024 -12.840 -28.091  1.00  0.00     0.047 A 
ATOM      5  C   UNL     1      11.779 -12.579 -25.807  1.00  0.00     0.047 A 
ATOM      6  C   UNL     1      11.033 -13.278 -26.763  1.00  0.00     0.115 A 
ENDROOT
BRANCH   1   7
ATOM      7  C   UNL     1      13.317  -9.802 -27.855  1.00  0.00     0.010 C 
ATOM      8  C   UNL     1      12.770  -8.628 -28.204  1.00  0.00     0.025 C 
BRANCH   8   9
ATOM      9  C   UNL     1      13.587  -7.452 -28.547  1.00  0.00     0.064 C 
ATOM     10  O   UNL     1      13.261  -6.296 -28.165  1.00  0.00    -0.545 OA
ATOM     11  O   UNL     1      14.737  -7.619 -29.308  1.00  0.00    -0.545 OA
ENDBRANCH   8   9
ENDBRANCH   1   7
BRANCH   6  12
ATOM     12  O   UNL     1      10.295 -14.404 -26.405  1.00  0.00    -0.508 OA
ATOM     13  H   UNL     1      10.581 -15.336 -26.683  1.00  0.00     0.293 HD
ENDBRANCH   6  12
TORSDOF 3
ENDMDL
MODEL 3
REMARK VINA RESULT:    -3.242      1.155      1.282
REMARK INTER + INTRA:          -3.854
REMARK INTER:                  -3.719
REMARK INTRA:                  -0.135
REMARK UNBOUND:                -0.138
REMARK SMILES O=C([O-])C=Cc1ccc(O)cc1
REMARK SMILES IDX 6 1 7 2 12 3 8 4 11 5 9 6 5 7 4 8 2 9 1 10 3 11 10 12
REMARK H PARENT 10 13
REMARK Flexibility Score: inf
ROOT
ATOM      1  C   UNL     1      12.161 -11.138 -27.061  1.00  0.00    -0.025 A 
ATOM      2  C   UNL     1      11.491 -10.951 -25.835  1.00  0.00     0.012 A 
ATOM      3  C   UNL     1      12.546 -12.437 -27.432  1.00  0.00     0.012 A 
ATOM      4  C   UNL     1      11.196 -12.046 -25.016  1.00  0.00     0.047 A 
ATOM      5  C   UNL     1      12.249 -13.529 -26.611  1.00  0.00     0.047 A 
ATOM      6  C   UNL     1      11.571 -13.336 -25.401  1.00  0.00     0.115 A 
ENDROOT
BRANCH   1   7
ATOM      7  C   UNL     1      12.508 -10.010 -27.961  1.00  0.00     0.010 C 
ATOM      8  C   UNL     1      13.271  -8.970 -27.594  1.00  0.00     0.025 C 
BRANCH   8   9
ATOM      9  C   UNL     1      13.586  -7.864 -28.513  1.00  0.00     0.064 C 
ATOM     10  O   UNL     1      12.864  -6.832 -28.564  1.00  0.00    -0.545 OA
ATOM     11  O   UNL     1      14.699  -7.958 -29.339  1.00  0.00    -0.545 OA
ENDBRANCH   8   9
ENDBRANCH   1   7
BRANCH   6  12
ATOM     12  O   UNL     1      11.269 -14.416 -24.575  1.00  0.00    -0.508 OA
ATOM     13  H   UNL     1      11.763 -14.572 -23.705  1.00  0.00     0.293 HD
ENDBRANCH   6  12
TORSDOF 3
ENDMDL
MODEL 4
REMARK VINA RESULT:    -3.038      1.728      2.403
REMARK INTER + INTRA:          -3.620
REMARK INTER:                  -3.480
REMARK INTRA:                  -0.140
REMARK UNBOUND:                -0.138
REMARK SMILES O=C([O-])C=Cc1ccc(O)cc1
REMARK SMILES IDX 6 1 7 2 12 3 8 4 11 5 9 6 5 7 4 8 2 9 1 10 3 11 10 12
REMARK H PARENT 10 13
REMARK Flexibility Score: inf
ROOT
ATOM      1  C   UNL     1      12.767  -9.852 -27.878  1.00  0.00    -0.025 A 
ATOM      2  C   UNL     1      11.983 -10.818 -28.541  1.00  0.00     0.012 A 
ATOM      3  C   UNL     1      13.756 -10.282 -26.977  1.00  0.00     0.012 A 
ATOM      4  C   UNL     1      12.205 -12.181 -28.321  1.00  0.00     0.047 A 
ATOM      5  C   UNL     1      13.974 -11.646 -26.760  1.00  0.00     0.047 A 
ATOM      6  C   UNL     1      13.201 -12.599 -27.434  1.00  0.00     0.115 A 
ENDROOT
BRANCH   1   7
ATOM      7  C   UNL     1      12.566  -8.393 -28.066  1.00  0.00     0.010 C 
ATOM      8  C   UNL     1      13.535  -7.551 -28.454  1.00  0.00     0.025 C 
BRANCH   8   9
ATOM      9  C   UNL     1      13.301  -6.107 -28.621  1.00  0.00     0.064 C 
ATOM     10  O   UNL     1      14.067  -5.256 -28.094  1.00  0.00    -0.545 OA
ATOM     11  O   UNL     1      12.215  -5.674 -29.371  1.00  0.00    -0.545 OA
ENDBRANCH   8   9
ENDBRANCH   1   7
BRANCH   6  12
ATOM     12  O   UNL     1      13.410 -13.961 -27.226  1.00  0.00    -0.508 OA
ATOM     13  H   UNL     1      13.055 -14.656 -27.872  1.00  0.00     0.293 HD
ENDBRANCH   6  12
TORSDOF 3
ENDMDL
MODEL 5
REMARK VINA RESULT:    -2.713      2.823      6.292
REMARK INTER + INTRA:          -3.248
REMARK INTER:                  -3.097
REMARK INTRA:                  -0.151
REMARK UNBOUND:                -0.138
REMARK SMILES O=C([O-])C=Cc1ccc(O)cc1
REMARK SMILES IDX 6 1 7 2 12 3 8 4 11 5 9 6 5 7 4 8 2 9 1 10 3 11 10 12
REMARK H PARENT 10 13
REMARK Flexibility Score: inf
ROOT
ATOM      1  C   UNL     1      11.423 -12.732 -25.967  1.00  0.00    -0.025 A 
ATOM      2  C   UNL     1      12.126 -11.534 -26.206  1.00  0.00     0.012 A 
ATOM      3  C   UNL     1      10.871 -13.423 -27.059  1.00  0.00     0.012 A 
ATOM      4  C   UNL     1      12.288 -11.056 -27.511  1.00  0.00     0.047 A 
ATOM      5  C   UNL     1      11.036 -12.943 -28.362  1.00  0.00     0.047 A 
ATOM      6  C   UNL     1      11.747 -11.759 -28.591  1.00  0.00     0.115 A 
ENDROOT
BRANCH   1   7
ATOM      7  C   UNL     1      11.213 -13.277 -24.603  1.00  0.00     0.010 C 
ATOM      8  C   UNL     1      10.289 -14.202 -24.304  1.00  0.00     0.025 C 
BRANCH   8   9
ATOM      9  C   UNL     1      10.102 -14.711 -22.935  1.00  0.00     0.064 C 
ATOM     10  O   UNL     1      11.077 -15.125 -22.253  1.00  0.00    -0.545 OA
ATOM     11  O   UNL     1       8.826 -14.737 -22.386  1.00  0.00    -0.545 OA
ENDBRANCH   8   9
ENDBRANCH   1   7
BRANCH   6  12
ATOM     12  O   UNL     1      11.918 -11.272 -29.884  1.00  0.00    -0.508 OA
ATOM     13  H   UNL     1      11.133 -11.150 -30.513  1.00  0.00     0.293 HD
ENDBRANCH   6  12
TORSDOF 3
ENDMDL
MODEL 6
REMARK VINA RESULT:    -1.123      3.197      3.824
REMARK INTER + INTRA:          -1.425
REMARK INTER:                  -1.288
REMARK INTRA:                  -0.137
REMARK UNBOUND:                -0.138
REMARK SMILES O=C([O-])C=Cc1ccc(O)cc1
REMARK SMILES IDX 6 1 7 2 12 3 8 4 11 5 9 6 5 7 4 8 2 9 1 10 3 11 10 12
REMARK H PARENT 10 13
REMARK Flexibility Score: inf
ROOT
ATOM      1  C   UNL     1      11.932 -12.379 -28.137  1.00  0.00    -0.025 A 
ATOM      2  C   UNL     1      11.194 -13.537 -27.815  1.00  0.00     0.012 A 
ATOM      3  C   UNL     1      11.556 -11.627 -29.263  1.00  0.00     0.012 A 
ATOM      4  C   UNL     1      10.093 -13.913 -28.592  1.00  0.00     0.047 A 
ATOM      5  C   UNL     1      10.455 -12.006 -30.036  1.00  0.00     0.047 A 
ATOM      6  C   UNL     1       9.719 -13.149 -29.701  1.00  0.00     0.115 A 
ENDROOT
BRANCH   1   7
ATOM      7  C   UNL     1      13.114 -11.942 -27.354  1.00  0.00     0.010 C 
ATOM      8  C   UNL     1      14.326 -12.508 -27.454  1.00  0.00     0.025 C 
BRANCH   8   9
ATOM      9  C   UNL     1      15.474 -12.053 -26.652  1.00  0.00     0.064 C 
ATOM     10  O   UNL     1      15.380 -11.061 -25.880  1.00  0.00    -0.545 OA
ATOM     11  O   UNL     1      16.684 -12.729 -26.748  1.00  0.00    -0.545 OA
ENDBRANCH   8   9
ENDBRANCH   1   7
BRANCH   6  12
ATOM     12  O   UNL     1       8.620 -13.536 -30.464  1.00  0.00    -0.508 OA
ATOM     13  H   UNL     1       8.004 -12.853 -30.890  1.00  0.00     0.293 HD
ENDBRANCH   6  12
TORSDOF 3
ENDMDL
MODEL 7
REMARK VINA RESULT:    -0.785      2.803      5.301
REMARK INTER + INTRA:          -1.038
REMARK INTER:                  -0.900
REMARK INTRA:                  -0.138
REMARK UNBOUND:                -0.138
REMARK SMILES O=C([O-])C=Cc1ccc(O)cc1
REMARK SMILES IDX 6 1 7 2 12 3 8 4 11 5 9 6 5 7 4 8 2 9 1 10 3 11 10 12
REMARK H PARENT 10 13
REMARK Flexibility Score: inf
ROOT
ATOM      1  C   UNL     1      12.455 -12.467 -27.611  1.00  0.00    -0.025 A 
ATOM      2  C   UNL     1      12.490 -11.095 -27.288  1.00  0.00     0.012 A 
ATOM      3  C   UNL     1      13.596 -13.250 -27.368  1.00  0.00     0.012 A 
ATOM      4  C   UNL     1      13.635 -10.532 -26.715  1.00  0.00     0.047 A 
ATOM      5  C   UNL     1      14.739 -12.683 -26.794  1.00  0.00     0.047 A 
ATOM      6  C   UNL     1      14.760 -11.323 -26.464  1.00  0.00     0.115 A 
ENDROOT
BRANCH   1   7
ATOM      7  C   UNL     1      11.271 -13.112 -28.231  1.00  0.00     0.010 C 
ATOM      8  C   UNL     1      10.703 -12.690 -29.370  1.00  0.00     0.025 C 
BRANCH   8   9
ATOM      9  C   UNL     1       9.522 -13.350 -29.950  1.00  0.00     0.064 C 
ATOM     10  O   UNL     1       8.820 -12.779 -30.828  1.00  0.00    -0.545 OA
ATOM     11  O   UNL     1       9.173 -14.625 -29.523  1.00  0.00    -0.545 OA
ENDBRANCH   8   9
ENDBRANCH   1   7
BRANCH   6  12
ATOM     12  O   UNL     1      15.891 -10.747 -25.891  1.00  0.00    -0.508 OA
ATOM     13  H   UNL     1      16.250 -11.061 -24.997  1.00  0.00     0.293 HD
ENDBRANCH   6  12
TORSDOF 3
ENDMDL
MODEL 8
REMARK VINA RESULT:    -0.770      2.116      2.839
REMARK INTER + INTRA:          -1.020
REMARK INTER:                  -0.880
REMARK INTRA:                  -0.141
REMARK UNBOUND:                -0.138
REMARK SMILES O=C([O-])C=Cc1ccc(O)cc1
REMARK SMILES IDX 6 1 7 2 12 3 8 4 11 5 9 6 5 7 4 8 2 9 1 10 3 11 10 12
REMARK H PARENT 10 13
REMARK Flexibility Score: inf
ROOT
ATOM      1  C   UNL     1      11.472 -12.182 -25.829  1.00  0.00    -0.025 A 
ATOM      2  C   UNL     1      11.206 -11.601 -24.573  1.00  0.00     0.012 A 
ATOM      3  C   UNL     1      11.277 -13.564 -25.992  1.00  0.00     0.012 A 
ATOM      4  C   UNL     1      10.734 -12.385 -23.516  1.00  0.00     0.047 A 
ATOM      5  C   UNL     1      10.804 -14.345 -24.932  1.00  0.00     0.047 A 
ATOM      6  C   UNL     1      10.529 -13.757 -23.692  1.00  0.00     0.115 A 
ENDROOT
BRANCH   1   7
ATOM      7  C   UNL     1      11.985 -11.398 -26.980  1.00  0.00     0.010 C 
ATOM      8  C   UNL     1      12.187 -10.073 -26.949  1.00  0.00     0.025 C 
BRANCH   8   9
ATOM      9  C   UNL     1      12.687  -9.327 -28.115  1.00  0.00     0.064 C 
ATOM     10  O   UNL     1      12.604  -9.802 -29.280  1.00  0.00    -0.545 OA
ATOM     11  O   UNL     1      13.262  -8.076 -27.929  1.00  0.00    -0.545 OA
ENDBRANCH   8   9
ENDBRANCH   1   7
BRANCH   6  12
ATOM     12  O   UNL     1      10.057 -14.524 -22.630  1.00  0.00    -0.508 OA
ATOM     13  H   UNL     1      10.444 -14.433 -21.697  1.00  0.00     0.293 HD
ENDBRANCH   6  12
TORSDOF 3
ENDMDL
