MODEL 1
REMARK VINA RESULT:    -6.273      0.000      0.000
REMARK INTER + INTRA:          -6.640
REMARK INTER:                  -6.640
REMARK INTRA:                   0.000
REMARK UNBOUND:                 0.000
REMARK SMILES Cc1cc(O)c(C)c(C)c1O
REMARK SMILES IDX 1 1 2 2 3 3 4 4 6 5 8 6 10 7 9 8 7 9 11 10 5 12
REMARK H PARENT 11 11 5 13
REMARK Flexibility Score: inf
ROOT
ATOM      1  C   UNL     1     -12.186  61.078  39.689  1.00  0.00     0.048 C 
ATOM      2  C   UNL     1     -13.565  61.352  39.157  1.00  0.00    -0.005 A 
ATOM      3  C   UNL     1     -14.456  60.295  38.954  1.00  0.00     0.053 A 
ATOM      4  C   UNL     1     -15.752  60.527  38.496  1.00  0.00     0.119 A 
ATOM      5  C   UNL     1     -16.189  61.850  38.243  1.00  0.00    -0.003 A 
ATOM      6  C   UNL     1     -15.251  62.916  38.327  1.00  0.00    -0.002 A 
ATOM      7  C   UNL     1     -13.959  62.665  38.856  1.00  0.00     0.121 A 
ATOM      8  C   UNL     1     -15.617  64.313  37.875  1.00  0.00     0.049 C 
ATOM      9  C   UNL     1     -17.635  62.104  37.875  1.00  0.00     0.049 C 
ENDROOT
BRANCH   7  10
ATOM     10  O   UNL     1     -13.051  63.700  39.103  1.00  0.00    -0.507 OA
ATOM     11  H   UNL     1     -12.439  63.732  39.908  1.00  0.00     0.293 HD
ENDBRANCH   7  10
BRANCH   4  12
ATOM     12  O   UNL     1     -16.575  59.415  38.290  1.00  0.00    -0.508 OA
ATOM     13  H   UNL     1     -16.670  58.944  37.401  1.00  0.00     0.293 HD
ENDBRANCH   4  12
TORSDOF 2
ENDMDL
MODEL 2
REMARK VINA RESULT:    -6.051      2.259      4.024
REMARK INTER + INTRA:          -6.405
REMARK INTER:                  -6.405
REMARK INTRA:                   0.000
REMARK UNBOUND:                 0.000
REMARK SMILES Cc1cc(O)c(C)c(C)c1O
REMARK SMILES IDX 1 1 2 2 3 3 4 4 6 5 8 6 10 7 9 8 7 9 11 10 5 12
REMARK H PARENT 11 11 5 13
REMARK Flexibility Score: inf
ROOT
ATOM      1  C   UNL     1      -9.548  63.113  40.139  1.00  0.00     0.048 C 
ATOM      2  C   UNL     1     -10.912  62.573  39.809  1.00  0.00    -0.005 A 
ATOM      3  C   UNL     1     -11.900  63.429  39.315  1.00  0.00     0.053 A 
ATOM      4  C   UNL     1     -13.160  62.945  38.967  1.00  0.00     0.119 A 
ATOM      5  C   UNL     1     -13.451  61.566  39.099  1.00  0.00    -0.003 A 
ATOM      6  C   UNL     1     -12.496  60.713  39.717  1.00  0.00    -0.002 A 
ATOM      7  C   UNL     1     -11.200  61.213  40.003  1.00  0.00     0.121 A 
ATOM      8  C   UNL     1     -12.838  59.279  40.061  1.00  0.00     0.049 C 
ATOM      9  C   UNL     1     -14.773  61.028  38.596  1.00  0.00     0.049 C 
ENDROOT
BRANCH   7  10
ATOM     10  O   UNL     1     -10.175  60.381  40.469  1.00  0.00    -0.507 OA
ATOM     11  H   UNL     1      -9.879  60.341  41.435  1.00  0.00     0.293 HD
ENDBRANCH   7  10
BRANCH   4  12
ATOM     12  O   UNL     1     -14.103  63.869  38.507  1.00  0.00    -0.508 OA
ATOM     13  H   UNL     1     -14.957  64.091  38.999  1.00  0.00     0.293 HD
ENDBRANCH   4  12
TORSDOF 2
ENDMDL
MODEL 3
REMARK VINA RESULT:    -5.751     18.249     19.862
REMARK INTER + INTRA:          -6.088
REMARK INTER:                  -6.088
REMARK INTRA:                   0.000
REMARK UNBOUND:                 0.000
REMARK SMILES Cc1cc(O)c(C)c(C)c1O
REMARK SMILES IDX 1 1 2 2 3 3 4 4 6 5 8 6 10 7 9 8 7 9 11 10 5 12
REMARK H PARENT 11 11 5 13
REMARK Flexibility Score: inf
ROOT
ATOM      1  C   UNL     1     -15.059  47.530  52.933  1.00  0.00     0.048 C 
ATOM      2  C   UNL     1     -13.945  48.522  53.120  1.00  0.00    -0.005 A 
ATOM      3  C   UNL     1     -13.888  49.665  52.318  1.00  0.00     0.053 A 
ATOM      4  C   UNL     1     -12.885  50.617  52.497  1.00  0.00     0.119 A 
ATOM      5  C   UNL     1     -11.914  50.442  53.512  1.00  0.00    -0.003 A 
ATOM      6  C   UNL     1     -11.891  49.224  54.246  1.00  0.00    -0.002 A 
ATOM      7  C   UNL     1     -12.956  48.300  54.092  1.00  0.00     0.121 A 
ATOM      8  C   UNL     1     -10.758  48.907  55.197  1.00  0.00     0.049 C 
ATOM      9  C   UNL     1     -10.910  51.541  53.786  1.00  0.00     0.049 C 
ENDROOT
BRANCH   7  10
ATOM     10  O   UNL     1     -13.066  47.160  54.896  1.00  0.00    -0.507 OA
ATOM     11  H   UNL     1     -13.792  46.464  54.792  1.00  0.00     0.293 HD
ENDBRANCH   7  10
BRANCH   4  12
ATOM     12  O   UNL     1     -12.879  51.719  51.637  1.00  0.00    -0.508 OA
ATOM     13  H   UNL     1     -13.699  52.055  51.150  1.00  0.00     0.293 HD
ENDBRANCH   4  12
TORSDOF 2
ENDMDL
MODEL 4
REMARK VINA RESULT:    -5.639     18.726     20.306
REMARK INTER + INTRA:          -5.969
REMARK INTER:                  -5.969
REMARK INTRA:                   0.000
REMARK UNBOUND:                 0.000
REMARK SMILES Cc1cc(O)c(C)c(C)c1O
REMARK SMILES IDX 1 1 2 2 3 3 4 4 6 5 8 6 10 7 9 8 7 9 11 10 5 12
REMARK H PARENT 11 11 5 13
REMARK Flexibility Score: inf
ROOT
ATOM      1  C   UNL     1     -14.411  49.182  52.886  1.00  0.00     0.048 C 
ATOM      2  C   UNL     1     -13.062  49.275  53.543  1.00  0.00    -0.005 A 
ATOM      3  C   UNL     1     -12.618  48.243  54.374  1.00  0.00     0.053 A 
ATOM      4  C   UNL     1     -11.356  48.289  54.964  1.00  0.00     0.119 A 
ATOM      5  C   UNL     1     -10.496  49.385  54.714  1.00  0.00    -0.003 A 
ATOM      6  C   UNL     1     -10.987  50.496  53.973  1.00  0.00    -0.002 A 
ATOM      7  C   UNL     1     -12.248  50.399  53.330  1.00  0.00     0.121 A 
ATOM      8  C   UNL     1     -10.180  51.769  53.850  1.00  0.00     0.049 C 
ATOM      9  C   UNL     1      -9.081  49.365  55.250  1.00  0.00     0.049 C 
ENDROOT
BRANCH   7  10
ATOM     10  O   UNL     1     -12.713  51.396  52.466  1.00  0.00    -0.507 OA
ATOM     11  H   UNL     1     -12.787  51.284  51.463  1.00  0.00     0.293 HD
ENDBRANCH   7  10
BRANCH   4  12
ATOM     12  O   UNL     1     -10.997  47.232  55.805  1.00  0.00    -0.508 OA
ATOM     13  H   UNL     1     -10.775  46.303  55.475  1.00  0.00     0.293 HD
ENDBRANCH   4  12
TORSDOF 2
ENDMDL
MODEL 5
REMARK VINA RESULT:    -5.619     18.719     20.211
REMARK INTER + INTRA:          -5.947
REMARK INTER:                  -5.947
REMARK INTRA:                   0.000
REMARK UNBOUND:                 0.000
REMARK SMILES Cc1cc(O)c(C)c(C)c1O
REMARK SMILES IDX 1 1 2 2 3 3 4 4 6 5 8 6 10 7 9 8 7 9 11 10 5 12
REMARK H PARENT 11 11 5 13
REMARK Flexibility Score: inf
ROOT
ATOM      1  C   UNL     1      -8.870  49.970  55.414  1.00  0.00     0.048 C 
ATOM      2  C   UNL     1     -10.211  49.900  54.738  1.00  0.00    -0.005 A 
ATOM      3  C   UNL     1     -10.661  50.977  53.968  1.00  0.00     0.053 A 
ATOM      4  C   UNL     1     -11.885  50.921  53.302  1.00  0.00     0.119 A 
ATOM      5  C   UNL     1     -12.686  49.756  53.387  1.00  0.00    -0.003 A 
ATOM      6  C   UNL     1     -12.294  48.709  54.267  1.00  0.00    -0.002 A 
ATOM      7  C   UNL     1     -11.018  48.760  54.883  1.00  0.00     0.121 A 
ATOM      8  C   UNL     1     -13.212  47.538  54.543  1.00  0.00     0.049 C 
ATOM      9  C   UNL     1     -13.946  49.652  52.556  1.00  0.00     0.049 C 
ENDROOT
BRANCH   7  10
ATOM     10  O   UNL     1     -10.519  47.690  55.634  1.00  0.00    -0.507 OA
ATOM     11  H   UNL     1     -10.311  46.779  55.248  1.00  0.00     0.293 HD
ENDBRANCH   7  10
BRANCH   4  12
ATOM     12  O   UNL     1     -12.278  52.049  52.576  1.00  0.00    -0.508 OA
ATOM     13  H   UNL     1     -11.631  52.736  52.214  1.00  0.00     0.293 HD
ENDBRANCH   4  12
TORSDOF 2
ENDMDL
MODEL 6
REMARK VINA RESULT:    -5.574     18.746     20.143
REMARK INTER + INTRA:          -5.900
REMARK INTER:                  -5.900
REMARK INTRA:                   0.000
REMARK UNBOUND:                 0.000
REMARK SMILES Cc1cc(O)c(C)c(C)c1O
REMARK SMILES IDX 1 1 2 2 3 3 4 4 6 5 8 6 10 7 9 8 7 9 11 10 5 12
REMARK H PARENT 11 11 5 13
REMARK Flexibility Score: inf
ROOT
ATOM      1  C   UNL     1     -10.193  51.714  53.977  1.00  0.00     0.048 C 
ATOM      2  C   UNL     1     -11.083  50.504  54.045  1.00  0.00    -0.005 A 
ATOM      3  C   UNL     1     -10.697  49.397  54.806  1.00  0.00     0.053 A 
ATOM      4  C   UNL     1     -11.522  48.278  54.914  1.00  0.00     0.119 A 
ATOM      5  C   UNL     1     -12.778  48.257  54.261  1.00  0.00    -0.003 A 
ATOM      6  C   UNL     1     -13.121  49.325  53.386  1.00  0.00    -0.002 A 
ATOM      7  C   UNL     1     -12.298  50.478  53.341  1.00  0.00     0.121 A 
ATOM      8  C   UNL     1     -14.356  49.252  52.515  1.00  0.00     0.049 C 
ATOM      9  C   UNL     1     -13.723  47.097  54.491  1.00  0.00     0.049 C 
ENDROOT
BRANCH   7  10
ATOM     10  O   UNL     1     -12.665  51.618  52.617  1.00  0.00    -0.507 OA
ATOM     11  H   UNL     1     -12.003  52.282  52.239  1.00  0.00     0.293 HD
ENDBRANCH   7  10
BRANCH   4  12
ATOM     12  O   UNL     1     -11.053  47.200  55.670  1.00  0.00    -0.508 OA
ATOM     13  H   UNL     1     -10.888  47.242  56.666  1.00  0.00     0.293 HD
ENDBRANCH   4  12
TORSDOF 2
ENDMDL
MODEL 7
REMARK VINA RESULT:    -5.568     18.359     19.784
REMARK INTER + INTRA:          -5.894
REMARK INTER:                  -5.894
REMARK INTRA:                   0.000
REMARK UNBOUND:                 0.000
REMARK SMILES Cc1cc(O)c(C)c(C)c1O
REMARK SMILES IDX 1 1 2 2 3 3 4 4 6 5 8 6 10 7 9 8 7 9 11 10 5 12
REMARK H PARENT 11 11 5 13
REMARK Flexibility Score: inf
ROOT
ATOM      1  C   UNL     1     -10.670  51.675  53.964  1.00  0.00     0.048 C 
ATOM      2  C   UNL     1     -11.657  50.579  53.671  1.00  0.00    -0.005 A 
ATOM      3  C   UNL     1     -12.610  50.750  52.663  1.00  0.00     0.053 A 
ATOM      4  C   UNL     1     -13.511  49.735  52.348  1.00  0.00     0.119 A 
ATOM      5  C   UNL     1     -13.461  48.501  53.041  1.00  0.00    -0.003 A 
ATOM      6  C   UNL     1     -12.579  48.366  54.150  1.00  0.00    -0.002 A 
ATOM      7  C   UNL     1     -11.630  49.386  54.411  1.00  0.00     0.121 A 
ATOM      8  C   UNL     1     -12.632  47.145  55.043  1.00  0.00     0.049 C 
ATOM      9  C   UNL     1     -14.353  47.359  52.604  1.00  0.00     0.049 C 
ENDROOT
BRANCH   7  10
ATOM     10  O   UNL     1     -10.641  49.239  55.389  1.00  0.00    -0.507 OA
ATOM     11  H   UNL     1     -10.179  50.015  55.845  1.00  0.00     0.293 HD
ENDBRANCH   7  10
BRANCH   4  12
ATOM     12  O   UNL     1     -14.452  49.993  51.347  1.00  0.00    -0.508 OA
ATOM     13  H   UNL     1     -14.901  49.272  50.799  1.00  0.00     0.293 HD
ENDBRANCH   4  12
TORSDOF 2
ENDMDL
MODEL 8
REMARK VINA RESULT:    -5.493     14.131     16.286
REMARK INTER + INTRA:          -5.814
REMARK INTER:                  -5.814
REMARK INTRA:                   0.000
REMARK UNBOUND:                 0.000
REMARK SMILES Cc1cc(O)c(C)c(C)c1O
REMARK SMILES IDX 1 1 2 2 3 3 4 4 6 5 8 6 10 7 9 8 7 9 11 10 5 12
REMARK H PARENT 11 11 5 13
REMARK Flexibility Score: inf
ROOT
ATOM      1  C   UNL     1      -7.894  63.019  54.562  1.00  0.00     0.048 C 
ATOM      2  C   UNL     1      -7.380  63.800  53.384  1.00  0.00    -0.005 A 
ATOM      3  C   UNL     1      -6.889  65.095  53.567  1.00  0.00     0.053 A 
ATOM      4  C   UNL     1      -6.374  65.825  52.496  1.00  0.00     0.119 A 
ATOM      5  C   UNL     1      -6.328  65.251  51.203  1.00  0.00    -0.003 A 
ATOM      6  C   UNL     1      -6.938  63.984  50.986  1.00  0.00    -0.002 A 
ATOM      7  C   UNL     1      -7.398  63.235  52.099  1.00  0.00     0.121 A 
ATOM      8  C   UNL     1      -7.091  63.422  49.589  1.00  0.00     0.049 C 
ATOM      9  C   UNL     1      -5.647  65.997  50.076  1.00  0.00     0.049 C 
ENDROOT
BRANCH   7  10
ATOM     10  O   UNL     1      -7.867  61.924  51.960  1.00  0.00    -0.507 OA
ATOM     11  H   UNL     1      -8.189  61.356  52.733  1.00  0.00     0.293 HD
ENDBRANCH   7  10
BRANCH   4  12
ATOM     12  O   UNL     1      -5.929  67.125  52.755  1.00  0.00    -0.508 OA
ATOM     13  H   UNL     1      -6.322  67.721  53.470  1.00  0.00     0.293 HD
ENDBRANCH   4  12
TORSDOF 2
ENDMDL
MODEL 9
REMARK VINA RESULT:    -5.458      1.142      4.263
REMARK INTER + INTRA:          -5.777
REMARK INTER:                  -5.777
REMARK INTRA:                   0.000
REMARK UNBOUND:                 0.000
REMARK SMILES Cc1cc(O)c(C)c(C)c1O
REMARK SMILES IDX 1 1 2 2 3 3 4 4 6 5 8 6 10 7 9 8 7 9 11 10 5 12
REMARK H PARENT 11 11 5 13
REMARK Flexibility Score: inf
ROOT
ATOM      1  C   UNL     1     -18.285  61.193  37.875  1.00  0.00     0.048 C 
ATOM      2  C   UNL     1     -16.860  61.610  38.108  1.00  0.00    -0.005 A 
ATOM      3  C   UNL     1     -16.499  62.955  37.990  1.00  0.00     0.053 A 
ATOM      4  C   UNL     1     -15.191  63.371  38.237  1.00  0.00     0.119 A 
ATOM      5  C   UNL     1     -14.209  62.430  38.627  1.00  0.00    -0.003 A 
ATOM      6  C   UNL     1     -14.538  61.045  38.627  1.00  0.00    -0.002 A 
ATOM      7  C   UNL     1     -15.887  60.652  38.435  1.00  0.00     0.121 A 
ATOM      8  C   UNL     1     -13.474  59.991  38.841  1.00  0.00     0.049 C 
ATOM      9  C   UNL     1     -12.828  62.907  39.021  1.00  0.00     0.049 C 
ENDROOT
BRANCH   7  10
ATOM     10  O   UNL     1     -16.293  59.320  38.576  1.00  0.00    -0.507 OA
ATOM     11  H   UNL     1     -16.610  58.917  39.447  1.00  0.00     0.293 HD
ENDBRANCH   7  10
BRANCH   4  12
ATOM     12  O   UNL     1     -14.903  64.729  38.070  1.00  0.00    -0.508 OA
ATOM     13  H   UNL     1     -14.430  65.107  37.261  1.00  0.00     0.293 HD
ENDBRANCH   4  12
TORSDOF 2
ENDMDL
