MODEL 1
REMARK VINA RESULT:    -4.035      0.000      0.000
REMARK INTER + INTRA:         -13.514
REMARK INTER:                  -9.224
REMARK INTRA:                  -4.291
REMARK UNBOUND:                -4.291
REMARK SMILES CCCCCCCCCCCCCCCCCCCCCCCC(=O)[O-]
REMARK SMILES IDX 13 1 14 2 15 3 16 4 17 5 18 6 19 7 20 8 21 9 22 10 23 11
REMARK SMILES IDX 24 12 25 13 26 14 12 15 11 16 10 17 9 18 8 19 7 20 6 21 5 22
REMARK SMILES IDX 4 23 3 24 2 25 1 26
REMARK H PARENT
REMARK Flexibility Score: inf
ROOT
ATOM      1  C   UNL     1     -20.120 120.453  -2.114  1.00  0.00     0.000 C 
ENDROOT
BRANCH   1   2
ATOM      2  C   UNL     1     -20.716 120.944  -0.784  1.00  0.00     0.000 C 
BRANCH   2   3
ATOM      3  C   UNL     1     -22.249 120.830  -0.735  1.00  0.00     0.000 C 
BRANCH   3   4
ATOM      4  C   UNL     1     -22.784 119.510  -0.146  1.00  0.00     0.000 C 
BRANCH   4   5
ATOM      5  C   UNL     1     -21.769 118.710   0.693  1.00  0.00     0.000 C 
BRANCH   5   6
ATOM      6  C   UNL     1     -21.961 117.179   0.669  1.00  0.00     0.000 C 
BRANCH   6   7
ATOM      7  C   UNL     1     -20.823 116.386   0.001  1.00  0.00     0.000 C 
BRANCH   7   8
ATOM      8  C   UNL     1     -21.291 115.044  -0.585  1.00  0.00     0.000 C 
BRANCH   8   9
ATOM      9  C   UNL     1     -20.122 114.141  -1.021  1.00  0.00     0.000 C 
BRANCH   9  10
ATOM     10  C   UNL     1     -18.827 114.305  -0.205  1.00  0.00     0.006 C 
BRANCH  10  11
ATOM     11  C   UNL     1     -17.564 113.967  -1.009  1.00  0.00     0.053 C 
BRANCH  11  12
ATOM     12  C   UNL     1     -17.188 115.110  -1.899  1.00  0.00     0.041 C 
ATOM     13  O   UNL     1     -17.223 116.291  -1.462  1.00  0.00    -0.550 OA
ATOM     14  O   UNL     1     -16.762 114.869  -3.198  1.00  0.00    -0.550 OA
ENDBRANCH  11  12
ENDBRANCH  10  11
ENDBRANCH   9  10
ENDBRANCH   8   9
ENDBRANCH   7   8
ENDBRANCH   6   7
ENDBRANCH   5   6
ENDBRANCH   4   5
ENDBRANCH   3   4
ENDBRANCH   2   3
ENDBRANCH   1   2
BRANCH   1  15
ATOM     15  C   UNL     1     -21.199 120.207  -3.191  1.00  0.00     0.000 C 
BRANCH  15  16
ATOM     16  C   UNL     1     -21.340 118.732  -3.609  1.00  0.00     0.000 C 
BRANCH  16  17
ATOM     17  C   UNL     1     -20.303 117.773  -2.992  1.00  0.00     0.000 C 
BRANCH  17  18
ATOM     18  C   UNL     1     -19.986 116.524  -3.837  1.00  0.00    -0.000 C 
BRANCH  18  19
ATOM     19  C   UNL     1     -21.053 116.160  -4.886  1.00  0.00    -0.000 C 
BRANCH  19  20
ATOM     20  C   UNL     1     -21.643 114.743  -4.710  1.00  0.00    -0.000 C 
BRANCH  20  21
ATOM     21  C   UNL     1     -23.180 114.750  -4.674  1.00  0.00    -0.000 C 
BRANCH  21  22
ATOM     22  C   UNL     1     -23.736 115.105  -3.286  1.00  0.00    -0.000 C 
BRANCH  22  23
ATOM     23  C   UNL     1     -24.106 116.594  -3.164  1.00  0.00    -0.000 C 
BRANCH  23  24
ATOM     24  C   UNL     1     -24.763 116.931  -1.815  1.00  0.00    -0.000 C 
BRANCH  24  25
ATOM     25  C   UNL     1     -25.004 115.696  -0.921  1.00  0.00    -0.003 C 
ATOM     26  C   UNL     1     -25.496 116.078   0.475  1.00  0.00     0.004 C 
ENDBRANCH  24  25
ENDBRANCH  23  24
ENDBRANCH  22  23
ENDBRANCH  21  22
ENDBRANCH  20  21
ENDBRANCH  19  20
ENDBRANCH  18  19
ENDBRANCH  17  18
ENDBRANCH  16  17
ENDBRANCH  15  16
ENDBRANCH   1  15
TORSDOF 22
ENDMDL
MODEL 2
REMARK VINA RESULT:    -4.008      2.862      5.871
REMARK INTER + INTRA:         -13.452
REMARK INTER:                  -9.245
REMARK INTRA:                  -4.208
REMARK UNBOUND:                -4.291
REMARK SMILES CCCCCCCCCCCCCCCCCCCCCCCC(=O)[O-]
REMARK SMILES IDX 13 1 14 2 15 3 16 4 17 5 18 6 19 7 20 8 21 9 22 10 23 11
REMARK SMILES IDX 24 12 25 13 26 14 12 15 11 16 10 17 9 18 8 19 7 20 6 21 5 22
REMARK SMILES IDX 4 23 3 24 2 25 1 26
REMARK H PARENT
REMARK Flexibility Score: inf
ROOT
ATOM      1  C   UNL     1     -18.990 115.491  -4.772  1.00  0.00     0.000 C 
ENDROOT
BRANCH   1   2
ATOM      2  C   UNL     1     -18.705 114.037  -4.356  1.00  0.00     0.000 C 
BRANCH   2   3
ATOM      3  C   UNL     1     -17.616 113.925  -3.276  1.00  0.00     0.000 C 
BRANCH   3   4
ATOM      4  C   UNL     1     -17.567 115.098  -2.277  1.00  0.00     0.000 C 
BRANCH   4   5
ATOM      5  C   UNL     1     -17.946 114.738  -0.828  1.00  0.00     0.000 C 
BRANCH   5   6
ATOM      6  C   UNL     1     -19.307 115.286  -0.352  1.00  0.00     0.000 C 
BRANCH   6   7
ATOM      7  C   UNL     1     -20.529 114.427  -0.726  1.00  0.00     0.000 C 
BRANCH   7   8
ATOM      8  C   UNL     1     -21.860 115.183  -0.591  1.00  0.00     0.000 C 
BRANCH   8   9
ATOM      9  C   UNL     1     -21.809 116.302   0.466  1.00  0.00     0.000 C 
BRANCH   9  10
ATOM     10  C   UNL     1     -22.956 117.325   0.393  1.00  0.00     0.006 C 
BRANCH  10  11
ATOM     11  C   UNL     1     -24.009 116.970  -0.665  1.00  0.00     0.053 C 
BRANCH  11  12
ATOM     12  C   UNL     1     -25.286 116.546  -0.011  1.00  0.00     0.041 C 
ATOM     13  O   UNL     1     -26.170 117.398   0.267  1.00  0.00    -0.550 OA
ATOM     14  O   UNL     1     -25.517 115.203   0.257  1.00  0.00    -0.550 OA
ENDBRANCH  11  12
ENDBRANCH  10  11
ENDBRANCH   9  10
ENDBRANCH   8   9
ENDBRANCH   7   8
ENDBRANCH   6   7
ENDBRANCH   5   6
ENDBRANCH   4   5
ENDBRANCH   3   4
ENDBRANCH   2   3
ENDBRANCH   1   2
BRANCH   1  15
ATOM     15  C   UNL     1     -20.463 115.712  -5.179  1.00  0.00     0.000 C 
BRANCH  15  16
ATOM     16  C   UNL     1     -21.434 115.803  -3.988  1.00  0.00     0.000 C 
BRANCH  16  17
ATOM     17  C   UNL     1     -22.129 117.167  -3.810  1.00  0.00     0.000 C 
BRANCH  17  18
ATOM     18  C   UNL     1     -21.190 118.335  -3.449  1.00  0.00    -0.000 C 
BRANCH  18  19
ATOM     19  C   UNL     1     -20.160 118.024  -2.348  1.00  0.00    -0.000 C 
BRANCH  19  20
ATOM     20  C   UNL     1     -20.041 119.129  -1.275  1.00  0.00    -0.000 C 
BRANCH  20  21
ATOM     21  C   UNL     1     -20.185 120.540  -1.871  1.00  0.00    -0.000 C 
BRANCH  21  22
ATOM     22  C   UNL     1     -21.151 121.425  -1.068  1.00  0.00    -0.000 C 
BRANCH  22  23
ATOM     23  C   UNL     1     -22.486 120.720  -0.773  1.00  0.00    -0.000 C 
BRANCH  23  24
ATOM     24  C   UNL     1     -23.491 120.849  -1.930  1.00  0.00    -0.000 C 
BRANCH  24  25
ATOM     25  C   UNL     1     -24.944 120.523  -1.523  1.00  0.00    -0.003 C 
ATOM     26  C   UNL     1     -25.866 121.736  -1.645  1.00  0.00     0.004 C 
ENDBRANCH  24  25
ENDBRANCH  23  24
ENDBRANCH  22  23
ENDBRANCH  21  22
ENDBRANCH  20  21
ENDBRANCH  19  20
ENDBRANCH  18  19
ENDBRANCH  17  18
ENDBRANCH  16  17
ENDBRANCH  15  16
ENDBRANCH   1  15
TORSDOF 22
ENDMDL
MODEL 3
REMARK VINA RESULT:    -3.982      2.152      4.883
REMARK INTER + INTRA:         -13.395
REMARK INTER:                  -8.893
REMARK INTRA:                  -4.502
REMARK UNBOUND:                -4.291
REMARK SMILES CCCCCCCCCCCCCCCCCCCCCCCC(=O)[O-]
REMARK SMILES IDX 13 1 14 2 15 3 16 4 17 5 18 6 19 7 20 8 21 9 22 10 23 11
REMARK SMILES IDX 24 12 25 13 26 14 12 15 11 16 10 17 9 18 8 19 7 20 6 21 5 22
REMARK SMILES IDX 4 23 3 24 2 25 1 26
REMARK H PARENT
REMARK Flexibility Score: inf
ROOT
ATOM      1  C   UNL     1     -21.354 117.791  -0.292  1.00  0.00     0.000 C 
ENDROOT
BRANCH   1   2
ATOM      2  C   UNL     1     -21.276 116.362   0.272  1.00  0.00     0.000 C 
BRANCH   2   3
ATOM      3  C   UNL     1     -21.381 115.281  -0.817  1.00  0.00     0.000 C 
BRANCH   3   4
ATOM      4  C   UNL     1     -20.218 114.270  -0.844  1.00  0.00     0.000 C 
BRANCH   4   5
ATOM      5  C   UNL     1     -18.884 114.793  -0.277  1.00  0.00     0.000 C 
BRANCH   5   6
ATOM      6  C   UNL     1     -17.911 115.375  -1.324  1.00  0.00     0.000 C 
BRANCH   6   7
ATOM      7  C   UNL     1     -17.357 114.361  -2.341  1.00  0.00     0.000 C 
BRANCH   7   8
ATOM      8  C   UNL     1     -18.009 114.483  -3.728  1.00  0.00     0.000 C 
BRANCH   8   9
ATOM      9  C   UNL     1     -18.749 115.820  -3.925  1.00  0.00     0.000 C 
BRANCH   9  10
ATOM     10  C   UNL     1     -20.215 115.696  -4.378  1.00  0.00     0.006 C 
BRANCH  10  11
ATOM     11  C   UNL     1     -20.571 116.651  -5.525  1.00  0.00     0.053 C 
BRANCH  11  12
ATOM     12  C   UNL     1     -21.481 115.978  -6.504  1.00  0.00     0.041 C 
ATOM     13  O   UNL     1     -22.022 116.643  -7.427  1.00  0.00    -0.550 OA
ATOM     14  O   UNL     1     -21.703 114.610  -6.420  1.00  0.00    -0.550 OA
ENDBRANCH  11  12
ENDBRANCH  10  11
ENDBRANCH   9  10
ENDBRANCH   8   9
ENDBRANCH   7   8
ENDBRANCH   6   7
ENDBRANCH   5   6
ENDBRANCH   4   5
ENDBRANCH   3   4
ENDBRANCH   2   3
ENDBRANCH   1   2
BRANCH   1  15
ATOM     15  C   UNL     1     -20.482 117.978  -1.553  1.00  0.00     0.000 C 
BRANCH  15  16
ATOM     16  C   UNL     1     -19.643 119.269  -1.547  1.00  0.00     0.000 C 
BRANCH  16  17
ATOM     17  C   UNL     1     -20.308 120.486  -2.217  1.00  0.00     0.000 C 
BRANCH  17  18
ATOM     18  C   UNL     1     -21.398 120.147  -3.253  1.00  0.00    -0.000 C 
BRANCH  18  19
ATOM     19  C   UNL     1     -22.818 120.609  -2.879  1.00  0.00    -0.000 C 
BRANCH  19  20
ATOM     20  C   UNL     1     -22.969 121.027  -1.399  1.00  0.00    -0.000 C 
BRANCH  20  21
ATOM     21  C   UNL     1     -24.053 120.214  -0.671  1.00  0.00    -0.000 C 
BRANCH  21  22
ATOM     22  C   UNL     1     -24.987 119.473  -1.641  1.00  0.00    -0.000 C 
BRANCH  22  23
ATOM     23  C   UNL     1     -24.893 117.945  -1.494  1.00  0.00    -0.000 C 
BRANCH  23  24
ATOM     24  C   UNL     1     -25.024 117.212  -2.841  1.00  0.00    -0.000 C 
BRANCH  24  25
ATOM     25  C   UNL     1     -23.691 116.629  -3.356  1.00  0.00    -0.003 C 
ATOM     26  C   UNL     1     -23.773 115.122  -3.599  1.00  0.00     0.004 C 
ENDBRANCH  24  25
ENDBRANCH  23  24
ENDBRANCH  22  23
ENDBRANCH  21  22
ENDBRANCH  20  21
ENDBRANCH  19  20
ENDBRANCH  18  19
ENDBRANCH  17  18
ENDBRANCH  16  17
ENDBRANCH  15  16
ENDBRANCH   1  15
TORSDOF 22
ENDMDL
MODEL 4
REMARK VINA RESULT:    -3.970      2.899      6.007
REMARK INTER + INTRA:         -13.366
REMARK INTER:                  -9.266
REMARK INTRA:                  -4.100
REMARK UNBOUND:                -4.291
REMARK SMILES CCCCCCCCCCCCCCCCCCCCCCCC(=O)[O-]
REMARK SMILES IDX 13 1 14 2 15 3 16 4 17 5 18 6 19 7 20 8 21 9 22 10 23 11
REMARK SMILES IDX 24 12 25 13 26 14 12 15 11 16 10 17 9 18 8 19 7 20 6 21 5 22
REMARK SMILES IDX 4 23 3 24 2 25 1 26
REMARK H PARENT
REMARK Flexibility Score: inf
ROOT
ATOM      1  C   UNL     1     -17.207 115.244  -1.353  1.00  0.00     0.000 C 
ENDROOT
BRANCH   1   2
ATOM      2  C   UNL     1     -17.630 114.104  -0.411  1.00  0.00     0.000 C 
BRANCH   2   3
ATOM      3  C   UNL     1     -19.151 113.876  -0.390  1.00  0.00     0.000 C 
BRANCH   3   4
ATOM      4  C   UNL     1     -20.000 115.161  -0.328  1.00  0.00     0.000 C 
BRANCH   4   5
ATOM      5  C   UNL     1     -21.475 114.989  -0.738  1.00  0.00     0.000 C 
BRANCH   5   6
ATOM      6  C   UNL     1     -22.494 115.724   0.157  1.00  0.00     0.000 C 
BRANCH   6   7
ATOM      7  C   UNL     1     -22.060 117.122   0.635  1.00  0.00     0.000 C 
BRANCH   7   8
ATOM      8  C   UNL     1     -22.995 118.240   0.150  1.00  0.00     0.000 C 
BRANCH   8   9
ATOM      9  C   UNL     1     -23.731 117.882  -1.155  1.00  0.00     0.000 C 
BRANCH   9  10
ATOM     10  C   UNL     1     -25.197 118.344  -1.229  1.00  0.00     0.006 C 
BRANCH  10  11
ATOM     11  C   UNL     1     -25.473 119.276  -2.417  1.00  0.00     0.053 C 
BRANCH  11  12
ATOM     12  C   UNL     1     -25.005 120.664  -2.113  1.00  0.00     0.041 C 
ATOM     13  O   UNL     1     -23.991 121.133  -2.694  1.00  0.00    -0.550 OA
ATOM     14  O   UNL     1     -25.712 121.455  -1.217  1.00  0.00    -0.550 OA
ENDBRANCH  11  12
ENDBRANCH  10  11
ENDBRANCH   9  10
ENDBRANCH   8   9
ENDBRANCH   7   8
ENDBRANCH   6   7
ENDBRANCH   5   6
ENDBRANCH   4   5
ENDBRANCH   3   4
ENDBRANCH   2   3
ENDBRANCH   1   2
BRANCH   1  15
ATOM     15  C   UNL     1     -17.022 114.769  -2.811  1.00  0.00     0.000 C 
BRANCH  15  16
ATOM     16  C   UNL     1     -18.203 115.118  -3.736  1.00  0.00     0.000 C 
BRANCH  16  17
ATOM     17  C   UNL     1     -19.021 113.912  -4.238  1.00  0.00     0.000 C 
BRANCH  17  18
ATOM     18  C   UNL     1     -20.547 114.122  -4.257  1.00  0.00    -0.000 C 
BRANCH  18  19
ATOM     19  C   UNL     1     -21.096 114.787  -5.533  1.00  0.00    -0.000 C 
BRANCH  19  20
ATOM     20  C   UNL     1     -21.147 116.329  -5.460  1.00  0.00    -0.000 C 
BRANCH  20  21
ATOM     21  C   UNL     1     -21.825 116.831  -4.174  1.00  0.00    -0.000 C 
BRANCH  21  22
ATOM     22  C   UNL     1     -21.173 118.109  -3.623  1.00  0.00    -0.000 C 
BRANCH  22  23
ATOM     23  C   UNL     1     -20.127 117.812  -2.535  1.00  0.00    -0.000 C 
BRANCH  23  24
ATOM     24  C   UNL     1     -19.827 119.037  -1.653  1.00  0.00    -0.000 C 
BRANCH  24  25
ATOM     25  C   UNL     1     -20.652 120.285  -2.031  1.00  0.00    -0.003 C 
ATOM     26  C   UNL     1     -20.947 121.173  -0.822  1.00  0.00     0.004 C 
ENDBRANCH  24  25
ENDBRANCH  23  24
ENDBRANCH  22  23
ENDBRANCH  21  22
ENDBRANCH  20  21
ENDBRANCH  19  20
ENDBRANCH  18  19
ENDBRANCH  17  18
ENDBRANCH  16  17
ENDBRANCH  15  16
ENDBRANCH   1  15
TORSDOF 22
ENDMDL
MODEL 5
REMARK VINA RESULT:    -3.921      3.044      5.649
REMARK INTER + INTRA:         -13.255
REMARK INTER:                  -9.084
REMARK INTRA:                  -4.171
REMARK UNBOUND:                -4.291
REMARK SMILES CCCCCCCCCCCCCCCCCCCCCCCC(=O)[O-]
REMARK SMILES IDX 13 1 14 2 15 3 16 4 17 5 18 6 19 7 20 8 21 9 22 10 23 11
REMARK SMILES IDX 24 12 25 13 26 14 12 15 11 16 10 17 9 18 8 19 7 20 6 21 5 22
REMARK SMILES IDX 4 23 3 24 2 25 1 26
REMARK H PARENT
REMARK Flexibility Score: inf
ROOT
ATOM      1  C   UNL     1     -20.572 120.912  -0.670  1.00  0.00     0.000 C 
ENDROOT
BRANCH   1   2
ATOM      2  C   UNL     1     -21.849 120.207  -0.182  1.00  0.00     0.000 C 
BRANCH   2   3
ATOM      3  C   UNL     1     -21.558 118.924   0.615  1.00  0.00     0.000 C 
BRANCH   3   4
ATOM      4  C   UNL     1     -22.771 117.994   0.815  1.00  0.00     0.000 C 
BRANCH   4   5
ATOM      5  C   UNL     1     -22.479 116.492   0.633  1.00  0.00     0.000 C 
BRANCH   5   6
ATOM      6  C   UNL     1     -23.656 115.656   0.090  1.00  0.00     0.000 C 
BRANCH   6   7
ATOM      7  C   UNL     1     -25.057 116.197   0.429  1.00  0.00     0.000 C 
BRANCH   7   8
ATOM      8  C   UNL     1     -25.973 116.304  -0.800  1.00  0.00     0.000 C 
BRANCH   8   9
ATOM      9  C   UNL     1     -25.355 117.139  -1.937  1.00  0.00     0.000 C 
BRANCH   9  10
ATOM     10  C   UNL     1     -25.262 118.650  -1.665  1.00  0.00     0.006 C 
BRANCH  10  11
ATOM     11  C   UNL     1     -25.455 119.500  -2.928  1.00  0.00     0.053 C 
BRANCH  11  12
ATOM     12  C   UNL     1     -25.113 120.931  -2.655  1.00  0.00     0.041 C 
ATOM     13  O   UNL     1     -24.904 121.727  -3.608  1.00  0.00    -0.550 OA
ATOM     14  O   UNL     1     -25.063 121.396  -1.347  1.00  0.00    -0.550 OA
ENDBRANCH  11  12
ENDBRANCH  10  11
ENDBRANCH   9  10
ENDBRANCH   8   9
ENDBRANCH   7   8
ENDBRANCH   6   7
ENDBRANCH   5   6
ENDBRANCH   4   5
ENDBRANCH   3   4
ENDBRANCH   2   3
ENDBRANCH   1   2
BRANCH   1  15
ATOM     15  C   UNL     1     -20.263 120.618  -2.154  1.00  0.00     0.000 C 
BRANCH  15  16
ATOM     16  C   UNL     1     -21.454 120.035  -2.936  1.00  0.00     0.000 C 
BRANCH  16  17
ATOM     17  C   UNL     1     -21.213 118.648  -3.562  1.00  0.00     0.000 C 
BRANCH  17  18
ATOM     18  C   UNL     1     -21.943 117.483  -2.866  1.00  0.00    -0.000 C 
BRANCH  18  19
ATOM     19  C   UNL     1     -22.228 116.264  -3.763  1.00  0.00    -0.000 C 
BRANCH  19  20
ATOM     20  C   UNL     1     -22.137 114.911  -3.024  1.00  0.00    -0.000 C 
BRANCH  20  21
ATOM     21  C   UNL     1     -20.682 114.472  -2.785  1.00  0.00    -0.000 C 
BRANCH  21  22
ATOM     22  C   UNL     1     -20.369 114.252  -1.297  1.00  0.00    -0.000 C 
BRANCH  22  23
ATOM     23  C   UNL     1     -19.313 115.237  -0.767  1.00  0.00    -0.000 C 
BRANCH  23  24
ATOM     24  C   UNL     1     -18.686 116.090  -1.884  1.00  0.00    -0.000 C 
BRANCH  24  25
ATOM     25  C   UNL     1     -17.188 115.799  -2.116  1.00  0.00    -0.003 C 
ATOM     26  C   UNL     1     -16.968 114.633  -3.079  1.00  0.00     0.004 C 
ENDBRANCH  24  25
ENDBRANCH  23  24
ENDBRANCH  22  23
ENDBRANCH  21  22
ENDBRANCH  20  21
ENDBRANCH  19  20
ENDBRANCH  18  19
ENDBRANCH  17  18
ENDBRANCH  16  17
ENDBRANCH  15  16
ENDBRANCH   1  15
TORSDOF 22
ENDMDL
MODEL 6
REMARK VINA RESULT:    -3.920      3.013      6.293
REMARK INTER + INTRA:         -13.252
REMARK INTER:                  -8.834
REMARK INTRA:                  -4.418
REMARK UNBOUND:                -4.291
REMARK SMILES CCCCCCCCCCCCCCCCCCCCCCCC(=O)[O-]
REMARK SMILES IDX 13 1 14 2 15 3 16 4 17 5 18 6 19 7 20 8 21 9 22 10 23 11
REMARK SMILES IDX 24 12 25 13 26 14 12 15 11 16 10 17 9 18 8 19 7 20 6 21 5 22
REMARK SMILES IDX 4 23 3 24 2 25 1 26
REMARK H PARENT
REMARK Flexibility Score: inf
ROOT
ATOM      1  C   UNL     1     -17.700 115.367  -2.436  1.00  0.00     0.000 C 
ENDROOT
BRANCH   1   2
ATOM      2  C   UNL     1     -17.995 114.259  -3.462  1.00  0.00     0.000 C 
BRANCH   2   3
ATOM      3  C   UNL     1     -19.049 114.671  -4.503  1.00  0.00     0.000 C 
BRANCH   3   4
ATOM      4  C   UNL     1     -19.503 116.142  -4.422  1.00  0.00     0.000 C 
BRANCH   4   5
ATOM      5  C   UNL     1     -21.006 116.375  -4.668  1.00  0.00     0.000 C 
BRANCH   5   6
ATOM      6  C   UNL     1     -21.859 115.094  -4.778  1.00  0.00     0.000 C 
BRANCH   6   7
ATOM      7  C   UNL     1     -22.814 114.838  -3.597  1.00  0.00     0.000 C 
BRANCH   7   8
ATOM      8  C   UNL     1     -23.393 116.131  -3.002  1.00  0.00     0.000 C 
BRANCH   8   9
ATOM      9  C   UNL     1     -24.608 115.878  -2.089  1.00  0.00     0.000 C 
BRANCH   9  10
ATOM     10  C   UNL     1     -24.288 115.770  -0.588  1.00  0.00     0.006 C 
BRANCH  10  11
ATOM     11  C   UNL     1     -24.231 117.135   0.113  1.00  0.00     0.053 C 
BRANCH  11  12
ATOM     12  C   UNL     1     -25.584 117.517   0.626  1.00  0.00     0.041 C 
ATOM     13  O   UNL     1     -25.909 117.251   1.813  1.00  0.00    -0.550 OA
ATOM     14  O   UNL     1     -26.471 118.200  -0.195  1.00  0.00    -0.550 OA
ENDBRANCH  11  12
ENDBRANCH  10  11
ENDBRANCH   9  10
ENDBRANCH   8   9
ENDBRANCH   7   8
ENDBRANCH   6   7
ENDBRANCH   5   6
ENDBRANCH   4   5
ENDBRANCH   3   4
ENDBRANCH   2   3
ENDBRANCH   1   2
BRANCH   1  15
ATOM     15  C   UNL     1     -17.994 114.925  -0.986  1.00  0.00     0.000 C 
BRANCH  15  16
ATOM     16  C   UNL     1     -19.243 114.037  -0.844  1.00  0.00     0.000 C 
BRANCH  16  17
ATOM     17  C   UNL     1     -20.588 114.790  -0.850  1.00  0.00     0.000 C 
BRANCH  17  18
ATOM     18  C   UNL     1     -20.556 116.184  -0.195  1.00  0.00    -0.000 C 
BRANCH  18  19
ATOM     19  C   UNL     1     -20.896 117.354  -1.138  1.00  0.00    -0.000 C 
BRANCH  19  20
ATOM     20  C   UNL     1     -19.695 118.277  -1.445  1.00  0.00    -0.000 C 
BRANCH  20  21
ATOM     21  C   UNL     1     -20.136 119.642  -1.999  1.00  0.00    -0.000 C 
BRANCH  21  22
ATOM     22  C   UNL     1     -20.300 120.701  -0.898  1.00  0.00    -0.000 C 
BRANCH  22  23
ATOM     23  C   UNL     1     -21.660 121.416  -0.969  1.00  0.00    -0.000 C 
BRANCH  23  24
ATOM     24  C   UNL     1     -22.806 120.569  -0.387  1.00  0.00    -0.000 C 
BRANCH  24  25
ATOM     25  C   UNL     1     -24.124 120.687  -1.182  1.00  0.00    -0.003 C 
ATOM     26  C   UNL     1     -24.101 119.861  -2.467  1.00  0.00     0.004 C 
ENDBRANCH  24  25
ENDBRANCH  23  24
ENDBRANCH  22  23
ENDBRANCH  21  22
ENDBRANCH  20  21
ENDBRANCH  19  20
ENDBRANCH  18  19
ENDBRANCH  17  18
ENDBRANCH  16  17
ENDBRANCH  15  16
ENDBRANCH   1  15
TORSDOF 22
ENDMDL
MODEL 7
REMARK VINA RESULT:    -3.899      1.980      4.178
REMARK INTER + INTRA:         -13.204
REMARK INTER:                  -8.661
REMARK INTRA:                  -4.543
REMARK UNBOUND:                -4.291
REMARK SMILES CCCCCCCCCCCCCCCCCCCCCCCC(=O)[O-]
REMARK SMILES IDX 13 1 14 2 15 3 16 4 17 5 18 6 19 7 20 8 21 9 22 10 23 11
REMARK SMILES IDX 24 12 25 13 26 14 12 15 11 16 10 17 9 18 8 19 7 20 6 21 5 22
REMARK SMILES IDX 4 23 3 24 2 25 1 26
REMARK H PARENT
REMARK Flexibility Score: inf
ROOT
ATOM      1  C   UNL     1     -20.096 118.118  -2.411  1.00  0.00     0.000 C 
ENDROOT
BRANCH   1   2
ATOM      2  C   UNL     1     -21.461 117.501  -2.061  1.00  0.00     0.000 C 
BRANCH   2   3
ATOM      3  C   UNL     1     -21.703 117.401  -0.545  1.00  0.00     0.000 C 
BRANCH   3   4
ATOM      4  C   UNL     1     -21.120 116.142   0.126  1.00  0.00     0.000 C 
BRANCH   4   5
ATOM      5  C   UNL     1     -21.136 114.871  -0.746  1.00  0.00     0.000 C 
BRANCH   5   6
ATOM      6  C   UNL     1     -19.769 114.177  -0.918  1.00  0.00     0.000 C 
BRANCH   6   7
ATOM      7  C   UNL     1     -18.542 115.083  -0.708  1.00  0.00     0.000 C 
BRANCH   7   8
ATOM      8  C   UNL     1     -17.808 115.414  -2.017  1.00  0.00     0.000 C 
BRANCH   8   9
ATOM      9  C   UNL     1     -18.228 114.503  -3.186  1.00  0.00     0.000 C 
BRANCH   9  10
ATOM     10  C   UNL     1     -18.837 115.230  -4.398  1.00  0.00     0.006 C 
BRANCH  10  11
ATOM     11  C   UNL     1     -20.337 114.959  -4.569  1.00  0.00     0.053 C 
BRANCH  11  12
ATOM     12  C   UNL     1     -20.896 115.788  -5.682  1.00  0.00     0.041 C 
ATOM     13  O   UNL     1     -21.695 115.278  -6.513  1.00  0.00    -0.550 OA
ATOM     14  O   UNL     1     -20.566 117.133  -5.781  1.00  0.00    -0.550 OA
ENDBRANCH  11  12
ENDBRANCH  10  11
ENDBRANCH   9  10
ENDBRANCH   8   9
ENDBRANCH   7   8
ENDBRANCH   6   7
ENDBRANCH   5   6
ENDBRANCH   4   5
ENDBRANCH   3   4
ENDBRANCH   2   3
ENDBRANCH   1   2
BRANCH   1  15
ATOM     15  C   UNL     1     -19.653 119.192  -1.394  1.00  0.00     0.000 C 
BRANCH  15  16
ATOM     16  C   UNL     1     -20.035 120.628  -1.795  1.00  0.00     0.000 C 
BRANCH  16  17
ATOM     17  C   UNL     1     -21.232 121.227  -1.030  1.00  0.00     0.000 C 
BRANCH  17  18
ATOM     18  C   UNL     1     -22.612 120.947  -1.657  1.00  0.00    -0.000 C 
BRANCH  18  19
ATOM     19  C   UNL     1     -23.722 120.590  -0.653  1.00  0.00    -0.000 C 
BRANCH  19  20
ATOM     20  C   UNL     1     -24.948 119.903  -1.295  1.00  0.00    -0.000 C 
BRANCH  20  21
ATOM     21  C   UNL     1     -24.562 119.030  -2.502  1.00  0.00    -0.000 C 
BRANCH  21  22
ATOM     22  C   UNL     1     -25.726 118.158  -2.996  1.00  0.00    -0.000 C 
BRANCH  22  23
ATOM     23  C   UNL     1     -26.129 117.080  -1.974  1.00  0.00    -0.000 C 
BRANCH  23  24
ATOM     24  C   UNL     1     -24.974 116.118  -1.644  1.00  0.00    -0.000 C 
BRANCH  24  25
ATOM     25  C   UNL     1     -24.924 115.704  -0.158  1.00  0.00    -0.003 C 
ATOM     26  C   UNL     1     -25.187 116.881   0.781  1.00  0.00     0.004 C 
ENDBRANCH  24  25
ENDBRANCH  23  24
ENDBRANCH  22  23
ENDBRANCH  21  22
ENDBRANCH  20  21
ENDBRANCH  19  20
ENDBRANCH  18  19
ENDBRANCH  17  18
ENDBRANCH  16  17
ENDBRANCH  15  16
ENDBRANCH   1  15
TORSDOF 22
ENDMDL
MODEL 8
REMARK VINA RESULT:    -3.860      3.031      5.111
REMARK INTER + INTRA:         -13.115
REMARK INTER:                  -8.399
REMARK INTRA:                  -4.716
REMARK UNBOUND:                -4.291
REMARK SMILES CCCCCCCCCCCCCCCCCCCCCCCC(=O)[O-]
REMARK SMILES IDX 13 1 14 2 15 3 16 4 17 5 18 6 19 7 20 8 21 9 22 10 23 11
REMARK SMILES IDX 24 12 25 13 26 14 12 15 11 16 10 17 9 18 8 19 7 20 6 21 5 22
REMARK SMILES IDX 4 23 3 24 2 25 1 26
REMARK H PARENT
REMARK Flexibility Score: inf
ROOT
ATOM      1  C   UNL     1     -21.352 119.565  -3.009  1.00  0.00     0.000 C 
ENDROOT
BRANCH   1   2
ATOM      2  C   UNL     1     -20.532 120.432  -2.038  1.00  0.00     0.000 C 
BRANCH   2   3
ATOM      3  C   UNL     1     -21.392 121.080  -0.940  1.00  0.00     0.000 C 
BRANCH   3   4
ATOM      4  C   UNL     1     -22.225 120.092  -0.099  1.00  0.00     0.000 C 
BRANCH   4   5
ATOM      5  C   UNL     1     -21.439 119.335   0.989  1.00  0.00     0.000 C 
BRANCH   5   6
ATOM      6  C   UNL     1     -21.782 117.837   1.122  1.00  0.00     0.000 C 
BRANCH   6   7
ATOM      7  C   UNL     1     -23.229 117.460   0.758  1.00  0.00     0.000 C 
BRANCH   7   8
ATOM      8  C   UNL     1     -23.320 116.549  -0.477  1.00  0.00     0.000 C 
BRANCH   8   9
ATOM      9  C   UNL     1     -24.603 116.779  -1.298  1.00  0.00     0.000 C 
BRANCH   9  10
ATOM     10  C   UNL     1     -25.145 118.219  -1.276  1.00  0.00     0.006 C 
BRANCH  10  11
ATOM     11  C   UNL     1     -24.864 118.984  -2.576  1.00  0.00     0.053 C 
BRANCH  11  12
ATOM     12  C   UNL     1     -25.112 120.448  -2.386  1.00  0.00     0.041 C 
ATOM     13  O   UNL     1     -25.956 120.843  -1.539  1.00  0.00    -0.550 OA
ATOM     14  O   UNL     1     -24.384 121.377  -3.118  1.00  0.00    -0.550 OA
ENDBRANCH  11  12
ENDBRANCH  10  11
ENDBRANCH   9  10
ENDBRANCH   8   9
ENDBRANCH   7   8
ENDBRANCH   6   7
ENDBRANCH   5   6
ENDBRANCH   4   5
ENDBRANCH   3   4
ENDBRANCH   2   3
ENDBRANCH   1   2
BRANCH   1  15
ATOM     15  C   UNL     1     -21.064 118.057  -2.842  1.00  0.00     0.000 C 
BRANCH  15  16
ATOM     16  C   UNL     1     -19.833 117.748  -1.971  1.00  0.00     0.000 C 
BRANCH  16  17
ATOM     17  C   UNL     1     -19.605 116.255  -1.663  1.00  0.00     0.000 C 
BRANCH  17  18
ATOM     18  C   UNL     1     -18.978 115.441  -2.811  1.00  0.00    -0.000 C 
BRANCH  18  19
ATOM     19  C   UNL     1     -19.831 114.262  -3.314  1.00  0.00    -0.000 C 
BRANCH  19  20
ATOM     20  C   UNL     1     -21.285 114.277  -2.792  1.00  0.00    -0.000 C 
BRANCH  20  21
ATOM     21  C   UNL     1     -22.314 114.168  -3.930  1.00  0.00    -0.000 C 
BRANCH  21  22
ATOM     22  C   UNL     1     -22.960 115.519  -4.274  1.00  0.00    -0.000 C 
BRANCH  22  23
ATOM     23  C   UNL     1     -23.184 115.696  -5.785  1.00  0.00    -0.000 C 
BRANCH  23  24
ATOM     24  C   UNL     1     -21.959 115.281  -6.618  1.00  0.00    -0.000 C 
BRANCH  24  25
ATOM     25  C   UNL     1     -21.107 116.475  -7.098  1.00  0.00    -0.003 C 
ATOM     26  C   UNL     1     -19.971 116.803  -6.130  1.00  0.00     0.004 C 
ENDBRANCH  24  25
ENDBRANCH  23  24
ENDBRANCH  22  23
ENDBRANCH  21  22
ENDBRANCH  20  21
ENDBRANCH  19  20
ENDBRANCH  18  19
ENDBRANCH  17  18
ENDBRANCH  16  17
ENDBRANCH  15  16
ENDBRANCH   1  15
TORSDOF 22
ENDMDL
MODEL 9
REMARK VINA RESULT:    -3.829      2.112      4.580
REMARK INTER + INTRA:         -13.044
REMARK INTER:                  -8.766
REMARK INTRA:                  -4.279
REMARK UNBOUND:                -4.291
REMARK SMILES CCCCCCCCCCCCCCCCCCCCCCCC(=O)[O-]
REMARK SMILES IDX 13 1 14 2 15 3 16 4 17 5 18 6 19 7 20 8 21 9 22 10 23 11
REMARK SMILES IDX 24 12 25 13 26 14 12 15 11 16 10 17 9 18 8 19 7 20 6 21 5 22
REMARK SMILES IDX 4 23 3 24 2 25 1 26
REMARK H PARENT
REMARK Flexibility Score: inf
ROOT
ATOM      1  C   UNL     1     -17.388 114.022  -3.368  1.00  0.00     0.000 C 
ENDROOT
BRANCH   1   2
ATOM      2  C   UNL     1     -17.008 115.240  -2.508  1.00  0.00     0.000 C 
BRANCH   2   3
ATOM      3  C   UNL     1     -17.196 114.993  -1.002  1.00  0.00     0.000 C 
BRANCH   3   4
ATOM      4  C   UNL     1     -18.568 114.415  -0.603  1.00  0.00     0.000 C 
BRANCH   4   5
ATOM      5  C   UNL     1     -19.723 115.435  -0.576  1.00  0.00     0.000 C 
BRANCH   5   6
ATOM      6  C   UNL     1     -21.135 114.830  -0.719  1.00  0.00     0.000 C 
BRANCH   6   7
ATOM      7  C   UNL     1     -22.232 115.519   0.113  1.00  0.00     0.000 C 
BRANCH   7   8
ATOM      8  C   UNL     1     -21.815 116.908   0.623  1.00  0.00     0.000 C 
BRANCH   8   9
ATOM      9  C   UNL     1     -22.753 118.030   0.139  1.00  0.00     0.000 C 
BRANCH   9  10
ATOM     10  C   UNL     1     -22.450 118.574  -1.268  1.00  0.00     0.006 C 
BRANCH  10  11
ATOM     11  C   UNL     1     -20.951 118.788  -1.519  1.00  0.00     0.053 C 
BRANCH  11  12
ATOM     12  C   UNL     1     -20.721 120.072  -2.253  1.00  0.00     0.041 C 
ATOM     13  O   UNL     1     -20.040 120.990  -1.725  1.00  0.00    -0.550 OA
ATOM     14  O   UNL     1     -21.226 120.240  -3.536  1.00  0.00    -0.550 OA
ENDBRANCH  11  12
ENDBRANCH  10  11
ENDBRANCH   9  10
ENDBRANCH   8   9
ENDBRANCH   7   8
ENDBRANCH   6   7
ENDBRANCH   5   6
ENDBRANCH   4   5
ENDBRANCH   3   4
ENDBRANCH   2   3
ENDBRANCH   1   2
BRANCH   1  15
ATOM     15  C   UNL     1     -18.738 114.209  -4.093  1.00  0.00     0.000 C 
BRANCH  15  16
ATOM     16  C   UNL     1     -18.909 115.590  -4.752  1.00  0.00     0.000 C 
BRANCH  16  17
ATOM     17  C   UNL     1     -20.037 116.461  -4.166  1.00  0.00     0.000 C 
BRANCH  17  18
ATOM     18  C   UNL     1     -20.901 117.196  -5.210  1.00  0.00    -0.000 C 
BRANCH  18  19
ATOM     19  C   UNL     1     -21.037 116.476  -6.564  1.00  0.00    -0.000 C 
BRANCH  19  20
ATOM     20  C   UNL     1     -22.317 115.621  -6.691  1.00  0.00    -0.000 C 
BRANCH  20  21
ATOM     21  C   UNL     1     -22.087 114.160  -6.269  1.00  0.00    -0.000 C 
BRANCH  21  22
ATOM     22  C   UNL     1     -22.532 113.887  -4.823  1.00  0.00    -0.000 C 
BRANCH  22  23
ATOM     23  C   UNL     1     -23.830 114.627  -4.458  1.00  0.00    -0.000 C 
BRANCH  23  24
ATOM     24  C   UNL     1     -23.651 115.582  -3.265  1.00  0.00    -0.000 C 
BRANCH  24  25
ATOM     25  C   UNL     1     -24.963 116.261  -2.817  1.00  0.00    -0.003 C 
ATOM     26  C   UNL     1     -25.504 115.674  -1.514  1.00  0.00     0.004 C 
ENDBRANCH  24  25
ENDBRANCH  23  24
ENDBRANCH  22  23
ENDBRANCH  21  22
ENDBRANCH  20  21
ENDBRANCH  19  20
ENDBRANCH  18  19
ENDBRANCH  17  18
ENDBRANCH  16  17
ENDBRANCH  15  16
ENDBRANCH   1  15
TORSDOF 22
ENDMDL
