MODEL 1
REMARK VINA RESULT:    -2.263      0.000      0.000
REMARK INTER + INTRA:          -2.418
REMARK INTER:                  -2.396
REMARK INTRA:                  -0.022
REMARK UNBOUND:                -0.022
REMARK SMILES O=C([O-])[C@H]1CCC[NH2+]1
REMARK SMILES IDX 4 1 8 2 7 3 5 4 6 5 2 8 1 9 3 10
REMARK H PARENT 8 6 8 7
REMARK Flexibility Score: inf
ROOT
ATOM      1  C   UNL     1      -1.933   3.049   1.970  1.00  0.00     0.229 C 
ATOM      2  N   UNL     1      -2.389   2.139   3.024  1.00  0.00    -0.339 N 
ATOM      3  C   UNL     1      -3.406   1.284   2.405  1.00  0.00     0.261 C 
ATOM      4  C   UNL     1      -2.049   2.286   0.660  1.00  0.00     0.077 C 
ATOM      5  C   UNL     1      -3.198   1.322   0.892  1.00  0.00     0.068 C 
ATOM      6  H   UNL     1      -2.795   2.678   3.825  1.00  0.00     0.346 HD
ATOM      7  H   UNL     1      -1.603   1.537   3.369  1.00  0.00     0.346 HD
ENDROOT
BRANCH   1   8
ATOM      8  C   UNL     1      -0.537   3.555   2.221  1.00  0.00     0.099 C 
ATOM      9  O   UNL     1       0.382   3.348   1.385  1.00  0.00    -0.544 OA
ATOM     10  O   UNL     1      -0.255   4.260   3.384  1.00  0.00    -0.544 OA
ENDBRANCH   1   8
TORSDOF 1
ENDMDL
MODEL 2
REMARK VINA RESULT:    -2.222      9.264      9.956
REMARK INTER + INTRA:          -2.374
REMARK INTER:                  -2.350
REMARK INTRA:                  -0.024
REMARK UNBOUND:                -0.022
REMARK SMILES O=C([O-])[C@H]1CCC[NH2+]1
REMARK SMILES IDX 4 1 8 2 7 3 5 4 6 5 2 8 1 9 3 10
REMARK H PARENT 8 6 8 7
REMARK Flexibility Score: inf
ROOT
ATOM      1  C   UNL     1       8.322   2.460   2.272  1.00  0.00     0.229 C 
ATOM      2  N   UNL     1       8.532   1.971   0.906  1.00  0.00    -0.339 N 
ATOM      3  C   UNL     1       9.074   0.615   1.044  1.00  0.00     0.261 C 
ATOM      4  C   UNL     1       7.984   1.243   3.120  1.00  0.00     0.077 C 
ATOM      5  C   UNL     1       8.711   0.100   2.435  1.00  0.00     0.068 C 
ATOM      6  H   UNL     1       9.205   2.588   0.394  1.00  0.00     0.346 HD
ATOM      7  H   UNL     1       7.627   1.923   0.379  1.00  0.00     0.346 HD
ENDROOT
BRANCH   1   8
ATOM      8  C   UNL     1       7.257   3.522   2.337  1.00  0.00     0.099 C 
ATOM      9  O   UNL     1       6.655   3.895   1.295  1.00  0.00    -0.544 OA
ATOM     10  O   UNL     1       6.931   4.101   3.557  1.00  0.00    -0.544 OA
ENDBRANCH   1   8
TORSDOF 1
ENDMDL
MODEL 3
REMARK VINA RESULT:    -2.201      2.384      2.799
REMARK INTER + INTRA:          -2.352
REMARK INTER:                  -2.332
REMARK INTRA:                  -0.020
REMARK UNBOUND:                -0.022
REMARK SMILES O=C([O-])[C@H]1CCC[NH2+]1
REMARK SMILES IDX 4 1 8 2 7 3 5 4 6 5 2 8 1 9 3 10
REMARK H PARENT 8 6 8 7
REMARK Flexibility Score: inf
ROOT
ATOM      1  C   UNL     1      -0.615   3.048  -0.459  1.00  0.00     0.229 C 
ATOM      2  N   UNL     1      -1.661   2.186   0.098  1.00  0.00    -0.339 N 
ATOM      3  C   UNL     1      -2.231   1.459  -1.041  1.00  0.00     0.261 C 
ATOM      4  C   UNL     1      -0.048   2.316  -1.666  1.00  0.00     0.077 C 
ATOM      5  C   UNL     1      -1.212   1.488  -2.178  1.00  0.00     0.068 C 
ATOM      6  H   UNL     1      -2.395   2.759   0.576  1.00  0.00     0.346 HD
ATOM      7  H   UNL     1      -1.259   1.494   0.775  1.00  0.00     0.346 HD
ENDROOT
BRANCH   1   8
ATOM      8  C   UNL     1       0.442   3.389   0.558  1.00  0.00     0.099 C 
ATOM      9  O   UNL     1       1.617   3.664   0.197  1.00  0.00    -0.544 OA
ATOM     10  O   UNL     1       0.123   3.401   1.910  1.00  0.00    -0.544 OA
ENDBRANCH   1   8
TORSDOF 1
ENDMDL
MODEL 4
REMARK VINA RESULT:    -2.161     11.600     12.240
REMARK INTER + INTRA:          -2.309
REMARK INTER:                  -2.289
REMARK INTRA:                  -0.021
REMARK UNBOUND:                -0.022
REMARK SMILES O=C([O-])[C@H]1CCC[NH2+]1
REMARK SMILES IDX 4 1 8 2 7 3 5 4 6 5 2 8 1 9 3 10
REMARK H PARENT 8 6 8 7
REMARK Flexibility Score: inf
ROOT
ATOM      1  C   UNL     1       9.257  -2.976   1.332  1.00  0.00     0.229 C 
ATOM      2  N   UNL     1       8.647  -2.108   2.343  1.00  0.00    -0.339 N 
ATOM      3  C   UNL     1       8.822  -0.737   1.855  1.00  0.00     0.261 C 
ATOM      4  C   UNL     1       9.077  -2.275  -0.005  1.00  0.00     0.077 C 
ATOM      5  C   UNL     1       9.062  -0.799   0.348  1.00  0.00     0.068 C 
ATOM      6  H   UNL     1       9.117  -2.234   3.270  1.00  0.00     0.346 HD
ATOM      7  H   UNL     1       7.621  -2.306   2.440  1.00  0.00     0.346 HD
ENDROOT
BRANCH   1   8
ATOM      8  C   UNL     1       8.668  -4.362   1.342  1.00  0.00     0.099 C 
ATOM      9  O   UNL     1       8.964  -5.192   0.442  1.00  0.00    -0.544 OA
ATOM     10  O   UNL     1       7.790  -4.733   2.352  1.00  0.00    -0.544 OA
ENDBRANCH   1   8
TORSDOF 1
ENDMDL
MODEL 5
REMARK VINA RESULT:    -2.110     11.261     11.868
REMARK INTER + INTRA:          -2.256
REMARK INTER:                  -2.235
REMARK INTRA:                  -0.020
REMARK UNBOUND:                -0.022
REMARK SMILES O=C([O-])[C@H]1CCC[NH2+]1
REMARK SMILES IDX 4 1 8 2 7 3 5 4 6 5 2 8 1 9 3 10
REMARK H PARENT 8 6 8 7
REMARK Flexibility Score: inf
ROOT
ATOM      1  C   UNL     1       8.548  -1.901  -2.194  1.00  0.00     0.229 C 
ATOM      2  N   UNL     1       8.685  -1.015  -1.035  1.00  0.00    -0.339 N 
ATOM      3  C   UNL     1       8.168   0.289  -1.463  1.00  0.00     0.261 C 
ATOM      4  C   UNL     1       7.325  -1.424  -2.962  1.00  0.00     0.077 C 
ATOM      5  C   UNL     1       7.262   0.065  -2.672  1.00  0.00     0.068 C 
ATOM      6  H   UNL     1       9.688  -0.938  -0.745  1.00  0.00     0.346 HD
ATOM      7  H   UNL     1       8.111  -1.359  -0.227  1.00  0.00     0.346 HD
ENDROOT
BRANCH   1   8
ATOM      8  C   UNL     1       8.450  -3.349  -1.793  1.00  0.00     0.099 C 
ATOM      9  O   UNL     1       8.046  -4.217  -2.612  1.00  0.00    -0.544 OA
ATOM     10  O   UNL     1       8.808  -3.738  -0.509  1.00  0.00    -0.544 OA
ENDBRANCH   1   8
TORSDOF 1
ENDMDL
MODEL 6
REMARK VINA RESULT:    -2.051      9.309      9.746
REMARK INTER + INTRA:          -2.193
REMARK INTER:                  -2.171
REMARK INTRA:                  -0.022
REMARK UNBOUND:                -0.022
REMARK SMILES O=C([O-])[C@H]1CCC[NH2+]1
REMARK SMILES IDX 4 1 8 2 7 3 5 4 6 5 2 8 1 9 3 10
REMARK H PARENT 8 6 8 7
REMARK Flexibility Score: inf
ROOT
ATOM      1  C   UNL     1       7.660   2.132   4.944  1.00  0.00     0.229 C 
ATOM      2  N   UNL     1       7.181   0.906   5.587  1.00  0.00    -0.339 N 
ATOM      3  C   UNL     1       6.838   1.281   6.962  1.00  0.00     0.261 C 
ATOM      4  C   UNL     1       6.909   3.284   5.593  1.00  0.00     0.077 C 
ATOM      5  C   UNL     1       6.619   2.793   7.000  1.00  0.00     0.068 C 
ATOM      6  H   UNL     1       7.925   0.170   5.578  1.00  0.00     0.346 HD
ATOM      7  H   UNL     1       6.321   0.542   5.110  1.00  0.00     0.346 HD
ENDROOT
BRANCH   1   8
ATOM      8  C   UNL     1       7.482   2.097   3.449  1.00  0.00     0.099 C 
ATOM      9  O   UNL     1       6.800   2.979   2.861  1.00  0.00    -0.544 OA
ATOM     10  O   UNL     1       8.074   1.085   2.705  1.00  0.00    -0.544 OA
ENDBRANCH   1   8
TORSDOF 1
ENDMDL
MODEL 7
REMARK VINA RESULT:    -2.012     11.647     12.365
REMARK INTER + INTRA:          -2.152
REMARK INTER:                  -2.127
REMARK INTRA:                  -0.025
REMARK UNBOUND:                -0.022
REMARK SMILES O=C([O-])[C@H]1CCC[NH2+]1
REMARK SMILES IDX 4 1 8 2 7 3 5 4 6 5 2 8 1 9 3 10
REMARK H PARENT 8 6 8 7
REMARK Flexibility Score: inf
ROOT
ATOM      1  C   UNL     1       2.140  -7.308  -4.039  1.00  0.00     0.229 C 
ATOM      2  N   UNL     1       2.443  -8.495  -3.236  1.00  0.00    -0.339 N 
ATOM      3  C   UNL     1       3.892  -8.469  -3.011  1.00  0.00     0.261 C 
ATOM      4  C   UNL     1       3.151  -6.245  -3.638  1.00  0.00     0.077 C 
ATOM      5  C   UNL     1       4.378  -7.036  -3.222  1.00  0.00     0.068 C 
ATOM      6  H   UNL     1       2.164  -9.366  -3.746  1.00  0.00     0.346 HD
ATOM      7  H   UNL     1       1.955  -8.459  -2.309  1.00  0.00     0.346 HD
ENDROOT
BRANCH   1   8
ATOM      8  C   UNL     1       0.718  -6.848  -3.859  1.00  0.00     0.099 C 
ATOM      9  O   UNL     1      -0.044  -7.421  -3.034  1.00  0.00    -0.544 OA
ATOM     10  O   UNL     1       0.235  -5.782  -4.607  1.00  0.00    -0.544 OA
ENDBRANCH   1   8
TORSDOF 1
ENDMDL
MODEL 8
REMARK VINA RESULT:    -1.989      4.132      4.949
REMARK INTER + INTRA:          -2.128
REMARK INTER:                  -2.106
REMARK INTRA:                  -0.022
REMARK UNBOUND:                -0.022
REMARK SMILES O=C([O-])[C@H]1CCC[NH2+]1
REMARK SMILES IDX 4 1 8 2 7 3 5 4 6 5 2 8 1 9 3 10
REMARK H PARENT 8 6 8 7
REMARK Flexibility Score: inf
ROOT
ATOM      1  C   UNL     1      -4.134  -0.285   3.786  1.00  0.00     0.229 C 
ATOM      2  N   UNL     1      -4.387  -0.769   2.426  1.00  0.00    -0.339 N 
ATOM      3  C   UNL     1      -4.338   0.415   1.562  1.00  0.00     0.261 C 
ATOM      4  C   UNL     1      -3.211   0.916   3.653  1.00  0.00     0.077 C 
ATOM      5  C   UNL     1      -3.560   1.504   2.298  1.00  0.00     0.068 C 
ATOM      6  H   UNL     1      -5.325  -1.231   2.367  1.00  0.00     0.346 HD
ATOM      7  H   UNL     1      -3.644  -1.443   2.121  1.00  0.00     0.346 HD
ENDROOT
BRANCH   1   8
ATOM      8  C   UNL     1      -3.561  -1.358   4.673  1.00  0.00     0.099 C 
ATOM      9  O   UNL     1      -2.437  -1.207   5.221  1.00  0.00    -0.544 OA
ATOM     10  O   UNL     1      -4.276  -2.529   4.893  1.00  0.00    -0.544 OA
ENDBRANCH   1   8
TORSDOF 1
ENDMDL
MODEL 9
REMARK VINA RESULT:    -1.985     11.378     12.157
REMARK INTER + INTRA:          -2.123
REMARK INTER:                  -2.102
REMARK INTRA:                  -0.021
REMARK UNBOUND:                -0.022
REMARK SMILES O=C([O-])[C@H]1CCC[NH2+]1
REMARK SMILES IDX 4 1 8 2 7 3 5 4 6 5 2 8 1 9 3 10
REMARK H PARENT 8 6 8 7
REMARK Flexibility Score: inf
ROOT
ATOM      1  C   UNL     1      -1.105  -8.975  -1.522  1.00  0.00     0.229 C 
ATOM      2  N   UNL     1       0.216  -8.988  -2.157  1.00  0.00    -0.339 N 
ATOM      3  C   UNL     1       0.087  -8.175  -3.370  1.00  0.00     0.261 C 
ATOM      4  C   UNL     1      -1.733  -7.631  -1.859  1.00  0.00     0.077 C 
ATOM      5  C   UNL     1      -1.129  -7.265  -3.202  1.00  0.00     0.068 C 
ATOM      6  H   UNL     1       0.499  -9.967  -2.397  1.00  0.00     0.346 HD
ATOM      7  H   UNL     1       0.939  -8.556  -1.534  1.00  0.00     0.346 HD
ENDROOT
BRANCH   1   8
ATOM      8  C   UNL     1      -1.024  -9.219  -0.039  1.00  0.00     0.099 C 
ATOM      9  O   UNL     1      -1.537  -8.405   0.776  1.00  0.00    -0.544 OA
ATOM     10  O   UNL     1      -0.379 -10.351   0.443  1.00  0.00    -0.544 OA
ENDBRANCH   1   8
TORSDOF 1
ENDMDL
