MODEL 1
REMARK VINA RESULT:    -4.921      0.000      0.000
REMARK INTER + INTRA:         -11.778
REMARK INTER:                  -9.525
REMARK INTRA:                  -2.253
REMARK UNBOUND:                -2.253
REMARK SMILES CCCCCCCCCCCCCCCCCC(=O)[O-]
REMARK SMILES IDX 10 1 11 2 12 3 13 4 14 5 15 6 16 7 17 8 18 9 19 10 20 11
REMARK SMILES IDX 9 12 8 13 7 14 6 15 5 16 4 17 3 18 2 19 1 20
REMARK H PARENT
REMARK Flexibility Score: inf
ROOT
ATOM      1  C   UNL     1    -105.064 -86.253  34.542  1.00  0.00     0.000 C 
ENDROOT
BRANCH   1   2
ATOM      2  C   UNL     1    -105.392 -84.803  34.928  1.00  0.00     0.000 C 
BRANCH   2   3
ATOM      3  C   UNL     1    -104.156 -84.020  35.401  1.00  0.00     0.000 C 
BRANCH   3   4
ATOM      4  C   UNL     1    -102.869 -84.861  35.349  1.00  0.00     0.000 C 
BRANCH   4   5
ATOM      5  C   UNL     1    -101.926 -84.427  34.216  1.00  0.00     0.000 C 
BRANCH   5   6
ATOM      6  C   UNL     1    -102.611 -83.511  33.190  1.00  0.00     0.000 C 
BRANCH   6   7
ATOM      7  C   UNL     1    -103.017 -84.300  31.937  1.00  0.00     0.006 C 
BRANCH   7   8
ATOM      8  C   UNL     1    -104.362 -83.830  31.365  1.00  0.00     0.053 C 
BRANCH   8   9
ATOM      9  C   UNL     1    -104.413 -83.971  29.875  1.00  0.00     0.041 C 
ATOM     10  O   UNL     1    -105.514 -83.889  29.268  1.00  0.00    -0.550 OA
ATOM     11  O   UNL     1    -103.241 -84.159  29.152  1.00  0.00    -0.550 OA
ENDBRANCH   8   9
ENDBRANCH   7   8
ENDBRANCH   6   7
ENDBRANCH   5   6
ENDBRANCH   4   5
ENDBRANCH   3   4
ENDBRANCH   2   3
ENDBRANCH   1   2
BRANCH   1  12
ATOM     12  C   UNL     1    -105.815 -87.244  35.439  1.00  0.00     0.000 C 
BRANCH  12  13
ATOM     13  C   UNL     1    -104.894 -87.813  36.524  1.00  0.00    -0.000 C 
BRANCH  13  14
ATOM     14  C   UNL     1    -105.108 -87.093  37.861  1.00  0.00    -0.000 C 
BRANCH  14  15
ATOM     15  C   UNL     1    -103.766 -86.731  38.515  1.00  0.00    -0.000 C 
BRANCH  15  16
ATOM     16  C   UNL     1    -103.919 -85.640  39.596  1.00  0.00    -0.000 C 
BRANCH  16  17
ATOM     17  C   UNL     1    -105.182 -84.778  39.430  1.00  0.00    -0.000 C 
BRANCH  17  18
ATOM     18  C   UNL     1    -104.884 -83.270  39.454  1.00  0.00    -0.000 C 
BRANCH  18  19
ATOM     19  C   UNL     1    -103.469 -82.943  38.952  1.00  0.00    -0.003 C 
ATOM     20  C   UNL     1    -102.593 -82.296  40.025  1.00  0.00     0.004 C 
ENDBRANCH  18  19
ENDBRANCH  17  18
ENDBRANCH  16  17
ENDBRANCH  15  16
ENDBRANCH  14  15
ENDBRANCH  13  14
ENDBRANCH  12  13
ENDBRANCH   1  12
TORSDOF 16
ENDMDL
MODEL 2
REMARK VINA RESULT:    -4.856      3.124      5.895
REMARK INTER + INTRA:         -11.652
REMARK INTER:                  -9.067
REMARK INTRA:                  -2.586
REMARK UNBOUND:                -2.253
REMARK SMILES CCCCCCCCCCCCCCCCCC(=O)[O-]
REMARK SMILES IDX 10 1 11 2 12 3 13 4 14 5 15 6 16 7 17 8 18 9 19 10 20 11
REMARK SMILES IDX 9 12 8 13 7 14 6 15 5 16 4 17 3 18 2 19 1 20
REMARK H PARENT
REMARK Flexibility Score: inf
ROOT
ATOM      1  C   UNL     1    -103.934 -85.860  39.562  1.00  0.00     0.000 C 
ENDROOT
BRANCH   1   2
ATOM      2  C   UNL     1    -105.158 -84.936  39.476  1.00  0.00     0.000 C 
BRANCH   2   3
ATOM      3  C   UNL     1    -104.786 -83.447  39.569  1.00  0.00     0.000 C 
BRANCH   3   4
ATOM      4  C   UNL     1    -103.276 -83.227  39.765  1.00  0.00     0.000 C 
BRANCH   4   5
ATOM      5  C   UNL     1    -102.935 -81.777  40.146  1.00  0.00     0.000 C 
BRANCH   5   6
ATOM      6  C   UNL     1    -104.184 -80.927  40.428  1.00  0.00     0.000 C 
BRANCH   6   7
ATOM      7  C   UNL     1    -104.249 -79.720  39.481  1.00  0.00     0.006 C 
BRANCH   7   8
ATOM      8  C   UNL     1    -104.071 -80.124  38.011  1.00  0.00     0.053 C 
BRANCH   8   9
ATOM      9  C   UNL     1    -105.384 -80.209  37.295  1.00  0.00     0.041 C 
ATOM     10  O   UNL     1    -105.419 -80.220  36.036  1.00  0.00    -0.550 OA
ATOM     11  O   UNL     1    -106.567 -80.310  38.017  1.00  0.00    -0.550 OA
ENDBRANCH   8   9
ENDBRANCH   7   8
ENDBRANCH   6   7
ENDBRANCH   5   6
ENDBRANCH   4   5
ENDBRANCH   3   4
ENDBRANCH   2   3
ENDBRANCH   1   2
BRANCH   1  12
ATOM     12  C   UNL     1    -104.007 -86.968  38.504  1.00  0.00     0.000 C 
BRANCH  12  13
ATOM     13  C   UNL     1    -105.095 -86.669  37.467  1.00  0.00    -0.000 C 
BRANCH  13  14
ATOM     14  C   UNL     1    -104.733 -87.265  36.101  1.00  0.00    -0.000 C 
BRANCH  14  15
ATOM     15  C   UNL     1    -105.838 -86.994  35.069  1.00  0.00    -0.000 C 
BRANCH  15  16
ATOM     16  C   UNL     1    -105.820 -85.535  34.564  1.00  0.00    -0.000 C 
BRANCH  16  17
ATOM     17  C   UNL     1    -104.434 -84.871  34.641  1.00  0.00    -0.000 C 
BRANCH  17  18
ATOM     18  C   UNL     1    -104.458 -83.525  35.384  1.00  0.00    -0.000 C 
BRANCH  18  19
ATOM     19  C   UNL     1    -103.167 -83.269  36.178  1.00  0.00    -0.003 C 
ATOM     20  C   UNL     1    -102.226 -84.474  36.184  1.00  0.00     0.004 C 
ENDBRANCH  18  19
ENDBRANCH  17  18
ENDBRANCH  16  17
ENDBRANCH  15  16
ENDBRANCH  14  15
ENDBRANCH  13  14
ENDBRANCH  12  13
ENDBRANCH   1  12
TORSDOF 16
ENDMDL
MODEL 3
REMARK VINA RESULT:    -4.815      2.044      3.240
REMARK INTER + INTRA:         -11.571
REMARK INTER:                  -9.520
REMARK INTRA:                  -2.051
REMARK UNBOUND:                -2.253
REMARK SMILES CCCCCCCCCCCCCCCCCC(=O)[O-]
REMARK SMILES IDX 10 1 11 2 12 3 13 4 14 5 15 6 16 7 17 8 18 9 19 10 20 11
REMARK SMILES IDX 9 12 8 13 7 14 6 15 5 16 4 17 3 18 2 19 1 20
REMARK H PARENT
REMARK Flexibility Score: inf
ROOT
ATOM      1  C   UNL     1    -105.481 -87.389  36.146  1.00  0.00     0.000 C 
ENDROOT
BRANCH   1   2
ATOM      2  C   UNL     1    -105.641 -86.851  34.716  1.00  0.00     0.000 C 
BRANCH   2   3
ATOM      3  C   UNL     1    -104.432 -86.020  34.256  1.00  0.00     0.000 C 
BRANCH   3   4
ATOM      4  C   UNL     1    -104.845 -84.735  33.517  1.00  0.00     0.000 C 
BRANCH   4   5
ATOM      5  C   UNL     1    -106.262 -84.270  33.889  1.00  0.00     0.000 C 
BRANCH   5   6
ATOM      6  C   UNL     1    -106.657 -82.955  33.200  1.00  0.00     0.000 C 
BRANCH   6   7
ATOM      7  C   UNL     1    -108.048 -83.068  32.560  1.00  0.00     0.006 C 
BRANCH   7   8
ATOM      8  C   UNL     1    -108.099 -82.436  31.163  1.00  0.00     0.053 C 
BRANCH   8   9
ATOM      9  C   UNL     1    -107.950 -83.462  30.081  1.00  0.00     0.041 C 
ATOM     10  O   UNL     1    -106.900 -83.504  29.389  1.00  0.00    -0.550 OA
ATOM     11  O   UNL     1    -108.959 -84.392  29.860  1.00  0.00    -0.550 OA
ENDBRANCH   8   9
ENDBRANCH   7   8
ENDBRANCH   6   7
ENDBRANCH   5   6
ENDBRANCH   4   5
ENDBRANCH   3   4
ENDBRANCH   2   3
ENDBRANCH   1   2
BRANCH   1  12
ATOM     12  C   UNL     1    -105.117 -86.261  37.119  1.00  0.00     0.000 C 
BRANCH  12  13
ATOM     13  C   UNL     1    -104.462 -86.819  38.388  1.00  0.00    -0.000 C 
BRANCH  13  14
ATOM     14  C   UNL     1    -104.350 -85.738  39.470  1.00  0.00    -0.000 C 
BRANCH  14  15
ATOM     15  C   UNL     1    -105.364 -84.609  39.230  1.00  0.00    -0.000 C 
BRANCH  15  16
ATOM     16  C   UNL     1    -104.809 -83.228  39.640  1.00  0.00    -0.000 C 
BRANCH  16  17
ATOM     17  C   UNL     1    -103.577 -82.792  38.828  1.00  0.00    -0.000 C 
BRANCH  17  18
ATOM     18  C   UNL     1    -103.941 -82.236  37.442  1.00  0.00    -0.000 C 
BRANCH  18  19
ATOM     19  C   UNL     1    -103.354 -83.078  36.298  1.00  0.00    -0.003 C 
ATOM     20  C   UNL     1    -102.362 -84.134  36.787  1.00  0.00     0.004 C 
ENDBRANCH  18  19
ENDBRANCH  17  18
ENDBRANCH  16  17
ENDBRANCH  15  16
ENDBRANCH  14  15
ENDBRANCH  13  14
ENDBRANCH  12  13
ENDBRANCH   1  12
TORSDOF 16
ENDMDL
MODEL 4
REMARK VINA RESULT:    -4.800      2.316      3.741
REMARK INTER + INTRA:         -11.543
REMARK INTER:                  -9.409
REMARK INTRA:                  -2.134
REMARK UNBOUND:                -2.253
REMARK SMILES CCCCCCCCCCCCCCCCCC(=O)[O-]
REMARK SMILES IDX 10 1 11 2 12 3 13 4 14 5 15 6 16 7 17 8 18 9 19 10 20 11
REMARK SMILES IDX 9 12 8 13 7 14 6 15 5 16 4 17 3 18 2 19 1 20
REMARK H PARENT
REMARK Flexibility Score: inf
ROOT
ATOM      1  C   UNL     1    -105.154 -85.566  38.107  1.00  0.00     0.000 C 
ENDROOT
BRANCH   1   2
ATOM      2  C   UNL     1    -104.847 -86.998  37.647  1.00  0.00     0.000 C 
BRANCH   2   3
ATOM      3  C   UNL     1    -104.882 -87.151  36.117  1.00  0.00     0.000 C 
BRANCH   3   4
ATOM      4  C   UNL     1    -105.206 -85.829  35.400  1.00  0.00     0.000 C 
BRANCH   4   5
ATOM      5  C   UNL     1    -104.735 -85.821  33.936  1.00  0.00     0.000 C 
BRANCH   5   6
ATOM      6  C   UNL     1    -104.314 -84.424  33.455  1.00  0.00     0.000 C 
BRANCH   6   7
ATOM      7  C   UNL     1    -105.421 -83.782  32.605  1.00  0.00     0.006 C 
BRANCH   7   8
ATOM      8  C   UNL     1    -106.463 -83.052  33.463  1.00  0.00     0.053 C 
BRANCH   8   9
ATOM      9  C   UNL     1    -107.794 -82.978  32.780  1.00  0.00     0.041 C 
ATOM     10  O   UNL     1    -108.181 -81.897  32.263  1.00  0.00    -0.550 OA
ATOM     11  O   UNL     1    -108.592 -84.111  32.685  1.00  0.00    -0.550 OA
ENDBRANCH   8   9
ENDBRANCH   7   8
ENDBRANCH   6   7
ENDBRANCH   5   6
ENDBRANCH   4   5
ENDBRANCH   3   4
ENDBRANCH   2   3
ENDBRANCH   1   2
BRANCH   1  12
ATOM     12  C   UNL     1    -104.671 -85.336  39.544  1.00  0.00     0.000 C 
BRANCH  12  13
ATOM     13  C   UNL     1    -103.147 -85.472  39.642  1.00  0.00    -0.000 C 
BRANCH  13  14
ATOM     14  C   UNL     1    -102.446 -84.224  39.091  1.00  0.00    -0.000 C 
BRANCH  14  15
ATOM     15  C   UNL     1    -102.214 -83.187  40.200  1.00  0.00    -0.000 C 
BRANCH  15  16
ATOM     16  C   UNL     1    -102.834 -81.816  39.855  1.00  0.00    -0.000 C 
BRANCH  16  17
ATOM     17  C   UNL     1    -104.362 -81.766  40.035  1.00  0.00    -0.000 C 
BRANCH  17  18
ATOM     18  C   UNL     1    -105.108 -81.484  38.721  1.00  0.00    -0.000 C 
BRANCH  18  19
ATOM     19  C   UNL     1    -104.153 -81.260  37.538  1.00  0.00    -0.003 C 
ATOM     20  C   UNL     1    -104.277 -82.341  36.463  1.00  0.00     0.004 C 
ENDBRANCH  18  19
ENDBRANCH  17  18
ENDBRANCH  16  17
ENDBRANCH  15  16
ENDBRANCH  14  15
ENDBRANCH  13  14
ENDBRANCH  12  13
ENDBRANCH   1  12
TORSDOF 16
ENDMDL
MODEL 5
REMARK VINA RESULT:    -4.770      2.685      4.303
REMARK INTER + INTRA:         -11.485
REMARK INTER:                  -9.415
REMARK INTRA:                  -2.069
REMARK UNBOUND:                -2.253
REMARK SMILES CCCCCCCCCCCCCCCCCC(=O)[O-]
REMARK SMILES IDX 10 1 11 2 12 3 13 4 14 5 15 6 16 7 17 8 18 9 19 10 20 11
REMARK SMILES IDX 9 12 8 13 7 14 6 15 5 16 4 17 3 18 2 19 1 20
REMARK H PARENT
REMARK Flexibility Score: inf
ROOT
ATOM      1  C   UNL     1    -105.095 -85.603  38.277  1.00  0.00     0.000 C 
ENDROOT
BRANCH   1   2
ATOM      2  C   UNL     1    -104.421 -86.461  37.197  1.00  0.00     0.000 C 
BRANCH   2   3
ATOM      3  C   UNL     1    -105.354 -87.543  36.629  1.00  0.00     0.000 C 
BRANCH   3   4
ATOM      4  C   UNL     1    -105.771 -87.259  35.176  1.00  0.00     0.000 C 
BRANCH   4   5
ATOM      5  C   UNL     1    -104.986 -86.094  34.552  1.00  0.00     0.000 C 
BRANCH   5   6
ATOM      6  C   UNL     1    -105.885 -84.910  34.166  1.00  0.00     0.000 C 
BRANCH   6   7
ATOM      7  C   UNL     1    -105.077 -83.605  34.112  1.00  0.00     0.006 C 
BRANCH   7   8
ATOM      8  C   UNL     1    -104.376 -83.300  35.443  1.00  0.00     0.053 C 
BRANCH   8   9
ATOM      9  C   UNL     1    -102.900 -83.118  35.266  1.00  0.00     0.041 C 
ATOM     10  O   UNL     1    -102.434 -81.991  34.953  1.00  0.00    -0.550 OA
ATOM     11  O   UNL     1    -102.036 -84.185  35.480  1.00  0.00    -0.550 OA
ENDBRANCH   8   9
ENDBRANCH   7   8
ENDBRANCH   6   7
ENDBRANCH   5   6
ENDBRANCH   4   5
ENDBRANCH   3   4
ENDBRANCH   2   3
ENDBRANCH   1   2
BRANCH   1  12
ATOM     12  C   UNL     1    -104.216 -85.507  39.530  1.00  0.00     0.000 C 
BRANCH  12  13
ATOM     13  C   UNL     1    -102.728 -85.572  39.166  1.00  0.00    -0.000 C 
BRANCH  13  14
ATOM     14  C   UNL     1    -102.145 -84.165  38.982  1.00  0.00    -0.000 C 
BRANCH  14  15
ATOM     15  C   UNL     1    -102.361 -83.309  40.238  1.00  0.00    -0.000 C 
BRANCH  15  16
ATOM     16  C   UNL     1    -102.869 -81.892  39.899  1.00  0.00    -0.000 C 
BRANCH  16  17
ATOM     17  C   UNL     1    -104.401 -81.758  39.942  1.00  0.00    -0.000 C 
BRANCH  17  18
ATOM     18  C   UNL     1    -105.011 -81.436  38.568  1.00  0.00    -0.000 C 
BRANCH  18  19
ATOM     19  C   UNL     1    -105.556 -80.001  38.488  1.00  0.00    -0.003 C 
ATOM     20  C   UNL     1    -106.846 -79.901  37.673  1.00  0.00     0.004 C 
ENDBRANCH  18  19
ENDBRANCH  17  18
ENDBRANCH  16  17
ENDBRANCH  15  16
ENDBRANCH  14  15
ENDBRANCH  13  14
ENDBRANCH  12  13
ENDBRANCH   1  12
TORSDOF 16
ENDMDL
MODEL 6
REMARK VINA RESULT:    -4.758      3.677      6.923
REMARK INTER + INTRA:         -11.462
REMARK INTER:                  -8.854
REMARK INTRA:                  -2.607
REMARK UNBOUND:                -2.253
REMARK SMILES CCCCCCCCCCCCCCCCCC(=O)[O-]
REMARK SMILES IDX 10 1 11 2 12 3 13 4 14 5 15 6 16 7 17 8 18 9 19 10 20 11
REMARK SMILES IDX 9 12 8 13 7 14 6 15 5 16 4 17 3 18 2 19 1 20
REMARK H PARENT
REMARK Flexibility Score: inf
ROOT
ATOM      1  C   UNL     1    -105.031 -86.380  35.168  1.00  0.00     0.000 C 
ENDROOT
BRANCH   1   2
ATOM      2  C   UNL     1    -104.895 -87.531  36.174  1.00  0.00     0.000 C 
BRANCH   2   3
ATOM      3  C   UNL     1    -105.125 -87.082  37.626  1.00  0.00     0.000 C 
BRANCH   3   4
ATOM      4  C   UNL     1    -103.838 -87.127  38.469  1.00  0.00     0.000 C 
BRANCH   4   5
ATOM      5  C   UNL     1    -103.666 -85.879  39.350  1.00  0.00     0.000 C 
BRANCH   5   6
ATOM      6  C   UNL     1    -105.002 -85.329  39.870  1.00  0.00     0.000 C 
BRANCH   6   7
ATOM      7  C   UNL     1    -105.171 -83.850  39.489  1.00  0.00     0.006 C 
BRANCH   7   8
ATOM      8  C   UNL     1    -103.837 -83.092  39.498  1.00  0.00     0.053 C 
BRANCH   8   9
ATOM      9  C   UNL     1    -104.025 -81.638  39.804  1.00  0.00     0.041 C 
ATOM     10  O   UNL     1    -103.270 -81.061  40.631  1.00  0.00    -0.550 OA
ATOM     11  O   UNL     1    -105.013 -80.911  39.151  1.00  0.00    -0.550 OA
ENDBRANCH   8   9
ENDBRANCH   7   8
ENDBRANCH   6   7
ENDBRANCH   5   6
ENDBRANCH   4   5
ENDBRANCH   3   4
ENDBRANCH   2   3
ENDBRANCH   1   2
BRANCH   1  12
ATOM     12  C   UNL     1    -105.108 -85.028  35.887  1.00  0.00     0.000 C 
BRANCH  12  13
ATOM     13  C   UNL     1    -103.771 -84.282  35.804  1.00  0.00    -0.000 C 
BRANCH  13  14
ATOM     14  C   UNL     1    -102.881 -84.871  34.703  1.00  0.00    -0.000 C 
BRANCH  14  15
ATOM     15  C   UNL     1    -102.090 -83.767  33.984  1.00  0.00    -0.000 C 
BRANCH  15  16
ATOM     16  C   UNL     1    -102.335 -83.773  32.460  1.00  0.00    -0.000 C 
BRANCH  16  17
ATOM     17  C   UNL     1    -103.626 -84.498  32.044  1.00  0.00    -0.000 C 
BRANCH  17  18
ATOM     18  C   UNL     1    -104.744 -83.532  31.622  1.00  0.00    -0.000 C 
BRANCH  18  19
ATOM     19  C   UNL     1    -105.826 -83.376  32.702  1.00  0.00    -0.003 C 
ATOM     20  C   UNL     1    -105.667 -82.093  33.519  1.00  0.00     0.004 C 
ENDBRANCH  18  19
ENDBRANCH  17  18
ENDBRANCH  16  17
ENDBRANCH  15  16
ENDBRANCH  14  15
ENDBRANCH  13  14
ENDBRANCH  12  13
ENDBRANCH   1  12
TORSDOF 16
ENDMDL
MODEL 7
REMARK VINA RESULT:    -4.748      2.905      6.919
REMARK INTER + INTRA:         -11.442
REMARK INTER:                  -9.779
REMARK INTRA:                  -1.663
REMARK UNBOUND:                -2.253
REMARK SMILES CCCCCCCCCCCCCCCCCC(=O)[O-]
REMARK SMILES IDX 10 1 11 2 12 3 13 4 14 5 15 6 16 7 17 8 18 9 19 10 20 11
REMARK SMILES IDX 9 12 8 13 7 14 6 15 5 16 4 17 3 18 2 19 1 20
REMARK H PARENT
REMARK Flexibility Score: inf
ROOT
ATOM      1  C   UNL     1    -105.671 -87.117  35.096  1.00  0.00     0.000 C 
ENDROOT
BRANCH   1   2
ATOM      2  C   UNL     1    -105.241 -87.501  36.520  1.00  0.00     0.000 C 
BRANCH   2   3
ATOM      3  C   UNL     1    -105.042 -86.279  37.430  1.00  0.00     0.000 C 
BRANCH   3   4
ATOM      4  C   UNL     1    -104.114 -86.575  38.621  1.00  0.00     0.000 C 
BRANCH   4   5
ATOM      5  C   UNL     1    -104.350 -85.623  39.805  1.00  0.00     0.000 C 
BRANCH   5   6
ATOM      6  C   UNL     1    -105.424 -84.564  39.512  1.00  0.00     0.000 C 
BRANCH   6   7
ATOM      7  C   UNL     1    -104.835 -83.148  39.603  1.00  0.00     0.006 C 
BRANCH   7   8
ATOM      8  C   UNL     1    -103.492 -83.028  38.870  1.00  0.00     0.053 C 
BRANCH   8   9
ATOM      9  C   UNL     1    -103.678 -82.841  37.396  1.00  0.00     0.041 C 
ATOM     10  O   UNL     1    -104.482 -81.974  36.963  1.00  0.00    -0.550 OA
ATOM     11  O   UNL     1    -102.938 -83.602  36.498  1.00  0.00    -0.550 OA
ENDBRANCH   8   9
ENDBRANCH   7   8
ENDBRANCH   6   7
ENDBRANCH   5   6
ENDBRANCH   4   5
ENDBRANCH   3   4
ENDBRANCH   2   3
ENDBRANCH   1   2
BRANCH   1  12
ATOM     12  C   UNL     1    -104.791 -85.989  34.543  1.00  0.00     0.000 C 
BRANCH  12  13
ATOM     13  C   UNL     1    -105.639 -84.780  34.132  1.00  0.00    -0.000 C 
BRANCH  13  14
ATOM     14  C   UNL     1    -104.782 -83.723  33.424  1.00  0.00    -0.000 C 
BRANCH  14  15
ATOM     15  C   UNL     1    -104.011 -84.335  32.246  1.00  0.00    -0.000 C 
BRANCH  15  16
ATOM     16  C   UNL     1    -104.436 -83.729  30.891  1.00  0.00    -0.000 C 
BRANCH  16  17
ATOM     17  C   UNL     1    -105.704 -82.861  30.974  1.00  0.00    -0.000 C 
BRANCH  17  18
ATOM     18  C   UNL     1    -106.778 -83.275  29.954  1.00  0.00    -0.000 C 
BRANCH  18  19
ATOM     19  C   UNL     1    -108.202 -83.157  30.520  1.00  0.00    -0.003 C 
ATOM     20  C   UNL     1    -108.275 -83.477  32.013  1.00  0.00     0.004 C 
ENDBRANCH  18  19
ENDBRANCH  17  18
ENDBRANCH  16  17
ENDBRANCH  15  16
ENDBRANCH  14  15
ENDBRANCH  13  14
ENDBRANCH  12  13
ENDBRANCH   1  12
TORSDOF 16
ENDMDL
MODEL 8
REMARK VINA RESULT:    -4.738      2.157      2.863
REMARK INTER + INTRA:         -11.423
REMARK INTER:                  -9.970
REMARK INTRA:                  -1.453
REMARK UNBOUND:                -2.253
REMARK SMILES CCCCCCCCCCCCCCCCCC(=O)[O-]
REMARK SMILES IDX 10 1 11 2 12 3 13 4 14 5 15 6 16 7 17 8 18 9 19 10 20 11
REMARK SMILES IDX 9 12 8 13 7 14 6 15 5 16 4 17 3 18 2 19 1 20
REMARK H PARENT
REMARK Flexibility Score: inf
ROOT
ATOM      1  C   UNL     1    -105.052 -86.374  34.807  1.00  0.00     0.000 C 
ENDROOT
BRANCH   1   2
ATOM      2  C   UNL     1    -104.083 -85.222  34.507  1.00  0.00     0.000 C 
BRANCH   2   3
ATOM      3  C   UNL     1    -104.778 -83.850  34.489  1.00  0.00     0.000 C 
BRANCH   3   4
ATOM      4  C   UNL     1    -105.960 -83.801  33.506  1.00  0.00     0.000 C 
BRANCH   4   5
ATOM      5  C   UNL     1    -106.643 -82.424  33.473  1.00  0.00     0.000 C 
BRANCH   5   6
ATOM      6  C   UNL     1    -108.033 -82.465  32.820  1.00  0.00     0.000 C 
BRANCH   6   7
ATOM      7  C   UNL     1    -108.265 -83.808  32.111  1.00  0.00     0.006 C 
BRANCH   7   8
ATOM      8  C   UNL     1    -108.540 -83.633  30.611  1.00  0.00     0.053 C 
BRANCH   8   9
ATOM      9  C   UNL     1    -107.413 -82.935  29.916  1.00  0.00     0.041 C 
ATOM     10  O   UNL     1    -106.285 -83.488  29.824  1.00  0.00    -0.550 OA
ATOM     11  O   UNL     1    -107.615 -81.686  29.340  1.00  0.00    -0.550 OA
ENDBRANCH   8   9
ENDBRANCH   7   8
ENDBRANCH   6   7
ENDBRANCH   5   6
ENDBRANCH   4   5
ENDBRANCH   3   4
ENDBRANCH   2   3
ENDBRANCH   1   2
BRANCH   1  12
ATOM     12  C   UNL     1    -105.467 -86.373  36.284  1.00  0.00     0.000 C 
BRANCH  12  13
ATOM     13  C   UNL     1    -105.102 -87.700  36.960  1.00  0.00    -0.000 C 
BRANCH  13  14
ATOM     14  C   UNL     1    -104.050 -87.488  38.055  1.00  0.00    -0.000 C 
BRANCH  14  15
ATOM     15  C   UNL     1    -103.868 -85.995  38.365  1.00  0.00    -0.000 C 
BRANCH  15  16
ATOM     16  C   UNL     1    -104.589 -85.575  39.664  1.00  0.00    -0.000 C 
BRANCH  16  17
ATOM     17  C   UNL     1    -105.486 -84.337  39.500  1.00  0.00    -0.000 C 
BRANCH  17  18
ATOM     18  C   UNL     1    -104.761 -83.158  38.831  1.00  0.00    -0.000 C 
BRANCH  18  19
ATOM     19  C   UNL     1    -104.000 -82.286  39.842  1.00  0.00    -0.003 C 
ATOM     20  C   UNL     1    -102.580 -82.788  40.108  1.00  0.00     0.004 C 
ENDBRANCH  18  19
ENDBRANCH  17  18
ENDBRANCH  16  17
ENDBRANCH  15  16
ENDBRANCH  14  15
ENDBRANCH  13  14
ENDBRANCH  12  13
ENDBRANCH   1  12
TORSDOF 16
ENDMDL
MODEL 9
REMARK VINA RESULT:    -4.732      2.715      5.811
REMARK INTER + INTRA:         -11.412
REMARK INTER:                  -8.901
REMARK INTRA:                  -2.511
REMARK UNBOUND:                -2.253
REMARK SMILES CCCCCCCCCCCCCCCCCC(=O)[O-]
REMARK SMILES IDX 10 1 11 2 12 3 13 4 14 5 15 6 16 7 17 8 18 9 19 10 20 11
REMARK SMILES IDX 9 12 8 13 7 14 6 15 5 16 4 17 3 18 2 19 1 20
REMARK H PARENT
REMARK Flexibility Score: inf
ROOT
ATOM      1  C   UNL     1    -103.019 -83.512  39.550  1.00  0.00     0.000 C 
ENDROOT
BRANCH   1   2
ATOM      2  C   UNL     1    -104.549 -83.597  39.449  1.00  0.00     0.000 C 
BRANCH   2   3
ATOM      3  C   UNL     1    -105.071 -85.040  39.544  1.00  0.00     0.000 C 
BRANCH   3   4
ATOM      4  C   UNL     1    -103.962 -86.048  39.887  1.00  0.00     0.000 C 
BRANCH   4   5
ATOM      5  C   UNL     1    -103.602 -86.956  38.700  1.00  0.00     0.000 C 
BRANCH   5   6
ATOM      6  C   UNL     1    -104.840 -87.531  37.994  1.00  0.00     0.000 C 
BRANCH   6   7
ATOM      7  C   UNL     1    -104.716 -87.386  36.470  1.00  0.00     0.006 C 
BRANCH   7   8
ATOM      8  C   UNL     1    -105.019 -85.959  35.995  1.00  0.00     0.053 C 
BRANCH   8   9
ATOM      9  C   UNL     1    -105.891 -85.950  34.777  1.00  0.00     0.041 C 
ATOM     10  O   UNL     1    -105.984 -84.911  34.072  1.00  0.00    -0.550 OA
ATOM     11  O   UNL     1    -106.574 -87.100  34.401  1.00  0.00    -0.550 OA
ENDBRANCH   8   9
ENDBRANCH   7   8
ENDBRANCH   6   7
ENDBRANCH   5   6
ENDBRANCH   4   5
ENDBRANCH   3   4
ENDBRANCH   2   3
ENDBRANCH   1   2
BRANCH   1  12
ATOM     12  C   UNL     1    -102.568 -82.083  39.874  1.00  0.00     0.000 C 
BRANCH  12  13
ATOM     13  C   UNL     1    -103.710 -81.272  40.496  1.00  0.00    -0.000 C 
BRANCH  13  14
ATOM     14  C   UNL     1    -103.446 -79.766  40.375  1.00  0.00    -0.000 C 
BRANCH  14  15
ATOM     15  C   UNL     1    -104.178 -79.173  39.163  1.00  0.00    -0.000 C 
BRANCH  15  16
ATOM     16  C   UNL     1    -105.458 -79.961  38.810  1.00  0.00    -0.000 C 
BRANCH  16  17
ATOM     17  C   UNL     1    -105.556 -80.348  37.324  1.00  0.00    -0.000 C 
BRANCH  17  18
ATOM     18  C   UNL     1    -104.228 -80.874  36.756  1.00  0.00    -0.000 C 
BRANCH  18  19
ATOM     19  C   UNL     1    -104.376 -82.258  36.102  1.00  0.00    -0.003 C 
ATOM     20  C   UNL     1    -103.036 -82.859  35.678  1.00  0.00     0.004 C 
ENDBRANCH  18  19
ENDBRANCH  17  18
ENDBRANCH  16  17
ENDBRANCH  15  16
ENDBRANCH  14  15
ENDBRANCH  13  14
ENDBRANCH  12  13
ENDBRANCH   1  12
TORSDOF 16
ENDMDL
