MODEL 1
REMARK VINA RESULT:    19.446      0.000      0.000
REMARK INTER + INTRA:          36.912
REMARK INTER:                  37.635
REMARK INTRA:                  -0.723
REMARK UNBOUND:                -0.723
REMARK SMILES CCCCCCCCCCCCCCCCCC(=O)[O-]
REMARK SMILES IDX 10 1 11 2 12 3 13 4 14 5 15 6 16 7 17 8 18 9 19 10 20 11
REMARK SMILES IDX 9 12 8 13 7 14 6 15 5 16 4 17 3 18 2 19 1 20
REMARK H PARENT
REMARK Flexibility Score: inf
ROOT
ATOM      1  C   UNL     1     -41.799  23.892 -15.835  1.00  0.00     0.000 C 
ENDROOT
BRANCH   1   2
ATOM      2  C   UNL     1     -42.867  23.736 -14.738  1.00  0.00     0.000 C 
BRANCH   2   3
ATOM      3  C   UNL     1     -42.293  23.187 -13.420  1.00  0.00     0.000 C 
BRANCH   3   4
ATOM      4  C   UNL     1     -41.328  24.140 -12.683  1.00  0.00     0.000 C 
BRANCH   4   5
ATOM      5  C   UNL     1     -41.687  24.427 -11.214  1.00  0.00     0.000 C 
BRANCH   5   6
ATOM      6  C   UNL     1     -43.159  24.812 -10.969  1.00  0.00     0.000 C 
BRANCH   6   7
ATOM      7  C   UNL     1     -43.566  24.791  -9.480  1.00  0.00     0.006 C 
BRANCH   7   8
ATOM      8  C   UNL     1     -45.086  24.835  -9.285  1.00  0.00     0.053 C 
BRANCH   8   9
ATOM      9  C   UNL     1     -45.437  25.666  -8.092  1.00  0.00     0.041 C 
ATOM     10  O   UNL     1     -44.783  25.545  -7.021  1.00  0.00    -0.550 OA
ATOM     11  O   UNL     1     -46.452  26.610  -8.175  1.00  0.00    -0.550 OA
ENDBRANCH   8   9
ENDBRANCH   7   8
ENDBRANCH   6   7
ENDBRANCH   5   6
ENDBRANCH   4   5
ENDBRANCH   3   4
ENDBRANCH   2   3
ENDBRANCH   1   2
BRANCH   1  12
ATOM     12  C   UNL     1     -42.056  22.981 -17.046  1.00  0.00     0.000 C 
BRANCH  12  13
ATOM     13  C   UNL     1     -40.893  22.997 -18.052  1.00  0.00    -0.000 C 
BRANCH  13  14
ATOM     14  C   UNL     1     -40.454  21.582 -18.466  1.00  0.00    -0.000 C 
BRANCH  14  15
ATOM     15  C   UNL     1     -38.967  21.519 -18.855  1.00  0.00    -0.000 C 
BRANCH  15  16
ATOM     16  C   UNL     1     -38.267  22.886 -18.757  1.00  0.00    -0.000 C 
BRANCH  16  17
ATOM     17  C   UNL     1     -37.627  23.389 -20.067  1.00  0.00    -0.000 C 
BRANCH  17  18
ATOM     18  C   UNL     1     -38.273  24.652 -20.670  1.00  0.00    -0.000 C 
BRANCH  18  19
ATOM     19  C   UNL     1     -37.286  25.783 -21.007  1.00  0.00    -0.003 C 
ATOM     20  C   UNL     1     -37.868  26.812 -21.976  1.00  0.00     0.004 C 
ENDBRANCH  18  19
ENDBRANCH  17  18
ENDBRANCH  16  17
ENDBRANCH  15  16
ENDBRANCH  14  15
ENDBRANCH  13  14
ENDBRANCH  12  13
ENDBRANCH   1  12
TORSDOF 16
ENDMDL
MODEL 2
REMARK VINA RESULT:    19.547      3.482      5.068
REMARK INTER + INTRA:          37.107
REMARK INTER:                  37.785
REMARK INTRA:                  -0.677
REMARK UNBOUND:                -0.723
REMARK SMILES CCCCCCCCCCCCCCCCCC(=O)[O-]
REMARK SMILES IDX 10 1 11 2 12 3 13 4 14 5 15 6 16 7 17 8 18 9 19 10 20 11
REMARK SMILES IDX 9 12 8 13 7 14 6 15 5 16 4 17 3 18 2 19 1 20
REMARK H PARENT
REMARK Flexibility Score: inf
ROOT
ATOM      1  C   UNL     1     -39.783  23.104 -18.376  1.00  0.00     0.000 C 
ENDROOT
BRANCH   1   2
ATOM      2  C   UNL     1     -40.962  22.157 -18.089  1.00  0.00     0.000 C 
BRANCH   2   3
ATOM      3  C   UNL     1     -42.138  22.863 -17.390  1.00  0.00     0.000 C 
BRANCH   3   4
ATOM      4  C   UNL     1     -41.764  23.633 -16.106  1.00  0.00     0.000 C 
BRANCH   4   5
ATOM      5  C   UNL     1     -42.764  23.491 -14.944  1.00  0.00     0.000 C 
BRANCH   5   6
ATOM      6  C   UNL     1     -42.130  23.153 -13.581  1.00  0.00     0.000 C 
BRANCH   6   7
ATOM      7  C   UNL     1     -41.907  24.385 -12.678  1.00  0.00     0.006 C 
BRANCH   7   8
ATOM      8  C   UNL     1     -40.585  24.316 -11.904  1.00  0.00     0.053 C 
BRANCH   8   9
ATOM      9  C   UNL     1     -39.431  24.214 -12.850  1.00  0.00     0.041 C 
ATOM     10  O   UNL     1     -38.437  23.495 -12.561  1.00  0.00    -0.550 OA
ATOM     11  O   UNL     1     -39.471  24.873 -14.072  1.00  0.00    -0.550 OA
ENDBRANCH   8   9
ENDBRANCH   7   8
ENDBRANCH   6   7
ENDBRANCH   5   6
ENDBRANCH   4   5
ENDBRANCH   3   4
ENDBRANCH   2   3
ENDBRANCH   1   2
BRANCH   1  12
ATOM     12  C   UNL     1     -38.511  22.354 -18.804  1.00  0.00     0.000 C 
BRANCH  12  13
ATOM     13  C   UNL     1     -37.663  23.159 -19.804  1.00  0.00    -0.000 C 
BRANCH  13  14
ATOM     14  C   UNL     1     -38.423  24.365 -20.382  1.00  0.00    -0.000 C 
BRANCH  14  15
ATOM     15  C   UNL     1     -37.493  25.349 -21.112  1.00  0.00    -0.000 C 
BRANCH  15  16
ATOM     16  C   UNL     1     -38.261  26.461 -21.847  1.00  0.00    -0.000 C 
BRANCH  16  17
ATOM     17  C   UNL     1     -37.511  27.802 -21.974  1.00  0.00    -0.000 C 
BRANCH  17  18
ATOM     18  C   UNL     1     -38.331  29.051 -21.597  1.00  0.00    -0.000 C 
BRANCH  18  19
ATOM     19  C   UNL     1     -39.857  28.867 -21.669  1.00  0.00    -0.003 C 
ATOM     20  C   UNL     1     -40.618  29.871 -20.802  1.00  0.00     0.004 C 
ENDBRANCH  18  19
ENDBRANCH  17  18
ENDBRANCH  16  17
ENDBRANCH  15  16
ENDBRANCH  14  15
ENDBRANCH  13  14
ENDBRANCH  12  13
ENDBRANCH   1  12
TORSDOF 16
ENDMDL
MODEL 3
REMARK VINA RESULT:    19.740      5.058      9.882
REMARK INTER + INTRA:          37.481
REMARK INTER:                  38.435
REMARK INTRA:                  -0.954
REMARK UNBOUND:                -0.723
REMARK SMILES CCCCCCCCCCCCCCCCCC(=O)[O-]
REMARK SMILES IDX 10 1 11 2 12 3 13 4 14 5 15 6 16 7 17 8 18 9 19 10 20 11
REMARK SMILES IDX 9 12 8 13 7 14 6 15 5 16 4 17 3 18 2 19 1 20
REMARK H PARENT
REMARK Flexibility Score: inf
ROOT
ATOM      1  C   UNL     1     -39.558  22.994 -18.250  1.00  0.00     0.000 C 
ENDROOT
BRANCH   1   2
ATOM      2  C   UNL     1     -38.410  22.182 -18.876  1.00  0.00     0.000 C 
BRANCH   2   3
ATOM      3  C   UNL     1     -37.545  23.016 -19.839  1.00  0.00     0.000 C 
BRANCH   3   4
ATOM      4  C   UNL     1     -38.276  24.194 -20.516  1.00  0.00     0.000 C 
BRANCH   4   5
ATOM      5  C   UNL     1     -37.392  25.412 -20.842  1.00  0.00     0.000 C 
BRANCH   5   6
ATOM      6  C   UNL     1     -38.063  26.483 -21.724  1.00  0.00     0.000 C 
BRANCH   6   7
ATOM      7  C   UNL     1     -37.394  27.871 -21.630  1.00  0.00     0.006 C 
BRANCH   7   8
ATOM      8  C   UNL     1     -38.258  28.982 -22.237  1.00  0.00     0.053 C 
BRANCH   8   9
ATOM      9  C   UNL     1     -39.323  29.402 -21.273  1.00  0.00     0.041 C 
ATOM     10  O   UNL     1     -39.009  29.899 -20.159  1.00  0.00    -0.550 OA
ATOM     11  O   UNL     1     -40.662  29.290 -21.624  1.00  0.00    -0.550 OA
ENDBRANCH   8   9
ENDBRANCH   7   8
ENDBRANCH   6   7
ENDBRANCH   5   6
ENDBRANCH   4   5
ENDBRANCH   3   4
ENDBRANCH   2   3
ENDBRANCH   1   2
BRANCH   1  12
ATOM     12  C   UNL     1     -40.873  22.202 -18.176  1.00  0.00     0.000 C 
BRANCH  12  13
ATOM     13  C   UNL     1     -42.006  23.003 -17.512  1.00  0.00    -0.000 C 
BRANCH  13  14
ATOM     14  C   UNL     1     -41.547  23.715 -16.228  1.00  0.00    -0.000 C 
BRANCH  14  15
ATOM     15  C   UNL     1     -42.664  23.802 -15.174  1.00  0.00    -0.000 C 
BRANCH  15  16
ATOM     16  C   UNL     1     -42.265  23.168 -13.830  1.00  0.00    -0.000 C 
BRANCH  16  17
ATOM     17  C   UNL     1     -42.173  24.150 -12.645  1.00  0.00    -0.000 C 
BRANCH  17  18
ATOM     18  C   UNL     1     -40.793  24.231 -11.964  1.00  0.00    -0.000 C 
BRANCH  18  19
ATOM     19  C   UNL     1     -39.631  24.602 -12.902  1.00  0.00    -0.003 C 
ATOM     20  C   UNL     1     -38.512  23.562 -12.903  1.00  0.00     0.004 C 
ENDBRANCH  18  19
ENDBRANCH  17  18
ENDBRANCH  16  17
ENDBRANCH  15  16
ENDBRANCH  14  15
ENDBRANCH  13  14
ENDBRANCH  12  13
ENDBRANCH   1  12
TORSDOF 16
ENDMDL
MODEL 4
REMARK VINA RESULT:    19.998      5.373     10.167
REMARK INTER + INTRA:          37.980
REMARK INTER:                  38.653
REMARK INTRA:                  -0.673
REMARK UNBOUND:                -0.723
REMARK SMILES CCCCCCCCCCCCCCCCCC(=O)[O-]
REMARK SMILES IDX 10 1 11 2 12 3 13 4 14 5 15 6 16 7 17 8 18 9 19 10 20 11
REMARK SMILES IDX 9 12 8 13 7 14 6 15 5 16 4 17 3 18 2 19 1 20
REMARK H PARENT
REMARK Flexibility Score: inf
ROOT
ATOM      1  C   UNL     1     -37.596  23.506 -19.880  1.00  0.00     0.000 C 
ENDROOT
BRANCH   1   2
ATOM      2  C   UNL     1     -38.443  24.556 -20.619  1.00  0.00     0.000 C 
BRANCH   2   3
ATOM      3  C   UNL     1     -37.598  25.706 -21.197  1.00  0.00     0.000 C 
BRANCH   3   4
ATOM      4  C   UNL     1     -38.365  26.681 -22.114  1.00  0.00     0.000 C 
BRANCH   4   5
ATOM      5  C   UNL     1     -37.962  28.161 -21.978  1.00  0.00     0.000 C 
BRANCH   5   6
ATOM      6  C   UNL     1     -38.988  29.048 -21.247  1.00  0.00     0.000 C 
BRANCH   6   7
ATOM      7  C   UNL     1     -40.362  29.112 -21.948  1.00  0.00     0.006 C 
BRANCH   7   8
ATOM      8  C   UNL     1     -41.298  30.146 -21.312  1.00  0.00     0.053 C 
BRANCH   8   9
ATOM      9  C   UNL     1     -42.218  30.723 -22.342  1.00  0.00     0.041 C 
ATOM     10  O   UNL     1     -41.990  30.539 -23.567  1.00  0.00    -0.550 OA
ATOM     11  O   UNL     1     -43.351  31.423 -21.949  1.00  0.00    -0.550 OA
ENDBRANCH   8   9
ENDBRANCH   7   8
ENDBRANCH   6   7
ENDBRANCH   5   6
ENDBRANCH   4   5
ENDBRANCH   3   4
ENDBRANCH   2   3
ENDBRANCH   1   2
BRANCH   1  12
ATOM     12  C   UNL     1     -38.436  22.609 -18.956  1.00  0.00     0.000 C 
BRANCH  12  13
ATOM     13  C   UNL     1     -39.793  23.239 -18.599  1.00  0.00    -0.000 C 
BRANCH  13  14
ATOM     14  C   UNL     1     -40.797  22.206 -18.061  1.00  0.00    -0.000 C 
BRANCH  14  15
ATOM     15  C   UNL     1     -42.012  22.864 -17.384  1.00  0.00    -0.000 C 
BRANCH  15  16
ATOM     16  C   UNL     1     -41.635  23.640 -16.110  1.00  0.00    -0.000 C 
BRANCH  16  17
ATOM     17  C   UNL     1     -42.714  23.654 -15.010  1.00  0.00    -0.000 C 
BRANCH  17  18
ATOM     18  C   UNL     1     -42.250  23.153 -13.628  1.00  0.00    -0.000 C 
BRANCH  18  19
ATOM     19  C   UNL     1     -41.720  24.249 -12.688  1.00  0.00    -0.003 C 
ATOM     20  C   UNL     1     -40.193  24.291 -12.624  1.00  0.00     0.004 C 
ENDBRANCH  18  19
ENDBRANCH  17  18
ENDBRANCH  16  17
ENDBRANCH  15  16
ENDBRANCH  14  15
ENDBRANCH  13  14
ENDBRANCH  12  13
ENDBRANCH   1  12
TORSDOF 16
ENDMDL
MODEL 5
REMARK VINA RESULT:    20.158      5.439     10.147
REMARK INTER + INTRA:          38.289
REMARK INTER:                  38.877
REMARK INTRA:                  -0.588
REMARK UNBOUND:                -0.723
REMARK SMILES CCCCCCCCCCCCCCCCCC(=O)[O-]
REMARK SMILES IDX 10 1 11 2 12 3 13 4 14 5 15 6 16 7 17 8 18 9 19 10 20 11
REMARK SMILES IDX 9 12 8 13 7 14 6 15 5 16 4 17 3 18 2 19 1 20
REMARK H PARENT
REMARK Flexibility Score: inf
ROOT
ATOM      1  C   UNL     1     -37.922  25.163 -21.075  1.00  0.00     0.000 C 
ENDROOT
BRANCH   1   2
ATOM      2  C   UNL     1     -37.040  26.413 -21.246  1.00  0.00     0.000 C 
BRANCH   2   3
ATOM      3  C   UNL     1     -37.748  27.541 -22.020  1.00  0.00     0.000 C 
BRANCH   3   4
ATOM      4  C   UNL     1     -37.637  28.940 -21.379  1.00  0.00     0.000 C 
BRANCH   4   5
ATOM      5  C   UNL     1     -38.969  29.552 -20.910  1.00  0.00     0.000 C 
BRANCH   5   6
ATOM      6  C   UNL     1     -40.198  29.150 -21.748  1.00  0.00     0.000 C 
BRANCH   6   7
ATOM      7  C   UNL     1     -41.473  29.948 -21.400  1.00  0.00     0.006 C 
BRANCH   7   8
ATOM      8  C   UNL     1     -42.056  30.683 -22.613  1.00  0.00     0.053 C 
BRANCH   8   9
ATOM      9  C   UNL     1     -43.496  31.016 -22.380  1.00  0.00     0.041 C 
ATOM     10  O   UNL     1     -43.815  31.874 -21.513  1.00  0.00    -0.550 OA
ATOM     11  O   UNL     1     -44.483  30.417 -23.151  1.00  0.00    -0.550 OA
ENDBRANCH   8   9
ENDBRANCH   7   8
ENDBRANCH   6   7
ENDBRANCH   5   6
ENDBRANCH   4   5
ENDBRANCH   3   4
ENDBRANCH   2   3
ENDBRANCH   1   2
BRANCH   1  12
ATOM     12  C   UNL     1     -37.351  24.172 -20.048  1.00  0.00     0.000 C 
BRANCH  12  13
ATOM     13  C   UNL     1     -38.233  22.922 -19.884  1.00  0.00    -0.000 C 
BRANCH  13  14
ATOM     14  C   UNL     1     -38.825  22.803 -18.469  1.00  0.00    -0.000 C 
BRANCH  14  15
ATOM     15  C   UNL     1     -40.242  22.206 -18.474  1.00  0.00    -0.000 C 
BRANCH  15  16
ATOM     16  C   UNL     1     -41.311  23.204 -17.996  1.00  0.00    -0.000 C 
BRANCH  16  17
ATOM     17  C   UNL     1     -41.892  22.920 -16.596  1.00  0.00    -0.000 C 
BRANCH  17  18
ATOM     18  C   UNL     1     -41.894  24.121 -15.630  1.00  0.00    -0.000 C 
BRANCH  18  19
ATOM     19  C   UNL     1     -42.738  23.926 -14.359  1.00  0.00    -0.003 C 
ATOM     20  C   UNL     1     -41.891  23.837 -13.090  1.00  0.00     0.004 C 
ENDBRANCH  18  19
ENDBRANCH  17  18
ENDBRANCH  16  17
ENDBRANCH  15  16
ENDBRANCH  14  15
ENDBRANCH  13  14
ENDBRANCH  12  13
ENDBRANCH   1  12
TORSDOF 16
ENDMDL
MODEL 6
REMARK VINA RESULT:    20.306      3.359      6.375
REMARK INTER + INTRA:          38.576
REMARK INTER:                  39.122
REMARK INTRA:                  -0.545
REMARK UNBOUND:                -0.723
REMARK SMILES CCCCCCCCCCCCCCCCCC(=O)[O-]
REMARK SMILES IDX 10 1 11 2 12 3 13 4 14 5 15 6 16 7 17 8 18 9 19 10 20 11
REMARK SMILES IDX 9 12 8 13 7 14 6 15 5 16 4 17 3 18 2 19 1 20
REMARK H PARENT
REMARK Flexibility Score: inf
ROOT
ATOM      1  C   UNL     1     -37.747  23.956 -19.655  1.00  0.00     0.000 C 
ENDROOT
BRANCH   1   2
ATOM      2  C   UNL     1     -38.517  22.655 -19.372  1.00  0.00     0.000 C 
BRANCH   2   3
ATOM      3  C   UNL     1     -39.391  22.743 -18.107  1.00  0.00     0.000 C 
BRANCH   3   4
ATOM      4  C   UNL     1     -40.876  22.377 -18.315  1.00  0.00     0.000 C 
BRANCH   4   5
ATOM      5  C   UNL     1     -41.883  23.306 -17.614  1.00  0.00     0.000 C 
BRANCH   5   6
ATOM      6  C   UNL     1     -42.319  22.848 -16.209  1.00  0.00     0.000 C 
BRANCH   6   7
ATOM      7  C   UNL     1     -42.093  23.910 -15.113  1.00  0.00     0.006 C 
BRANCH   7   8
ATOM      8  C   UNL     1     -42.550  23.435 -13.729  1.00  0.00     0.053 C 
BRANCH   8   9
ATOM      9  C   UNL     1     -41.709  24.054 -12.658  1.00  0.00     0.041 C 
ATOM     10  O   UNL     1     -42.236  24.432 -11.578  1.00  0.00    -0.550 OA
ATOM     11  O   UNL     1     -40.336  24.171 -12.831  1.00  0.00    -0.550 OA
ENDBRANCH   8   9
ENDBRANCH   7   8
ENDBRANCH   6   7
ENDBRANCH   5   6
ENDBRANCH   4   5
ENDBRANCH   3   4
ENDBRANCH   2   3
ENDBRANCH   1   2
BRANCH   1  12
ATOM     12  C   UNL     1     -38.110  24.576 -21.014  1.00  0.00     0.000 C 
BRANCH  12  13
ATOM     13  C   UNL     1     -37.478  25.964 -21.216  1.00  0.00    -0.000 C 
BRANCH  13  14
ATOM     14  C   UNL     1     -38.394  26.917 -22.004  1.00  0.00    -0.000 C 
BRANCH  14  15
ATOM     15  C   UNL     1     -37.929  28.381 -21.919  1.00  0.00    -0.000 C 
BRANCH  15  16
ATOM     16  C   UNL     1     -38.983  29.304 -21.284  1.00  0.00    -0.000 C 
BRANCH  16  17
ATOM     17  C   UNL     1     -40.269  29.496 -22.112  1.00  0.00    -0.000 C 
BRANCH  17  18
ATOM     18  C   UNL     1     -41.527  29.854 -21.297  1.00  0.00    -0.000 C 
BRANCH  18  19
ATOM     19  C   UNL     1     -42.722  30.341 -22.135  1.00  0.00    -0.003 C 
ATOM     20  C   UNL     1     -43.328  31.641 -21.608  1.00  0.00     0.004 C 
ENDBRANCH  18  19
ENDBRANCH  17  18
ENDBRANCH  16  17
ENDBRANCH  15  16
ENDBRANCH  14  15
ENDBRANCH  13  14
ENDBRANCH  12  13
ENDBRANCH   1  12
TORSDOF 16
ENDMDL
MODEL 7
REMARK VINA RESULT:    20.337      1.894      3.321
REMARK INTER + INTRA:          38.635
REMARK INTER:                  39.383
REMARK INTRA:                  -0.747
REMARK UNBOUND:                -0.723
REMARK SMILES CCCCCCCCCCCCCCCCCC(=O)[O-]
REMARK SMILES IDX 10 1 11 2 12 3 13 4 14 5 15 6 16 7 17 8 18 9 19 10 20 11
REMARK SMILES IDX 9 12 8 13 7 14 6 15 5 16 4 17 3 18 2 19 1 20
REMARK H PARENT
REMARK Flexibility Score: inf
ROOT
ATOM      1  C   UNL     1     -38.935  24.308 -13.924  1.00  0.00     0.000 C 
ENDROOT
BRANCH   1   2
ATOM      2  C   UNL     1     -39.412  23.880 -12.524  1.00  0.00     0.000 C 
BRANCH   2   3
ATOM      3  C   UNL     1     -39.825  25.075 -11.645  1.00  0.00     0.000 C 
BRANCH   3   4
ATOM      4  C   UNL     1     -41.041  24.820 -10.730  1.00  0.00     0.000 C 
BRANCH   4   5
ATOM      5  C   UNL     1     -42.394  24.713 -11.455  1.00  0.00     0.000 C 
BRANCH   5   6
ATOM      6  C   UNL     1     -43.535  24.106 -10.615  1.00  0.00     0.000 C 
BRANCH   6   7
ATOM      7  C   UNL     1     -43.866  24.916  -9.344  1.00  0.00     0.006 C 
BRANCH   7   8
ATOM      8  C   UNL     1     -45.368  25.188  -9.195  1.00  0.00     0.053 C 
BRANCH   8   9
ATOM      9  C   UNL     1     -45.641  25.938  -7.930  1.00  0.00     0.041 C 
ATOM     10  O   UNL     1     -46.708  26.594  -7.800  1.00  0.00    -0.550 OA
ATOM     11  O   UNL     1     -44.740  25.875  -6.875  1.00  0.00    -0.550 OA
ENDBRANCH   8   9
ENDBRANCH   7   8
ENDBRANCH   6   7
ENDBRANCH   5   6
ENDBRANCH   4   5
ENDBRANCH   3   4
ENDBRANCH   2   3
ENDBRANCH   1   2
BRANCH   1  12
ATOM     12  C   UNL     1     -40.099  24.664 -14.863  1.00  0.00     0.000 C 
BRANCH  12  13
ATOM     13  C   UNL     1     -41.435  24.058 -14.400  1.00  0.00    -0.000 C 
BRANCH  13  14
ATOM     14  C   UNL     1     -42.496  24.056 -15.514  1.00  0.00    -0.000 C 
BRANCH  14  15
ATOM     15  C   UNL     1     -42.448  22.777 -16.368  1.00  0.00    -0.000 C 
BRANCH  15  16
ATOM     16  C   UNL     1     -41.928  23.032 -17.793  1.00  0.00    -0.000 C 
BRANCH  16  17
ATOM     17  C   UNL     1     -40.751  22.137 -18.230  1.00  0.00    -0.000 C 
BRANCH  17  18
ATOM     18  C   UNL     1     -39.389  22.849 -18.336  1.00  0.00    -0.000 C 
BRANCH  18  19
ATOM     19  C   UNL     1     -38.345  22.122 -19.202  1.00  0.00    -0.003 C 
ATOM     20  C   UNL     1     -37.142  21.632 -18.396  1.00  0.00     0.004 C 
ENDBRANCH  18  19
ENDBRANCH  17  18
ENDBRANCH  16  17
ENDBRANCH  15  16
ENDBRANCH  14  15
ENDBRANCH  13  14
ENDBRANCH  12  13
ENDBRANCH   1  12
TORSDOF 16
ENDMDL
MODEL 8
REMARK VINA RESULT:    20.411      3.504      4.429
REMARK INTER + INTRA:          38.779
REMARK INTER:                  39.654
REMARK INTRA:                  -0.875
REMARK UNBOUND:                -0.723
REMARK SMILES CCCCCCCCCCCCCCCCCC(=O)[O-]
REMARK SMILES IDX 10 1 11 2 12 3 13 4 14 5 15 6 16 7 17 8 18 9 19 10 20 11
REMARK SMILES IDX 9 12 8 13 7 14 6 15 5 16 4 17 3 18 2 19 1 20
REMARK H PARENT
REMARK Flexibility Score: inf
ROOT
ATOM      1  C   UNL     1     -40.630  22.766 -18.063  1.00  0.00     0.000 C 
ENDROOT
BRANCH   1   2
ATOM      2  C   UNL     1     -42.003  22.721 -17.370  1.00  0.00     0.000 C 
BRANCH   2   3
ATOM      3  C   UNL     1     -42.092  23.669 -16.160  1.00  0.00     0.000 C 
BRANCH   3   4
ATOM      4  C   UNL     1     -43.018  23.190 -15.023  1.00  0.00     0.000 C 
BRANCH   4   5
ATOM      5  C   UNL     1     -42.324  22.957 -13.668  1.00  0.00     0.000 C 
BRANCH   5   6
ATOM      6  C   UNL     1     -42.244  24.198 -12.759  1.00  0.00     0.000 C 
BRANCH   6   7
ATOM      7  C   UNL     1     -41.171  24.088 -11.654  1.00  0.00     0.006 C 
BRANCH   7   8
ATOM      8  C   UNL     1     -39.939  24.954 -11.944  1.00  0.00     0.053 C 
BRANCH   8   9
ATOM      9  C   UNL     1     -39.074  24.304 -12.978  1.00  0.00     0.041 C 
ATOM     10  O   UNL     1     -38.280  23.383 -12.650  1.00  0.00    -0.550 OA
ATOM     11  O   UNL     1     -39.180  24.681 -14.310  1.00  0.00    -0.550 OA
ENDBRANCH   8   9
ENDBRANCH   7   8
ENDBRANCH   6   7
ENDBRANCH   5   6
ENDBRANCH   4   5
ENDBRANCH   3   4
ENDBRANCH   2   3
ENDBRANCH   1   2
BRANCH   1  12
ATOM     12  C   UNL     1     -40.193  21.394 -18.601  1.00  0.00     0.000 C 
BRANCH  12  13
ATOM     13  C   UNL     1     -38.698  21.353 -18.964  1.00  0.00    -0.000 C 
BRANCH  13  14
ATOM     14  C   UNL     1     -38.033  22.737 -18.868  1.00  0.00    -0.000 C 
BRANCH  14  15
ATOM     15  C   UNL     1     -37.531  23.242 -20.232  1.00  0.00    -0.000 C 
BRANCH  15  16
ATOM     16  C   UNL     1     -38.398  24.379 -20.802  1.00  0.00    -0.000 C 
BRANCH  16  17
ATOM     17  C   UNL     1     -37.650  25.699 -21.072  1.00  0.00    -0.000 C 
BRANCH  17  18
ATOM     18  C   UNL     1     -38.351  26.662 -22.050  1.00  0.00    -0.000 C 
BRANCH  18  19
ATOM     19  C   UNL     1     -37.676  28.037 -22.198  1.00  0.00    -0.003 C 
ATOM     20  C   UNL     1     -38.399  29.141 -21.429  1.00  0.00     0.004 C 
ENDBRANCH  18  19
ENDBRANCH  17  18
ENDBRANCH  16  17
ENDBRANCH  15  16
ENDBRANCH  14  15
ENDBRANCH  13  14
ENDBRANCH  12  13
ENDBRANCH   1  12
TORSDOF 16
ENDMDL
MODEL 9
REMARK VINA RESULT:    20.634      4.020      7.644
REMARK INTER + INTRA:          39.211
REMARK INTER:                  39.861
REMARK INTRA:                  -0.650
REMARK UNBOUND:                -0.723
REMARK SMILES CCCCCCCCCCCCCCCCCC(=O)[O-]
REMARK SMILES IDX 10 1 11 2 12 3 13 4 14 5 15 6 16 7 17 8 18 9 19 10 20 11
REMARK SMILES IDX 9 12 8 13 7 14 6 15 5 16 4 17 3 18 2 19 1 20
REMARK H PARENT
REMARK Flexibility Score: inf
ROOT
ATOM      1  C   UNL     1     -37.654  25.431 -20.757  1.00  0.00     0.000 C 
ENDROOT
BRANCH   1   2
ATOM      2  C   UNL     1     -37.900  23.917 -20.630  1.00  0.00     0.000 C 
BRANCH   2   3
ATOM      3  C   UNL     1     -38.041  23.457 -19.167  1.00  0.00     0.000 C 
BRANCH   3   4
ATOM      4  C   UNL     1     -38.452  21.981 -18.985  1.00  0.00     0.000 C 
BRANCH   4   5
ATOM      5  C   UNL     1     -39.910  21.758 -18.543  1.00  0.00     0.000 C 
BRANCH   5   6
ATOM      6  C   UNL     1     -40.713  23.046 -18.283  1.00  0.00     0.000 C 
BRANCH   6   7
ATOM      7  C   UNL     1     -41.915  22.847 -17.335  1.00  0.00     0.006 C 
BRANCH   7   8
ATOM      8  C   UNL     1     -41.885  23.804 -16.137  1.00  0.00     0.053 C 
BRANCH   8   9
ATOM      9  C   UNL     1     -42.698  23.254 -15.008  1.00  0.00     0.041 C 
ATOM     10  O   UNL     1     -42.653  23.798 -13.872  1.00  0.00    -0.550 OA
ATOM     11  O   UNL     1     -43.543  22.172 -15.220  1.00  0.00    -0.550 OA
ENDBRANCH   8   9
ENDBRANCH   7   8
ENDBRANCH   6   7
ENDBRANCH   5   6
ENDBRANCH   4   5
ENDBRANCH   3   4
ENDBRANCH   2   3
ENDBRANCH   1   2
BRANCH   1  12
ATOM     12  C   UNL     1     -38.446  26.065 -21.912  1.00  0.00     0.000 C 
BRANCH  12  13
ATOM     13  C   UNL     1     -37.867  27.422 -22.348  1.00  0.00    -0.000 C 
BRANCH  13  14
ATOM     14  C   UNL     1     -37.843  28.446 -21.200  1.00  0.00    -0.000 C 
BRANCH  14  15
ATOM     15  C   UNL     1     -38.933  29.521 -21.351  1.00  0.00    -0.000 C 
BRANCH  15  16
ATOM     16  C   UNL     1     -40.303  28.932 -21.727  1.00  0.00    -0.000 C 
BRANCH  16  17
ATOM     17  C   UNL     1     -41.510  29.851 -21.448  1.00  0.00    -0.000 C 
BRANCH  17  18
ATOM     18  C   UNL     1     -42.046  30.620 -22.671  1.00  0.00    -0.000 C 
BRANCH  18  19
ATOM     19  C   UNL     1     -43.192  31.599 -22.366  1.00  0.00    -0.003 C 
ATOM     20  C   UNL     1     -43.845  31.347 -21.008  1.00  0.00     0.004 C 
ENDBRANCH  18  19
ENDBRANCH  17  18
ENDBRANCH  16  17
ENDBRANCH  15  16
ENDBRANCH  14  15
ENDBRANCH  13  14
ENDBRANCH  12  13
ENDBRANCH   1  12
TORSDOF 16
ENDMDL
