MODEL 1
REMARK VINA RESULT:    -1.738      0.000      0.000
REMARK INTER + INTRA:          -1.738
REMARK INTER:                  -1.738
REMARK INTRA:                   0.000
REMARK UNBOUND:                 0.000
REMARK SMILES CC(=O)[O-]
REMARK SMILES IDX 1 1 2 2 3 3 4 4
REMARK H PARENT
REMARK Flexibility Score: inf
ROOT
ATOM      1  C   UNL     1      60.921  30.645  61.529  1.00  0.00     0.063 C 
ATOM      2  C   UNL     1      62.069  29.698  61.442  1.00  0.00     0.038 C 
ATOM      3  O   UNL     1      63.247  30.118  61.590  1.00  0.00    -0.550 OA
ATOM      4  O   UNL     1      61.840  28.341  61.249  1.00  0.00    -0.550 OA
ENDROOT
TORSDOF 0
ENDMDL
MODEL 2
REMARK VINA RESULT:    -1.727     13.467     13.860
REMARK INTER + INTRA:          -1.727
REMARK INTER:                  -1.727
REMARK INTRA:                   0.000
REMARK UNBOUND:                 0.000
REMARK SMILES CC(=O)[O-]
REMARK SMILES IDX 1 1 2 2 3 3 4 4
REMARK H PARENT
REMARK Flexibility Score: inf
ROOT
ATOM      1  C   UNL     1      54.447  27.707  50.328  1.00  0.00     0.063 C 
ATOM      2  C   UNL     1      54.957  26.335  50.046  1.00  0.00     0.038 C 
ATOM      3  O   UNL     1      56.100  25.991  50.449  1.00  0.00    -0.550 OA
ATOM      4  O   UNL     1      54.154  25.414  49.386  1.00  0.00    -0.550 OA
ENDROOT
TORSDOF 0
ENDMDL
MODEL 3
REMARK VINA RESULT:    -1.715     11.977     12.165
REMARK INTER + INTRA:          -1.715
REMARK INTER:                  -1.715
REMARK INTRA:                   0.000
REMARK UNBOUND:                 0.000
REMARK SMILES CC(=O)[O-]
REMARK SMILES IDX 1 1 2 2 3 3 4 4
REMARK H PARENT
REMARK Flexibility Score: inf
ROOT
ATOM      1  C   UNL     1      59.234  28.982  49.675  1.00  0.00     0.063 C 
ATOM      2  C   UNL     1      60.054  27.738  49.724  1.00  0.00     0.038 C 
ATOM      3  O   UNL     1      59.492  26.611  49.714  1.00  0.00    -0.550 OA
ATOM      4  O   UNL     1      61.440  27.817  49.728  1.00  0.00    -0.550 OA
ENDROOT
TORSDOF 0
ENDMDL
MODEL 4
REMARK VINA RESULT:    -1.712     15.791     16.435
REMARK INTER + INTRA:          -1.712
REMARK INTER:                  -1.712
REMARK INTRA:                   0.000
REMARK UNBOUND:                 0.000
REMARK SMILES CC(=O)[O-]
REMARK SMILES IDX 1 1 2 2 3 3 4 4
REMARK H PARENT
REMARK Flexibility Score: inf
ROOT
ATOM      1  C   UNL     1      57.809  17.332  50.292  1.00  0.00     0.063 C 
ATOM      2  C   UNL     1      56.952  18.363  50.942  1.00  0.00     0.038 C 
ATOM      3  O   UNL     1      55.707  18.361  50.751  1.00  0.00    -0.550 OA
ATOM      4  O   UNL     1      57.516  19.298  51.801  1.00  0.00    -0.550 OA
ENDROOT
TORSDOF 0
ENDMDL
MODEL 5
REMARK VINA RESULT:    -1.687      9.662     10.292
REMARK INTER + INTRA:          -1.687
REMARK INTER:                  -1.687
REMARK INTRA:                   0.000
REMARK UNBOUND:                 0.000
REMARK SMILES CC(=O)[O-]
REMARK SMILES IDX 1 1 2 2 3 3 4 4
REMARK H PARENT
REMARK Flexibility Score: inf
ROOT
ATOM      1  C   UNL     1      72.794  30.853  61.246  1.00  0.00     0.063 C 
ATOM      2  C   UNL     1      71.779  31.648  60.497  1.00  0.00     0.038 C 
ATOM      3  O   UNL     1      70.905  31.063  59.804  1.00  0.00    -0.550 OA
ATOM      4  O   UNL     1      71.762  33.033  60.603  1.00  0.00    -0.550 OA
ENDROOT
TORSDOF 0
ENDMDL
MODEL 6
REMARK VINA RESULT:    -1.678     15.883     16.221
REMARK INTER + INTRA:          -1.678
REMARK INTER:                  -1.678
REMARK INTRA:                   0.000
REMARK UNBOUND:                 0.000
REMARK SMILES CC(=O)[O-]
REMARK SMILES IDX 1 1 2 2 3 3 4 4
REMARK H PARENT
REMARK Flexibility Score: inf
ROOT
ATOM      1  C   UNL     1      56.535  19.067  52.568  1.00  0.00     0.063 C 
ATOM      2  C   UNL     1      56.105  18.696  51.190  1.00  0.00     0.038 C 
ATOM      3  O   UNL     1      56.820  17.931  50.490  1.00  0.00    -0.550 OA
ATOM      4  O   UNL     1      54.890  19.149  50.694  1.00  0.00    -0.550 OA
ENDROOT
TORSDOF 0
ENDMDL
MODEL 7
REMARK VINA RESULT:    -1.666      5.047      5.693
REMARK INTER + INTRA:          -1.666
REMARK INTER:                  -1.666
REMARK INTRA:                   0.000
REMARK UNBOUND:                 0.000
REMARK SMILES CC(=O)[O-]
REMARK SMILES IDX 1 1 2 2 3 3 4 4
REMARK H PARENT
REMARK Flexibility Score: inf
ROOT
ATOM      1  C   UNL     1      62.599  35.356  60.914  1.00  0.00     0.063 C 
ATOM      2  C   UNL     1      63.935  34.770  61.222  1.00  0.00     0.038 C 
ATOM      3  O   UNL     1      64.219  33.607  60.830  1.00  0.00    -0.550 OA
ATOM      4  O   UNL     1      64.888  35.522  61.895  1.00  0.00    -0.550 OA
ENDROOT
TORSDOF 0
ENDMDL
MODEL 8
REMARK VINA RESULT:    -1.641     10.034     10.140
REMARK INTER + INTRA:          -1.641
REMARK INTER:                  -1.641
REMARK INTRA:                   0.000
REMARK UNBOUND:                 0.000
REMARK SMILES CC(=O)[O-]
REMARK SMILES IDX 1 1 2 2 3 3 4 4
REMARK H PARENT
REMARK Flexibility Score: inf
ROOT
ATOM      1  C   UNL     1      71.162  32.119  58.780  1.00  0.00     0.063 C 
ATOM      2  C   UNL     1      71.540  32.580  60.146  1.00  0.00     0.038 C 
ATOM      3  O   UNL     1      71.154  33.705  60.562  1.00  0.00    -0.550 OA
ATOM      4  O   UNL     1      72.273  31.750  60.984  1.00  0.00    -0.550 OA
ENDROOT
TORSDOF 0
ENDMDL
MODEL 9
REMARK VINA RESULT:    -1.632     15.820     16.252
REMARK INTER + INTRA:          -1.632
REMARK INTER:                  -1.632
REMARK INTRA:                   0.000
REMARK UNBOUND:                 0.000
REMARK SMILES CC(=O)[O-]
REMARK SMILES IDX 1 1 2 2 3 3 4 4
REMARK H PARENT
REMARK Flexibility Score: inf
ROOT
ATOM      1  C   UNL     1      57.129  18.974  52.402  1.00  0.00     0.063 C 
ATOM      2  C   UNL     1      56.575  18.489  51.106  1.00  0.00     0.038 C 
ATOM      3  O   UNL     1      55.456  18.903  50.703  1.00  0.00    -0.550 OA
ATOM      4  O   UNL     1      57.315  17.620  50.314  1.00  0.00    -0.550 OA
ENDROOT
TORSDOF 0
ENDMDL
