MODEL 1
REMARK VINA RESULT:     3.498      0.000      0.000
REMARK INTER + INTRA:           4.206
REMARK INTER:                   4.214
REMARK INTRA:                  -0.008
REMARK UNBOUND:                -0.008
REMARK SMILES Oc1cc(O)c2c(c1)O[C@H](c1ccc(O)c(O)c1)[C@@H](O)C2
REMARK SMILES IDX 21 1 19 2 10 3 9 4 7 5 8 6 2 7 3 8 4 9 6 10 20 11 11 13
REMARK SMILES IDX 18 14 12 15 16 16 13 17 14 18 17 19 15 21 5 23 1 25
REMARK H PARENT 20 12 17 20 15 22 5 24 1 26
REMARK Flexibility Score: inf
ROOT
ATOM      1  C   UNL     1      20.529   6.019   7.015  1.00  0.00     0.079 C 
ATOM      2  C   UNL     1      20.043   7.472   7.180  1.00  0.00     0.164 C 
ATOM      3  C   UNL     1      20.313   8.262   5.888  1.00  0.00     0.232 C 
ATOM      4  O   UNL     1      21.701   8.202   5.564  1.00  0.00    -0.482 OA
ATOM      5  C   UNL     1      22.460   7.040   5.743  1.00  0.00     0.131 A 
ATOM      6  C   UNL     1      23.759   6.992   5.231  1.00  0.00     0.093 A 
ATOM      7  C   UNL     1      24.535   5.838   5.382  1.00  0.00     0.122 A 
ATOM      8  C   UNL     1      24.004   4.726   6.038  1.00  0.00     0.092 A 
ATOM      9  C   UNL     1      22.705   4.755   6.557  1.00  0.00     0.126 A 
ATOM     10  C   UNL     1      21.931   5.936   6.446  1.00  0.00     0.039 A 
ENDROOT
BRANCH   2  11
ATOM     11  O   UNL     1      18.669   7.483   7.465  1.00  0.00    -0.389 OA
ATOM     12  H   UNL     1      18.210   7.093   6.675  1.00  0.00     0.211 HD
ENDBRANCH   2  11
BRANCH   3  13
ATOM     13  C   UNL     1      19.888   9.705   6.033  1.00  0.00    -0.001 A 
ATOM     14  C   UNL     1      20.854  10.719   6.144  1.00  0.00     0.057 A 
ATOM     15  C   UNL     1      18.527  10.054   6.011  1.00  0.00     0.012 A 
ATOM     16  C   UNL     1      20.465  12.062   6.251  1.00  0.00     0.157 A 
ATOM     17  C   UNL     1      18.140  11.392   6.118  1.00  0.00     0.050 A 
ATOM     18  C   UNL     1      19.106  12.399   6.240  1.00  0.00     0.157 A 
BRANCH  16  19
ATOM     19  O   UNL     1      21.424  13.068   6.366  1.00  0.00    -0.504 OA
ATOM     20  H   UNL     1      22.284  13.044   5.829  1.00  0.00     0.293 HD
ENDBRANCH  16  19
BRANCH  18  21
ATOM     21  O   UNL     1      18.724  13.735   6.348  1.00  0.00    -0.504 OA
ATOM     22  H   UNL     1      19.327  14.487   6.033  1.00  0.00     0.293 HD
ENDBRANCH  18  21
ENDBRANCH   3  13
BRANCH   9  23
ATOM     23  O   UNL     1      22.213   3.597   7.163  1.00  0.00    -0.507 OA
ATOM     24  H   UNL     1      21.227   3.387   7.244  1.00  0.00     0.293 HD
ENDBRANCH   9  23
BRANCH   7  25
ATOM     25  O   UNL     1      25.832   5.784   4.876  1.00  0.00    -0.508 OA
ATOM     26  H   UNL     1      26.439   6.595   4.886  1.00  0.00     0.293 HD
ENDBRANCH   7  25
TORSDOF 6
ENDMDL
MODEL 2
REMARK VINA RESULT:     4.425      1.349      2.839
REMARK INTER + INTRA:           5.322
REMARK INTER:                   5.372
REMARK INTRA:                  -0.050
REMARK UNBOUND:                -0.008
REMARK SMILES Oc1cc(O)c2c(c1)O[C@H](c1ccc(O)c(O)c1)[C@@H](O)C2
REMARK SMILES IDX 21 1 19 2 10 3 9 4 7 5 8 6 2 7 3 8 4 9 6 10 20 11 11 13
REMARK SMILES IDX 18 14 12 15 16 16 13 17 14 18 17 19 15 21 5 23 1 25
REMARK H PARENT 20 12 17 20 15 22 5 24 1 26
REMARK Flexibility Score: inf
ROOT
ATOM      1  C   UNL     1      23.234   6.711   5.371  1.00  0.00     0.079 C 
ATOM      2  C   UNL     1      22.287   7.915   5.216  1.00  0.00     0.164 C 
ATOM      3  C   UNL     1      21.531   8.159   6.534  1.00  0.00     0.232 C 
ATOM      4  O   UNL     1      20.827   6.976   6.914  1.00  0.00    -0.482 OA
ATOM      5  C   UNL     1      21.369   5.697   6.742  1.00  0.00     0.131 A 
ATOM      6  C   UNL     1      20.711   4.601   7.307  1.00  0.00     0.093 A 
ATOM      7  C   UNL     1      21.238   3.313   7.165  1.00  0.00     0.122 A 
ATOM      8  C   UNL     1      22.431   3.125   6.465  1.00  0.00     0.092 A 
ATOM      9  C   UNL     1      23.104   4.211   5.893  1.00  0.00     0.126 A 
ATOM     10  C   UNL     1      22.552   5.511   5.996  1.00  0.00     0.039 A 
ENDROOT
BRANCH   2  11
ATOM     11  O   UNL     1      23.025   9.059   4.875  1.00  0.00    -0.389 OA
ATOM     12  H   UNL     1      22.389   9.694   4.452  1.00  0.00     0.211 HD
ENDBRANCH   2  11
BRANCH   3  13
ATOM     13  C   UNL     1      20.558   9.307   6.401  1.00  0.00    -0.001 A 
ATOM     14  C   UNL     1      21.018  10.633   6.457  1.00  0.00     0.057 A 
ATOM     15  C   UNL     1      19.193   9.063   6.172  1.00  0.00     0.012 A 
ATOM     16  C   UNL     1      20.122  11.702   6.306  1.00  0.00     0.157 A 
ATOM     17  C   UNL     1      18.301  10.128   6.022  1.00  0.00     0.050 A 
ATOM     18  C   UNL     1      18.762  11.449   6.091  1.00  0.00     0.157 A 
BRANCH  16  19
ATOM     19  O   UNL     1      20.578  13.019   6.368  1.00  0.00    -0.504 OA
ATOM     20  H   UNL     1      19.934  13.801   6.400  1.00  0.00     0.293 HD
ENDBRANCH  16  19
BRANCH  18  21
ATOM     21  O   UNL     1      17.875  12.514   5.943  1.00  0.00    -0.504 OA
ATOM     22  H   UNL     1      17.691  13.160   6.702  1.00  0.00     0.293 HD
ENDBRANCH  18  21
ENDBRANCH   3  13
BRANCH   9  23
ATOM     23  O   UNL     1      24.315   3.965   5.243  1.00  0.00    -0.507 OA
ATOM     24  H   UNL     1      24.875   3.138   5.403  1.00  0.00     0.293 HD
ENDBRANCH   9  23
BRANCH   7  25
ATOM     25  O   UNL     1      20.587   2.215   7.723  1.00  0.00    -0.508 OA
ATOM     26  H   UNL     1      21.102   1.414   8.069  1.00  0.00     0.293 HD
ENDBRANCH   7  25
TORSDOF 6
ENDMDL
