MODEL 1
REMARK VINA RESULT:    -3.111      0.000      0.000
REMARK INTER + INTRA:          -3.092
REMARK INTER:                  -3.838
REMARK INTRA:                   0.746
REMARK UNBOUND:                 0.746
REMARK SMILES CC1=CC=CC(C)(C)CC1=O
REMARK SMILES IDX 1 1 2 2 3 3 10 4 11 5 9 6 4 8 5 9 6 10 7 11 8 12
REMARK H PARENT
REMARK Flexibility Score: 80.00
ROOT
ATOM      1  C   UNL     1      -5.927   3.700  53.528  1.00  0.00     0.048 C 
ATOM      2  C   UNL     1      -7.144   4.455  53.048  1.00  0.00    -0.008 C 
ATOM      3  C   UNL     1      -7.250   4.692  51.723  1.00  0.00     0.007 C 
ENDROOT
BRANCH   2   4
ATOM      4  C   UNL     1      -8.163   4.812  54.066  1.00  0.00     0.159 C 
ATOM      5  O   UNL     1      -8.077   4.303  55.217  1.00  0.00    -0.295 OA
BRANCH   4   6
ATOM      6  C   UNL     1      -9.293   5.762  53.807  1.00  0.00     0.091 CG0
ATOM      7  G   UNL     1     -10.225   5.302  52.664  1.00  0.00     0.000 G0
ENDBRANCH   4   6
ENDBRANCH   2   4
BRANCH   3   8
ATOM      8  C   UNL     1      -8.324   5.374  50.961  1.00  0.00    -0.003 C 
ATOM      9  C   UNL     1      -9.583   5.636  51.330  1.00  0.00    -0.020 C 
BRANCH   9  10
ATOM     10  C   UNL     1     -10.215   5.312  52.664  1.00  0.00    -0.010 CG0
ATOM     11  C   UNL     1     -10.572   3.810  52.727  1.00  0.00     0.016 C 
ATOM     12  C   UNL     1     -11.528   6.120  52.787  1.00  0.00     0.016 C 
ATOM     13  G   UNL     1      -9.272   5.750  53.806  1.00  0.00     0.000 G0
ENDBRANCH   9  10
ENDBRANCH   3   8
TORSDOF 0
ENDMDL
MODEL 2
REMARK VINA RESULT:    -3.016      2.020      3.599
REMARK INTER + INTRA:          -2.975
REMARK INTER:                  -3.750
REMARK INTRA:                   0.775
REMARK UNBOUND:                 0.746
REMARK SMILES CC1=CC=CC(C)(C)CC1=O
REMARK SMILES IDX 1 1 2 2 3 3 10 4 11 5 9 6 4 8 5 9 6 10 7 11 8 12
REMARK H PARENT
REMARK Flexibility Score: 80.00
ROOT
ATOM      1  C   UNL     1      -7.033   4.768  51.170  1.00  0.00     0.048 C 
ATOM      2  C   UNL     1      -7.164   4.371  52.621  1.00  0.00    -0.008 C 
ATOM      3  C   UNL     1      -6.062   3.900  53.244  1.00  0.00     0.007 C 
ENDROOT
BRANCH   2   4
ATOM      4  C   UNL     1      -8.480   4.603  53.269  1.00  0.00     0.159 C 
ATOM      5  O   UNL     1      -9.344   5.291  52.660  1.00  0.00    -0.295 OA
BRANCH   4   6
ATOM      6  C   UNL     1      -8.849   4.051  54.611  1.00  0.00     0.091 CG0
ATOM      7  G   UNL     1      -7.906   4.518  55.742  1.00  0.00     0.000 G0
ENDBRANCH   4   6
ENDBRANCH   2   4
BRANCH   3   8
ATOM      8  C   UNL     1      -5.877   3.462  54.648  1.00  0.00    -0.003 C 
ATOM      9  C   UNL     1      -6.635   3.722  55.720  1.00  0.00    -0.020 C 
BRANCH   9  10
ATOM     10  C   UNL     1      -7.914   4.525  55.742  1.00  0.00    -0.010 CG0
ATOM     11  C   UNL     1      -7.592   6.034  55.644  1.00  0.00     0.016 C 
ATOM     12  C   UNL     1      -8.620   4.275  57.094  1.00  0.00     0.016 C 
ATOM     13  G   UNL     1      -8.852   4.041  54.613  1.00  0.00     0.000 G0
ENDBRANCH   9  10
ENDBRANCH   3   8
TORSDOF 0
ENDMDL
MODEL 3
REMARK VINA RESULT:    -3.014     11.501     12.647
REMARK INTER + INTRA:          -2.973
REMARK INTER:                  -3.724
REMARK INTRA:                   0.751
REMARK UNBOUND:                 0.746
REMARK SMILES CC1=CC=CC(C)(C)CC1=O
REMARK SMILES IDX 1 1 2 2 3 3 10 4 11 5 9 6 4 8 5 9 6 10 7 11 8 12
REMARK H PARENT
REMARK Flexibility Score: 80.00
ROOT
ATOM      1  C   UNL     1       1.092   1.982  56.332  1.00  0.00     0.048 C 
ATOM      2  C   UNL     1       1.025   1.465  57.749  1.00  0.00    -0.008 C 
ATOM      3  C   UNL     1       0.861   2.369  58.739  1.00  0.00     0.007 C 
ENDROOT
BRANCH   2   4
ATOM      4  C   UNL     1       1.069  -0.008  57.933  1.00  0.00     0.159 C 
ATOM      5  O   UNL     1       0.957  -0.751  56.920  1.00  0.00    -0.295 OA
BRANCH   4   6
ATOM      6  C   UNL     1       1.252  -0.668  59.265  1.00  0.00     0.091 CG0
ATOM      7  G   UNL     1       0.151  -0.302  60.284  1.00  0.00     0.000 G0
ENDBRANCH   4   6
ENDBRANCH   2   4
BRANCH   3   8
ATOM      8  C   UNL     1       0.735   2.166  60.202  1.00  0.00    -0.003 C 
ATOM      9  C   UNL     1       0.424   1.052  60.875  1.00  0.00    -0.020 C 
BRANCH   9  10
ATOM     10  C   UNL     1       0.147  -0.309  60.281  1.00  0.00    -0.010 CG0
ATOM     11  C   UNL     1      -1.273  -0.339  59.671  1.00  0.00     0.016 C 
ATOM     12  C   UNL     1       0.200  -1.354  61.419  1.00  0.00     0.016 C 
ATOM     13  G   UNL     1       1.245  -0.661  59.253  1.00  0.00     0.000 G0
ENDBRANCH   9  10
ENDBRANCH   3   8
TORSDOF 0
ENDMDL
MODEL 4
REMARK VINA RESULT:    -3.000      1.667      3.528
REMARK INTER + INTRA:          -2.955
REMARK INTER:                  -3.719
REMARK INTRA:                   0.764
REMARK UNBOUND:                 0.746
REMARK SMILES CC1=CC=CC(C)(C)CC1=O
REMARK SMILES IDX 1 1 2 2 3 3 10 4 11 5 9 6 4 8 5 9 6 10 7 11 8 12
REMARK H PARENT
REMARK Flexibility Score: 80.00
ROOT
ATOM      1  C   UNL     1     -10.622   6.039  51.295  1.00  0.00     0.048 C 
ATOM      2  C   UNL     1      -9.478   5.180  51.779  1.00  0.00    -0.008 C 
ATOM      3  C   UNL     1      -8.285   5.321  51.163  1.00  0.00     0.007 C 
ENDROOT
BRANCH   2   4
ATOM      4  C   UNL     1      -9.740   4.300  52.946  1.00  0.00     0.159 C 
ATOM      5  O   UNL     1     -10.814   4.449  53.590  1.00  0.00    -0.295 OA
BRANCH   4   6
ATOM      6  C   UNL     1      -8.800   3.226  53.398  1.00  0.00     0.091 CG0
ATOM      7  G   UNL     1      -7.402   3.761  53.780  1.00  0.00     0.000 G0
ENDBRANCH   4   6
ENDBRANCH   2   4
BRANCH   3   8
ATOM      8  C   UNL     1      -6.992   4.647  51.428  1.00  0.00    -0.003 C 
ATOM      9  C   UNL     1      -6.590   3.993  52.524  1.00  0.00    -0.020 C 
BRANCH   9  10
ATOM     10  C   UNL     1      -7.400   3.760  53.778  1.00  0.00    -0.010 CG0
ATOM     11  C   UNL     1      -7.460   5.057  54.617  1.00  0.00     0.016 C 
ATOM     12  C   UNL     1      -6.686   2.679  54.621  1.00  0.00     0.016 C 
ATOM     13  G   UNL     1      -8.800   3.228  53.400  1.00  0.00     0.000 G0
ENDBRANCH   9  10
ENDBRANCH   3   8
TORSDOF 0
ENDMDL
MODEL 5
REMARK VINA RESULT:    -2.997      1.290      2.021
REMARK INTER + INTRA:          -2.951
REMARK INTER:                  -3.718
REMARK INTRA:                   0.767
REMARK UNBOUND:                 0.746
REMARK SMILES CC1=CC=CC(C)(C)CC1=O
REMARK SMILES IDX 1 1 2 2 3 3 10 4 11 5 9 6 4 8 5 9 6 10 7 11 8 12
REMARK H PARENT
REMARK Flexibility Score: 80.00
ROOT
ATOM      1  C   UNL     1      -6.911   5.000  50.868  1.00  0.00     0.048 C 
ATOM      2  C   UNL     1      -8.026   5.289  51.845  1.00  0.00    -0.008 C 
ATOM      3  C   UNL     1      -9.193   5.748  51.346  1.00  0.00     0.007 C 
ENDROOT
BRANCH   2   4
ATOM      4  C   UNL     1      -7.772   4.971  53.273  1.00  0.00     0.159 C 
ATOM      5  O   UNL     1      -6.742   4.308  53.574  1.00  0.00    -0.295 OA
BRANCH   4   6
ATOM      6  C   UNL     1      -8.669   5.409  54.389  1.00  0.00     0.091 CG0
ATOM      7  G   UNL     1     -10.115   4.882  54.250  1.00  0.00     0.000 G0
ENDBRANCH   4   6
ENDBRANCH   2   4
BRANCH   3   8
ATOM      8  C   UNL     1     -10.457   6.090  52.041  1.00  0.00    -0.003 C 
ATOM      9  C   UNL     1     -10.874   5.727  53.260  1.00  0.00    -0.020 C 
BRANCH   9  10
ATOM     10  C   UNL     1     -10.114   4.880  54.254  1.00  0.00    -0.010 CG0
ATOM     11  C   UNL     1     -10.167   3.394  53.829  1.00  0.00     0.016 C 
ATOM     12  C   UNL     1     -10.809   5.008  55.629  1.00  0.00     0.016 C 
ATOM     13  G   UNL     1      -8.670   5.410  54.393  1.00  0.00     0.000 G0
ENDBRANCH   9  10
ENDBRANCH   3   8
TORSDOF 0
ENDMDL
MODEL 6
REMARK VINA RESULT:    -2.918     11.343     12.488
REMARK INTER + INTRA:          -2.855
REMARK INTER:                  -3.604
REMARK INTRA:                   0.750
REMARK UNBOUND:                 0.746
REMARK SMILES CC1=CC=CC(C)(C)CC1=O
REMARK SMILES IDX 1 1 2 2 3 3 10 4 11 5 9 6 4 8 5 9 6 10 7 11 8 12
REMARK H PARENT
REMARK Flexibility Score: 80.00
ROOT
ATOM      1  C   UNL     1       0.753   1.920  57.112  1.00  0.00     0.048 C 
ATOM      2  C   UNL     1       1.080   0.893  56.055  1.00  0.00    -0.008 C 
ATOM      3  C   UNL     1       1.817   1.295  54.998  1.00  0.00     0.007 C 
ENDROOT
BRANCH   2   4
ATOM      4  C   UNL     1       0.627  -0.499  56.302  1.00  0.00     0.159 C 
ATOM      5  O   UNL     1       0.176  -0.799  57.441  1.00  0.00    -0.295 OA
BRANCH   4   6
ATOM      6  C   UNL     1       0.662  -1.577  55.262  1.00  0.00     0.091 CG0
ATOM      7  G   UNL     1       2.081  -1.852  54.719  1.00  0.00     0.000 G0
ENDBRANCH   4   6
ENDBRANCH   2   4
BRANCH   3   8
ATOM      8  C   UNL     1       2.311   0.523  53.833  1.00  0.00    -0.003 C 
ATOM      9  C   UNL     1       2.442  -0.801  53.692  1.00  0.00    -0.020 C 
BRANCH   9  10
ATOM     10  C   UNL     1       2.077  -1.853  54.714  1.00  0.00    -0.010 CG0
ATOM     11  C   UNL     1       3.158  -1.914  55.818  1.00  0.00     0.016 C 
ATOM     12  C   UNL     1       2.043  -3.226  54.004  1.00  0.00     0.016 C 
ATOM     13  G   UNL     1       0.667  -1.566  55.276  1.00  0.00     0.000 G0
ENDBRANCH   9  10
ENDBRANCH   3   8
TORSDOF 0
ENDMDL
MODEL 7
REMARK VINA RESULT:    -2.918      1.466      2.060
REMARK INTER + INTRA:          -2.854
REMARK INTER:                  -3.608
REMARK INTRA:                   0.754
REMARK UNBOUND:                 0.746
REMARK SMILES CC1=CC=CC(C)(C)CC1=O
REMARK SMILES IDX 1 1 2 2 3 3 10 4 11 5 9 6 4 8 5 9 6 10 7 11 8 12
REMARK H PARENT
REMARK Flexibility Score: 80.00
ROOT
ATOM      1  C   UNL     1      -5.896   4.808  56.089  1.00  0.00     0.048 C 
ATOM      2  C   UNL     1      -6.554   4.707  54.734  1.00  0.00    -0.008 C 
ATOM      3  C   UNL     1      -6.023   3.844  53.842  1.00  0.00     0.007 C 
ENDROOT
BRANCH   2   4
ATOM      4  C   UNL     1      -7.782   5.513  54.518  1.00  0.00     0.159 C 
ATOM      5  O   UNL     1      -8.320   6.079  55.509  1.00  0.00    -0.295 OA
BRANCH   4   6
ATOM      6  C   UNL     1      -8.418   5.707  53.176  1.00  0.00     0.091 CG0
ATOM      7  G   UNL     1      -8.850   4.382  52.510  1.00  0.00     0.000 G0
ENDBRANCH   4   6
ENDBRANCH   2   4
BRANCH   3   8
ATOM      8  C   UNL     1      -6.457   3.512  52.464  1.00  0.00    -0.003 C 
ATOM      9  C   UNL     1      -7.643   3.719  51.880  1.00  0.00    -0.020 C 
BRANCH   9  10
ATOM     10  C   UNL     1      -8.846   4.388  52.504  1.00  0.00    -0.010 CG0
ATOM     11  C   UNL     1      -9.547   3.411  53.476  1.00  0.00     0.016 C 
ATOM     12  C   UNL     1      -9.845   4.736  51.376  1.00  0.00     0.016 C 
ATOM     13  G   UNL     1      -8.415   5.704  53.187  1.00  0.00     0.000 G0
ENDBRANCH   9  10
ENDBRANCH   3   8
TORSDOF 0
ENDMDL
MODEL 8
REMARK VINA RESULT:    -2.909      5.228      6.672
REMARK INTER + INTRA:          -2.843
REMARK INTER:                  -3.599
REMARK INTRA:                   0.756
REMARK UNBOUND:                 0.746
REMARK SMILES CC1=CC=CC(C)(C)CC1=O
REMARK SMILES IDX 1 1 2 2 3 3 10 4 11 5 9 6 4 8 5 9 6 10 7 11 8 12
REMARK H PARENT
REMARK Flexibility Score: 80.00
ROOT
ATOM      1  C   UNL     1      -7.427   6.707  61.780  1.00  0.00     0.048 C 
ATOM      2  C   UNL     1      -7.053   6.267  60.385  1.00  0.00    -0.008 C 
ATOM      3  C   UNL     1      -5.761   5.955  60.151  1.00  0.00     0.007 C 
ENDROOT
BRANCH   2   4
ATOM      4  C   UNL     1      -8.156   6.141  59.399  1.00  0.00     0.159 C 
ATOM      5  O   UNL     1      -9.348   6.208  59.807  1.00  0.00    -0.295 OA
BRANCH   4   6
ATOM      6  C   UNL     1      -7.933   5.950  57.930  1.00  0.00     0.091 CG0
ATOM      7  G   UNL     1      -7.124   4.677  57.597  1.00  0.00     0.000 G0
ENDBRANCH   4   6
ENDBRANCH   2   4
BRANCH   3   8
ATOM      8  C   UNL     1      -5.107   5.475  58.910  1.00  0.00    -0.003 C 
ATOM      9  C   UNL     1      -5.660   4.921  57.825  1.00  0.00    -0.020 C 
BRANCH   9  10
ATOM     10  C   UNL     1      -7.133   4.673  57.595  1.00  0.00    -0.010 CG0
ATOM     11  C   UNL     1      -7.594   3.440  58.405  1.00  0.00     0.016 C 
ATOM     12  C   UNL     1      -7.343   4.364  56.095  1.00  0.00     0.016 C 
ATOM     13  G   UNL     1      -7.934   5.948  57.941  1.00  0.00     0.000 G0
ENDBRANCH   9  10
ENDBRANCH   3   8
TORSDOF 0
ENDMDL
MODEL 9
REMARK VINA RESULT:    -2.884      5.701      6.935
REMARK INTER + INTRA:          -2.813
REMARK INTER:                  -3.567
REMARK INTRA:                   0.754
REMARK UNBOUND:                 0.746
REMARK SMILES CC1=CC=CC(C)(C)CC1=O
REMARK SMILES IDX 1 1 2 2 3 3 10 4 11 5 9 6 4 8 5 9 6 10 7 11 8 12
REMARK H PARENT
REMARK Flexibility Score: 80.00
ROOT
ATOM      1  C   UNL     1      -3.793   1.920  57.131  1.00  0.00     0.048 C 
ATOM      2  C   UNL     1      -4.621   3.088  57.613  1.00  0.00    -0.008 C 
ATOM      3  C   UNL     1      -5.544   3.593  56.766  1.00  0.00     0.007 C 
ENDROOT
BRANCH   2   4
ATOM      4  C   UNL     1      -4.403   3.540  59.010  1.00  0.00     0.159 C 
ATOM      5  O   UNL     1      -3.718   2.816  59.783  1.00  0.00    -0.295 OA
BRANCH   4   6
ATOM      6  C   UNL     1      -4.943   4.826  59.556  1.00  0.00     0.091 CG0
ATOM      7  G   UNL     1      -6.484   4.911  59.501  1.00  0.00     0.000 G0
ENDBRANCH   4   6
ENDBRANCH   2   4
BRANCH   3   8
ATOM      8  C   UNL     1      -6.508   4.702  56.961  1.00  0.00    -0.003 C 
ATOM      9  C   UNL     1      -6.929   5.263  58.100  1.00  0.00    -0.020 C 
BRANCH   9  10
ATOM     10  C   UNL     1      -6.483   4.903  59.497  1.00  0.00    -0.010 CG0
ATOM     11  C   UNL     1      -7.166   3.591  59.948  1.00  0.00     0.016 C 
ATOM     12  C   UNL     1      -6.935   6.029  60.455  1.00  0.00     0.016 C 
ATOM     13  G   UNL     1      -4.941   4.820  59.546  1.00  0.00     0.000 G0
ENDBRANCH   9  10
ENDBRANCH   3   8
TORSDOF 0
ENDMDL
