MODEL 1
REMARK VINA RESULT:    -5.824      0.000      0.000
REMARK INTER + INTRA:          -7.128
REMARK INTER:                  -7.016
REMARK INTRA:                  -0.112
REMARK UNBOUND:                -0.112
REMARK SMILES Oc1cc(O)c2c(c1)O[C@H](c1ccc(O)c(O)c1)[C@H](O)C2
REMARK SMILES IDX 21 1 19 2 10 3 9 4 7 5 8 6 2 7 3 8 4 9 6 10 20 11 11 13
REMARK SMILES IDX 18 14 12 15 16 16 13 17 14 18 17 19 15 21 5 23 1 25
REMARK H PARENT 20 12 17 20 15 22 5 24 1 26
REMARK Flexibility Score: inf
ROOT
ATOM      1  C   UNL     1      -9.696 -13.810 -17.462  1.00  0.00     0.079 C 
ATOM      2  C   UNL     1     -10.042 -12.603 -18.360  1.00  0.00     0.164 C 
ATOM      3  C   UNL     1      -9.181 -12.595 -19.643  1.00  0.00     0.232 C 
ATOM      4  O   UNL     1      -9.420 -13.826 -20.329  1.00  0.00    -0.482 OA
ATOM      5  C   UNL     1      -9.477 -15.054 -19.658  1.00  0.00     0.131 A 
ATOM      6  C   UNL     1      -9.426 -16.236 -20.400  1.00  0.00     0.093 A 
ATOM      7  C   UNL     1      -9.456 -17.475 -19.757  1.00  0.00     0.122 A 
ATOM      8  C   UNL     1      -9.532 -17.531 -18.361  1.00  0.00     0.092 A 
ATOM      9  C   UNL     1      -9.591 -16.358 -17.601  1.00  0.00     0.126 A 
ATOM     10  C   UNL     1      -9.596 -15.100 -18.250  1.00  0.00     0.039 A 
ENDROOT
BRANCH   2  11
ATOM     11  O   UNL     1      -9.937 -11.388 -17.665  1.00  0.00    -0.389 OA
ATOM     12  H   UNL     1      -9.051 -11.002 -17.894  1.00  0.00     0.211 HD
ENDBRANCH   2  11
BRANCH   3  13
ATOM     13  C   UNL     1      -7.671 -12.399 -19.491  1.00  0.00    -0.001 A 
ATOM     14  C   UNL     1      -7.078 -11.304 -18.824  1.00  0.00     0.057 A 
ATOM     15  C   UNL     1      -6.823 -13.330 -20.122  1.00  0.00     0.012 A 
ATOM     16  C   UNL     1      -5.682 -11.176 -18.755  1.00  0.00     0.157 A 
ATOM     17  C   UNL     1      -5.434 -13.201 -20.053  1.00  0.00     0.050 A 
ATOM     18  C   UNL     1      -4.860 -12.127 -19.366  1.00  0.00     0.157 A 
BRANCH  16  19
ATOM     19  O   UNL     1      -5.105 -10.102 -18.080  1.00  0.00    -0.504 OA
ATOM     20  H   UNL     1      -4.926 -10.135 -17.082  1.00  0.00     0.293 HD
ENDBRANCH  16  19
BRANCH  18  21
ATOM     21  O   UNL     1      -3.475 -11.996 -19.291  1.00  0.00    -0.504 OA
ATOM     22  H   UNL     1      -2.915 -12.603 -18.702  1.00  0.00     0.293 HD
ENDBRANCH  18  21
ENDBRANCH   3  13
BRANCH   9  23
ATOM     23  O   UNL     1      -9.635 -16.475 -16.210  1.00  0.00    -0.507 OA
ATOM     24  H   UNL     1      -8.880 -16.184 -15.604  1.00  0.00     0.293 HD
ENDBRANCH   9  23
BRANCH   7  25
ATOM     25  O   UNL     1      -9.401 -18.643 -20.514  1.00  0.00    -0.508 OA
ATOM     26  H   UNL     1      -9.311 -18.618 -21.522  1.00  0.00     0.293 HD
ENDBRANCH   7  25
TORSDOF 6
ENDMDL
MODEL 2
REMARK VINA RESULT:    -4.414      1.899      6.159
REMARK INTER + INTRA:          -5.429
REMARK INTER:                  -5.283
REMARK INTRA:                  -0.147
REMARK UNBOUND:                -0.112
REMARK SMILES Oc1cc(O)c2c(c1)O[C@H](c1ccc(O)c(O)c1)[C@H](O)C2
REMARK SMILES IDX 21 1 19 2 10 3 9 4 7 5 8 6 2 7 3 8 4 9 6 10 20 11 11 13
REMARK SMILES IDX 18 14 12 15 16 16 13 17 14 18 17 19 15 21 5 23 1 25
REMARK H PARENT 20 12 17 20 15 22 5 24 1 26
REMARK Flexibility Score: inf
ROOT
ATOM      1  C   UNL     1      -5.328 -12.293 -19.523  1.00  0.00     0.079 C 
ATOM      2  C   UNL     1      -5.456 -13.157 -20.796  1.00  0.00     0.164 C 
ATOM      3  C   UNL     1      -6.916 -13.609 -21.022  1.00  0.00     0.232 C 
ATOM      4  O   UNL     1      -7.720 -12.432 -21.122  1.00  0.00    -0.482 OA
ATOM      5  C   UNL     1      -7.561 -11.344 -20.254  1.00  0.00     0.131 A 
ATOM      6  C   UNL     1      -8.549 -10.357 -20.214  1.00  0.00     0.093 A 
ATOM      7  C   UNL     1      -8.429  -9.275 -19.341  1.00  0.00     0.122 A 
ATOM      8  C   UNL     1      -7.316  -9.181 -18.498  1.00  0.00     0.092 A 
ATOM      9  C   UNL     1      -6.314 -10.157 -18.528  1.00  0.00     0.126 A 
ATOM     10  C   UNL     1      -6.413 -11.238 -19.437  1.00  0.00     0.039 A 
ENDROOT
BRANCH   2  11
ATOM     11  O   UNL     1      -4.578 -14.252 -20.774  1.00  0.00    -0.389 OA
ATOM     12  H   UNL     1      -3.912 -14.072 -20.060  1.00  0.00     0.211 HD
ENDBRANCH   2  11
BRANCH   3  13
ATOM     13  C   UNL     1      -7.542 -14.549 -19.990  1.00  0.00    -0.001 A 
ATOM     14  C   UNL     1      -6.828 -15.547 -19.291  1.00  0.00     0.057 A 
ATOM     15  C   UNL     1      -8.933 -14.459 -19.781  1.00  0.00     0.012 A 
ATOM     16  C   UNL     1      -7.481 -16.394 -18.382  1.00  0.00     0.157 A 
ATOM     17  C   UNL     1      -9.581 -15.303 -18.877  1.00  0.00     0.050 A 
ATOM     18  C   UNL     1      -8.857 -16.269 -18.171  1.00  0.00     0.157 A 
BRANCH  16  19
ATOM     19  O   UNL     1      -6.765 -17.366 -17.684  1.00  0.00    -0.504 OA
ATOM     20  H   UNL     1      -5.863 -17.164 -17.266  1.00  0.00     0.293 HD
ENDBRANCH  16  19
BRANCH  18  21
ATOM     21  O   UNL     1      -9.499 -17.111 -17.265  1.00  0.00    -0.504 OA
ATOM     22  H   UNL     1     -10.145 -16.751 -16.572  1.00  0.00     0.293 HD
ENDBRANCH  18  21
ENDBRANCH   3  13
BRANCH   9  23
ATOM     23  O   UNL     1      -5.241 -10.027 -17.643  1.00  0.00    -0.507 OA
ATOM     24  H   UNL     1      -4.278 -10.183 -17.911  1.00  0.00     0.293 HD
ENDBRANCH   9  23
BRANCH   7  25
ATOM     25  O   UNL     1      -9.425  -8.301 -19.313  1.00  0.00    -0.508 OA
ATOM     26  H   UNL     1      -9.662  -7.762 -20.137  1.00  0.00     0.293 HD
ENDBRANCH   7  25
TORSDOF 6
ENDMDL
MODEL 3
REMARK VINA RESULT:    -4.169      1.764      6.115
REMARK INTER + INTRA:          -5.134
REMARK INTER:                  -5.160
REMARK INTRA:                   0.025
REMARK UNBOUND:                -0.112
REMARK SMILES Oc1cc(O)c2c(c1)O[C@H](c1ccc(O)c(O)c1)[C@H](O)C2
REMARK SMILES IDX 21 1 19 2 10 3 9 4 7 5 8 6 2 7 3 8 4 9 6 10 20 11 11 13
REMARK SMILES IDX 18 14 12 15 16 16 13 17 14 18 17 19 15 21 5 23 1 25
REMARK H PARENT 20 12 17 20 15 22 5 24 1 26
REMARK Flexibility Score: inf
ROOT
ATOM      1  C   UNL     1      -7.316 -14.967 -20.608  1.00  0.00     0.079 C 
ATOM      2  C   UNL     1      -8.858 -14.971 -20.551  1.00  0.00     0.164 C 
ATOM      3  C   UNL     1      -9.366 -14.761 -19.107  1.00  0.00     0.232 C 
ATOM      4  O   UNL     1      -8.843 -13.515 -18.644  1.00  0.00    -0.482 OA
ATOM      5  C   UNL     1      -7.513 -13.134 -18.869  1.00  0.00     0.131 A 
ATOM      6  C   UNL     1      -6.987 -12.054 -18.157  1.00  0.00     0.093 A 
ATOM      7  C   UNL     1      -5.658 -11.668 -18.343  1.00  0.00     0.122 A 
ATOM      8  C   UNL     1      -4.849 -12.371 -19.243  1.00  0.00     0.092 A 
ATOM      9  C   UNL     1      -5.361 -13.452 -19.969  1.00  0.00     0.126 A 
ATOM     10  C   UNL     1      -6.717 -13.825 -19.811  1.00  0.00     0.039 A 
ENDROOT
BRANCH   2  11
ATOM     11  O   UNL     1      -9.399 -16.136 -21.119  1.00  0.00    -0.389 OA
ATOM     12  H   UNL     1      -9.082 -16.170 -22.059  1.00  0.00     0.211 HD
ENDBRANCH   2  11
BRANCH   3  13
ATOM     13  C   UNL     1      -9.051 -15.844 -18.073  1.00  0.00    -0.001 A 
ATOM     14  C   UNL     1      -7.877 -16.630 -18.081  1.00  0.00     0.057 A 
ATOM     15  C   UNL     1     -10.029 -16.123 -17.098  1.00  0.00     0.012 A 
ATOM     16  C   UNL     1      -7.675 -17.629 -17.115  1.00  0.00     0.157 A 
ATOM     17  C   UNL     1      -9.827 -17.117 -16.138  1.00  0.00     0.050 A 
ATOM     18  C   UNL     1      -8.648 -17.869 -16.141  1.00  0.00     0.157 A 
BRANCH  16  19
ATOM     19  O   UNL     1      -6.506 -18.387 -17.120  1.00  0.00    -0.504 OA
ATOM     20  H   UNL     1      -6.470 -19.307 -17.546  1.00  0.00     0.293 HD
ENDBRANCH  16  19
BRANCH  18  21
ATOM     21  O   UNL     1      -8.440 -18.860 -15.184  1.00  0.00    -0.504 OA
ATOM     22  H   UNL     1      -8.502 -18.661 -14.192  1.00  0.00     0.293 HD
ENDBRANCH  18  21
ENDBRANCH   3  13
BRANCH   9  23
ATOM     23  O   UNL     1      -4.499 -14.135 -20.830  1.00  0.00    -0.507 OA
ATOM     24  H   UNL     1      -3.556 -14.400 -20.575  1.00  0.00     0.293 HD
ENDBRANCH   9  23
BRANCH   7  25
ATOM     25  O   UNL     1      -5.148 -10.590 -17.622  1.00  0.00    -0.508 OA
ATOM     26  H   UNL     1      -5.580  -9.675 -17.664  1.00  0.00     0.293 HD
ENDBRANCH   7  25
TORSDOF 6
ENDMDL
MODEL 4
REMARK VINA RESULT:    -2.933      1.623      2.447
REMARK INTER + INTRA:          -3.645
REMARK INTER:                  -3.622
REMARK INTRA:                  -0.024
REMARK UNBOUND:                -0.112
REMARK SMILES Oc1cc(O)c2c(c1)O[C@H](c1ccc(O)c(O)c1)[C@H](O)C2
REMARK SMILES IDX 21 1 19 2 10 3 9 4 7 5 8 6 2 7 3 8 4 9 6 10 20 11 11 13
REMARK SMILES IDX 18 14 12 15 16 16 13 17 14 18 17 19 15 21 5 23 1 25
REMARK H PARENT 20 12 17 20 15 22 5 24 1 26
REMARK Flexibility Score: inf
ROOT
ATOM      1  C   UNL     1      -8.266 -12.356 -18.327  1.00  0.00     0.079 C 
ATOM      2  C   UNL     1      -8.288 -11.324 -19.475  1.00  0.00     0.164 C 
ATOM      3  C   UNL     1      -7.521 -11.845 -20.711  1.00  0.00     0.232 C 
ATOM      4  O   UNL     1      -8.136 -13.069 -21.115  1.00  0.00    -0.482 OA
ATOM      5  C   UNL     1      -8.516 -14.053 -20.192  1.00  0.00     0.131 A 
ATOM      6  C   UNL     1      -8.842 -15.329 -20.656  1.00  0.00     0.093 A 
ATOM      7  C   UNL     1      -9.200 -16.336 -19.758  1.00  0.00     0.122 A 
ATOM      8  C   UNL     1      -9.227 -16.065 -18.385  1.00  0.00     0.092 A 
ATOM      9  C   UNL     1      -8.909 -14.790 -17.902  1.00  0.00     0.126 A 
ATOM     10  C   UNL     1      -8.580 -13.757 -18.811  1.00  0.00     0.039 A 
ENDROOT
BRANCH   2  11
ATOM     11  O   UNL     1      -7.805 -10.072 -19.062  1.00  0.00    -0.389 OA
ATOM     12  H   UNL     1      -6.888  -9.982 -19.433  1.00  0.00     0.211 HD
ENDBRANCH   2  11
BRANCH   3  13
ATOM     13  C   UNL     1      -6.014 -12.070 -20.575  1.00  0.00    -0.001 A 
ATOM     14  C   UNL     1      -5.356 -13.267 -20.932  1.00  0.00     0.057 A 
ATOM     15  C   UNL     1      -5.249 -11.043 -19.987  1.00  0.00     0.012 A 
ATOM     16  C   UNL     1      -3.972 -13.410 -20.747  1.00  0.00     0.157 A 
ATOM     17  C   UNL     1      -3.872 -11.186 -19.803  1.00  0.00     0.050 A 
ATOM     18  C   UNL     1      -3.229 -12.367 -20.186  1.00  0.00     0.157 A 
BRANCH  16  19
ATOM     19  O   UNL     1      -3.328 -14.589 -21.118  1.00  0.00    -0.504 OA
ATOM     20  H   UNL     1      -3.821 -15.336 -21.596  1.00  0.00     0.293 HD
ENDBRANCH  16  19
BRANCH  18  21
ATOM     21  O   UNL     1      -1.855 -12.513 -20.007  1.00  0.00    -0.504 OA
ATOM     22  H   UNL     1      -1.427 -12.429 -19.092  1.00  0.00     0.293 HD
ENDBRANCH  18  21
ENDBRANCH   3  13
BRANCH   9  23
ATOM     23  O   UNL     1      -8.923 -14.587 -16.521  1.00  0.00    -0.507 OA
ATOM     24  H   UNL     1      -9.414 -13.821 -16.078  1.00  0.00     0.293 HD
ENDBRANCH   9  23
BRANCH   7  25
ATOM     25  O   UNL     1      -9.520 -17.604 -20.238  1.00  0.00    -0.508 OA
ATOM     26  H   UNL     1      -8.972 -18.418 -19.989  1.00  0.00     0.293 HD
ENDBRANCH   7  25
TORSDOF 6
ENDMDL
