MODEL 1
REMARK VINA RESULT:    -3.261      0.000      0.000
REMARK INTER + INTRA:          -5.937
REMARK INTER:                  -4.977
REMARK INTRA:                  -0.959
REMARK UNBOUND:                -0.959
REMARK SMILES CCCCCCCCCCC(=O)[O-]
REMARK SMILES IDX 7 1 8 2 9 3 10 4 11 5 12 6 13 7 6 8 5 9 4 10 3 11 2 12 1 13
REMARK H PARENT
REMARK Flexibility Score: inf
ROOT
ATOM      1  C   UNL     1       5.868  -8.033   5.687  1.00  0.00     0.000 C 
ENDROOT
BRANCH   1   2
ATOM      2  C   UNL     1       4.490  -8.249   6.332  1.00  0.00     0.000 C 
BRANCH   2   3
ATOM      3  C   UNL     1       4.237  -9.718   6.709  1.00  0.00     0.006 C 
BRANCH   3   4
ATOM      4  C   UNL     1       3.187  -9.860   7.819  1.00  0.00     0.053 C 
BRANCH   4   5
ATOM      5  C   UNL     1       3.732  -9.463   9.157  1.00  0.00     0.041 C 
ATOM      6  O   UNL     1       4.873  -9.856   9.517  1.00  0.00    -0.550 OA
ATOM      7  O   UNL     1       2.968  -8.686  10.018  1.00  0.00    -0.550 OA
ENDBRANCH   4   5
ENDBRANCH   3   4
ENDBRANCH   2   3
ENDBRANCH   1   2
BRANCH   1   8
ATOM      8  C   UNL     1       6.529  -9.351   5.248  1.00  0.00     0.000 C 
BRANCH   8   9
ATOM      9  C   UNL     1       7.929  -9.541   5.855  1.00  0.00    -0.000 C 
BRANCH   9  10
ATOM     10  C   UNL     1       7.894  -9.689   7.386  1.00  0.00    -0.000 C 
BRANCH  10  11
ATOM     11  C   UNL     1       9.165  -9.122   8.054  1.00  0.00    -0.000 C 
BRANCH  11  12
ATOM     12  C   UNL     1       8.901  -7.877   8.917  1.00  0.00    -0.003 C 
ATOM     13  C   UNL     1       7.422  -7.501   8.990  1.00  0.00     0.004 C 
ENDBRANCH  11  12
ENDBRANCH  10  11
ENDBRANCH   9  10
ENDBRANCH   8   9
ENDBRANCH   1   8
TORSDOF 9
ENDMDL
MODEL 2
REMARK VINA RESULT:    -3.047      2.078      4.721
REMARK INTER + INTRA:          -5.609
REMARK INTER:                  -4.778
REMARK INTRA:                  -0.831
REMARK UNBOUND:                -0.959
REMARK SMILES CCCCCCCCCCC(=O)[O-]
REMARK SMILES IDX 7 1 8 2 9 3 10 4 11 5 12 6 13 7 6 8 5 9 4 10 3 11 2 12 1 13
REMARK H PARENT
REMARK Flexibility Score: inf
ROOT
ATOM      1  C   UNL     1       5.958  -7.860   5.720  1.00  0.00     0.000 C 
ENDROOT
BRANCH   1   2
ATOM      2  C   UNL     1       6.816  -9.082   5.357  1.00  0.00     0.000 C 
BRANCH   2   3
ATOM      3  C   UNL     1       7.396  -9.786   6.595  1.00  0.00     0.006 C 
BRANCH   3   4
ATOM      4  C   UNL     1       8.787  -9.252   6.967  1.00  0.00     0.053 C 
BRANCH   4   5
ATOM      5  C   UNL     1       8.810  -8.667   8.345  1.00  0.00     0.041 C 
ATOM      6  O   UNL     1       8.181  -7.605   8.592  1.00  0.00    -0.550 OA
ATOM      7  O   UNL     1       9.550  -9.278   9.349  1.00  0.00    -0.550 OA
ENDBRANCH   4   5
ENDBRANCH   3   4
ENDBRANCH   2   3
ENDBRANCH   1   2
BRANCH   1   8
ATOM      8  C   UNL     1       4.961  -8.152   6.855  1.00  0.00     0.000 C 
BRANCH   8   9
ATOM      9  C   UNL     1       3.785  -9.029   6.398  1.00  0.00    -0.000 C 
BRANCH   9  10
ATOM     10  C   UNL     1       3.429 -10.122   7.421  1.00  0.00    -0.000 C 
BRANCH  10  11
ATOM     11  C   UNL     1       3.971  -9.798   8.830  1.00  0.00    -0.000 C 
BRANCH  11  12
ATOM     12  C   UNL     1       2.897  -9.265   9.793  1.00  0.00    -0.003 C 
ATOM     13  C   UNL     1       1.566 -10.004   9.673  1.00  0.00     0.004 C 
ENDBRANCH  11  12
ENDBRANCH  10  11
ENDBRANCH   9  10
ENDBRANCH   8   9
ENDBRANCH   1   8
TORSDOF 9
ENDMDL
MODEL 3
REMARK VINA RESULT:    -2.937      2.002      4.383
REMARK INTER + INTRA:          -5.442
REMARK INTER:                  -4.478
REMARK INTRA:                  -0.963
REMARK UNBOUND:                -0.959
REMARK SMILES CCCCCCCCCCC(=O)[O-]
REMARK SMILES IDX 7 1 8 2 9 3 10 4 11 5 12 6 13 7 6 8 5 9 4 10 3 11 2 12 1 13
REMARK H PARENT
REMARK Flexibility Score: inf
ROOT
ATOM      1  C   UNL     1       3.734  -9.301   8.901  1.00  0.00     0.000 C 
ENDROOT
BRANCH   1   2
ATOM      2  C   UNL     1       4.972  -9.787   9.672  1.00  0.00     0.000 C 
BRANCH   2   3
ATOM      3  C   UNL     1       5.939  -8.643  10.019  1.00  0.00     0.006 C 
BRANCH   3   4
ATOM      4  C   UNL     1       7.406  -9.037   9.800  1.00  0.00     0.053 C 
BRANCH   4   5
ATOM      5  C   UNL     1       8.144  -8.015   8.991  1.00  0.00     0.041 C 
ATOM      6  O   UNL     1       7.546  -6.991   8.568  1.00  0.00    -0.550 OA
ATOM      7  O   UNL     1       9.482  -8.210   8.677  1.00  0.00    -0.550 OA
ENDBRANCH   4   5
ENDBRANCH   3   4
ENDBRANCH   2   3
ENDBRANCH   1   2
BRANCH   1   8
ATOM      8  C   UNL     1       3.498 -10.092   7.602  1.00  0.00     0.000 C 
BRANCH   8   9
ATOM      9  C   UNL     1       3.859  -9.283   6.345  1.00  0.00    -0.000 C 
BRANCH   9  10
ATOM     10  C   UNL     1       4.696  -8.032   6.667  1.00  0.00    -0.000 C 
BRANCH  10  11
ATOM     11  C   UNL     1       5.915  -7.892   5.730  1.00  0.00    -0.000 C 
BRANCH  11  12
ATOM     12  C   UNL     1       6.422  -9.234   5.177  1.00  0.00    -0.003 C 
ATOM     13  C   UNL     1       7.691  -9.726   5.871  1.00  0.00     0.004 C 
ENDBRANCH  11  12
ENDBRANCH  10  11
ENDBRANCH   9  10
ENDBRANCH   8   9
ENDBRANCH   1   8
TORSDOF 9
ENDMDL
MODEL 4
REMARK VINA RESULT:    -2.930      2.214      3.621
REMARK INTER + INTRA:          -5.432
REMARK INTER:                  -4.562
REMARK INTRA:                  -0.870
REMARK UNBOUND:                -0.959
REMARK SMILES CCCCCCCCCCC(=O)[O-]
REMARK SMILES IDX 7 1 8 2 9 3 10 4 11 5 12 6 13 7 6 8 5 9 4 10 3 11 2 12 1 13
REMARK H PARENT
REMARK Flexibility Score: inf
ROOT
ATOM      1  C   UNL     1       4.540  -9.047   9.094  1.00  0.00     0.000 C 
ENDROOT
BRANCH   1   2
ATOM      2  C   UNL     1       5.045 -10.059   8.053  1.00  0.00     0.000 C 
BRANCH   2   3
ATOM      3  C   UNL     1       4.203 -10.054   6.767  1.00  0.00     0.006 C 
BRANCH   3   4
ATOM      4  C   UNL     1       4.084  -8.650   6.157  1.00  0.00     0.053 C 
BRANCH   4   5
ATOM      5  C   UNL     1       5.409  -8.134   5.686  1.00  0.00     0.041 C 
ATOM      6  O   UNL     1       5.786  -6.976   6.005  1.00  0.00    -0.550 OA
ATOM      7  O   UNL     1       6.212  -8.919   4.868  1.00  0.00    -0.550 OA
ENDBRANCH   4   5
ENDBRANCH   3   4
ENDBRANCH   2   3
ENDBRANCH   1   2
BRANCH   1   8
ATOM      8  C   UNL     1       5.619  -8.670  10.125  1.00  0.00     0.000 C 
BRANCH   8   9
ATOM      9  C   UNL     1       7.008  -9.215   9.753  1.00  0.00    -0.000 C 
BRANCH   9  10
ATOM     10  C   UNL     1       8.121  -8.167   9.928  1.00  0.00    -0.000 C 
BRANCH  10  11
ATOM     11  C   UNL     1       9.113  -8.169   8.746  1.00  0.00    -0.000 C 
BRANCH  11  12
ATOM     12  C   UNL     1       8.576  -8.888   7.496  1.00  0.00    -0.003 C 
ATOM     13  C   UNL     1       9.684  -9.459   6.613  1.00  0.00     0.004 C 
ENDBRANCH  11  12
ENDBRANCH  10  11
ENDBRANCH   9  10
ENDBRANCH   8   9
ENDBRANCH   1   8
TORSDOF 9
ENDMDL
MODEL 5
REMARK VINA RESULT:    -2.905      2.189      3.584
REMARK INTER + INTRA:          -5.392
REMARK INTER:                  -4.543
REMARK INTRA:                  -0.850
REMARK UNBOUND:                -0.959
REMARK SMILES CCCCCCCCCCC(=O)[O-]
REMARK SMILES IDX 7 1 8 2 9 3 10 4 11 5 12 6 13 7 6 8 5 9 4 10 3 11 2 12 1 13
REMARK H PARENT
REMARK Flexibility Score: inf
ROOT
ATOM      1  C   UNL     1       3.616  -9.761   7.941  1.00  0.00     0.000 C 
ENDROOT
BRANCH   1   2
ATOM      2  C   UNL     1       3.953  -9.061   6.615  1.00  0.00     0.000 C 
BRANCH   2   3
ATOM      3  C   UNL     1       5.192  -9.661   5.928  1.00  0.00     0.006 C 
BRANCH   3   4
ATOM      4  C   UNL     1       6.313  -8.629   5.751  1.00  0.00     0.053 C 
BRANCH   4   5
ATOM      5  C   UNL     1       5.822  -7.230   5.964  1.00  0.00     0.041 C 
ATOM      6  O   UNL     1       5.217  -6.625   5.040  1.00  0.00    -0.550 OA
ATOM      7  O   UNL     1       6.060  -6.584   7.170  1.00  0.00    -0.550 OA
ENDBRANCH   4   5
ENDBRANCH   3   4
ENDBRANCH   2   3
ENDBRANCH   1   2
BRANCH   1   8
ATOM      8  C   UNL     1       4.200  -9.028   9.162  1.00  0.00     0.000 C 
BRANCH   8   9
ATOM      9  C   UNL     1       5.239  -9.872   9.917  1.00  0.00    -0.000 C 
BRANCH   9  10
ATOM     10  C   UNL     1       6.659  -9.710   9.346  1.00  0.00    -0.000 C 
BRANCH  10  11
ATOM     11  C   UNL     1       7.342  -8.419   9.846  1.00  0.00    -0.000 C 
BRANCH  11  12
ATOM     12  C   UNL     1       8.492  -7.944   8.941  1.00  0.00    -0.003 C 
ATOM     13  C   UNL     1       9.165  -9.084   8.179  1.00  0.00     0.004 C 
ENDBRANCH  11  12
ENDBRANCH  10  11
ENDBRANCH   9  10
ENDBRANCH   8   9
ENDBRANCH   1   8
TORSDOF 9
ENDMDL
MODEL 6
REMARK VINA RESULT:    -2.873      2.145      4.424
REMARK INTER + INTRA:          -5.345
REMARK INTER:                  -4.310
REMARK INTRA:                  -1.035
REMARK UNBOUND:                -0.959
REMARK SMILES CCCCCCCCCCC(=O)[O-]
REMARK SMILES IDX 7 1 8 2 9 3 10 4 11 5 12 6 13 7 6 8 5 9 4 10 3 11 2 12 1 13
REMARK H PARENT
REMARK Flexibility Score: inf
ROOT
ATOM      1  C   UNL     1       6.099  -7.876   5.835  1.00  0.00     0.000 C 
ENDROOT
BRANCH   1   2
ATOM      2  C   UNL     1       6.577  -9.237   5.303  1.00  0.00     0.000 C 
BRANCH   2   3
ATOM      3  C   UNL     1       7.382 -10.030   6.347  1.00  0.00     0.006 C 
BRANCH   3   4
ATOM      4  C   UNL     1       8.731  -9.370   6.662  1.00  0.00     0.053 C 
BRANCH   4   5
ATOM      5  C   UNL     1       8.840  -8.987   8.106  1.00  0.00     0.041 C 
ATOM      6  O   UNL     1       8.353  -7.899   8.511  1.00  0.00    -0.550 OA
ATOM      7  O   UNL     1       9.506  -9.818   8.999  1.00  0.00    -0.550 OA
ENDBRANCH   4   5
ENDBRANCH   3   4
ENDBRANCH   2   3
ENDBRANCH   1   2
BRANCH   1   8
ATOM      8  C   UNL     1       4.946  -8.008   6.847  1.00  0.00     0.000 C 
BRANCH   8   9
ATOM      9  C   UNL     1       3.867  -9.000   6.386  1.00  0.00    -0.000 C 
BRANCH   9  10
ATOM     10  C   UNL     1       3.503 -10.026   7.474  1.00  0.00    -0.000 C 
BRANCH  10  11
ATOM     11  C   UNL     1       3.393  -9.378   8.871  1.00  0.00    -0.000 C 
BRANCH  11  12
ATOM     12  C   UNL     1       4.191 -10.121   9.956  1.00  0.00    -0.003 C 
ATOM     13  C   UNL     1       5.696 -10.125   9.695  1.00  0.00     0.004 C 
ENDBRANCH  11  12
ENDBRANCH  10  11
ENDBRANCH   9  10
ENDBRANCH   8   9
ENDBRANCH   1   8
TORSDOF 9
ENDMDL
MODEL 7
REMARK VINA RESULT:    -2.841      2.244      3.742
REMARK INTER + INTRA:          -5.295
REMARK INTER:                  -4.415
REMARK INTRA:                  -0.879
REMARK UNBOUND:                -0.959
REMARK SMILES CCCCCCCCCCC(=O)[O-]
REMARK SMILES IDX 7 1 8 2 9 3 10 4 11 5 12 6 13 7 6 8 5 9 4 10 3 11 2 12 1 13
REMARK H PARENT
REMARK Flexibility Score: inf
ROOT
ATOM      1  C   UNL     1       3.876  -9.074   8.360  1.00  0.00     0.000 C 
ENDROOT
BRANCH   1   2
ATOM      2  C   UNL     1       4.026  -9.459   6.880  1.00  0.00     0.000 C 
BRANCH   2   3
ATOM      3  C   UNL     1       4.425  -8.265   5.996  1.00  0.00     0.006 C 
BRANCH   3   4
ATOM      4  C   UNL     1       5.947  -8.116   5.875  1.00  0.00     0.053 C 
BRANCH   4   5
ATOM      5  C   UNL     1       6.591  -9.368   5.364  1.00  0.00     0.041 C 
ATOM      6  O   UNL     1       6.375  -9.755   4.185  1.00  0.00    -0.550 OA
ATOM      7  O   UNL     1       7.404 -10.124   6.198  1.00  0.00    -0.550 OA
ENDBRANCH   4   5
ENDBRANCH   3   4
ENDBRANCH   2   3
ENDBRANCH   1   2
BRANCH   1   8
ATOM      8  C   UNL     1       4.483 -10.123   9.310  1.00  0.00     0.000 C 
BRANCH   8   9
ATOM      9  C   UNL     1       5.978  -9.885   9.574  1.00  0.00    -0.000 C 
BRANCH   9  10
ATOM     10  C   UNL     1       6.369  -8.400   9.460  1.00  0.00    -0.000 C 
BRANCH  10  11
ATOM     11  C   UNL     1       7.750  -8.114  10.086  1.00  0.00    -0.000 C 
BRANCH  11  12
ATOM     12  C   UNL     1       8.798  -7.629   9.069  1.00  0.00    -0.003 C 
ATOM     13  C   UNL     1       9.588  -8.771   8.433  1.00  0.00     0.004 C 
ENDBRANCH  11  12
ENDBRANCH  10  11
ENDBRANCH   9  10
ENDBRANCH   8   9
ENDBRANCH   1   8
TORSDOF 9
ENDMDL
MODEL 8
REMARK VINA RESULT:    -2.720      2.599      4.638
REMARK INTER + INTRA:          -5.110
REMARK INTER:                  -4.295
REMARK INTRA:                  -0.815
REMARK UNBOUND:                -0.959
REMARK SMILES CCCCCCCCCCC(=O)[O-]
REMARK SMILES IDX 7 1 8 2 9 3 10 4 11 5 12 6 13 7 6 8 5 9 4 10 3 11 2 12 1 13
REMARK H PARENT
REMARK Flexibility Score: inf
ROOT
ATOM      1  C   UNL     1       5.590  -7.508   6.772  1.00  0.00     0.000 C 
ENDROOT
BRANCH   1   2
ATOM      2  C   UNL     1       6.798  -6.936   7.532  1.00  0.00     0.000 C 
BRANCH   2   3
ATOM      3  C   UNL     1       7.221  -7.817   8.719  1.00  0.00     0.006 C 
BRANCH   3   4
ATOM      4  C   UNL     1       8.746  -7.881   8.878  1.00  0.00     0.053 C 
BRANCH   4   5
ATOM      5  C   UNL     1       9.321  -9.113   8.250  1.00  0.00     0.041 C 
ATOM      6  O   UNL     1       9.232  -9.289   7.007  1.00  0.00    -0.550 OA
ATOM      7  O   UNL     1       9.928 -10.080   9.041  1.00  0.00    -0.550 OA
ENDBRANCH   4   5
ENDBRANCH   3   4
ENDBRANCH   2   3
ENDBRANCH   1   2
BRANCH   1   8
ATOM      8  C   UNL     1       6.002  -8.451   5.628  1.00  0.00     0.000 C 
BRANCH   8   9
ATOM      9  C   UNL     1       5.519  -9.893   5.850  1.00  0.00    -0.000 C 
BRANCH   9  10
ATOM     10  C   UNL     1       4.954 -10.118   7.264  1.00  0.00    -0.000 C 
BRANCH  10  11
ATOM     11  C   UNL     1       3.411 -10.125   7.279  1.00  0.00    -0.000 C 
BRANCH  11  12
ATOM     12  C   UNL     1       2.809  -9.836   8.664  1.00  0.00    -0.003 C 
ATOM     13  C   UNL     1       3.763  -9.075   9.584  1.00  0.00     0.004 C 
ENDBRANCH  11  12
ENDBRANCH  10  11
ENDBRANCH   9  10
ENDBRANCH   8   9
ENDBRANCH   1   8
TORSDOF 9
ENDMDL
MODEL 9
REMARK VINA RESULT:    -2.386      2.383      4.505
REMARK INTER + INTRA:          -4.601
REMARK INTER:                  -3.735
REMARK INTRA:                  -0.866
REMARK UNBOUND:                -0.959
REMARK SMILES CCCCCCCCCCC(=O)[O-]
REMARK SMILES IDX 7 1 8 2 9 3 10 4 11 5 12 6 13 7 6 8 5 9 4 10 3 11 2 12 1 13
REMARK H PARENT
REMARK Flexibility Score: inf
ROOT
ATOM      1  C   UNL     1       4.944  -8.627   9.108  1.00  0.00     0.000 C 
ENDROOT
BRANCH   1   2
ATOM      2  C   UNL     1       6.043  -9.104  10.071  1.00  0.00     0.000 C 
BRANCH   2   3
ATOM      3  C   UNL     1       7.008 -10.107   9.416  1.00  0.00     0.006 C 
BRANCH   3   4
ATOM      4  C   UNL     1       8.473  -9.666   9.539  1.00  0.00     0.053 C 
BRANCH   4   5
ATOM      5  C   UNL     1       8.841  -8.658   8.494  1.00  0.00     0.041 C 
ATOM      6  O   UNL     1       8.628  -7.434   8.693  1.00  0.00    -0.550 OA
ATOM      7  O   UNL     1       9.392  -9.074   7.289  1.00  0.00    -0.550 OA
ENDBRANCH   4   5
ENDBRANCH   3   4
ENDBRANCH   2   3
ENDBRANCH   1   2
BRANCH   1   8
ATOM      8  C   UNL     1       4.161  -9.793   8.478  1.00  0.00     0.000 C 
BRANCH   8   9
ATOM      9  C   UNL     1       3.781  -9.524   7.013  1.00  0.00    -0.000 C 
BRANCH   9  10
ATOM     10  C   UNL     1       4.879  -9.960   6.027  1.00  0.00    -0.000 C 
BRANCH  10  11
ATOM     11  C   UNL     1       6.033  -8.938   5.952  1.00  0.00    -0.000 C 
BRANCH  11  12
ATOM     12  C   UNL     1       5.570  -7.515   5.594  1.00  0.00    -0.003 C 
ATOM     13  C   UNL     1       5.985  -6.472   6.631  1.00  0.00     0.004 C 
ENDBRANCH  11  12
ENDBRANCH  10  11
ENDBRANCH   9  10
ENDBRANCH   8   9
ENDBRANCH   1   8
TORSDOF 9
ENDMDL
