MODEL 1
REMARK VINA RESULT:    -4.478      0.000      0.000
REMARK INTER + INTRA:          -5.607
REMARK INTER:                  -5.525
REMARK INTRA:                  -0.082
REMARK UNBOUND:                -0.082
REMARK SMILES CCCCCC(=O)[O-]
REMARK SMILES IDX 4 1 5 2 6 3 7 4 8 5 3 6 2 7 1 8
REMARK H PARENT
REMARK Flexibility Score: inf
ROOT
ATOM      1  C   UNL     1      -1.028  10.524 -38.259  1.00  0.00     0.006 C 
ENDROOT
BRANCH   1   2
ATOM      2  C   UNL     1      -0.607   9.053 -38.370  1.00  0.00     0.053 C 
BRANCH   2   3
ATOM      3  C   UNL     1      -1.472   8.335 -39.358  1.00  0.00     0.041 C 
ATOM      4  O   UNL     1      -2.676   8.673 -39.506  1.00  0.00    -0.550 OA
ATOM      5  O   UNL     1      -0.936   7.326 -40.148  1.00  0.00    -0.550 OA
ENDBRANCH   2   3
ENDBRANCH   1   2
BRANCH   1   6
ATOM      6  C   UNL     1       0.148  11.451 -37.914  1.00  0.00     0.000 C 
BRANCH   6   7
ATOM      7  C   UNL     1      -0.312  12.843 -37.458  1.00  0.00    -0.003 C 
ATOM      8  C   UNL     1      -1.315  12.741 -36.313  1.00  0.00     0.004 C 
ENDBRANCH   6   7
ENDBRANCH   1   6
TORSDOF 4
ENDMDL
MODEL 2
REMARK VINA RESULT:    -4.412      3.080      4.827
REMARK INTER + INTRA:          -5.525
REMARK INTER:                  -5.473
REMARK INTRA:                  -0.052
REMARK UNBOUND:                -0.082
REMARK SMILES CCCCCC(=O)[O-]
REMARK SMILES IDX 4 1 5 2 6 3 7 4 8 5 3 6 2 7 1 8
REMARK H PARENT
REMARK Flexibility Score: inf
ROOT
ATOM      1  C   UNL     1      -1.313  10.497 -38.239  1.00  0.00     0.006 C 
ENDROOT
BRANCH   1   2
ATOM      2  C   UNL     1      -0.303  11.592 -37.870  1.00  0.00     0.053 C 
BRANCH   2   3
ATOM      3  C   UNL     1      -0.997  12.741 -37.208  1.00  0.00     0.041 C 
ATOM      4  O   UNL     1      -1.069  13.856 -37.787  1.00  0.00    -0.550 OA
ATOM      5  O   UNL     1      -1.606  12.565 -35.972  1.00  0.00    -0.550 OA
ENDBRANCH   2   3
ENDBRANCH   1   2
BRANCH   1   6
ATOM      6  C   UNL     1      -0.644   9.135 -38.484  1.00  0.00     0.000 C 
BRANCH   6   7
ATOM      7  C   UNL     1      -1.496   8.210 -39.364  1.00  0.00    -0.003 C 
ATOM      8  C   UNL     1      -0.639   7.503 -40.409  1.00  0.00     0.004 C 
ENDBRANCH   6   7
ENDBRANCH   1   6
TORSDOF 4
ENDMDL
MODEL 3
REMARK VINA RESULT:    -4.297      2.684      4.716
REMARK INTER + INTRA:          -5.384
REMARK INTER:                  -5.319
REMARK INTRA:                  -0.065
REMARK UNBOUND:                -0.082
REMARK SMILES CCCCCC(=O)[O-]
REMARK SMILES IDX 4 1 5 2 6 3 7 4 8 5 3 6 2 7 1 8
REMARK H PARENT
REMARK Flexibility Score: inf
ROOT
ATOM      1  C   UNL     1      -0.630   9.169 -38.592  1.00  0.00     0.006 C 
ENDROOT
BRANCH   1   2
ATOM      2  C   UNL     1      -1.302  10.511 -38.274  1.00  0.00     0.053 C 
BRANCH   2   3
ATOM      3  C   UNL     1      -0.283  11.513 -37.827  1.00  0.00     0.041 C 
ATOM      4  O   UNL     1      -0.625  12.480 -37.098  1.00  0.00    -0.550 OA
ATOM      5  O   UNL     1       1.051  11.350 -38.177  1.00  0.00    -0.550 OA
ENDBRANCH   2   3
ENDBRANCH   1   2
BRANCH   1   6
ATOM      6  C   UNL     1      -1.462   8.304 -39.552  1.00  0.00     0.000 C 
BRANCH   6   7
ATOM      7  C   UNL     1      -0.677   7.100 -40.092  1.00  0.00    -0.003 C 
ATOM      8  C   UNL     1       0.042   7.451 -41.391  1.00  0.00     0.004 C 
ENDBRANCH   6   7
ENDBRANCH   1   6
TORSDOF 4
ENDMDL
MODEL 4
REMARK VINA RESULT:    -4.176      2.398      3.746
REMARK INTER + INTRA:          -5.235
REMARK INTER:                  -5.165
REMARK INTRA:                  -0.069
REMARK UNBOUND:                -0.082
REMARK SMILES CCCCCC(=O)[O-]
REMARK SMILES IDX 4 1 5 2 6 3 7 4 8 5 3 6 2 7 1 8
REMARK H PARENT
REMARK Flexibility Score: inf
ROOT
ATOM      1  C   UNL     1      -0.970   7.296 -39.973  1.00  0.00     0.006 C 
ENDROOT
BRANCH   1   2
ATOM      2  C   UNL     1      -0.099   7.486 -41.221  1.00  0.00     0.053 C 
BRANCH   2   3
ATOM      3  C   UNL     1       0.557   6.196 -41.602  1.00  0.00     0.041 C 
ATOM      4  O   UNL     1       1.557   6.197 -42.367  1.00  0.00    -0.550 OA
ATOM      5  O   UNL     1       0.094   4.998 -41.073  1.00  0.00    -0.550 OA
ENDBRANCH   2   3
ENDBRANCH   1   2
BRANCH   1   6
ATOM      6  C   UNL     1      -1.527   8.622 -39.432  1.00  0.00     0.000 C 
BRANCH   6   7
ATOM      7  C   UNL     1      -0.616   9.257 -38.372  1.00  0.00    -0.003 C 
ATOM      8  C   UNL     1      -0.887  10.752 -38.239  1.00  0.00     0.004 C 
ENDBRANCH   6   7
ENDBRANCH   1   6
TORSDOF 4
ENDMDL
MODEL 5
REMARK VINA RESULT:    -4.170      2.933      4.282
REMARK INTER + INTRA:          -5.227
REMARK INTER:                  -5.167
REMARK INTRA:                  -0.060
REMARK UNBOUND:                -0.082
REMARK SMILES CCCCCC(=O)[O-]
REMARK SMILES IDX 4 1 5 2 6 3 7 4 8 5 3 6 2 7 1 8
REMARK H PARENT
REMARK Flexibility Score: inf
ROOT
ATOM      1  C   UNL     1      -1.811   9.724 -38.219  1.00  0.00     0.006 C 
ENDROOT
BRANCH   1   2
ATOM      2  C   UNL     1      -0.326  10.040 -38.444  1.00  0.00     0.053 C 
BRANCH   2   3
ATOM      3  C   UNL     1      -0.009  11.423 -37.967  1.00  0.00     0.041 C 
ATOM      4  O   UNL     1      -0.872  12.087 -37.333  1.00  0.00    -0.550 OA
ATOM      5  O   UNL     1       1.254  11.959 -38.179  1.00  0.00    -0.550 OA
ENDBRANCH   2   3
ENDBRANCH   1   2
BRANCH   1   6
ATOM      6  C   UNL     1      -2.378   8.765 -39.279  1.00  0.00     0.000 C 
BRANCH   6   7
ATOM      7  C   UNL     1      -3.666   9.295 -39.924  1.00  0.00    -0.003 C 
ATOM      8  C   UNL     1      -4.894   8.876 -39.122  1.00  0.00     0.004 C 
ENDBRANCH   6   7
ENDBRANCH   1   6
TORSDOF 4
ENDMDL
MODEL 6
REMARK VINA RESULT:    -4.102      3.111      5.459
REMARK INTER + INTRA:          -5.143
REMARK INTER:                  -5.092
REMARK INTRA:                  -0.051
REMARK UNBOUND:                -0.082
REMARK SMILES CCCCCC(=O)[O-]
REMARK SMILES IDX 4 1 5 2 6 3 7 4 8 5 3 6 2 7 1 8
REMARK H PARENT
REMARK Flexibility Score: inf
ROOT
ATOM      1  C   UNL     1      -0.240   7.510 -40.879  1.00  0.00     0.006 C 
ENDROOT
BRANCH   1   2
ATOM      2  C   UNL     1      -1.179   7.399 -39.670  1.00  0.00     0.053 C 
BRANCH   2   3
ATOM      3  C   UNL     1      -1.475   8.756 -39.113  1.00  0.00     0.041 C 
ATOM      4  O   UNL     1      -2.621   9.260 -39.251  1.00  0.00    -0.550 OA
ATOM      5  O   UNL     1      -0.501   9.443 -38.400  1.00  0.00    -0.550 OA
ENDBRANCH   2   3
ENDBRANCH   1   2
BRANCH   1   6
ATOM      6  C   UNL     1       0.263   6.142 -41.364  1.00  0.00     0.000 C 
BRANCH   6   7
ATOM      7  C   UNL     1       1.514   6.252 -42.247  1.00  0.00    -0.003 C 
ATOM      8  C   UNL     1       2.646   5.383 -41.707  1.00  0.00     0.004 C 
ENDBRANCH   6   7
ENDBRANCH   1   6
TORSDOF 4
ENDMDL
MODEL 7
REMARK VINA RESULT:    -4.096      3.349      4.499
REMARK INTER + INTRA:          -5.136
REMARK INTER:                  -5.074
REMARK INTRA:                  -0.061
REMARK UNBOUND:                -0.082
REMARK SMILES CCCCCC(=O)[O-]
REMARK SMILES IDX 4 1 5 2 6 3 7 4 8 5 3 6 2 7 1 8
REMARK H PARENT
REMARK Flexibility Score: inf
ROOT
ATOM      1  C   UNL     1      -3.967   9.341 -39.884  1.00  0.00     0.006 C 
ENDROOT
BRANCH   1   2
ATOM      2  C   UNL     1      -5.045   8.929 -38.872  1.00  0.00     0.053 C 
BRANCH   2   3
ATOM      3  C   UNL     1      -6.400   8.969 -39.508  1.00  0.00     0.041 C 
ATOM      4  O   UNL     1      -6.999   7.898 -39.788  1.00  0.00    -0.550 OA
ATOM      5  O   UNL     1      -7.021  10.189 -39.744  1.00  0.00    -0.550 OA
ENDBRANCH   2   3
ENDBRANCH   1   2
BRANCH   1   6
ATOM      6  C   UNL     1      -2.551   8.954 -39.429  1.00  0.00     0.000 C 
BRANCH   6   7
ATOM      7  C   UNL     1      -2.107   9.715 -38.172  1.00  0.00    -0.003 C 
ATOM      8  C   UNL     1      -0.705  10.292 -38.347  1.00  0.00     0.004 C 
ENDBRANCH   6   7
ENDBRANCH   1   6
TORSDOF 4
ENDMDL
MODEL 8
REMARK VINA RESULT:    -3.927      6.262      7.521
REMARK INTER + INTRA:          -4.927
REMARK INTER:                  -4.856
REMARK INTRA:                  -0.071
REMARK UNBOUND:                -0.082
REMARK SMILES CCCCCC(=O)[O-]
REMARK SMILES IDX 4 1 5 2 6 3 7 4 8 5 3 6 2 7 1 8
REMARK H PARENT
REMARK Flexibility Score: inf
ROOT
ATOM      1  C   UNL     1      -7.301   7.253 -40.521  1.00  0.00     0.006 C 
ENDROOT
BRANCH   1   2
ATOM      2  C   UNL     1      -7.791   5.882 -40.034  1.00  0.00     0.053 C 
BRANCH   2   3
ATOM      3  C   UNL     1      -8.126   5.004 -41.199  1.00  0.00     0.041 C 
ATOM      4  O   UNL     1      -7.735   5.311 -42.355  1.00  0.00    -0.550 OA
ATOM      5  O   UNL     1      -8.828   3.822 -40.998  1.00  0.00    -0.550 OA
ENDBRANCH   2   3
ENDBRANCH   1   2
BRANCH   1   6
ATOM      6  C   UNL     1      -7.179   8.276 -39.380  1.00  0.00     0.000 C 
BRANCH   6   7
ATOM      7  C   UNL     1      -5.767   8.322 -38.778  1.00  0.00    -0.003 C 
ATOM      8  C   UNL     1      -4.839   9.190 -39.622  1.00  0.00     0.004 C 
ENDBRANCH   6   7
ENDBRANCH   1   6
TORSDOF 4
ENDMDL
MODEL 9
REMARK VINA RESULT:    -3.796      3.659      5.346
REMARK INTER + INTRA:          -4.766
REMARK INTER:                  -4.703
REMARK INTRA:                  -0.062
REMARK UNBOUND:                -0.082
REMARK SMILES CCCCCC(=O)[O-]
REMARK SMILES IDX 4 1 5 2 6 3 7 4 8 5 3 6 2 7 1 8
REMARK H PARENT
REMARK Flexibility Score: inf
ROOT
ATOM      1  C   UNL     1      -4.505   8.893 -39.000  1.00  0.00     0.006 C 
ENDROOT
BRANCH   1   2
ATOM      2  C   UNL     1      -3.298   9.319 -39.846  1.00  0.00     0.053 C 
BRANCH   2   3
ATOM      3  C   UNL     1      -2.021   8.950 -39.157  1.00  0.00     0.041 C 
ATOM      4  O   UNL     1      -1.449   7.861 -39.426  1.00  0.00    -0.550 OA
ATOM      5  O   UNL     1      -1.438   9.831 -38.255  1.00  0.00    -0.550 OA
ENDBRANCH   2   3
ENDBRANCH   1   2
BRANCH   1   6
ATOM      6  C   UNL     1      -5.845   9.278 -39.647  1.00  0.00     0.000 C 
BRANCH   6   7
ATOM      7  C   UNL     1      -7.016   8.435 -39.123  1.00  0.00    -0.003 C 
ATOM      8  C   UNL     1      -7.322   7.274 -40.065  1.00  0.00     0.004 C 
ENDBRANCH   6   7
ENDBRANCH   1   6
TORSDOF 4
ENDMDL
