MODEL 1
REMARK VINA RESULT:    -3.827      0.000      0.000
REMARK INTER + INTRA:          -8.379
REMARK INTER:                  -6.512
REMARK INTRA:                  -1.867
REMARK UNBOUND:                -1.867
REMARK SMILES CCCCCCCCCCCCCC(=O)[O-]
REMARK SMILES IDX 8 1 9 2 10 3 11 4 12 5 13 6 14 7 15 8 16 9 7 10 6 11 5 12
REMARK SMILES IDX 4 13 3 14 2 15 1 16
REMARK H PARENT
REMARK Flexibility Score: inf
ROOT
ATOM      1  C   UNL     1       6.849 -19.821  24.156  1.00  0.00     0.000 C 
ENDROOT
BRANCH   1   2
ATOM      2  C   UNL     1       6.814 -18.374  24.680  1.00  0.00     0.000 C 
BRANCH   2   3
ATOM      3  C   UNL     1       6.511 -17.297  23.619  1.00  0.00     0.000 C 
BRANCH   3   4
ATOM      4  C   UNL     1       7.743 -16.565  23.058  1.00  0.00     0.000 C 
BRANCH   4   5
ATOM      5  C   UNL     1       7.729 -15.056  23.357  1.00  0.00     0.006 C 
BRANCH   5   6
ATOM      6  C   UNL     1       8.644 -14.690  24.533  1.00  0.00     0.053 C 
BRANCH   6   7
ATOM      7  C   UNL     1      10.050 -15.160  24.315  1.00  0.00     0.041 C 
ATOM      8  O   UNL     1      10.744 -14.670  23.386  1.00  0.00    -0.550 OA
ATOM      9  O   UNL     1      10.602 -16.116  25.157  1.00  0.00    -0.550 OA
ENDBRANCH   6   7
ENDBRANCH   5   6
ENDBRANCH   4   5
ENDBRANCH   3   4
ENDBRANCH   2   3
ENDBRANCH   1   2
BRANCH   1  10
ATOM     10  C   UNL     1       6.150 -19.979  22.795  1.00  0.00     0.000 C 
BRANCH  10  11
ATOM     11  C   UNL     1       7.056 -20.637  21.740  1.00  0.00    -0.000 C 
BRANCH  11  12
ATOM     12  C   UNL     1       7.504 -19.655  20.648  1.00  0.00    -0.000 C 
BRANCH  12  13
ATOM     13  C   UNL     1       8.961 -19.223  20.862  1.00  0.00    -0.000 C 
BRANCH  13  14
ATOM     14  C   UNL     1       9.668 -20.145  21.861  1.00  0.00    -0.000 C 
BRANCH  14  15
ATOM     15  C   UNL     1      10.452 -19.334  22.900  1.00  0.00    -0.003 C 
ATOM     16  C   UNL     1      11.122 -18.121  22.261  1.00  0.00     0.004 C 
ENDBRANCH  14  15
ENDBRANCH  13  14
ENDBRANCH  12  13
ENDBRANCH  11  12
ENDBRANCH  10  11
ENDBRANCH   1  10
TORSDOF 12
ENDMDL
MODEL 2
REMARK VINA RESULT:    -3.809      3.109      5.479
REMARK INTER + INTRA:          -8.348
REMARK INTER:                  -6.931
REMARK INTRA:                  -1.418
REMARK UNBOUND:                -1.867
REMARK SMILES CCCCCCCCCCCCCC(=O)[O-]
REMARK SMILES IDX 8 1 9 2 10 3 11 4 12 5 13 6 14 7 15 8 16 9 7 10 6 11 5 12
REMARK SMILES IDX 4 13 3 14 2 15 1 16
REMARK H PARENT
REMARK Flexibility Score: inf
ROOT
ATOM      1  C   UNL     1       7.020 -16.671  22.584  1.00  0.00     0.000 C 
ENDROOT
BRANCH   1   2
ATOM      2  C   UNL     1       6.363 -17.298  23.827  1.00  0.00     0.000 C 
BRANCH   2   3
ATOM      3  C   UNL     1       6.772 -18.754  24.125  1.00  0.00     0.000 C 
BRANCH   3   4
ATOM      4  C   UNL     1       6.344 -19.785  23.064  1.00  0.00     0.000 C 
BRANCH   4   5
ATOM      5  C   UNL     1       7.513 -20.252  22.181  1.00  0.00     0.006 C 
BRANCH   5   6
ATOM      6  C   UNL     1       7.170 -21.522  21.390  1.00  0.00     0.053 C 
BRANCH   6   7
ATOM      7  C   UNL     1       8.335 -22.013  20.587  1.00  0.00     0.041 C 
ATOM      8  O   UNL     1       8.647 -21.440  19.510  1.00  0.00    -0.550 OA
ATOM      9  O   UNL     1       9.094 -23.082  21.043  1.00  0.00    -0.550 OA
ENDBRANCH   6   7
ENDBRANCH   5   6
ENDBRANCH   4   5
ENDBRANCH   3   4
ENDBRANCH   2   3
ENDBRANCH   1   2
BRANCH   1  10
ATOM     10  C   UNL     1       7.524 -15.240  22.834  1.00  0.00     0.000 C 
BRANCH  10  11
ATOM     11  C   UNL     1       8.268 -15.101  24.173  1.00  0.00    -0.000 C 
BRANCH  11  12
ATOM     12  C   UNL     1       9.723 -14.645  23.999  1.00  0.00    -0.000 C 
BRANCH  12  13
ATOM     13  C   UNL     1      10.692 -15.824  24.163  1.00  0.00    -0.000 C 
BRANCH  13  14
ATOM     14  C   UNL     1      10.492 -16.517  25.515  1.00  0.00    -0.000 C 
BRANCH  14  15
ATOM     15  C   UNL     1      10.277 -18.025  25.335  1.00  0.00    -0.003 C 
ATOM     16  C   UNL     1      10.506 -18.445  23.886  1.00  0.00     0.004 C 
ENDBRANCH  14  15
ENDBRANCH  13  14
ENDBRANCH  12  13
ENDBRANCH  11  12
ENDBRANCH  10  11
ENDBRANCH   1  10
TORSDOF 12
ENDMDL
MODEL 3
REMARK VINA RESULT:    -3.794      1.293      2.848
REMARK INTER + INTRA:          -8.323
REMARK INTER:                  -6.607
REMARK INTRA:                  -1.715
REMARK UNBOUND:                -1.867
REMARK SMILES CCCCCCCCCCCCCC(=O)[O-]
REMARK SMILES IDX 8 1 9 2 10 3 11 4 12 5 13 6 14 7 15 8 16 9 7 10 6 11 5 12
REMARK SMILES IDX 4 13 3 14 2 15 1 16
REMARK H PARENT
REMARK Flexibility Score: inf
ROOT
ATOM      1  C   UNL     1       9.093 -17.836  21.060  1.00  0.00     0.000 C 
ENDROOT
BRANCH   1   2
ATOM      2  C   UNL     1       8.591 -16.412  21.362  1.00  0.00     0.000 C 
BRANCH   2   3
ATOM      3  C   UNL     1       7.088 -16.298  21.683  1.00  0.00     0.000 C 
BRANCH   3   4
ATOM      4  C   UNL     1       6.743 -15.416  22.897  1.00  0.00     0.000 C 
BRANCH   4   5
ATOM      5  C   UNL     1       7.959 -14.649  23.444  1.00  0.00     0.006 C 
BRANCH   5   6
ATOM      6  C   UNL     1       8.408 -15.176  24.813  1.00  0.00     0.053 C 
BRANCH   6   7
ATOM      7  C   UNL     1       9.873 -15.488  24.839  1.00  0.00     0.041 C 
ATOM      8  O   UNL     1      10.359 -16.167  25.781  1.00  0.00    -0.550 OA
ATOM      9  O   UNL     1      10.695 -15.053  23.807  1.00  0.00    -0.550 OA
ENDBRANCH   6   7
ENDBRANCH   5   6
ENDBRANCH   4   5
ENDBRANCH   3   4
ENDBRANCH   2   3
ENDBRANCH   1   2
BRANCH   1  10
ATOM     10  C   UNL     1       7.986 -18.757  20.521  1.00  0.00     0.000 C 
BRANCH  10  11
ATOM     11  C   UNL     1       8.337 -20.247  20.664  1.00  0.00    -0.000 C 
BRANCH  11  12
ATOM     12  C   UNL     1       7.342 -21.009  21.551  1.00  0.00    -0.000 C 
BRANCH  12  13
ATOM     13  C   UNL     1       6.456 -20.037  22.342  1.00  0.00    -0.000 C 
BRANCH  13  14
ATOM     14  C   UNL     1       6.744 -20.127  23.844  1.00  0.00    -0.000 C 
BRANCH  14  15
ATOM     15  C   UNL     1       6.991 -18.736  24.441  1.00  0.00    -0.003 C 
ATOM     16  C   UNL     1       7.961 -18.803  25.616  1.00  0.00     0.004 C 
ENDBRANCH  14  15
ENDBRANCH  13  14
ENDBRANCH  12  13
ENDBRANCH  11  12
ENDBRANCH  10  11
ENDBRANCH   1  10
TORSDOF 12
ENDMDL
MODEL 4
REMARK VINA RESULT:    -3.777      1.713      2.389
REMARK INTER + INTRA:          -8.294
REMARK INTER:                  -7.006
REMARK INTRA:                  -1.288
REMARK UNBOUND:                -1.867
REMARK SMILES CCCCCCCCCCCCCC(=O)[O-]
REMARK SMILES IDX 8 1 9 2 10 3 11 4 12 5 13 6 14 7 15 8 16 9 7 10 6 11 5 12
REMARK SMILES IDX 4 13 3 14 2 15 1 16
REMARK H PARENT
REMARK Flexibility Score: inf
ROOT
ATOM      1  C   UNL     1       7.259 -18.558  23.974  1.00  0.00     0.000 C 
ENDROOT
BRANCH   1   2
ATOM      2  C   UNL     1       6.135 -17.506  23.989  1.00  0.00     0.000 C 
BRANCH   2   3
ATOM      3  C   UNL     1       6.409 -16.239  23.154  1.00  0.00     0.000 C 
BRANCH   3   4
ATOM      4  C   UNL     1       7.887 -15.994  22.799  1.00  0.00     0.000 C 
BRANCH   4   5
ATOM      5  C   UNL     1       8.479 -14.771  23.518  1.00  0.00     0.006 C 
BRANCH   5   6
ATOM      6  C   UNL     1       9.710 -15.134  24.360  1.00  0.00     0.053 C 
BRANCH   6   7
ATOM      7  C   UNL     1       9.330 -15.806  25.644  1.00  0.00     0.041 C 
ATOM      8  O   UNL     1       8.215 -15.568  26.177  1.00  0.00    -0.550 OA
ATOM      9  O   UNL     1      10.196 -16.716  26.236  1.00  0.00    -0.550 OA
ENDBRANCH   6   7
ENDBRANCH   5   6
ENDBRANCH   4   5
ENDBRANCH   3   4
ENDBRANCH   2   3
ENDBRANCH   1   2
BRANCH   1  10
ATOM     10  C   UNL     1       6.738 -19.982  23.719  1.00  0.00     0.000 C 
BRANCH  10  11
ATOM     11  C   UNL     1       6.717 -20.344  22.224  1.00  0.00    -0.000 C 
BRANCH  11  12
ATOM     12  C   UNL     1       7.931 -19.789  21.463  1.00  0.00    -0.000 C 
BRANCH  12  13
ATOM     13  C   UNL     1       7.488 -19.013  20.215  1.00  0.00    -0.000 C 
BRANCH  13  14
ATOM     14  C   UNL     1       8.594 -18.998  19.154  1.00  0.00    -0.000 C 
BRANCH  14  15
ATOM     15  C   UNL     1       8.863 -20.411  18.621  1.00  0.00    -0.003 C 
ATOM     16  C   UNL     1      10.040 -20.419  17.651  1.00  0.00     0.004 C 
ENDBRANCH  14  15
ENDBRANCH  13  14
ENDBRANCH  12  13
ENDBRANCH  11  12
ENDBRANCH  10  11
ENDBRANCH   1  10
TORSDOF 12
ENDMDL
MODEL 5
REMARK VINA RESULT:    -3.771      2.632      4.729
REMARK INTER + INTRA:          -8.284
REMARK INTER:                  -6.272
REMARK INTRA:                  -2.012
REMARK UNBOUND:                -1.867
REMARK SMILES CCCCCCCCCCCCCC(=O)[O-]
REMARK SMILES IDX 8 1 9 2 10 3 11 4 12 5 13 6 14 7 15 8 16 9 7 10 6 11 5 12
REMARK SMILES IDX 4 13 3 14 2 15 1 16
REMARK H PARENT
REMARK Flexibility Score: inf
ROOT
ATOM      1  C   UNL     1       8.699 -14.748  24.773  1.00  0.00     0.000 C 
ENDROOT
BRANCH   1   2
ATOM      2  C   UNL     1       7.861 -14.422  23.523  1.00  0.00     0.000 C 
BRANCH   2   3
ATOM      3  C   UNL     1       6.881 -15.527  23.082  1.00  0.00     0.000 C 
BRANCH   3   4
ATOM      4  C   UNL     1       7.217 -16.204  21.741  1.00  0.00     0.000 C 
BRANCH   4   5
ATOM      5  C   UNL     1       7.515 -17.706  21.888  1.00  0.00     0.006 C 
BRANCH   5   6
ATOM      6  C   UNL     1       6.743 -18.338  23.055  1.00  0.00     0.053 C 
BRANCH   6   7
ATOM      7  C   UNL     1       7.149 -19.761  23.288  1.00  0.00     0.041 C 
ATOM      8  O   UNL     1       6.600 -20.433  24.199  1.00  0.00    -0.550 OA
ATOM      9  O   UNL     1       8.111 -20.351  22.480  1.00  0.00    -0.550 OA
ENDBRANCH   6   7
ENDBRANCH   5   6
ENDBRANCH   4   5
ENDBRANCH   3   4
ENDBRANCH   2   3
ENDBRANCH   1   2
BRANCH   1  10
ATOM     10  C   UNL     1       8.117 -15.911  25.594  1.00  0.00     0.000 C 
BRANCH  10  11
ATOM     11  C   UNL     1       9.100 -17.086  25.730  1.00  0.00    -0.000 C 
BRANCH  11  12
ATOM     12  C   UNL     1      10.537 -16.628  26.019  1.00  0.00    -0.000 C 
BRANCH  12  13
ATOM     13  C   UNL     1      11.505 -17.147  24.947  1.00  0.00    -0.000 C 
BRANCH  13  14
ATOM     14  C   UNL     1      10.750 -17.573  23.683  1.00  0.00    -0.000 C 
BRANCH  14  15
ATOM     15  C   UNL     1      10.961 -16.562  22.550  1.00  0.00    -0.003 C 
ATOM     16  C   UNL     1      11.879 -15.425  22.988  1.00  0.00     0.004 C 
ENDBRANCH  14  15
ENDBRANCH  13  14
ENDBRANCH  12  13
ENDBRANCH  11  12
ENDBRANCH  10  11
ENDBRANCH   1  10
TORSDOF 12
ENDMDL
MODEL 6
REMARK VINA RESULT:    -3.765      3.085      5.665
REMARK INTER + INTRA:          -8.274
REMARK INTER:                  -6.792
REMARK INTRA:                  -1.482
REMARK UNBOUND:                -1.867
REMARK SMILES CCCCCCCCCCCCCC(=O)[O-]
REMARK SMILES IDX 8 1 9 2 10 3 11 4 12 5 13 6 14 7 15 8 16 9 7 10 6 11 5 12
REMARK SMILES IDX 4 13 3 14 2 15 1 16
REMARK H PARENT
REMARK Flexibility Score: inf
ROOT
ATOM      1  C   UNL     1       8.864 -18.446  25.234  1.00  0.00     0.000 C 
ENDROOT
BRANCH   1   2
ATOM      2  C   UNL     1       7.377 -18.780  25.451  1.00  0.00     0.000 C 
BRANCH   2   3
ATOM      3  C   UNL     1       6.852 -19.992  24.657  1.00  0.00     0.000 C 
BRANCH   3   4
ATOM      4  C   UNL     1       6.711 -19.771  23.140  1.00  0.00     0.000 C 
BRANCH   4   5
ATOM      5  C   UNL     1       7.769 -20.533  22.325  1.00  0.00     0.006 C 
BRANCH   5   6
ATOM      6  C   UNL     1       7.510 -20.446  20.815  1.00  0.00     0.053 C 
BRANCH   6   7
ATOM      7  C   UNL     1       8.538 -21.199  20.027  1.00  0.00     0.041 C 
ATOM      8  O   UNL     1       9.391 -21.911  20.618  1.00  0.00    -0.550 OA
ATOM      9  O   UNL     1       8.533 -21.138  18.640  1.00  0.00    -0.550 OA
ENDBRANCH   6   7
ENDBRANCH   5   6
ENDBRANCH   4   5
ENDBRANCH   3   4
ENDBRANCH   2   3
ENDBRANCH   1   2
BRANCH   1  10
ATOM     10  C   UNL     1       9.269 -17.097  25.852  1.00  0.00     0.000 C 
BRANCH  10  11
ATOM     11  C   UNL     1      10.460 -16.449  25.126  1.00  0.00    -0.000 C 
BRANCH  11  12
ATOM     12  C   UNL     1      10.045 -15.259  24.249  1.00  0.00    -0.000 C 
BRANCH  12  13
ATOM     13  C   UNL     1       8.634 -14.775  24.612  1.00  0.00    -0.000 C 
BRANCH  13  14
ATOM     14  C   UNL     1       7.766 -14.620  23.359  1.00  0.00    -0.000 C 
BRANCH  14  15
ATOM     15  C   UNL     1       7.067 -15.939  23.007  1.00  0.00    -0.003 C 
ATOM     16  C   UNL     1       7.636 -16.539  21.725  1.00  0.00     0.004 C 
ENDBRANCH  14  15
ENDBRANCH  13  14
ENDBRANCH  12  13
ENDBRANCH  11  12
ENDBRANCH  10  11
ENDBRANCH   1  10
TORSDOF 12
ENDMDL
MODEL 7
REMARK VINA RESULT:    -3.745      3.282      5.758
REMARK INTER + INTRA:          -8.240
REMARK INTER:                  -6.280
REMARK INTRA:                  -1.960
REMARK UNBOUND:                -1.867
REMARK SMILES CCCCCCCCCCCCCC(=O)[O-]
REMARK SMILES IDX 8 1 9 2 10 3 11 4 12 5 13 6 14 7 15 8 16 9 7 10 6 11 5 12
REMARK SMILES IDX 4 13 3 14 2 15 1 16
REMARK H PARENT
REMARK Flexibility Score: inf
ROOT
ATOM      1  C   UNL     1       6.907 -15.233  22.673  1.00  0.00     0.000 C 
ENDROOT
BRANCH   1   2
ATOM      2  C   UNL     1       7.615 -16.242  21.750  1.00  0.00     0.000 C 
BRANCH   2   3
ATOM      3  C   UNL     1       7.160 -17.707  21.904  1.00  0.00     0.000 C 
BRANCH   3   4
ATOM      4  C   UNL     1       8.239 -18.763  21.604  1.00  0.00     0.000 C 
BRANCH   4   5
ATOM      5  C   UNL     1       7.958 -20.114  22.283  1.00  0.00     0.006 C 
BRANCH   5   6
ATOM      6  C   UNL     1       7.287 -21.113  21.331  1.00  0.00     0.053 C 
BRANCH   6   7
ATOM      7  C   UNL     1       8.284 -21.805  20.453  1.00  0.00     0.041 C 
ATOM      8  O   UNL     1       8.989 -22.741  20.912  1.00  0.00    -0.550 OA
ATOM      9  O   UNL     1       8.412 -21.435  19.121  1.00  0.00    -0.550 OA
ENDBRANCH   6   7
ENDBRANCH   5   6
ENDBRANCH   4   5
ENDBRANCH   3   4
ENDBRANCH   2   3
ENDBRANCH   1   2
BRANCH   1  10
ATOM     10  C   UNL     1       7.889 -14.428  23.540  1.00  0.00     0.000 C 
BRANCH  10  11
ATOM     11  C   UNL     1       9.323 -14.982  23.478  1.00  0.00    -0.000 C 
BRANCH  11  12
ATOM     12  C   UNL     1       9.750 -15.671  24.782  1.00  0.00    -0.000 C 
BRANCH  12  13
ATOM     13  C   UNL     1      10.153 -17.130  24.526  1.00  0.00    -0.000 C 
BRANCH  13  14
ATOM     14  C   UNL     1       9.157 -18.098  25.173  1.00  0.00    -0.000 C 
BRANCH  14  15
ATOM     15  C   UNL     1       8.043 -17.336  25.901  1.00  0.00    -0.003 C 
ATOM     16  C   UNL     1       6.668 -17.883  25.528  1.00  0.00     0.004 C 
ENDBRANCH  14  15
ENDBRANCH  13  14
ENDBRANCH  12  13
ENDBRANCH  11  12
ENDBRANCH  10  11
ENDBRANCH   1  10
TORSDOF 12
ENDMDL
MODEL 8
REMARK VINA RESULT:    -3.715      2.584      4.640
REMARK INTER + INTRA:          -8.188
REMARK INTER:                  -5.971
REMARK INTRA:                  -2.217
REMARK UNBOUND:                -1.867
REMARK SMILES CCCCCCCCCCCCCC(=O)[O-]
REMARK SMILES IDX 8 1 9 2 10 3 11 4 12 5 13 6 14 7 15 8 16 9 7 10 6 11 5 12
REMARK SMILES IDX 4 13 3 14 2 15 1 16
REMARK H PARENT
REMARK Flexibility Score: inf
ROOT
ATOM      1  C   UNL     1       9.124 -15.540  25.756  1.00  0.00     0.000 C 
ENDROOT
BRANCH   1   2
ATOM      2  C   UNL     1       9.631 -15.137  24.359  1.00  0.00     0.000 C 
BRANCH   2   3
ATOM      3  C   UNL     1      10.949 -15.804  23.918  1.00  0.00     0.000 C 
BRANCH   3   4
ATOM      4  C   UNL     1      10.787 -17.056  23.037  1.00  0.00     0.000 C 
BRANCH   4   5
ATOM      5  C   UNL     1      11.299 -18.336  23.718  1.00  0.00     0.006 C 
BRANCH   5   6
ATOM      6  C   UNL     1      11.941 -18.050  25.082  1.00  0.00     0.053 C 
BRANCH   6   7
ATOM      7  C   UNL     1      12.694 -19.234  25.605  1.00  0.00     0.041 C 
ATOM      8  O   UNL     1      13.453 -19.888  24.842  1.00  0.00    -0.550 OA
ATOM      9  O   UNL     1      12.581 -19.596  26.940  1.00  0.00    -0.550 OA
ENDBRANCH   6   7
ENDBRANCH   5   6
ENDBRANCH   4   5
ENDBRANCH   3   4
ENDBRANCH   2   3
ENDBRANCH   1   2
BRANCH   1  10
ATOM     10  C   UNL     1       7.860 -16.415  25.702  1.00  0.00     0.000 C 
BRANCH  10  11
ATOM     11  C   UNL     1       8.185 -17.917  25.635  1.00  0.00    -0.000 C 
BRANCH  11  12
ATOM     12  C   UNL     1       7.438 -18.635  24.502  1.00  0.00    -0.000 C 
BRANCH  12  13
ATOM     13  C   UNL     1       6.715 -17.629  23.597  1.00  0.00    -0.000 C 
BRANCH  13  14
ATOM     14  C   UNL     1       7.294 -17.649  22.178  1.00  0.00    -0.000 C 
BRANCH  14  15
ATOM     15  C   UNL     1       7.335 -16.237  21.581  1.00  0.00    -0.003 C 
ATOM     16  C   UNL     1       6.537 -15.254  22.433  1.00  0.00     0.004 C 
ENDBRANCH  14  15
ENDBRANCH  13  14
ENDBRANCH  12  13
ENDBRANCH  11  12
ENDBRANCH  10  11
ENDBRANCH   1  10
TORSDOF 12
ENDMDL
MODEL 9
REMARK VINA RESULT:    -3.700      1.654      3.441
REMARK INTER + INTRA:          -8.163
REMARK INTER:                  -6.560
REMARK INTRA:                  -1.603
REMARK UNBOUND:                -1.867
REMARK SMILES CCCCCCCCCCCCCC(=O)[O-]
REMARK SMILES IDX 8 1 9 2 10 3 11 4 12 5 13 6 14 7 15 8 16 9 7 10 6 11 5 12
REMARK SMILES IDX 4 13 3 14 2 15 1 16
REMARK H PARENT
REMARK Flexibility Score: inf
ROOT
ATOM      1  C   UNL     1       7.875 -18.324  18.388  1.00  0.00     0.000 C 
ENDROOT
BRANCH   1   2
ATOM      2  C   UNL     1       7.124 -17.961  19.681  1.00  0.00     0.000 C 
BRANCH   2   3
ATOM      3  C   UNL     1       7.437 -16.565  20.255  1.00  0.00     0.000 C 
BRANCH   3   4
ATOM      4  C   UNL     1       8.032 -16.558  21.674  1.00  0.00     0.000 C 
BRANCH   4   5
ATOM      5  C   UNL     1       7.080 -15.951  22.719  1.00  0.00     0.006 C 
BRANCH   5   6
ATOM      6  C   UNL     1       7.572 -14.590  23.229  1.00  0.00     0.053 C 
BRANCH   6   7
ATOM      7  C   UNL     1       8.742 -14.730  24.154  1.00  0.00     0.041 C 
ATOM      8  O   UNL     1       8.565 -15.081  25.350  1.00  0.00    -0.550 OA
ATOM      9  O   UNL     1      10.029 -14.501  23.687  1.00  0.00    -0.550 OA
ENDBRANCH   6   7
ENDBRANCH   5   6
ENDBRANCH   4   5
ENDBRANCH   3   4
ENDBRANCH   2   3
ENDBRANCH   1   2
BRANCH   1  10
ATOM     10  C   UNL     1       8.772 -19.564  18.547  1.00  0.00     0.000 C 
BRANCH  10  11
ATOM     11  C   UNL     1       9.670 -19.485  19.793  1.00  0.00    -0.000 C 
BRANCH  11  12
ATOM     12  C   UNL     1       9.497 -20.692  20.726  1.00  0.00    -0.000 C 
BRANCH  12  13
ATOM     13  C   UNL     1       8.281 -21.534  20.316  1.00  0.00    -0.000 C 
BRANCH  13  14
ATOM     14  C   UNL     1       7.131 -21.362  21.314  1.00  0.00    -0.000 C 
BRANCH  14  15
ATOM     15  C   UNL     1       7.512 -20.384  22.431  1.00  0.00    -0.003 C 
ATOM     16  C   UNL     1       6.284 -19.660  22.973  1.00  0.00     0.004 C 
ENDBRANCH  14  15
ENDBRANCH  13  14
ENDBRANCH  12  13
ENDBRANCH  11  12
ENDBRANCH  10  11
ENDBRANCH   1  10
TORSDOF 12
ENDMDL
