MODEL 1
REMARK VINA RESULT:    -4.484      0.000      0.000
REMARK INTER + INTRA:          -8.898
REMARK INTER:                  -7.893
REMARK INTRA:                  -1.005
REMARK UNBOUND:                -1.005
REMARK SMILES CCCCCCC=CCCCCCCCC(=O)[O-]
REMARK SMILES IDX 10 1 11 2 12 3 13 4 14 5 15 6 16 7 17 8 18 9 9 10 8 11 7 12
REMARK SMILES IDX 6 13 5 14 4 15 3 16 2 17 1 18
REMARK H PARENT
REMARK Flexibility Score: inf
ROOT
ATOM      1  C   UNL     1      -4.370   7.162  -8.335  1.00  0.00     0.004 C 
ENDROOT
BRANCH   1   2
ATOM      2  C   UNL     1      -4.390   5.660  -8.669  1.00  0.00     0.000 C 
BRANCH   2   3
ATOM      3  C   UNL     1      -5.303   4.838  -7.730  1.00  0.00     0.000 C 
BRANCH   3   4
ATOM      4  C   UNL     1      -6.095   5.712  -6.737  1.00  0.00     0.000 C 
BRANCH   4   5
ATOM      5  C   UNL     1      -5.808   5.386  -5.260  1.00  0.00     0.006 C 
BRANCH   5   6
ATOM      6  C   UNL     1      -4.981   4.106  -5.085  1.00  0.00     0.053 C 
BRANCH   6   7
ATOM      7  C   UNL     1      -5.478   3.320  -3.913  1.00  0.00     0.041 C 
ATOM      8  O   UNL     1      -5.226   2.090  -3.821  1.00  0.00    -0.550 OA
ATOM      9  O   UNL     1      -6.252   3.940  -2.938  1.00  0.00    -0.550 OA
ENDBRANCH   6   7
ENDBRANCH   5   6
ENDBRANCH   4   5
ENDBRANCH   3   4
ENDBRANCH   2   3
ENDBRANCH   1   2
BRANCH   1  10
ATOM     10  C   UNL     1      -5.030   8.018  -9.425  1.00  0.00     0.027 C 
BRANCH  10  11
ATOM     11  C   UNL     1      -5.584   7.153 -10.523  1.00  0.00    -0.031 C 
ATOM     12  C   UNL     1      -6.115   7.686 -11.633  1.00  0.00    -0.031 C 
BRANCH  12  13
ATOM     13  C   UNL     1      -6.713   6.829 -12.715  1.00  0.00     0.027 C 
BRANCH  13  14
ATOM     14  C   UNL     1      -6.761   5.349 -12.300  1.00  0.00     0.004 C 
BRANCH  14  15
ATOM     15  C   UNL     1      -6.925   4.380 -13.488  1.00  0.00     0.000 C 
BRANCH  15  16
ATOM     16  C   UNL     1      -5.615   4.135 -14.268  1.00  0.00    -0.000 C 
BRANCH  16  17
ATOM     17  C   UNL     1      -5.135   2.675 -14.216  1.00  0.00    -0.003 C 
ATOM     18  C   UNL     1      -3.636   2.553 -13.943  1.00  0.00     0.004 C 
ENDBRANCH  16  17
ENDBRANCH  15  16
ENDBRANCH  14  15
ENDBRANCH  13  14
ENDBRANCH  12  13
ENDBRANCH  10  11
ENDBRANCH   1  10
TORSDOF 13
ENDMDL
MODEL 2
REMARK VINA RESULT:    -4.405      1.153      1.610
REMARK INTER + INTRA:          -8.758
REMARK INTER:                  -7.583
REMARK INTRA:                  -1.175
REMARK UNBOUND:                -1.005
REMARK SMILES CCCCCCC=CCCCCCCCC(=O)[O-]
REMARK SMILES IDX 10 1 11 2 12 3 13 4 14 5 15 6 16 7 17 8 18 9 9 10 8 11 7 12
REMARK SMILES IDX 6 13 5 14 4 15 3 16 2 17 1 18
REMARK H PARENT
REMARK Flexibility Score: inf
ROOT
ATOM      1  C   UNL     1      -4.409   7.262  -8.124  1.00  0.00     0.004 C 
ENDROOT
BRANCH   1   2
ATOM      2  C   UNL     1      -5.755   7.614  -7.466  1.00  0.00     0.000 C 
BRANCH   2   3
ATOM      3  C   UNL     1      -5.653   7.811  -5.936  1.00  0.00     0.000 C 
BRANCH   3   4
ATOM      4  C   UNL     1      -5.190   6.544  -5.191  1.00  0.00     0.000 C 
BRANCH   4   5
ATOM      5  C   UNL     1      -5.885   5.256  -5.669  1.00  0.00     0.006 C 
BRANCH   5   6
ATOM      6  C   UNL     1      -5.086   3.990  -5.329  1.00  0.00     0.053 C 
BRANCH   6   7
ATOM      7  C   UNL     1      -5.638   3.340  -4.099  1.00  0.00     0.041 C 
ATOM      8  O   UNL     1      -5.036   2.370  -3.569  1.00  0.00    -0.550 OA
ATOM      9  O   UNL     1      -6.840   3.784  -3.558  1.00  0.00    -0.550 OA
ENDBRANCH   6   7
ENDBRANCH   5   6
ENDBRANCH   4   5
ENDBRANCH   3   4
ENDBRANCH   2   3
ENDBRANCH   1   2
BRANCH   1  10
ATOM     10  C   UNL     1      -4.518   6.075  -9.091  1.00  0.00     0.027 C 
BRANCH  10  11
ATOM     11  C   UNL     1      -5.947   5.844  -9.497  1.00  0.00    -0.031 C 
ATOM     12  C   UNL     1      -6.313   5.817 -10.786  1.00  0.00    -0.031 C 
BRANCH  12  13
ATOM     13  C   UNL     1      -7.748   5.632 -11.199  1.00  0.00     0.027 C 
BRANCH  13  14
ATOM     14  C   UNL     1      -7.865   5.299 -12.696  1.00  0.00     0.004 C 
BRANCH  14  15
ATOM     15  C   UNL     1      -6.642   5.741 -13.525  1.00  0.00     0.000 C 
BRANCH  15  16
ATOM     16  C   UNL     1      -6.069   4.621 -14.420  1.00  0.00    -0.000 C 
BRANCH  16  17
ATOM     17  C   UNL     1      -5.291   3.550 -13.638  1.00  0.00    -0.003 C 
ATOM     18  C   UNL     1      -4.518   2.596 -14.548  1.00  0.00     0.004 C 
ENDBRANCH  16  17
ENDBRANCH  15  16
ENDBRANCH  14  15
ENDBRANCH  13  14
ENDBRANCH  12  13
ENDBRANCH  10  11
ENDBRANCH   1  10
TORSDOF 13
ENDMDL
MODEL 3
REMARK VINA RESULT:    -4.140     16.317     17.975
REMARK INTER + INTRA:          -8.292
REMARK INTER:                  -7.266
REMARK INTRA:                  -1.026
REMARK UNBOUND:                -1.005
REMARK SMILES CCCCCCC=CCCCCCCCC(=O)[O-]
REMARK SMILES IDX 10 1 11 2 12 3 13 4 14 5 15 6 16 7 17 8 18 9 9 10 8 11 7 12
REMARK SMILES IDX 6 13 5 14 4 15 3 16 2 17 1 18
REMARK H PARENT
REMARK Flexibility Score: inf
ROOT
ATOM      1  C   UNL     1      10.696   7.518  -7.172  1.00  0.00     0.004 C 
ENDROOT
BRANCH   1   2
ATOM      2  C   UNL     1      10.247   6.060  -6.976  1.00  0.00     0.000 C 
BRANCH   2   3
ATOM      3  C   UNL     1      11.088   5.298  -5.925  1.00  0.00     0.000 C 
BRANCH   3   4
ATOM      4  C   UNL     1      11.863   4.105  -6.519  1.00  0.00     0.000 C 
BRANCH   4   5
ATOM      5  C   UNL     1      11.092   3.348  -7.615  1.00  0.00     0.006 C 
BRANCH   5   6
ATOM      6  C   UNL     1      11.923   2.232  -8.262  1.00  0.00     0.053 C 
BRANCH   6   7
ATOM      7  C   UNL     1      11.028   1.154  -8.789  1.00  0.00     0.041 C 
ATOM      8  O   UNL     1      10.688   1.150 -10.001  1.00  0.00    -0.550 OA
ATOM      9  O   UNL     1      10.539   0.175  -7.932  1.00  0.00    -0.550 OA
ENDBRANCH   6   7
ENDBRANCH   5   6
ENDBRANCH   4   5
ENDBRANCH   3   4
ENDBRANCH   2   3
ENDBRANCH   1   2
BRANCH   1  10
ATOM     10  C   UNL     1       9.752   8.521  -6.494  1.00  0.00     0.027 C 
BRANCH  10  11
ATOM     11  C   UNL     1      10.171   8.778  -5.074  1.00  0.00    -0.031 C 
ATOM     12  C   UNL     1       9.460   8.309  -4.038  1.00  0.00    -0.031 C 
BRANCH  12  13
ATOM     13  C   UNL     1       9.848   8.600  -2.614  1.00  0.00     0.027 C 
BRANCH  13  14
ATOM     14  C   UNL     1      10.321   7.330  -1.889  1.00  0.00     0.004 C 
BRANCH  14  15
ATOM     15  C   UNL     1       9.903   6.023  -2.594  1.00  0.00     0.000 C 
BRANCH  15  16
ATOM     16  C   UNL     1       9.875   4.799  -1.652  1.00  0.00    -0.000 C 
BRANCH  16  17
ATOM     17  C   UNL     1      10.957   4.842  -0.560  1.00  0.00    -0.003 C 
ATOM     18  C   UNL     1      11.141   3.498   0.144  1.00  0.00     0.004 C 
ENDBRANCH  16  17
ENDBRANCH  15  16
ENDBRANCH  14  15
ENDBRANCH  13  14
ENDBRANCH  12  13
ENDBRANCH  10  11
ENDBRANCH   1  10
TORSDOF 13
ENDMDL
MODEL 4
REMARK VINA RESULT:    -4.132      4.378      7.896
REMARK INTER + INTRA:          -8.278
REMARK INTER:                  -6.393
REMARK INTRA:                  -1.885
REMARK UNBOUND:                -1.005
REMARK SMILES CCCCCCC=CCCCCCCCC(=O)[O-]
REMARK SMILES IDX 10 1 11 2 12 3 13 4 14 5 15 6 16 7 17 8 18 9 9 10 8 11 7 12
REMARK SMILES IDX 6 13 5 14 4 15 3 16 2 17 1 18
REMARK H PARENT
REMARK Flexibility Score: inf
ROOT
ATOM      1  C   UNL     1      -4.319   5.541  -8.941  1.00  0.00     0.004 C 
ENDROOT
BRANCH   1   2
ATOM      2  C   UNL     1      -4.350   7.026  -8.543  1.00  0.00     0.000 C 
BRANCH   2   3
ATOM      3  C   UNL     1      -5.046   7.925  -9.590  1.00  0.00     0.000 C 
BRANCH   3   4
ATOM      4  C   UNL     1      -6.560   8.080  -9.346  1.00  0.00     0.000 C 
BRANCH   4   5
ATOM      5  C   UNL     1      -7.432   7.314 -10.358  1.00  0.00     0.006 C 
BRANCH   5   6
ATOM      6  C   UNL     1      -6.612   6.690 -11.495  1.00  0.00     0.053 C 
BRANCH   6   7
ATOM      7  C   UNL     1      -6.844   7.431 -12.774  1.00  0.00     0.041 C 
ATOM      8  O   UNL     1      -7.773   7.083 -13.549  1.00  0.00    -0.550 OA
ATOM      9  O   UNL     1      -6.010   8.486 -13.128  1.00  0.00    -0.550 OA
ENDBRANCH   6   7
ENDBRANCH   5   6
ENDBRANCH   4   5
ENDBRANCH   3   4
ENDBRANCH   2   3
ENDBRANCH   1   2
BRANCH   1  10
ATOM     10  C   UNL     1      -5.273   4.684  -8.097  1.00  0.00     0.027 C 
BRANCH  10  11
ATOM     11  C   UNL     1      -4.860   4.687  -6.652  1.00  0.00    -0.031 C 
ATOM     12  C   UNL     1      -5.459   3.895  -5.751  1.00  0.00    -0.031 C 
BRANCH  12  13
ATOM     13  C   UNL     1      -5.082   3.925  -4.295  1.00  0.00     0.027 C 
BRANCH  13  14
ATOM     14  C   UNL     1      -6.235   4.455  -3.426  1.00  0.00     0.004 C 
BRANCH  14  15
ATOM     15  C   UNL     1      -6.422   5.984  -3.512  1.00  0.00     0.000 C 
BRANCH  15  16
ATOM     16  C   UNL     1      -7.690   6.405  -4.286  1.00  0.00    -0.000 C 
BRANCH  16  17
ATOM     17  C   UNL     1      -7.387   7.165  -5.588  1.00  0.00    -0.003 C 
ATOM     18  C   UNL     1      -6.026   7.860  -5.566  1.00  0.00     0.004 C 
ENDBRANCH  16  17
ENDBRANCH  15  16
ENDBRANCH  14  15
ENDBRANCH  13  14
ENDBRANCH  12  13
ENDBRANCH  10  11
ENDBRANCH   1  10
TORSDOF 13
ENDMDL
MODEL 5
REMARK VINA RESULT:    -4.116      3.913      7.766
REMARK INTER + INTRA:          -8.250
REMARK INTER:                  -7.090
REMARK INTRA:                  -1.160
REMARK UNBOUND:                -1.005
REMARK SMILES CCCCCCC=CCCCCCCCC(=O)[O-]
REMARK SMILES IDX 10 1 11 2 12 3 13 4 14 5 15 6 16 7 17 8 18 9 9 10 8 11 7 12
REMARK SMILES IDX 6 13 5 14 4 15 3 16 2 17 1 18
REMARK H PARENT
REMARK Flexibility Score: inf
ROOT
ATOM      1  C   UNL     1      -5.541   7.932 -10.268  1.00  0.00     0.004 C 
ENDROOT
BRANCH   1   2
ATOM      2  C   UNL     1      -6.608   7.224 -11.120  1.00  0.00     0.000 C 
BRANCH   2   3
ATOM      3  C   UNL     1      -6.305   5.726 -11.359  1.00  0.00     0.000 C 
BRANCH   3   4
ATOM      4  C   UNL     1      -6.939   5.178 -12.653  1.00  0.00     0.000 C 
BRANCH   4   5
ATOM      5  C   UNL     1      -5.911   4.654 -13.672  1.00  0.00     0.006 C 
BRANCH   5   6
ATOM      6  C   UNL     1      -6.056   3.149 -13.939  1.00  0.00     0.053 C 
BRANCH   6   7
ATOM      7  C   UNL     1      -4.805   2.606 -14.556  1.00  0.00     0.041 C 
ATOM      8  O   UNL     1      -3.741   2.550 -13.886  1.00  0.00    -0.550 OA
ATOM      9  O   UNL     1      -4.807   2.196 -15.885  1.00  0.00    -0.550 OA
ENDBRANCH   6   7
ENDBRANCH   5   6
ENDBRANCH   4   5
ENDBRANCH   3   4
ENDBRANCH   2   3
ENDBRANCH   1   2
BRANCH   1  10
ATOM     10  C   UNL     1      -4.728   6.954  -9.408  1.00  0.00     0.027 C 
BRANCH  10  11
ATOM     11  C   UNL     1      -4.792   7.336  -7.956  1.00  0.00    -0.031 C 
ATOM     12  C   UNL     1      -5.964   7.499  -7.326  1.00  0.00    -0.031 C 
BRANCH  12  13
ATOM     13  C   UNL     1      -6.035   7.927  -5.885  1.00  0.00     0.027 C 
BRANCH  13  14
ATOM     14  C   UNL     1      -7.244   7.300  -5.170  1.00  0.00     0.004 C 
BRANCH  14  15
ATOM     15  C   UNL     1      -6.991   5.862  -4.675  1.00  0.00     0.000 C 
BRANCH  15  16
ATOM     16  C   UNL     1      -5.550   5.631  -4.169  1.00  0.00    -0.000 C 
BRANCH  16  17
ATOM     17  C   UNL     1      -4.920   4.329  -4.692  1.00  0.00    -0.003 C 
ATOM     18  C   UNL     1      -5.191   4.094  -6.177  1.00  0.00     0.004 C 
ENDBRANCH  16  17
ENDBRANCH  15  16
ENDBRANCH  14  15
ENDBRANCH  13  14
ENDBRANCH  12  13
ENDBRANCH  10  11
ENDBRANCH   1  10
TORSDOF 13
ENDMDL
MODEL 6
REMARK VINA RESULT:    -4.026      4.065      8.125
REMARK INTER + INTRA:          -8.091
REMARK INTER:                  -6.713
REMARK INTRA:                  -1.378
REMARK UNBOUND:                -1.005
REMARK SMILES CCCCCCC=CCCCCCCCC(=O)[O-]
REMARK SMILES IDX 10 1 11 2 12 3 13 4 14 5 15 6 16 7 17 8 18 9 9 10 8 11 7 12
REMARK SMILES IDX 6 13 5 14 4 15 3 16 2 17 1 18
REMARK H PARENT
REMARK Flexibility Score: inf
ROOT
ATOM      1  C   UNL     1      -4.369   5.472  -8.758  1.00  0.00     0.004 C 
ENDROOT
BRANCH   1   2
ATOM      2  C   UNL     1      -4.422   7.007  -8.681  1.00  0.00     0.000 C 
BRANCH   2   3
ATOM      3  C   UNL     1      -5.182   7.652  -9.863  1.00  0.00     0.000 C 
BRANCH   3   4
ATOM      4  C   UNL     1      -6.688   7.833  -9.588  1.00  0.00     0.000 C 
BRANCH   4   5
ATOM      5  C   UNL     1      -7.592   7.011 -10.524  1.00  0.00     0.006 C 
BRANCH   5   6
ATOM      6  C   UNL     1      -6.812   5.973 -11.341  1.00  0.00     0.053 C 
BRANCH   6   7
ATOM      7  C   UNL     1      -6.949   6.252 -12.806  1.00  0.00     0.041 C 
ATOM      8  O   UNL     1      -6.398   7.264 -13.313  1.00  0.00    -0.550 OA
ATOM      9  O   UNL     1      -7.718   5.412 -13.604  1.00  0.00    -0.550 OA
ENDBRANCH   6   7
ENDBRANCH   5   6
ENDBRANCH   4   5
ENDBRANCH   3   4
ENDBRANCH   2   3
ENDBRANCH   1   2
BRANCH   1  10
ATOM     10  C   UNL     1      -5.409   4.799  -7.851  1.00  0.00     0.027 C 
BRANCH  10  11
ATOM     11  C   UNL     1      -5.666   5.629  -6.624  1.00  0.00    -0.031 C 
ATOM     12  C   UNL     1      -5.064   5.358  -5.457  1.00  0.00    -0.031 C 
BRANCH  12  13
ATOM     13  C   UNL     1      -5.351   6.156  -4.214  1.00  0.00     0.027 C 
BRANCH  13  14
ATOM     14  C   UNL     1      -6.795   5.944  -3.729  1.00  0.00     0.004 C 
BRANCH  14  15
ATOM     15  C   UNL     1      -6.902   5.649  -2.219  1.00  0.00     0.000 C 
BRANCH  15  16
ATOM     16  C   UNL     1      -7.095   4.151  -1.898  1.00  0.00    -0.000 C 
BRANCH  16  17
ATOM     17  C   UNL     1      -7.042   3.247  -3.141  1.00  0.00    -0.003 C 
ATOM     18  C   UNL     1      -5.717   2.494  -3.270  1.00  0.00     0.004 C 
ENDBRANCH  16  17
ENDBRANCH  15  16
ENDBRANCH  14  15
ENDBRANCH  13  14
ENDBRANCH  12  13
ENDBRANCH  10  11
ENDBRANCH   1  10
TORSDOF 13
ENDMDL
MODEL 7
REMARK VINA RESULT:    -3.960      3.683      8.178
REMARK INTER + INTRA:          -7.976
REMARK INTER:                  -6.903
REMARK INTRA:                  -1.073
REMARK UNBOUND:                -1.005
REMARK SMILES CCCCCCC=CCCCCCCCC(=O)[O-]
REMARK SMILES IDX 10 1 11 2 12 3 13 4 14 5 15 6 16 7 17 8 18 9 9 10 8 11 7 12
REMARK SMILES IDX 6 13 5 14 4 15 3 16 2 17 1 18
REMARK H PARENT
REMARK Flexibility Score: inf
ROOT
ATOM      1  C   UNL     1      -4.374   7.167  -8.684  1.00  0.00     0.004 C 
ENDROOT
BRANCH   1   2
ATOM      2  C   UNL     1      -5.170   7.878  -9.791  1.00  0.00     0.000 C 
BRANCH   2   3
ATOM      3  C   UNL     1      -6.656   7.452  -9.845  1.00  0.00     0.000 C 
BRANCH   3   4
ATOM      4  C   UNL     1      -7.311   7.711 -11.216  1.00  0.00     0.000 C 
BRANCH   4   5
ATOM      5  C   UNL     1      -6.695   6.886 -12.362  1.00  0.00     0.006 C 
BRANCH   5   6
ATOM      6  C   UNL     1      -6.739   5.376 -12.095  1.00  0.00     0.053 C 
BRANCH   6   7
ATOM      7  C   UNL     1      -6.516   4.615 -13.365  1.00  0.00     0.041 C 
ATOM      8  O   UNL     1      -7.332   4.719 -14.318  1.00  0.00    -0.550 OA
ATOM      9  O   UNL     1      -5.424   3.762 -13.482  1.00  0.00    -0.550 OA
ENDBRANCH   6   7
ENDBRANCH   5   6
ENDBRANCH   4   5
ENDBRANCH   3   4
ENDBRANCH   2   3
ENDBRANCH   1   2
BRANCH   1  10
ATOM     10  C   UNL     1      -4.474   5.637  -8.775  1.00  0.00     0.027 C 
BRANCH  10  11
ATOM     11  C   UNL     1      -4.976   5.055  -7.484  1.00  0.00    -0.031 C 
ATOM     12  C   UNL     1      -5.481   5.832  -6.515  1.00  0.00    -0.031 C 
BRANCH  12  13
ATOM     13  C   UNL     1      -5.944   5.261  -5.202  1.00  0.00     0.027 C 
BRANCH  13  14
ATOM     14  C   UNL     1      -4.931   4.251  -4.638  1.00  0.00     0.004 C 
BRANCH  14  15
ATOM     15  C   UNL     1      -5.585   3.079  -3.878  1.00  0.00     0.000 C 
BRANCH  15  16
ATOM     16  C   UNL     1      -7.015   3.389  -3.385  1.00  0.00    -0.000 C 
BRANCH  16  17
ATOM     17  C   UNL     1      -7.377   2.674  -2.072  1.00  0.00    -0.003 C 
ATOM     18  C   UNL     1      -6.861   3.409  -0.835  1.00  0.00     0.004 C 
ENDBRANCH  16  17
ENDBRANCH  15  16
ENDBRANCH  14  15
ENDBRANCH  13  14
ENDBRANCH  12  13
ENDBRANCH  10  11
ENDBRANCH   1  10
TORSDOF 13
ENDMDL
MODEL 8
REMARK VINA RESULT:    -3.946      1.439      2.056
REMARK INTER + INTRA:          -7.950
REMARK INTER:                  -7.351
REMARK INTRA:                  -0.600
REMARK UNBOUND:                -1.005
REMARK SMILES CCCCCCC=CCCCCCCCC(=O)[O-]
REMARK SMILES IDX 10 1 11 2 12 3 13 4 14 5 15 6 16 7 17 8 18 9 9 10 8 11 7 12
REMARK SMILES IDX 6 13 5 14 4 15 3 16 2 17 1 18
REMARK H PARENT
REMARK Flexibility Score: inf
ROOT
ATOM      1  C   UNL     1      -5.089   6.657  -9.423  1.00  0.00     0.004 C 
ENDROOT
BRANCH   1   2
ATOM      2  C   UNL     1      -4.455   7.283  -8.169  1.00  0.00     0.000 C 
BRANCH   2   3
ATOM      3  C   UNL     1      -5.483   7.597  -7.057  1.00  0.00     0.000 C 
BRANCH   3   4
ATOM      4  C   UNL     1      -5.257   6.774  -5.773  1.00  0.00     0.000 C 
BRANCH   4   5
ATOM      5  C   UNL     1      -5.820   5.343  -5.847  1.00  0.00     0.006 C 
BRANCH   5   6
ATOM      6  C   UNL     1      -4.860   4.297  -5.264  1.00  0.00     0.053 C 
BRANCH   6   7
ATOM      7  C   UNL     1      -5.503   3.581  -4.118  1.00  0.00     0.041 C 
ATOM      8  O   UNL     1      -6.352   4.169  -3.399  1.00  0.00    -0.550 OA
ATOM      9  O   UNL     1      -5.136   2.273  -3.823  1.00  0.00    -0.550 OA
ENDBRANCH   6   7
ENDBRANCH   5   6
ENDBRANCH   4   5
ENDBRANCH   3   4
ENDBRANCH   2   3
ENDBRANCH   1   2
BRANCH   1  10
ATOM     10  C   UNL     1      -5.586   7.712 -10.421  1.00  0.00     0.027 C 
BRANCH  10  11
ATOM     11  C   UNL     1      -6.206   7.060 -11.626  1.00  0.00    -0.031 C 
ATOM     12  C   UNL     1      -6.283   5.726 -11.737  1.00  0.00    -0.031 C 
BRANCH  12  13
ATOM     13  C   UNL     1      -6.861   5.066 -12.960  1.00  0.00     0.027 C 
BRANCH  13  14
ATOM     14  C   UNL     1      -5.875   4.059 -13.575  1.00  0.00     0.004 C 
BRANCH  14  15
ATOM     15  C   UNL     1      -6.011   3.918 -15.105  1.00  0.00     0.000 C 
BRANCH  15  16
ATOM     16  C   UNL     1      -5.264   2.693 -15.678  1.00  0.00    -0.000 C 
BRANCH  16  17
ATOM     17  C   UNL     1      -5.349   2.586 -17.209  1.00  0.00    -0.003 C 
ATOM     18  C   UNL     1      -5.072   1.172 -17.721  1.00  0.00     0.004 C 
ENDBRANCH  16  17
ENDBRANCH  15  16
ENDBRANCH  14  15
ENDBRANCH  13  14
ENDBRANCH  12  13
ENDBRANCH  10  11
ENDBRANCH   1  10
TORSDOF 13
ENDMDL
MODEL 9
REMARK VINA RESULT:    -3.924     11.488     13.593
REMARK INTER + INTRA:          -7.911
REMARK INTER:                  -5.276
REMARK INTRA:                  -2.634
REMARK UNBOUND:                -1.005
REMARK SMILES CCCCCCC=CCCCCCCCC(=O)[O-]
REMARK SMILES IDX 10 1 11 2 12 3 13 4 14 5 15 6 16 7 17 8 18 9 9 10 8 11 7 12
REMARK SMILES IDX 6 13 5 14 4 15 3 16 2 17 1 18
REMARK H PARENT
REMARK Flexibility Score: inf
ROOT
ATOM      1  C   UNL     1      -5.645  -5.105 -12.114  1.00  0.00     0.004 C 
ENDROOT
BRANCH   1   2
ATOM      2  C   UNL     1      -6.243  -5.081 -10.697  1.00  0.00     0.000 C 
BRANCH   2   3
ATOM      3  C   UNL     1      -7.634  -5.751 -10.609  1.00  0.00     0.000 C 
BRANCH   3   4
ATOM      4  C   UNL     1      -7.573  -7.213 -10.122  1.00  0.00     0.000 C 
BRANCH   4   5
ATOM      5  C   UNL     1      -6.271  -7.563  -9.378  1.00  0.00     0.006 C 
BRANCH   5   6
ATOM      6  C   UNL     1      -6.489  -8.581  -8.250  1.00  0.00     0.053 C 
BRANCH   6   7
ATOM      7  C   UNL     1      -6.246  -9.972  -8.749  1.00  0.00     0.041 C 
ATOM      8  O   UNL     1      -7.190 -10.643  -9.241  1.00  0.00    -0.550 OA
ATOM      9  O   UNL     1      -4.981 -10.540  -8.635  1.00  0.00    -0.550 OA
ENDBRANCH   6   7
ENDBRANCH   5   6
ENDBRANCH   4   5
ENDBRANCH   3   4
ENDBRANCH   2   3
ENDBRANCH   1   2
BRANCH   1  10
ATOM     10  C   UNL     1      -6.722  -5.143 -13.208  1.00  0.00     0.027 C 
BRANCH  10  11
ATOM     11  C   UNL     1      -6.502  -6.304 -14.136  1.00  0.00    -0.031 C 
ATOM     12  C   UNL     1      -7.041  -7.508 -13.892  1.00  0.00    -0.031 C 
BRANCH  12  13
ATOM     13  C   UNL     1      -6.788  -8.686 -14.793  1.00  0.00     0.027 C 
BRANCH  13  14
ATOM     14  C   UNL     1      -6.272  -9.900 -14.002  1.00  0.00     0.004 C 
BRANCH  14  15
ATOM     15  C   UNL     1      -6.053  -9.612 -12.502  1.00  0.00     0.000 C 
BRANCH  15  16
ATOM     16  C   UNL     1      -4.568  -9.650 -12.081  1.00  0.00    -0.000 C 
BRANCH  16  17
ATOM     17  C   UNL     1      -3.914  -8.260 -12.018  1.00  0.00    -0.003 C 
ATOM     18  C   UNL     1      -3.152  -7.905 -13.295  1.00  0.00     0.004 C 
ENDBRANCH  16  17
ENDBRANCH  15  16
ENDBRANCH  14  15
ENDBRANCH  13  14
ENDBRANCH  12  13
ENDBRANCH  10  11
ENDBRANCH   1  10
TORSDOF 13
ENDMDL
