MODEL 1
REMARK VINA RESULT:    -3.658      0.000      0.000
REMARK INTER + INTRA:          -3.765
REMARK INTER:                  -3.765
REMARK INTRA:                   0.000
REMARK UNBOUND:                 0.000
REMARK SMILES Nc1ncnc2nc[nH]c12
REMARK SMILES IDX 8 1 7 2 6 3 5 4 4 5 3 6 2 7 10 8 9 9 1 11
REMARK H PARENT 9 10 1 12 1 13
REMARK Flexibility Score: inf
ROOT
ATOM      1  C   UNL     1      16.756  37.124  36.328  1.00  0.00     0.199 A 
ATOM      2  N   UNL     1      15.512  37.125  35.778  1.00  0.00    -0.217 NA
ATOM      3  C   UNL     1      15.782  37.124  34.462  1.00  0.00     0.182 A 
ATOM      4  N   UNL     1      14.880  37.125  33.451  1.00  0.00    -0.215 NA
ATOM      5  C   UNL     1      15.350  37.123  32.167  1.00  0.00     0.226 A 
ATOM      6  N   UNL     1      16.699  37.121  31.919  1.00  0.00    -0.217 NA
ATOM      7  C   UNL     1      17.611  37.120  32.937  1.00  0.00     0.152 A 
ATOM      8  C   UNL     1      17.116  37.122  34.239  1.00  0.00     0.127 A 
ATOM      9  N   UNL     1      17.759  37.122  35.413  1.00  0.00    -0.340 N 
ATOM     10  H   UNL     1      18.786  37.120  35.596  1.00  0.00     0.168 HD
ENDROOT
BRANCH   7  11
ATOM     11  N   UNL     1      19.011  37.118  32.655  1.00  0.00    -0.382 N 
ATOM     12  H   UNL     1      19.388  36.520  31.886  1.00  0.00     0.158 HD
ATOM     13  H   UNL     1      19.677  37.705  33.204  1.00  0.00     0.158 HD
ENDBRANCH   7  11
TORSDOF 1
ENDMDL
MODEL 2
REMARK VINA RESULT:    -3.347     10.852     11.220
REMARK INTER + INTRA:          -3.445
REMARK INTER:                  -3.445
REMARK INTRA:                   0.000
REMARK UNBOUND:                 0.000
REMARK SMILES Nc1ncnc2nc[nH]c12
REMARK SMILES IDX 8 1 7 2 6 3 5 4 4 5 3 6 2 7 10 8 9 9 1 11
REMARK H PARENT 9 10 1 12 1 13
REMARK Flexibility Score: inf
ROOT
ATOM      1  C   UNL     1      18.078  26.377  37.973  1.00  0.00     0.199 A 
ATOM      2  N   UNL     1      19.365  26.118  37.613  1.00  0.00    -0.217 NA
ATOM      3  C   UNL     1      19.317  26.243  36.276  1.00  0.00     0.182 A 
ATOM      4  N   UNL     1      20.348  26.086  35.412  1.00  0.00    -0.215 NA
ATOM      5  C   UNL     1      20.103  26.256  34.078  1.00  0.00     0.226 A 
ATOM      6  N   UNL     1      18.845  26.577  33.636  1.00  0.00    -0.217 NA
ATOM      7  C   UNL     1      17.803  26.737  34.505  1.00  0.00     0.152 A 
ATOM      8  C   UNL     1      18.069  26.560  35.861  1.00  0.00     0.127 A 
ATOM      9  N   UNL     1      17.261  26.651  36.925  1.00  0.00    -0.340 N 
ATOM     10  H   UNL     1      16.243  26.877  36.954  1.00  0.00     0.168 HD
ENDROOT
BRANCH   7  11
ATOM     11  N   UNL     1      16.502  27.071  34.023  1.00  0.00    -0.382 N 
ATOM     12  H   UNL     1      16.103  28.018  34.208  1.00  0.00     0.158 HD
ATOM     13  H   UNL     1      15.929  26.385  33.484  1.00  0.00     0.158 HD
ENDBRANCH   7  11
TORSDOF 1
ENDMDL
MODEL 3
REMARK VINA RESULT:    -2.540     20.609     21.665
REMARK INTER + INTRA:          -2.614
REMARK INTER:                  -2.614
REMARK INTRA:                   0.000
REMARK UNBOUND:                 0.000
REMARK SMILES Nc1ncnc2nc[nH]c12
REMARK SMILES IDX 8 1 7 2 6 3 5 4 4 5 3 6 2 7 10 8 9 9 1 11
REMARK H PARENT 9 10 1 12 1 13
REMARK Flexibility Score: inf
ROOT
ATOM      1  C   UNL     1      27.791  19.898  33.809  1.00  0.00     0.199 A 
ATOM      2  N   UNL     1      28.686  18.884  33.651  1.00  0.00    -0.217 NA
ATOM      3  C   UNL     1      29.839  19.460  34.028  1.00  0.00     0.182 A 
ATOM      4  N   UNL     1      31.061  18.877  34.060  1.00  0.00    -0.215 NA
ATOM      5  C   UNL     1      32.124  19.629  34.478  1.00  0.00     0.226 A 
ATOM      6  N   UNL     1      31.948  20.937  34.852  1.00  0.00    -0.217 NA
ATOM      7  C   UNL     1      30.716  21.527  34.821  1.00  0.00     0.152 A 
ATOM      8  C   UNL     1      29.644  20.748  34.394  1.00  0.00     0.127 A 
ATOM      9  N   UNL     1      28.346  21.051  34.262  1.00  0.00    -0.340 N 
ATOM     10  H   UNL     1      27.863  21.955  34.458  1.00  0.00     0.168 HD
ENDROOT
BRANCH   7  11
ATOM     11  N   UNL     1      30.556  22.890  35.215  1.00  0.00    -0.382 N 
ATOM     12  H   UNL     1      30.984  23.230  36.105  1.00  0.00     0.158 HD
ATOM     13  H   UNL     1      30.015  23.565  34.632  1.00  0.00     0.158 HD
ENDBRANCH   7  11
TORSDOF 1
ENDMDL
MODEL 4
REMARK VINA RESULT:    -2.138     20.821     21.851
REMARK INTER + INTRA:          -2.200
REMARK INTER:                  -2.200
REMARK INTRA:                   0.000
REMARK UNBOUND:                 0.000
REMARK SMILES Nc1ncnc2nc[nH]c12
REMARK SMILES IDX 8 1 7 2 6 3 5 4 4 5 3 6 2 7 10 8 9 9 1 11
REMARK H PARENT 9 10 1 12 1 13
REMARK Flexibility Score: inf
ROOT
ATOM      1  C   UNL     1      28.078  19.436  33.644  1.00  0.00     0.199 A 
ATOM      2  N   UNL     1      28.249  20.785  33.628  1.00  0.00    -0.217 NA
ATOM      3  C   UNL     1      29.534  20.915  33.996  1.00  0.00     0.182 A 
ATOM      4  N   UNL     1      30.221  22.073  34.140  1.00  0.00    -0.215 NA
ATOM      5  C   UNL     1      31.531  22.003  34.524  1.00  0.00     0.226 A 
ATOM      6  N   UNL     1      32.125  20.789  34.756  1.00  0.00    -0.217 NA
ATOM      7  C   UNL     1      31.435  19.618  34.611  1.00  0.00     0.152 A 
ATOM      8  C   UNL     1      30.101  19.707  34.219  1.00  0.00     0.127 A 
ATOM      9  N   UNL     1      29.193  18.748  34.001  1.00  0.00    -0.340 N 
ATOM     10  H   UNL     1      29.303  17.713  34.083  1.00  0.00     0.168 HD
ENDROOT
BRANCH   7  11
ATOM     11  N   UNL     1      32.073  18.365  34.858  1.00  0.00    -0.382 N 
ATOM     12  H   UNL     1      33.114  18.291  34.808  1.00  0.00     0.158 HD
ATOM     13  H   UNL     1      31.522  17.510  35.088  1.00  0.00     0.158 HD
ENDBRANCH   7  11
TORSDOF 1
ENDMDL
MODEL 5
REMARK VINA RESULT:    -1.824     10.903     11.549
REMARK INTER + INTRA:          -1.877
REMARK INTER:                  -1.877
REMARK INTRA:                   0.000
REMARK UNBOUND:                 0.000
REMARK SMILES Nc1ncnc2nc[nH]c12
REMARK SMILES IDX 8 1 7 2 6 3 5 4 4 5 3 6 2 7 10 8 9 9 1 11
REMARK H PARENT 9 10 1 12 1 13
REMARK Flexibility Score: inf
ROOT
ATOM      1  C   UNL     1      20.279  25.947  32.800  1.00  0.00     0.199 A 
ATOM      2  N   UNL     1      20.842  25.852  34.036  1.00  0.00    -0.217 NA
ATOM      3  C   UNL     1      19.809  26.146  34.842  1.00  0.00     0.182 A 
ATOM      4  N   UNL     1      19.829  26.195  36.196  1.00  0.00    -0.215 NA
ATOM      5  C   UNL     1      18.670  26.513  36.847  1.00  0.00     0.226 A 
ATOM      6  N   UNL     1      17.524  26.777  36.141  1.00  0.00    -0.217 NA
ATOM      7  C   UNL     1      17.501  26.729  34.775  1.00  0.00     0.152 A 
ATOM      8  C   UNL     1      18.690  26.402  34.127  1.00  0.00     0.127 A 
ATOM      9  N   UNL     1      18.964  26.281  32.822  1.00  0.00    -0.340 N 
ATOM     10  H   UNL     1      18.327  26.411  32.006  1.00  0.00     0.168 HD
ENDROOT
BRANCH   7  11
ATOM     11  N   UNL     1      16.297  27.007  34.061  1.00  0.00    -0.382 N 
ATOM     12  H   UNL     1      15.787  27.903  34.226  1.00  0.00     0.158 HD
ATOM     13  H   UNL     1      15.906  26.330  33.370  1.00  0.00     0.158 HD
ENDBRANCH   7  11
TORSDOF 1
ENDMDL
MODEL 6
REMARK VINA RESULT:    -1.815     20.601     21.555
REMARK INTER + INTRA:          -1.869
REMARK INTER:                  -1.869
REMARK INTRA:                   0.000
REMARK UNBOUND:                 0.000
REMARK SMILES Nc1ncnc2nc[nH]c12
REMARK SMILES IDX 8 1 7 2 6 3 5 4 4 5 3 6 2 7 10 8 9 9 1 11
REMARK H PARENT 9 10 1 12 1 13
REMARK Flexibility Score: inf
ROOT
ATOM      1  C   UNL     1      31.600  22.589  35.335  1.00  0.00     0.199 A 
ATOM      2  N   UNL     1      30.265  22.712  35.097  1.00  0.00    -0.217 NA
ATOM      3  C   UNL     1      29.969  21.535  34.524  1.00  0.00     0.182 A 
ATOM      4  N   UNL     1      28.751  21.133  34.085  1.00  0.00    -0.215 NA
ATOM      5  C   UNL     1      28.645  19.890  33.526  1.00  0.00     0.226 A 
ATOM      6  N   UNL     1      29.745  19.079  33.416  1.00  0.00    -0.217 NA
ATOM      7  C   UNL     1      30.974  19.481  33.858  1.00  0.00     0.152 A 
ATOM      8  C   UNL     1      31.066  20.750  34.426  1.00  0.00     0.127 A 
ATOM      9  N   UNL     1      32.119  21.401  34.936  1.00  0.00    -0.340 N 
ATOM     10  H   UNL     1      33.109  21.081  35.015  1.00  0.00     0.168 HD
ENDROOT
BRANCH   7  11
ATOM     11  N   UNL     1      32.106  18.620  33.734  1.00  0.00    -0.382 N 
ATOM     12  H   UNL     1      32.083  17.822  33.061  1.00  0.00     0.158 HD
ATOM     13  H   UNL     1      32.967  18.768  34.304  1.00  0.00     0.158 HD
ENDBRANCH   7  11
TORSDOF 1
ENDMDL
MODEL 7
REMARK VINA RESULT:    -1.592      0.854      3.598
REMARK INTER + INTRA:          -1.638
REMARK INTER:                  -1.638
REMARK INTRA:                   0.000
REMARK UNBOUND:                 0.000
REMARK SMILES Nc1ncnc2nc[nH]c12
REMARK SMILES IDX 8 1 7 2 6 3 5 4 4 5 3 6 2 7 10 8 9 9 1 11
REMARK H PARENT 9 10 1 12 1 13
REMARK Flexibility Score: inf
ROOT
ATOM      1  C   UNL     1      14.665  37.118  32.111  1.00  0.00     0.199 A 
ATOM      2  N   UNL     1      15.965  37.100  31.709  1.00  0.00    -0.217 NA
ATOM      3  C   UNL     1      16.625  37.095  32.878  1.00  0.00     0.182 A 
ATOM      4  N   UNL     1      17.969  37.078  33.048  1.00  0.00    -0.215 NA
ATOM      5  C   UNL     1      18.458  37.074  34.324  1.00  0.00     0.226 A 
ATOM      6  N   UNL     1      17.604  37.089  35.398  1.00  0.00    -0.217 NA
ATOM      7  C   UNL     1      16.248  37.106  35.229  1.00  0.00     0.152 A 
ATOM      8  C   UNL     1      15.766  37.109  33.923  1.00  0.00     0.127 A 
ATOM      9  N   UNL     1      14.510  37.125  33.459  1.00  0.00    -0.340 N 
ATOM     10  H   UNL     1      13.615  37.138  33.996  1.00  0.00     0.168 HD
ENDROOT
BRANCH   7  11
ATOM     11  N   UNL     1      15.378  37.122  36.361  1.00  0.00    -0.382 N 
ATOM     12  H   UNL     1      15.631  37.679  37.207  1.00  0.00     0.158 HD
ATOM     13  H   UNL     1      14.484  36.584  36.368  1.00  0.00     0.158 HD
ENDBRANCH   7  11
TORSDOF 1
ENDMDL
