MODEL 1
REMARK VINA RESULT:    -4.356      0.000      0.000
REMARK INTER + INTRA:          -5.374
REMARK INTER:                  -6.139
REMARK INTRA:                   0.766
REMARK UNBOUND:                 0.766
REMARK SMILES CC1=CCC(=C(C)C)C(=O)CC(C)=CCC1
REMARK SMILES IDX 12 1 14 2 13 3 15 4 16 5 2 6 1 7 3 8 11 10 9 11 10 12 5 13
REMARK SMILES IDX 6 14 7 15 8 16 4 17
REMARK H PARENT
REMARK Flexibility Score: 60.00
ROOT
ATOM      1  C   UNL     1     137.616 185.905 191.963  1.00  0.00    -0.070 C 
ATOM      2  C   UNL     1     136.717 186.694 192.593  1.00  0.00    -0.027 C 
ATOM      3  C   UNL     1     138.729 186.575 191.196  1.00  0.00     0.039 C 
ENDROOT
BRANCH   2   4
ATOM      4  C   UNL     1     135.483 186.215 193.327  1.00  0.00     0.032 C 
BRANCH   4   5
ATOM      5  C   UNL     1     134.186 186.232 192.491  1.00  0.00     0.034 C 
BRANCH   5   6
ATOM      6  C   UNL     1     133.708 184.845 192.100  1.00  0.00    -0.077 C 
ATOM      7  C   UNL     1     132.726 184.159 193.017  1.00  0.00     0.039 C 
ATOM      8  C   UNL     1     134.156 184.158 191.022  1.00  0.00    -0.023 CG0
ATOM      9  G   UNL     1     135.121 184.648 189.960  1.00  0.00     0.000 G0
ENDBRANCH   5   6
ENDBRANCH   4   5
ENDBRANCH   2   4
BRANCH   1  10
ATOM     10  C   UNL     1     137.507 184.396 191.914  1.00  0.00     0.111 C 
BRANCH  10  11
ATOM     11  C   UNL     1     137.521 183.882 190.499  1.00  0.00     0.163 C 
ATOM     12  O   UNL     1     138.638 183.688 189.947  1.00  0.00    -0.294 OA
BRANCH  11  13
ATOM     13  C   UNL     1     136.270 183.658 189.715  1.00  0.00    -0.002 C 
ATOM     14  C   UNL     1     136.203 182.671 188.772  1.00  0.00    -0.069 C 
ATOM     15  C   UNL     1     137.329 181.676 188.597  1.00  0.00     0.039 C 
ATOM     16  C   UNL     1     135.009 182.520 187.854  1.00  0.00     0.039 C 
BRANCH  13  17
ATOM     17  C   UNL     1     135.122 184.628 189.946  1.00  0.00     0.066 CG0
ATOM     18  G   UNL     1     134.161 184.140 191.012  1.00  0.00     0.000 G0
ENDBRANCH  13  17
ENDBRANCH  11  13
ENDBRANCH  10  11
ENDBRANCH   1  10
TORSDOF 0
ENDMDL
MODEL 2
REMARK VINA RESULT:    -4.211      1.883      3.821
REMARK INTER + INTRA:          -5.169
REMARK INTER:                  -5.586
REMARK INTRA:                   0.418
REMARK UNBOUND:                 0.766
REMARK SMILES CC1=CCC(=C(C)C)C(=O)CC(C)=CCC1
REMARK SMILES IDX 12 1 14 2 13 3 15 4 16 5 2 6 1 7 3 8 11 10 9 11 10 12 5 13
REMARK SMILES IDX 6 14 7 15 8 16 4 17
REMARK H PARENT
REMARK Flexibility Score: 60.00
ROOT
ATOM      1  C   UNL     1     134.468 185.624 193.496  1.00  0.00    -0.070 C 
ATOM      2  C   UNL     1     135.662 186.115 193.895  1.00  0.00    -0.027 C 
ATOM      3  C   UNL     1     133.620 184.912 194.520  1.00  0.00     0.039 C 
ENDROOT
BRANCH   2   4
ATOM      4  C   UNL     1     136.691 186.770 192.999  1.00  0.00     0.032 C 
BRANCH   4   5
ATOM      5  C   UNL     1     137.921 185.895 192.679  1.00  0.00     0.034 C 
BRANCH   5   6
ATOM      6  C   UNL     1     138.086 185.613 191.197  1.00  0.00    -0.077 C 
ATOM      7  C   UNL     1     139.028 186.494 190.416  1.00  0.00     0.039 C 
ATOM      8  C   UNL     1     137.392 184.668 190.518  1.00  0.00    -0.023 CG0
ATOM      9  G   UNL     1     136.413 183.662 191.091  1.00  0.00     0.000 G0
ENDBRANCH   5   6
ENDBRANCH   4   5
ENDBRANCH   2   4
BRANCH   1  10
ATOM     10  C   UNL     1     133.987 185.672 192.061  1.00  0.00     0.111 C 
BRANCH  10  11
ATOM     11  C   UNL     1     133.938 184.299 191.444  1.00  0.00     0.163 C 
ATOM     12  O   UNL     1     132.990 183.534 191.768  1.00  0.00    -0.294 OA
BRANCH  11  13
ATOM     13  C   UNL     1     134.999 183.797 190.521  1.00  0.00    -0.002 C 
ATOM     14  C   UNL     1     134.693 183.418 189.244  1.00  0.00    -0.069 C 
ATOM     15  C   UNL     1     133.310 183.637 188.671  1.00  0.00     0.039 C 
ATOM     16  C   UNL     1     135.711 182.759 188.338  1.00  0.00     0.039 C 
BRANCH  13  17
ATOM     17  C   UNL     1     136.400 183.640 191.091  1.00  0.00     0.066 CG0
ATOM     18  G   UNL     1     137.373 184.651 190.517  1.00  0.00     0.000 G0
ENDBRANCH  13  17
ENDBRANCH  11  13
ENDBRANCH  10  11
ENDBRANCH   1  10
TORSDOF 0
ENDMDL
MODEL 3
REMARK VINA RESULT:    -4.054      1.908      4.142
REMARK INTER + INTRA:          -4.948
REMARK INTER:                  -5.314
REMARK INTRA:                   0.367
REMARK UNBOUND:                 0.766
REMARK SMILES CC1=CCC(=C(C)C)C(=O)CC(C)=CCC1
REMARK SMILES IDX 12 1 14 2 13 3 15 4 16 5 2 6 1 7 3 8 11 10 9 11 10 12 5 13
REMARK SMILES IDX 6 14 7 15 8 16 4 17
REMARK H PARENT
REMARK Flexibility Score: 60.00
ROOT
ATOM      1  C   UNL     1     136.738 182.460 188.908  1.00  0.00    -0.070 C 
ATOM      2  C   UNL     1     137.763 182.959 189.635  1.00  0.00    -0.027 C 
ATOM      3  C   UNL     1     136.962 181.165 188.168  1.00  0.00     0.039 C 
ENDROOT
BRANCH   2   4
ATOM      4  C   UNL     1     137.765 184.286 190.363  1.00  0.00     0.032 C 
BRANCH   4   5
ATOM      5  C   UNL     1     137.204 184.236 191.800  1.00  0.00     0.034 C 
BRANCH   5   6
ATOM      6  C   UNL     1     136.028 185.171 192.016  1.00  0.00    -0.077 C 
ATOM      7  C   UNL     1     136.328 186.633 192.235  1.00  0.00     0.039 C 
ATOM      8  C   UNL     1     134.736 184.770 192.095  1.00  0.00    -0.023 CG0
ATOM      9  G   UNL     1     134.200 183.367 191.891  1.00  0.00     0.000 G0
ENDBRANCH   5   6
ENDBRANCH   4   5
ENDBRANCH   2   4
BRANCH   1  10
ATOM     10  C   UNL     1     135.418 183.180 188.729  1.00  0.00     0.111 C 
BRANCH  10  11
ATOM     11  C   UNL     1     134.302 182.485 189.463  1.00  0.00     0.163 C 
ATOM     12  O   UNL     1     133.994 181.315 189.108  1.00  0.00    -0.294 OA
BRANCH  11  13
ATOM     13  C   UNL     1     133.514 183.152 190.542  1.00  0.00    -0.002 C 
ATOM     14  C   UNL     1     132.263 183.643 190.294  1.00  0.00    -0.069 C 
ATOM     15  C   UNL     1     131.570 183.392 188.973  1.00  0.00     0.039 C 
ATOM     16  C   UNL     1     131.506 184.461 191.317  1.00  0.00     0.039 C 
BRANCH  13  17
ATOM     17  C   UNL     1     134.200 183.343 191.886  1.00  0.00     0.066 CG0
ATOM     18  G   UNL     1     134.723 184.754 192.071  1.00  0.00     0.000 G0
ENDBRANCH  13  17
ENDBRANCH  11  13
ENDBRANCH  10  11
ENDBRANCH   1  10
TORSDOF 0
ENDMDL
MODEL 4
REMARK VINA RESULT:    -3.932      1.753      2.066
REMARK INTER + INTRA:          -4.775
REMARK INTER:                  -4.978
REMARK INTRA:                   0.203
REMARK UNBOUND:                 0.766
REMARK SMILES CC1=CCC(=C(C)C)C(=O)CC(C)=CCC1
REMARK SMILES IDX 12 1 14 2 13 3 15 4 16 5 2 6 1 7 3 8 11 10 9 11 10 12 5 13
REMARK SMILES IDX 6 14 7 15 8 16 4 17
REMARK H PARENT
REMARK Flexibility Score: 60.00
ROOT
ATOM      1  C   UNL     1     137.688 186.166 191.504  1.00  0.00    -0.070 C 
ATOM      2  C   UNL     1     137.582 186.399 192.831  1.00  0.00    -0.027 C 
ATOM      3  C   UNL     1     138.983 186.533 190.824  1.00  0.00     0.039 C 
ENDROOT
BRANCH   2   4
ATOM      4  C   UNL     1     136.339 186.191 193.668  1.00  0.00     0.032 C 
BRANCH   4   5
ATOM      5  C   UNL     1     136.107 184.738 194.133  1.00  0.00     0.034 C 
BRANCH   5   6
ATOM      6  C   UNL     1     134.697 184.242 193.869  1.00  0.00    -0.077 C 
ATOM      7  C   UNL     1     133.586 184.809 194.716  1.00  0.00     0.039 C 
ATOM      8  C   UNL     1     134.383 183.275 192.973  1.00  0.00    -0.023 CG0
ATOM      9  G   UNL     1     135.323 182.580 192.008  1.00  0.00     0.000 G0
ENDBRANCH   5   6
ENDBRANCH   4   5
ENDBRANCH   2   4
BRANCH   1  10
ATOM     10  C   UNL     1     136.546 185.645 190.658  1.00  0.00     0.111 C 
BRANCH  10  11
ATOM     11  C   UNL     1     136.622 184.152 190.478  1.00  0.00     0.163 C 
ATOM     12  O   UNL     1     137.716 183.654 190.098  1.00  0.00    -0.294 OA
BRANCH  11  13
ATOM     13  C   UNL     1     135.441 183.260 190.672  1.00  0.00    -0.002 C 
ATOM     14  C   UNL     1     134.478 183.154 189.708  1.00  0.00    -0.069 C 
ATOM     15  C   UNL     1     134.649 183.808 188.354  1.00  0.00     0.039 C 
ATOM     16  C   UNL     1     133.195 182.385 189.937  1.00  0.00     0.039 C 
BRANCH  13  17
ATOM     17  C   UNL     1     135.312 182.558 192.016  1.00  0.00     0.066 CG0
ATOM     18  G   UNL     1     134.391 183.298 192.966  1.00  0.00     0.000 G0
ENDBRANCH  13  17
ENDBRANCH  11  13
ENDBRANCH  10  11
ENDBRANCH   1  10
TORSDOF 0
ENDMDL
MODEL 5
REMARK VINA RESULT:    -3.882      1.567      4.252
REMARK INTER + INTRA:          -4.706
REMARK INTER:                  -4.919
REMARK INTRA:                   0.213
REMARK UNBOUND:                 0.766
REMARK SMILES CC1=CCC(=C(C)C)C(=O)CC(C)=CCC1
REMARK SMILES IDX 12 1 14 2 13 3 15 4 16 5 2 6 1 7 3 8 11 10 9 11 10 12 5 13
REMARK SMILES IDX 6 14 7 15 8 16 4 17
REMARK H PARENT
REMARK Flexibility Score: 60.00
ROOT
ATOM      1  C   UNL     1     134.547 182.786 188.184  1.00  0.00    -0.070 C 
ATOM      2  C   UNL     1     133.327 182.270 188.451  1.00  0.00    -0.027 C 
ATOM      3  C   UNL     1     135.530 181.923 187.433  1.00  0.00     0.039 C 
ENDROOT
BRANCH   2   4
ATOM      4  C   UNL     1     132.246 182.939 189.271  1.00  0.00     0.032 C 
BRANCH   4   5
ATOM      5  C   UNL     1     132.176 182.484 190.744  1.00  0.00     0.034 C 
BRANCH   5   6
ATOM      6  C   UNL     1     132.189 183.639 191.729  1.00  0.00    -0.077 C 
ATOM      7  C   UNL     1     130.869 184.285 192.068  1.00  0.00     0.039 C 
ATOM      8  C   UNL     1     133.312 184.171 192.268  1.00  0.00    -0.023 CG0
ATOM      9  G   UNL     1     134.736 183.680 192.088  1.00  0.00     0.000 G0
ENDBRANCH   5   6
ENDBRANCH   4   5
ENDBRANCH   2   4
BRANCH   1  10
ATOM     10  C   UNL     1     135.002 184.143 188.679  1.00  0.00     0.111 C 
BRANCH  10  11
ATOM     11  C   UNL     1     135.931 184.023 189.857  1.00  0.00     0.163 C 
ATOM     12  O   UNL     1     137.016 183.399 189.700  1.00  0.00    -0.294 OA
BRANCH  11  13
ATOM     13  C   UNL     1     135.585 184.557 191.208  1.00  0.00    -0.002 C 
ATOM     14  C   UNL     1     136.087 185.753 191.637  1.00  0.00    -0.069 C 
ATOM     15  C   UNL     1     136.878 186.650 190.710  1.00  0.00     0.039 C 
ATOM     16  C   UNL     1     135.885 186.246 193.054  1.00  0.00     0.039 C 
BRANCH  13  17
ATOM     17  C   UNL     1     134.737 183.673 192.109  1.00  0.00     0.066 CG0
ATOM     18  G   UNL     1     133.316 184.185 192.246  1.00  0.00     0.000 G0
ENDBRANCH  13  17
ENDBRANCH  11  13
ENDBRANCH  10  11
ENDBRANCH   1  10
TORSDOF 0
ENDMDL
MODEL 6
REMARK VINA RESULT:    -3.855      1.691      4.242
REMARK INTER + INTRA:          -4.667
REMARK INTER:                  -5.098
REMARK INTRA:                   0.431
REMARK UNBOUND:                 0.766
REMARK SMILES CC1=CCC(=C(C)C)C(=O)CC(C)=CCC1
REMARK SMILES IDX 12 1 14 2 13 3 15 4 16 5 2 6 1 7 3 8 11 10 9 11 10 12 5 13
REMARK SMILES IDX 6 14 7 15 8 16 4 17
REMARK H PARENT
REMARK Flexibility Score: 60.00
ROOT
ATOM      1  C   UNL     1     136.400 182.506 188.889  1.00  0.00    -0.070 C 
ATOM      2  C   UNL     1     135.328 182.694 188.088  1.00  0.00    -0.027 C 
ATOM      3  C   UNL     1     137.120 181.183 188.807  1.00  0.00     0.039 C 
ENDROOT
BRANCH   2   4
ATOM      4  C   UNL     1     134.423 183.907 188.094  1.00  0.00     0.032 C 
BRANCH   4   5
ATOM      5  C   UNL     1     132.954 183.616 188.467  1.00  0.00     0.034 C 
BRANCH   5   6
ATOM      6  C   UNL     1     132.807 182.866 189.779  1.00  0.00    -0.077 C 
ATOM      7  C   UNL     1     132.128 181.520 189.743  1.00  0.00     0.039 C 
ATOM      8  C   UNL     1     133.181 183.356 190.985  1.00  0.00    -0.023 CG0
ATOM      9  G   UNL     1     133.893 184.666 191.260  1.00  0.00     0.000 G0
ENDBRANCH   5   6
ENDBRANCH   4   5
ENDBRANCH   2   4
BRANCH   1  10
ATOM     10  C   UNL     1     136.852 183.516 189.923  1.00  0.00     0.111 C 
BRANCH  10  11
ATOM     11  C   UNL     1     136.114 183.348 191.225  1.00  0.00     0.163 C 
ATOM     12  O   UNL     1     136.151 182.221 191.789  1.00  0.00    -0.294 OA
BRANCH  11  13
ATOM     13  C   UNL     1     135.297 184.441 191.830  1.00  0.00    -0.002 C 
ATOM     14  C   UNL     1     135.765 185.158 192.895  1.00  0.00    -0.069 C 
ATOM     15  C   UNL     1     137.181 184.978 193.399  1.00  0.00     0.039 C 
ATOM     16  C   UNL     1     134.902 186.161 193.628  1.00  0.00     0.039 C 
BRANCH  13  17
ATOM     17  C   UNL     1     133.897 184.654 191.273  1.00  0.00     0.066 CG0
ATOM     18  G   UNL     1     133.183 183.345 190.995  1.00  0.00     0.000 G0
ENDBRANCH  13  17
ENDBRANCH  11  13
ENDBRANCH  10  11
ENDBRANCH   1  10
TORSDOF 0
ENDMDL
MODEL 7
REMARK VINA RESULT:    -3.825      1.655      4.098
REMARK INTER + INTRA:          -4.625
REMARK INTER:                  -5.027
REMARK INTRA:                   0.403
REMARK UNBOUND:                 0.766
REMARK SMILES CC1=CCC(=C(C)C)C(=O)CC(C)=CCC1
REMARK SMILES IDX 12 1 14 2 13 3 15 4 16 5 2 6 1 7 3 8 11 10 9 11 10 12 5 13
REMARK SMILES IDX 6 14 7 15 8 16 4 17
REMARK H PARENT
REMARK Flexibility Score: 60.00
ROOT
ATOM      1  C   UNL     1     136.857 182.898 190.082  1.00  0.00    -0.070 C 
ATOM      2  C   UNL     1     137.816 183.829 190.282  1.00  0.00    -0.027 C 
ATOM      3  C   UNL     1     136.860 182.151 188.772  1.00  0.00     0.039 C 
ENDROOT
BRANCH   2   4
ATOM      4  C   UNL     1     137.921 184.744 191.483  1.00  0.00     0.032 C 
BRANCH   4   5
ATOM      5  C   UNL     1     136.951 185.944 191.469  1.00  0.00     0.034 C 
BRANCH   5   6
ATOM      6  C   UNL     1     136.351 186.245 192.830  1.00  0.00    -0.077 C 
ATOM      7  C   UNL     1     137.291 186.670 193.931  1.00  0.00     0.039 C 
ATOM      8  C   UNL     1     135.041 186.091 193.139  1.00  0.00    -0.023 CG0
ATOM      9  G   UNL     1     133.919 185.696 192.199  1.00  0.00     0.000 G0
ENDBRANCH   5   6
ENDBRANCH   4   5
ENDBRANCH   2   4
BRANCH   1  10
ATOM     10  C   UNL     1     135.734 182.636 191.064  1.00  0.00     0.111 C 
BRANCH  10  11
ATOM     11  C   UNL     1     134.588 183.593 190.867  1.00  0.00     0.163 C 
ATOM     12  O   UNL     1     134.306 183.950 189.691  1.00  0.00    -0.294 OA
BRANCH  11  13
ATOM     13  C   UNL     1     133.825 184.176 192.011  1.00  0.00    -0.002 C 
ATOM     14  C   UNL     1     133.030 183.388 192.795  1.00  0.00    -0.069 C 
ATOM     15  C   UNL     1     133.014 181.884 192.634  1.00  0.00     0.039 C 
ATOM     16  C   UNL     1     132.124 183.970 193.859  1.00  0.00     0.039 C 
BRANCH  13  17
ATOM     17  C   UNL     1     133.899 185.683 192.201  1.00  0.00     0.066 CG0
ATOM     18  G   UNL     1     135.027 186.093 193.127  1.00  0.00     0.000 G0
ENDBRANCH  13  17
ENDBRANCH  11  13
ENDBRANCH  10  11
ENDBRANCH   1  10
TORSDOF 0
ENDMDL
MODEL 8
REMARK VINA RESULT:    -3.763      1.613      2.142
REMARK INTER + INTRA:          -4.537
REMARK INTER:                  -4.986
REMARK INTRA:                   0.449
REMARK UNBOUND:                 0.766
REMARK SMILES CC1=CCC(=C(C)C)C(=O)CC(C)=CCC1
REMARK SMILES IDX 12 1 14 2 13 3 15 4 16 5 2 6 1 7 3 8 11 10 9 11 10 12 5 13
REMARK SMILES IDX 6 14 7 15 8 16 4 17
REMARK H PARENT
REMARK Flexibility Score: 60.00
ROOT
ATOM      1  C   UNL     1     137.951 185.046 191.511  1.00  0.00    -0.070 C 
ATOM      2  C   UNL     1     137.786 184.880 192.842  1.00  0.00    -0.027 C 
ATOM      3  C   UNL     1     138.393 186.400 191.017  1.00  0.00     0.039 C 
ENDROOT
BRANCH   2   4
ATOM      4  C   UNL     1     137.259 183.633 193.518  1.00  0.00     0.032 C 
BRANCH   4   5
ATOM      5  C   UNL     1     135.909 183.813 194.244  1.00  0.00     0.034 C 
BRANCH   5   6
ATOM      6  C   UNL     1     134.864 184.520 193.399  1.00  0.00    -0.077 C 
ATOM      7  C   UNL     1     134.389 185.874 193.862  1.00  0.00     0.039 C 
ATOM      8  C   UNL     1     134.283 183.985 192.298  1.00  0.00    -0.023 CG0
ATOM      9  G   UNL     1     134.612 182.658 191.642  1.00  0.00     0.000 G0
ENDBRANCH   5   6
ENDBRANCH   4   5
ENDBRANCH   2   4
BRANCH   1  10
ATOM     10  C   UNL     1     137.628 183.972 190.494  1.00  0.00     0.111 C 
BRANCH  10  11
ATOM     11  C   UNL     1     136.176 184.002 190.095  1.00  0.00     0.163 C 
ATOM     12  O   UNL     1     135.704 185.082 189.648  1.00  0.00    -0.294 OA
BRANCH  11  13
ATOM     13  C   UNL     1     135.273 182.826 190.270  1.00  0.00    -0.002 C 
ATOM     14  C   UNL     1     134.995 181.995 189.220  1.00  0.00    -0.069 C 
ATOM     15  C   UNL     1     135.709 182.142 187.894  1.00  0.00     0.039 C 
ATOM     16  C   UNL     1     133.964 180.891 189.322  1.00  0.00     0.039 C 
BRANCH  13  17
ATOM     17  C   UNL     1     134.609 182.653 191.627  1.00  0.00     0.066 CG0
ATOM     18  G   UNL     1     134.290 183.981 192.285  1.00  0.00     0.000 G0
ENDBRANCH  13  17
ENDBRANCH  11  13
ENDBRANCH  10  11
ENDBRANCH   1  10
TORSDOF 0
ENDMDL
MODEL 9
REMARK VINA RESULT:    -3.662      2.198      3.736
REMARK INTER + INTRA:          -4.395
REMARK INTER:                  -4.814
REMARK INTRA:                   0.419
REMARK UNBOUND:                 0.766
REMARK SMILES CC1=CCC(=C(C)C)C(=O)CC(C)=CCC1
REMARK SMILES IDX 12 1 14 2 13 3 15 4 16 5 2 6 1 7 3 8 11 10 9 11 10 12 5 13
REMARK SMILES IDX 6 14 7 15 8 16 4 17
REMARK H PARENT
REMARK Flexibility Score: 60.00
ROOT
ATOM      1  C   UNL     1     136.598 183.056 189.280  1.00  0.00    -0.070 C 
ATOM      2  C   UNL     1     137.080 184.033 190.080  1.00  0.00    -0.027 C 
ATOM      3  C   UNL     1     137.539 181.950 188.871  1.00  0.00     0.039 C 
ENDROOT
BRANCH   2   4
ATOM      4  C   UNL     1     136.325 185.270 190.516  1.00  0.00     0.032 C 
BRANCH   4   5
ATOM      5  C   UNL     1     136.148 185.415 192.042  1.00  0.00     0.034 C 
BRANCH   5   6
ATOM      6  C   UNL     1     135.519 184.196 192.691  1.00  0.00    -0.077 C 
ATOM      7  C   UNL     1     136.325 183.464 193.734  1.00  0.00     0.039 C 
ATOM      8  C   UNL     1     134.313 183.684 192.346  1.00  0.00    -0.023 CG0
ATOM      9  G   UNL     1     133.328 184.256 191.346  1.00  0.00     0.000 G0
ENDBRANCH   5   6
ENDBRANCH   4   5
ENDBRANCH   2   4
BRANCH   1  10
ATOM     10  C   UNL     1     135.197 183.067 188.706  1.00  0.00     0.111 C 
BRANCH  10  11
ATOM     11  C   UNL     1     134.194 182.501 189.675  1.00  0.00     0.163 C 
ATOM     12  O   UNL     1     134.312 181.292 190.015  1.00  0.00    -0.294 OA
BRANCH  11  13
ATOM     13  C   UNL     1     133.040 183.296 190.191  1.00  0.00    -0.002 C 
ATOM     14  C   UNL     1     131.816 183.224 189.588  1.00  0.00    -0.069 C 
ATOM     15  C   UNL     1     131.543 182.227 188.483  1.00  0.00     0.039 C 
ATOM     16  C   UNL     1     130.672 184.133 189.986  1.00  0.00     0.039 C 
BRANCH  13  17
ATOM     17  C   UNL     1     133.313 184.250 191.343  1.00  0.00     0.066 CG0
ATOM     18  G   UNL     1     134.308 183.683 192.337  1.00  0.00     0.000 G0
ENDBRANCH  13  17
ENDBRANCH  11  13
ENDBRANCH  10  11
ENDBRANCH   1  10
TORSDOF 0
ENDMDL
