MODEL 1
REMARK VINA RESULT:    -5.110      0.000      0.000
REMARK INTER + INTRA:          -5.110
REMARK INTER:                  -5.110
REMARK INTRA:                   0.000
REMARK UNBOUND:                 0.000
REMARK SMILES C=C1CCC[C@]2(C)CC(=O)C(=C(C)C)C[C@H]12
REMARK SMILES IDX 13 1 12 2 11 3 15 4 16 5 2 6 1 7 3 8 4 9 5 10 6 11 8 12 9 13
REMARK SMILES IDX 10 14 7 15 14 16
REMARK H PARENT
REMARK Flexibility Score: inf
ROOT
ATOM      1  C   UNL     1       0.934  -3.376  15.808  1.00  0.00     0.039 C 
ATOM      2  C   UNL     1       1.753  -3.580  17.061  1.00  0.00    -0.070 C 
ATOM      3  C   UNL     1       1.214  -4.140  18.187  1.00  0.00    -0.006 C 
ATOM      4  C   UNL     1      -0.255  -4.514  18.263  1.00  0.00     0.047 C 
ATOM      5  C   UNL     1      -0.916  -4.323  19.666  1.00  0.00     0.025 C 
ATOM      6  C   UNL     1      -2.022  -3.286  19.603  1.00  0.00    -0.073 C 
ATOM      7  C   UNL     1      -3.286  -3.682  19.396  1.00  0.00     0.008 C 
ATOM      8  C   UNL     1      -1.662  -1.825  19.695  1.00  0.00     0.031 C 
ATOM      9  C   UNL     1      -0.799  -1.578  20.931  1.00  0.00     0.005 C 
ATOM     10  C   UNL     1       0.431  -2.496  20.946  1.00  0.00     0.008 C 
ATOM     11  C   UNL     1       0.069  -4.019  20.851  1.00  0.00    -0.018 C 
ATOM     12  C   UNL     1       1.367  -4.840  20.666  1.00  0.00     0.088 C 
ATOM     13  C   UNL     1       2.037  -4.532  19.363  1.00  0.00     0.159 C 
ATOM     14  O   UNL     1       3.282  -4.705  19.271  1.00  0.00    -0.295 OA
ATOM     15  C   UNL     1      -0.578  -4.471  22.184  1.00  0.00     0.012 C 
ATOM     16  C   UNL     1       3.178  -3.079  17.026  1.00  0.00     0.039 C 
ENDROOT
TORSDOF 0
ENDMDL
MODEL 2
REMARK VINA RESULT:    -5.078      1.807      2.732
REMARK INTER + INTRA:          -5.078
REMARK INTER:                  -5.078
REMARK INTRA:                   0.000
REMARK UNBOUND:                 0.000
REMARK SMILES C=C1CCC[C@]2(C)CC(=O)C(=C(C)C)C[C@H]12
REMARK SMILES IDX 13 1 12 2 11 3 15 4 16 5 2 6 1 7 3 8 4 9 5 10 6 11 8 12 9 13
REMARK SMILES IDX 10 14 7 15 14 16
REMARK H PARENT
REMARK Flexibility Score: inf
ROOT
ATOM      1  C   UNL     1       0.693  -0.838  14.855  1.00  0.00     0.039 C 
ATOM      2  C   UNL     1       1.854  -1.069  15.792  1.00  0.00    -0.070 C 
ATOM      3  C   UNL     1       2.009  -2.250  16.465  1.00  0.00    -0.006 C 
ATOM      4  C   UNL     1       0.981  -3.363  16.365  1.00  0.00     0.047 C 
ATOM      5  C   UNL     1       0.774  -4.194  17.671  1.00  0.00     0.025 C 
ATOM      6  C   UNL     1      -0.644  -4.038  18.190  1.00  0.00    -0.073 C 
ATOM      7  C   UNL     1      -1.578  -4.931  17.832  1.00  0.00     0.008 C 
ATOM      8  C   UNL     1      -0.988  -2.835  19.030  1.00  0.00     0.031 C 
ATOM      9  C   UNL     1      -0.002  -2.713  20.191  1.00  0.00     0.005 C 
ATOM     10  C   UNL     1       1.449  -2.695  19.692  1.00  0.00     0.008 C 
ATOM     11  C   UNL     1       1.818  -3.941  18.816  1.00  0.00    -0.018 C 
ATOM     12  C   UNL     1       3.221  -3.730  18.197  1.00  0.00     0.088 C 
ATOM     13  C   UNL     1       3.237  -2.580  17.239  1.00  0.00     0.159 C 
ATOM     14  O   UNL     1       4.325  -1.976  17.042  1.00  0.00    -0.295 OA
ATOM     15  C   UNL     1       1.898  -5.194  19.723  1.00  0.00     0.012 C 
ATOM     16  C   UNL     1       2.800   0.092  15.996  1.00  0.00     0.039 C 
ENDROOT
TORSDOF 0
ENDMDL
MODEL 3
REMARK VINA RESULT:    -4.795      3.455      5.632
REMARK INTER + INTRA:          -4.795
REMARK INTER:                  -4.795
REMARK INTRA:                   0.000
REMARK UNBOUND:                 0.000
REMARK SMILES C=C1CCC[C@]2(C)CC(=O)C(=C(C)C)C[C@H]12
REMARK SMILES IDX 13 1 12 2 11 3 15 4 16 5 2 6 1 7 3 8 4 9 5 10 6 11 8 12 9 13
REMARK SMILES IDX 10 14 7 15 14 16
REMARK H PARENT
REMARK Flexibility Score: inf
ROOT
ATOM      1  C   UNL     1      -0.472   0.383  14.475  1.00  0.00     0.039 C 
ATOM      2  C   UNL     1       1.019   0.374  14.233  1.00  0.00    -0.070 C 
ATOM      3  C   UNL     1       1.770  -0.755  14.418  1.00  0.00    -0.006 C 
ATOM      4  C   UNL     1       1.157  -2.039  14.949  1.00  0.00     0.047 C 
ATOM      5  C   UNL     1       2.091  -2.887  15.871  1.00  0.00     0.025 C 
ATOM      6  C   UNL     1       1.514  -2.992  17.271  1.00  0.00    -0.073 C 
ATOM      7  C   UNL     1       0.746  -4.044  17.589  1.00  0.00     0.008 C 
ATOM      8  C   UNL     1       1.752  -1.869  18.247  1.00  0.00     0.031 C 
ATOM      9  C   UNL     1       3.247  -1.561  18.331  1.00  0.00     0.005 C 
ATOM     10  C   UNL     1       3.837  -1.278  16.943  1.00  0.00     0.008 C 
ATOM     11  C   UNL     1       3.596  -2.440  15.919  1.00  0.00    -0.018 C 
ATOM     12  C   UNL     1       4.041  -1.977  14.510  1.00  0.00     0.088 C 
ATOM     13  C   UNL     1       3.197  -0.849  14.005  1.00  0.00     0.159 C 
ATOM     14  O   UNL     1       3.695  -0.055  13.163  1.00  0.00    -0.295 OA
ATOM     15  C   UNL     1       4.478  -3.652  16.307  1.00  0.00     0.012 C 
ATOM     16  C   UNL     1       1.647   1.691  13.839  1.00  0.00     0.039 C 
ENDROOT
TORSDOF 0
ENDMDL
MODEL 4
REMARK VINA RESULT:    -4.780      6.265      8.170
REMARK INTER + INTRA:          -4.780
REMARK INTER:                  -4.780
REMARK INTRA:                   0.000
REMARK UNBOUND:                 0.000
REMARK SMILES C=C1CCC[C@]2(C)CC(=O)C(=C(C)C)C[C@H]12
REMARK SMILES IDX 13 1 12 2 11 3 15 4 16 5 2 6 1 7 3 8 4 9 5 10 6 11 8 12 9 13
REMARK SMILES IDX 10 14 7 15 14 16
REMARK H PARENT
REMARK Flexibility Score: inf
ROOT
ATOM      1  C   UNL     1       1.376  -0.340  25.920  1.00  0.00     0.039 C 
ATOM      2  C   UNL     1       2.763  -0.522  25.351  1.00  0.00    -0.070 C 
ATOM      3  C   UNL     1       3.457   0.523  24.804  1.00  0.00    -0.006 C 
ATOM      4  C   UNL     1       2.840   1.904  24.671  1.00  0.00     0.047 C 
ATOM      5  C   UNL     1       3.271   2.704  23.400  1.00  0.00     0.025 C 
ATOM      6  C   UNL     1       2.076   2.976  22.505  1.00  0.00    -0.073 C 
ATOM      7  C   UNL     1       1.405   4.130  22.634  1.00  0.00     0.008 C 
ATOM      8  C   UNL     1       1.621   1.906  21.545  1.00  0.00     0.031 C 
ATOM      9  C   UNL     1       2.800   1.435  20.695  1.00  0.00     0.005 C 
ATOM     10  C   UNL     1       3.976   0.985  21.573  1.00  0.00     0.008 C 
ATOM     11  C   UNL     1       4.458   2.090  22.575  1.00  0.00    -0.018 C 
ATOM     12  C   UNL     1       5.498   1.478  23.546  1.00  0.00     0.088 C 
ATOM     13  C   UNL     1       4.890   0.421  24.414  1.00  0.00     0.159 C 
ATOM     14  O   UNL     1       5.637  -0.483  24.873  1.00  0.00    -0.295 OA
ATOM     15  C   UNL     1       5.171   3.217  21.787  1.00  0.00     0.012 C 
ATOM     16  C   UNL     1       3.318  -1.928  25.359  1.00  0.00     0.039 C 
ENDROOT
TORSDOF 0
ENDMDL
MODEL 5
REMARK VINA RESULT:    -4.715      5.250      7.734
REMARK INTER + INTRA:          -4.715
REMARK INTER:                  -4.715
REMARK INTRA:                   0.000
REMARK UNBOUND:                 0.000
REMARK SMILES C=C1CCC[C@]2(C)CC(=O)C(=C(C)C)C[C@H]12
REMARK SMILES IDX 13 1 12 2 11 3 15 4 16 5 2 6 1 7 3 8 4 9 5 10 6 11 8 12 9 13
REMARK SMILES IDX 10 14 7 15 14 16
REMARK H PARENT
REMARK Flexibility Score: inf
ROOT
ATOM      1  C   UNL     1       1.668  -0.350  26.010  1.00  0.00     0.039 C 
ATOM      2  C   UNL     1       0.634  -0.275  24.912  1.00  0.00    -0.070 C 
ATOM      3  C   UNL     1       0.975   0.050  23.627  1.00  0.00    -0.006 C 
ATOM      4  C   UNL     1       2.397   0.428  23.253  1.00  0.00     0.047 C 
ATOM      5  C   UNL     1       2.523   1.515  22.137  1.00  0.00     0.025 C 
ATOM      6  C   UNL     1       3.199   2.762  22.675  1.00  0.00    -0.073 C 
ATOM      7  C   UNL     1       4.526   2.903  22.541  1.00  0.00     0.008 C 
ATOM      8  C   UNL     1       2.373   3.779  23.421  1.00  0.00     0.031 C 
ATOM      9  C   UNL     1       1.158   4.176  22.585  1.00  0.00     0.005 C 
ATOM     10  C   UNL     1       0.345   2.945  22.161  1.00  0.00     0.008 C 
ATOM     11  C   UNL     1       1.194   1.880  21.384  1.00  0.00    -0.018 C 
ATOM     12  C   UNL     1       0.346   0.601  21.185  1.00  0.00     0.088 C 
ATOM     13  C   UNL     1       0.020  -0.057  22.490  1.00  0.00     0.159 C 
ATOM     14  O   UNL     1      -1.017  -0.769  22.563  1.00  0.00    -0.295 OA
ATOM     15  C   UNL     1       1.536   2.430  19.978  1.00  0.00     0.012 C 
ATOM     16  C   UNL     1      -0.801  -0.516  25.317  1.00  0.00     0.039 C 
ENDROOT
TORSDOF 0
ENDMDL
MODEL 6
REMARK VINA RESULT:    -4.661      1.938      3.616
REMARK INTER + INTRA:          -4.661
REMARK INTER:                  -4.661
REMARK INTRA:                   0.000
REMARK UNBOUND:                 0.000
REMARK SMILES C=C1CCC[C@]2(C)CC(=O)C(=C(C)C)C[C@H]12
REMARK SMILES IDX 13 1 12 2 11 3 15 4 16 5 2 6 1 7 3 8 4 9 5 10 6 11 8 12 9 13
REMARK SMILES IDX 10 14 7 15 14 16
REMARK H PARENT
REMARK Flexibility Score: inf
ROOT
ATOM      1  C   UNL     1       5.427  -2.002  18.303  1.00  0.00     0.039 C 
ATOM      2  C   UNL     1       4.524  -2.776  19.235  1.00  0.00    -0.070 C 
ATOM      3  C   UNL     1       3.468  -3.509  18.767  1.00  0.00    -0.006 C 
ATOM      4  C   UNL     1       3.099  -3.521  17.294  1.00  0.00     0.047 C 
ATOM      5  C   UNL     1       1.570  -3.619  16.994  1.00  0.00     0.025 C 
ATOM      6  C   UNL     1       1.083  -2.379  16.269  1.00  0.00    -0.073 C 
ATOM      7  C   UNL     1       1.039  -2.373  14.929  1.00  0.00     0.008 C 
ATOM      8  C   UNL     1       0.736  -1.150  17.071  1.00  0.00     0.031 C 
ATOM      9  C   UNL     1      -0.250  -1.515  18.180  1.00  0.00     0.005 C 
ATOM     10  C   UNL     1       0.285  -2.661  19.049  1.00  0.00     0.008 C 
ATOM     11  C   UNL     1       0.649  -3.944  18.225  1.00  0.00    -0.018 C 
ATOM     12  C   UNL     1       1.366  -4.957  19.151  1.00  0.00     0.088 C 
ATOM     13  C   UNL     1       2.683  -4.432  19.632  1.00  0.00     0.159 C 
ATOM     14  O   UNL     1       3.140  -4.864  20.723  1.00  0.00    -0.295 OA
ATOM     15  C   UNL     1      -0.654  -4.616  17.728  1.00  0.00     0.012 C 
ATOM     16  C   UNL     1       4.811  -2.649  20.714  1.00  0.00     0.039 C 
ENDROOT
TORSDOF 0
ENDMDL
MODEL 7
REMARK VINA RESULT:    -4.660      2.092      4.869
REMARK INTER + INTRA:          -4.660
REMARK INTER:                  -4.660
REMARK INTRA:                   0.000
REMARK UNBOUND:                 0.000
REMARK SMILES C=C1CCC[C@]2(C)CC(=O)C(=C(C)C)C[C@H]12
REMARK SMILES IDX 13 1 12 2 11 3 15 4 16 5 2 6 1 7 3 8 4 9 5 10 6 11 8 12 9 13
REMARK SMILES IDX 10 14 7 15 14 16
REMARK H PARENT
REMARK Flexibility Score: inf
ROOT
ATOM      1  C   UNL     1      -0.160  -3.917  22.668  1.00  0.00     0.039 C 
ATOM      2  C   UNL     1      -1.015  -3.722  21.439  1.00  0.00    -0.070 C 
ATOM      3  C   UNL     1      -0.581  -4.095  20.196  1.00  0.00    -0.006 C 
ATOM      4  C   UNL     1       0.812  -4.656  19.976  1.00  0.00     0.047 C 
ATOM      5  C   UNL     1       1.478  -4.263  18.618  1.00  0.00     0.025 C 
ATOM      6  C   UNL     1       2.730  -3.438  18.851  1.00  0.00    -0.073 C 
ATOM      7  C   UNL     1       3.921  -4.051  18.912  1.00  0.00     0.008 C 
ATOM      8  C   UNL     1       2.597  -1.955  19.090  1.00  0.00     0.031 C 
ATOM      9  C   UNL     1       1.767  -1.322  17.974  1.00  0.00     0.005 C 
ATOM     10  C   UNL     1       0.411  -2.024  17.819  1.00  0.00     0.008 C 
ATOM     11  C   UNL     1       0.538  -3.566  17.570  1.00  0.00    -0.018 C 
ATOM     12  C   UNL     1      -0.869  -4.209  17.634  1.00  0.00     0.088 C 
ATOM     13  C   UNL     1      -1.469  -4.097  19.001  1.00  0.00     0.159 C 
ATOM     14  O   UNL     1      -2.724  -4.101  19.110  1.00  0.00    -0.295 OA
ATOM     15  C   UNL     1       1.091  -3.808  16.144  1.00  0.00     0.012 C 
ATOM     16  C   UNL     1      -2.346  -3.036  21.644  1.00  0.00     0.039 C 
ENDROOT
TORSDOF 0
ENDMDL
MODEL 8
REMARK VINA RESULT:    -4.558      2.028      5.031
REMARK INTER + INTRA:          -4.558
REMARK INTER:                  -4.558
REMARK INTRA:                   0.000
REMARK UNBOUND:                 0.000
REMARK SMILES C=C1CCC[C@]2(C)CC(=O)C(=C(C)C)C[C@H]12
REMARK SMILES IDX 13 1 12 2 11 3 15 4 16 5 2 6 1 7 3 8 4 9 5 10 6 11 8 12 9 13
REMARK SMILES IDX 10 14 7 15 14 16
REMARK H PARENT
REMARK Flexibility Score: inf
ROOT
ATOM      1  C   UNL     1       2.049  -4.395  21.130  1.00  0.00     0.039 C 
ATOM      2  C   UNL     1       0.921  -4.358  20.126  1.00  0.00    -0.070 C 
ATOM      3  C   UNL     1       1.157  -4.197  18.788  1.00  0.00    -0.006 C 
ATOM      4  C   UNL     1       2.558  -3.970  18.249  1.00  0.00     0.047 C 
ATOM      5  C   UNL     1       2.647  -3.019  17.013  1.00  0.00     0.025 C 
ATOM      6  C   UNL     1       3.453  -1.777  17.345  1.00  0.00    -0.073 C 
ATOM      7  C   UNL     1       4.767  -1.754  17.079  1.00  0.00     0.008 C 
ATOM      8  C   UNL     1       2.772  -0.627  18.043  1.00  0.00     0.031 C 
ATOM      9  C   UNL     1       1.510  -0.229  17.279  1.00  0.00     0.005 C 
ATOM     10  C   UNL     1       0.581  -1.433  17.070  1.00  0.00     0.008 C 
ATOM     11  C   UNL     1       1.279  -2.635  16.345  1.00  0.00    -0.018 C 
ATOM     12  C   UNL     1       0.333  -3.860  16.366  1.00  0.00     0.088 C 
ATOM     13  C   UNL     1       0.092  -4.350  17.760  1.00  0.00     0.159 C 
ATOM     14  O   UNL     1      -0.978  -4.969  18.003  1.00  0.00    -0.295 OA
ATOM     15  C   UNL     1       1.519  -2.264  14.861  1.00  0.00     0.012 C 
ATOM     16  C   UNL     1      -0.481  -4.445  20.682  1.00  0.00     0.039 C 
ENDROOT
TORSDOF 0
ENDMDL
MODEL 9
REMARK VINA RESULT:    -4.527      1.894      4.860
REMARK INTER + INTRA:          -4.527
REMARK INTER:                  -4.527
REMARK INTRA:                   0.000
REMARK UNBOUND:                 0.000
REMARK SMILES C=C1CCC[C@]2(C)CC(=O)C(=C(C)C)C[C@H]12
REMARK SMILES IDX 13 1 12 2 11 3 15 4 16 5 2 6 1 7 3 8 4 9 5 10 6 11 8 12 9 13
REMARK SMILES IDX 10 14 7 15 14 16
REMARK H PARENT
REMARK Flexibility Score: inf
ROOT
ATOM      1  C   UNL     1      -2.119  -0.853  19.386  1.00  0.00     0.039 C 
ATOM      2  C   UNL     1      -1.509  -2.234  19.345  1.00  0.00    -0.070 C 
ATOM      3  C   UNL     1      -0.175  -2.423  19.107  1.00  0.00    -0.006 C 
ATOM      4  C   UNL     1       0.749  -1.260  18.794  1.00  0.00     0.047 C 
ATOM      5  C   UNL     1       1.894  -1.576  17.780  1.00  0.00     0.025 C 
ATOM      6  C   UNL     1       1.747  -0.739  16.523  1.00  0.00    -0.073 C 
ATOM      7  C   UNL     1       2.398   0.430  16.430  1.00  0.00     0.008 C 
ATOM      8  C   UNL     1       0.807  -1.202  15.440  1.00  0.00     0.031 C 
ATOM      9  C   UNL     1       1.126  -2.647  15.057  1.00  0.00     0.005 C 
ATOM     10  C   UNL     1       1.116  -3.565  16.287  1.00  0.00     0.008 C 
ATOM     11  C   UNL     1       2.091  -3.093  17.420  1.00  0.00    -0.018 C 
ATOM     12  C   UNL     1       1.858  -3.956  18.684  1.00  0.00     0.088 C 
ATOM     13  C   UNL     1       0.489  -3.747  19.254  1.00  0.00     0.159 C 
ATOM     14  O   UNL     1      -0.030  -4.676  19.928  1.00  0.00    -0.295 OA
ATOM     15  C   UNL     1       3.552  -3.327  16.965  1.00  0.00     0.012 C 
ATOM     16  C   UNL     1      -2.458  -3.398  19.520  1.00  0.00     0.039 C 
ENDROOT
TORSDOF 0
ENDMDL
