MODEL 1
REMARK VINA RESULT:    -7.525      0.000      0.000
REMARK INTER + INTRA:          -9.159
REMARK INTER:                  -8.845
REMARK INTRA:                  -0.314
REMARK UNBOUND:                -0.314
REMARK SMILES O=c1cc(-c2ccc(O)c(O)c2)oc2cc(O)cc(O)c12
REMARK SMILES IDX 4 1 3 2 2 3 1 4 21 5 19 6 18 7 16 8 15 9 14 10 13 11 5 12
REMARK SMILES IDX 6 13 7 14 8 15 12 16 10 17 9 18 11 20 20 22 17 24
REMARK H PARENT 9 19 11 21 20 23 17 25
REMARK Flexibility Score: inf
ROOT
ATOM      1  C   UNL     1      14.293 -32.134 -20.190  1.00  0.00     0.138 A 
ATOM      2  C   UNL     1      13.421 -31.041 -20.097  1.00  0.00     0.100 A 
ATOM      3  C   UNL     1      12.102 -31.243 -19.686  1.00  0.00     0.197 A 
ATOM      4  O   UNL     1      11.361 -30.236 -19.553  1.00  0.00    -0.289 OA
ATOM      5  C   UNL     1      11.649 -32.552 -19.396  1.00  0.00     0.107 A 
ATOM      6  C   UNL     1      10.316 -32.883 -19.007  1.00  0.00     0.134 A 
ATOM      7  C   UNL     1      10.013 -34.197 -18.632  1.00  0.00     0.093 A 
ATOM      8  C   UNL     1      10.979 -35.205 -18.691  1.00  0.00     0.123 A 
ATOM      9  C   UNL     1      12.270 -34.902 -19.121  1.00  0.00     0.094 A 
ATOM     10  C   UNL     1      12.612 -33.593 -19.468  1.00  0.00     0.146 A 
ATOM     11  O   UNL     1      13.858 -33.345 -19.859  1.00  0.00    -0.456 OA
ENDROOT
BRANCH   1  12
ATOM     12  C   UNL     1      15.704 -31.975 -20.623  1.00  0.00     0.021 A 
ATOM     13  C   UNL     1      16.292 -30.698 -20.611  1.00  0.00     0.016 A 
ATOM     14  C   UNL     1      17.621 -30.522 -21.007  1.00  0.00     0.051 A 
ATOM     15  C   UNL     1      18.387 -31.622 -21.410  1.00  0.00     0.157 A 
ATOM     16  C   UNL     1      16.487 -33.078 -21.018  1.00  0.00     0.062 A 
ATOM     17  C   UNL     1      17.821 -32.902 -21.414  1.00  0.00     0.158 A 
BRANCH  15  18
ATOM     18  O   UNL     1      19.713 -31.451 -21.807  1.00  0.00    -0.504 OA
ATOM     19  H   UNL     1      19.954 -30.901 -22.623  1.00  0.00     0.293 HD
ENDBRANCH  15  18
BRANCH  17  20
ATOM     20  O   UNL     1      18.590 -33.996 -21.807  1.00  0.00    -0.504 OA
ATOM     21  H   UNL     1      18.341 -34.558 -22.612  1.00  0.00     0.293 HD
ENDBRANCH  17  20
ENDBRANCH   1  12
BRANCH   6  22
ATOM     22  O   UNL     1       9.256 -31.971 -18.997  1.00  0.00    -0.507 OA
ATOM     23  H   UNL     1       9.359 -30.968 -19.004  1.00  0.00     0.293 HD
ENDBRANCH   6  22
BRANCH   8  24
ATOM     24  O   UNL     1      10.665 -36.513 -18.331  1.00  0.00    -0.508 OA
ATOM     25  H   UNL     1       9.763 -36.752 -17.934  1.00  0.00     0.293 HD
ENDBRANCH   8  24
TORSDOF 5
ENDMDL
MODEL 2
REMARK VINA RESULT:    -7.491      1.455      6.865
REMARK INTER + INTRA:          -9.119
REMARK INTER:                  -8.801
REMARK INTRA:                  -0.317
REMARK UNBOUND:                -0.314
REMARK SMILES O=c1cc(-c2ccc(O)c(O)c2)oc2cc(O)cc(O)c12
REMARK SMILES IDX 4 1 3 2 2 3 1 4 21 5 19 6 18 7 16 8 15 9 14 10 13 11 5 12
REMARK SMILES IDX 6 13 7 14 8 15 12 16 10 17 9 18 11 20 20 22 17 24
REMARK H PARENT 9 19 11 21 20 23 17 25
REMARK Flexibility Score: inf
ROOT
ATOM      1  C   UNL     1      14.582 -32.203 -20.255  1.00  0.00     0.138 A 
ATOM      2  C   UNL     1      14.863 -30.834 -20.360  1.00  0.00     0.100 A 
ATOM      3  C   UNL     1      16.133 -30.418 -20.765  1.00  0.00     0.197 A 
ATOM      4  O   UNL     1      16.336 -29.186 -20.910  1.00  0.00    -0.289 OA
ATOM      5  C   UNL     1      17.134 -31.382 -21.037  1.00  0.00     0.107 A 
ATOM      6  C   UNL     1      18.474 -31.074 -21.418  1.00  0.00     0.134 A 
ATOM      7  C   UNL     1      19.345 -32.111 -21.775  1.00  0.00     0.093 A 
ATOM      8  C   UNL     1      18.942 -33.447 -21.705  1.00  0.00     0.123 A 
ATOM      9  C   UNL     1      17.652 -33.760 -21.282  1.00  0.00     0.094 A 
ATOM     10  C   UNL     1      16.749 -32.746 -20.953  1.00  0.00     0.146 A 
ATOM     11  O   UNL     1      15.523 -33.088 -20.569  1.00  0.00    -0.456 OA
ENDROOT
BRANCH   1  12
ATOM     12  C   UNL     1      13.250 -32.699 -19.827  1.00  0.00     0.021 A 
ATOM     13  C   UNL     1      12.199 -31.784 -19.638  1.00  0.00     0.016 A 
ATOM     14  C   UNL     1      10.934 -32.225 -19.243  1.00  0.00     0.051 A 
ATOM     15  C   UNL     1      10.694 -33.590 -19.041  1.00  0.00     0.157 A 
ATOM     16  C   UNL     1      12.997 -34.071 -19.634  1.00  0.00     0.062 A 
ATOM     17  C   UNL     1      11.726 -34.514 -19.239  1.00  0.00     0.158 A 
BRANCH  15  18
ATOM     18  O   UNL     1       9.434 -34.034 -18.645  1.00  0.00    -0.504 OA
ATOM     19  H   UNL     1       8.593 -33.521 -18.883  1.00  0.00     0.293 HD
ENDBRANCH  15  18
BRANCH  17  20
ATOM     20  O   UNL     1      11.482 -35.873 -19.046  1.00  0.00    -0.504 OA
ATOM     21  H   UNL     1      11.229 -36.482 -19.815  1.00  0.00     0.293 HD
ENDBRANCH  17  20
ENDBRANCH   1  12
BRANCH   6  22
ATOM     22  O   UNL     1      19.004 -29.780 -21.438  1.00  0.00    -0.507 OA
ATOM     23  H   UNL     1      19.566 -29.399 -22.184  1.00  0.00     0.293 HD
ENDBRANCH   6  22
BRANCH   8  24
ATOM     24  O   UNL     1      19.820 -34.473 -22.047  1.00  0.00    -0.508 OA
ATOM     25  H   UNL     1      19.634 -35.436 -21.793  1.00  0.00     0.293 HD
ENDBRANCH   8  24
TORSDOF 5
ENDMDL
MODEL 3
REMARK VINA RESULT:    -7.470      2.219      6.971
REMARK INTER + INTRA:          -9.094
REMARK INTER:                  -8.810
REMARK INTRA:                  -0.283
REMARK UNBOUND:                -0.314
REMARK SMILES O=c1cc(-c2ccc(O)c(O)c2)oc2cc(O)cc(O)c12
REMARK SMILES IDX 4 1 3 2 2 3 1 4 21 5 19 6 18 7 16 8 15 9 14 10 13 11 5 12
REMARK SMILES IDX 6 13 7 14 8 15 12 16 10 17 9 18 11 20 20 22 17 24
REMARK H PARENT 9 19 11 21 20 23 17 25
REMARK Flexibility Score: inf
ROOT
ATOM      1  C   UNL     1      15.243 -32.657 -19.320  1.00  0.00     0.138 A 
ATOM      2  C   UNL     1      15.370 -31.262 -19.292  1.00  0.00     0.100 A 
ATOM      3  C   UNL     1      16.425 -30.650 -19.972  1.00  0.00     0.197 A 
ATOM      4  O   UNL     1      16.475 -29.393 -19.980  1.00  0.00    -0.289 OA
ATOM      5  C   UNL     1      17.373 -31.445 -20.658  1.00  0.00     0.107 A 
ATOM      6  C   UNL     1      18.511 -30.933 -21.351  1.00  0.00     0.134 A 
ATOM      7  C   UNL     1      19.317 -31.806 -22.092  1.00  0.00     0.093 A 
ATOM      8  C   UNL     1      19.062 -33.179 -22.114  1.00  0.00     0.123 A 
ATOM      9  C   UNL     1      17.985 -33.695 -21.396  1.00  0.00     0.094 A 
ATOM     10  C   UNL     1      17.141 -32.846 -20.676  1.00  0.00     0.146 A 
ATOM     11  O   UNL     1      16.117 -33.377 -20.017  1.00  0.00    -0.456 OA
ENDROOT
BRANCH   1  12
ATOM     12  C   UNL     1      14.142 -33.359 -18.614  1.00  0.00     0.021 A 
ATOM     13  C   UNL     1      13.938 -33.122 -17.243  1.00  0.00     0.016 A 
ATOM     14  C   UNL     1      12.905 -33.764 -16.556  1.00  0.00     0.051 A 
ATOM     15  C   UNL     1      12.050 -34.645 -17.230  1.00  0.00     0.157 A 
ATOM     16  C   UNL     1      13.270 -34.237 -19.287  1.00  0.00     0.062 A 
ATOM     17  C   UNL     1      12.232 -34.879 -18.598  1.00  0.00     0.158 A 
BRANCH  15  18
ATOM     18  O   UNL     1      11.019 -35.288 -16.548  1.00  0.00    -0.504 OA
ATOM     19  H   UNL     1      10.066 -35.275 -16.894  1.00  0.00     0.293 HD
ENDBRANCH  15  18
BRANCH  17  20
ATOM     20  O   UNL     1      11.373 -35.749 -19.268  1.00  0.00    -0.504 OA
ATOM     21  H   UNL     1      11.418 -35.871 -20.273  1.00  0.00     0.293 HD
ENDBRANCH  17  20
ENDBRANCH   1  12
BRANCH   6  22
ATOM     22  O   UNL     1      18.905 -29.592 -21.324  1.00  0.00    -0.507 OA
ATOM     23  H   UNL     1      19.853 -29.272 -21.197  1.00  0.00     0.293 HD
ENDBRANCH   6  22
BRANCH   8  24
ATOM     24  O   UNL     1      19.878 -34.042 -22.841  1.00  0.00    -0.508 OA
ATOM     25  H   UNL     1      19.586 -34.423 -23.734  1.00  0.00     0.293 HD
ENDBRANCH   8  24
TORSDOF 5
ENDMDL
MODEL 4
REMARK VINA RESULT:    -6.961      1.683      7.273
REMARK INTER + INTRA:          -8.496
REMARK INTER:                  -8.204
REMARK INTRA:                  -0.292
REMARK UNBOUND:                -0.314
REMARK SMILES O=c1cc(-c2ccc(O)c(O)c2)oc2cc(O)cc(O)c12
REMARK SMILES IDX 4 1 3 2 2 3 1 4 21 5 19 6 18 7 16 8 15 9 14 10 13 11 5 12
REMARK SMILES IDX 6 13 7 14 8 15 12 16 10 17 9 18 11 20 20 22 17 24
REMARK H PARENT 9 19 11 21 20 23 17 25
REMARK Flexibility Score: inf
ROOT
ATOM      1  C   UNL     1      14.590 -32.236 -20.085  1.00  0.00     0.138 A 
ATOM      2  C   UNL     1      15.587 -33.086 -20.582  1.00  0.00     0.100 A 
ATOM      3  C   UNL     1      16.853 -32.572 -20.871  1.00  0.00     0.197 A 
ATOM      4  O   UNL     1      17.744 -33.371 -21.256  1.00  0.00    -0.289 OA
ATOM      5  C   UNL     1      17.108 -31.192 -20.689  1.00  0.00     0.107 A 
ATOM      6  C   UNL     1      18.347 -30.549 -20.988  1.00  0.00     0.134 A 
ATOM      7  C   UNL     1      18.522 -29.200 -20.657  1.00  0.00     0.093 A 
ATOM      8  C   UNL     1      17.482 -28.455 -20.095  1.00  0.00     0.123 A 
ATOM      9  C   UNL     1      16.252 -29.060 -19.849  1.00  0.00     0.094 A 
ATOM     10  C   UNL     1      16.057 -30.413 -20.135  1.00  0.00     0.146 A 
ATOM     11  O   UNL     1      14.873 -30.955 -19.871  1.00  0.00    -0.456 OA
ENDROOT
BRANCH   1  12
ATOM     12  C   UNL     1      13.228 -32.730 -19.762  1.00  0.00     0.021 A 
ATOM     13  C   UNL     1      12.158 -31.819 -19.698  1.00  0.00     0.016 A 
ATOM     14  C   UNL     1      10.865 -32.259 -19.403  1.00  0.00     0.051 A 
ATOM     15  C   UNL     1      10.617 -33.619 -19.181  1.00  0.00     0.157 A 
ATOM     16  C   UNL     1      12.967 -34.098 -19.549  1.00  0.00     0.062 A 
ATOM     17  C   UNL     1      11.669 -34.540 -19.256  1.00  0.00     0.158 A 
BRANCH  15  18
ATOM     18  O   UNL     1       9.329 -34.062 -18.885  1.00  0.00    -0.504 OA
ATOM     19  H   UNL     1       8.549 -33.874 -19.505  1.00  0.00     0.293 HD
ENDBRANCH  15  18
BRANCH  17  20
ATOM     20  O   UNL     1      11.416 -35.894 -19.043  1.00  0.00    -0.504 OA
ATOM     21  H   UNL     1      11.512 -36.315 -18.126  1.00  0.00     0.293 HD
ENDBRANCH  17  20
ENDBRANCH   1  12
BRANCH   6  22
ATOM     22  O   UNL     1      19.420 -31.179 -21.627  1.00  0.00    -0.507 OA
ATOM     23  H   UNL     1      19.590 -31.159 -22.621  1.00  0.00     0.293 HD
ENDBRANCH   6  22
BRANCH   8  24
ATOM     24  O   UNL     1      17.660 -27.109 -19.784  1.00  0.00    -0.508 OA
ATOM     25  H   UNL     1      17.774 -26.796 -18.826  1.00  0.00     0.293 HD
ENDBRANCH   8  24
TORSDOF 5
ENDMDL
MODEL 5
REMARK VINA RESULT:    -6.929      1.781      7.413
REMARK INTER + INTRA:          -8.459
REMARK INTER:                  -8.193
REMARK INTRA:                  -0.265
REMARK UNBOUND:                -0.314
REMARK SMILES O=c1cc(-c2ccc(O)c(O)c2)oc2cc(O)cc(O)c12
REMARK SMILES IDX 4 1 3 2 2 3 1 4 21 5 19 6 18 7 16 8 15 9 14 10 13 11 5 12
REMARK SMILES IDX 6 13 7 14 8 15 12 16 10 17 9 18 11 20 20 22 17 24
REMARK H PARENT 9 19 11 21 20 23 17 25
REMARK Flexibility Score: inf
ROOT
ATOM      1  C   UNL     1      15.433 -32.582 -20.113  1.00  0.00     0.138 A 
ATOM      2  C   UNL     1      16.450 -33.318 -20.737  1.00  0.00     0.100 A 
ATOM      3  C   UNL     1      17.562 -32.655 -21.258  1.00  0.00     0.197 A 
ATOM      4  O   UNL     1      18.486 -33.347 -21.756  1.00  0.00    -0.289 OA
ATOM      5  C   UNL     1      17.640 -31.244 -21.178  1.00  0.00     0.107 A 
ATOM      6  C   UNL     1      18.707 -30.459 -21.709  1.00  0.00     0.134 A 
ATOM      7  C   UNL     1      18.734 -29.079 -21.468  1.00  0.00     0.093 A 
ATOM      8  C   UNL     1      17.703 -28.449 -20.768  1.00  0.00     0.123 A 
ATOM      9  C   UNL     1      16.630 -29.200 -20.292  1.00  0.00     0.094 A 
ATOM     10  C   UNL     1      16.591 -30.583 -20.486  1.00  0.00     0.146 A 
ATOM     11  O   UNL     1      15.557 -31.264 -20.002  1.00  0.00    -0.456 OA
ENDROOT
BRANCH   1  12
ATOM     12  C   UNL     1      14.228 -33.237 -19.544  1.00  0.00     0.021 A 
ATOM     13  C   UNL     1      14.323 -33.911 -18.313  1.00  0.00     0.016 A 
ATOM     14  C   UNL     1      13.202 -34.529 -17.753  1.00  0.00     0.051 A 
ATOM     15  C   UNL     1      11.965 -34.474 -18.407  1.00  0.00     0.157 A 
ATOM     16  C   UNL     1      12.977 -33.176 -20.189  1.00  0.00     0.062 A 
ATOM     17  C   UNL     1      11.852 -33.794 -19.625  1.00  0.00     0.158 A 
BRANCH  15  18
ATOM     18  O   UNL     1      10.845 -35.091 -17.851  1.00  0.00    -0.504 OA
ATOM     19  H   UNL     1      10.565 -36.025 -18.125  1.00  0.00     0.293 HD
ENDBRANCH  15  18
BRANCH  17  20
ATOM     20  O   UNL     1      10.617 -33.734 -20.269  1.00  0.00    -0.504 OA
ATOM     21  H   UNL     1      10.517 -33.968 -21.249  1.00  0.00     0.293 HD
ENDBRANCH  17  20
ENDBRANCH   1  12
BRANCH   6  22
ATOM     22  O   UNL     1      19.742 -30.975 -22.495  1.00  0.00    -0.507 OA
ATOM     23  H   UNL     1      19.702 -31.092 -23.496  1.00  0.00     0.293 HD
ENDBRANCH   6  22
BRANCH   8  24
ATOM     24  O   UNL     1      17.730 -27.074 -20.547  1.00  0.00    -0.508 OA
ATOM     25  H   UNL     1      17.218 -26.650 -19.782  1.00  0.00     0.293 HD
ENDBRANCH   8  24
TORSDOF 5
ENDMDL
MODEL 6
REMARK VINA RESULT:    -6.928      1.333      2.430
REMARK INTER + INTRA:          -8.457
REMARK INTER:                  -8.194
REMARK INTRA:                  -0.263
REMARK UNBOUND:                -0.314
REMARK SMILES O=c1cc(-c2ccc(O)c(O)c2)oc2cc(O)cc(O)c12
REMARK SMILES IDX 4 1 3 2 2 3 1 4 21 5 19 6 18 7 16 8 15 9 14 10 13 11 5 12
REMARK SMILES IDX 6 13 7 14 8 15 12 16 10 17 9 18 11 20 20 22 17 24
REMARK H PARENT 9 19 11 21 20 23 17 25
REMARK Flexibility Score: inf
ROOT
ATOM      1  C   UNL     1      14.445 -32.891 -19.651  1.00  0.00     0.138 A 
ATOM      2  C   UNL     1      14.395 -33.745 -18.540  1.00  0.00     0.100 A 
ATOM      3  C   UNL     1      13.160 -34.198 -18.072  1.00  0.00     0.197 A 
ATOM      4  O   UNL     1      13.151 -35.012 -17.114  1.00  0.00    -0.289 OA
ATOM      5  C   UNL     1      11.969 -33.767 -18.703  1.00  0.00     0.107 A 
ATOM      6  C   UNL     1      10.652 -34.132 -18.288  1.00  0.00     0.134 A 
ATOM      7  C   UNL     1       9.552 -33.739 -19.060  1.00  0.00     0.093 A 
ATOM      8  C   UNL     1       9.716 -32.944 -20.197  1.00  0.00     0.123 A 
ATOM      9  C   UNL     1      10.993 -32.538 -20.579  1.00  0.00     0.094 A 
ATOM     10  C   UNL     1      12.114 -32.943 -19.851  1.00  0.00     0.146 A 
ATOM     11  O   UNL     1      13.314 -32.546 -20.259  1.00  0.00    -0.456 OA
ENDROOT
BRANCH   1  12
ATOM     12  C   UNL     1      15.730 -32.379 -20.188  1.00  0.00     0.021 A 
ATOM     13  C   UNL     1      16.169 -31.093 -19.825  1.00  0.00     0.016 A 
ATOM     14  C   UNL     1      17.378 -30.590 -20.311  1.00  0.00     0.051 A 
ATOM     15  C   UNL     1      18.176 -31.369 -21.159  1.00  0.00     0.157 A 
ATOM     16  C   UNL     1      16.545 -33.160 -21.031  1.00  0.00     0.062 A 
ATOM     17  C   UNL     1      17.760 -32.656 -21.518  1.00  0.00     0.158 A 
BRANCH  15  18
ATOM     18  O   UNL     1      19.382 -30.870 -21.647  1.00  0.00    -0.504 OA
ATOM     19  H   UNL     1      20.272 -31.166 -21.263  1.00  0.00     0.293 HD
ENDBRANCH  15  18
BRANCH  17  20
ATOM     20  O   UNL     1      18.561 -33.432 -22.354  1.00  0.00    -0.504 OA
ATOM     21  H   UNL     1      18.162 -34.109 -22.994  1.00  0.00     0.293 HD
ENDBRANCH  17  20
ENDBRANCH   1  12
BRANCH   6  22
ATOM     22  O   UNL     1      10.372 -34.851 -17.122  1.00  0.00    -0.507 OA
ATOM     23  H   UNL     1      11.026 -35.451 -16.643  1.00  0.00     0.293 HD
ENDBRANCH   6  22
BRANCH   8  24
ATOM     24  O   UNL     1       8.614 -32.545 -20.950  1.00  0.00    -0.508 OA
ATOM     25  H   UNL     1       7.679 -32.541 -20.560  1.00  0.00     0.293 HD
ENDBRANCH   8  24
TORSDOF 5
ENDMDL
MODEL 7
REMARK VINA RESULT:    -6.885      9.140     11.265
REMARK INTER + INTRA:          -8.407
REMARK INTER:                  -8.136
REMARK INTRA:                  -0.271
REMARK UNBOUND:                -0.314
REMARK SMILES O=c1cc(-c2ccc(O)c(O)c2)oc2cc(O)cc(O)c12
REMARK SMILES IDX 4 1 3 2 2 3 1 4 21 5 19 6 18 7 16 8 15 9 14 10 13 11 5 12
REMARK SMILES IDX 6 13 7 14 8 15 12 16 10 17 9 18 11 20 20 22 17 24
REMARK H PARENT 9 19 11 21 20 23 17 25
REMARK Flexibility Score: inf
ROOT
ATOM      1  C   UNL     1      13.840 -35.486 -10.148  1.00  0.00     0.138 A 
ATOM      2  C   UNL     1      14.871 -34.772 -10.774  1.00  0.00     0.100 A 
ATOM      3  C   UNL     1      14.661 -34.222 -12.040  1.00  0.00     0.197 A 
ATOM      4  O   UNL     1      15.583 -33.535 -12.549  1.00  0.00    -0.289 OA
ATOM      5  C   UNL     1      13.420 -34.415 -12.692  1.00  0.00     0.107 A 
ATOM      6  C   UNL     1      13.107 -33.935 -13.999  1.00  0.00     0.134 A 
ATOM      7  C   UNL     1      11.806 -34.086 -14.496  1.00  0.00     0.093 A 
ATOM      8  C   UNL     1      10.825 -34.752 -13.758  1.00  0.00     0.123 A 
ATOM      9  C   UNL     1      11.137 -35.272 -12.503  1.00  0.00     0.094 A 
ATOM     10  C   UNL     1      12.415 -35.107 -11.965  1.00  0.00     0.146 A 
ATOM     11  O   UNL     1      12.666 -35.605 -10.759  1.00  0.00    -0.456 OA
ENDROOT
BRANCH   1  12
ATOM     12  C   UNL     1      14.011 -36.092  -8.804  1.00  0.00     0.021 A 
ATOM     13  C   UNL     1      14.040 -35.263  -7.669  1.00  0.00     0.016 A 
ATOM     14  C   UNL     1      14.193 -35.809  -6.392  1.00  0.00     0.051 A 
ATOM     15  C   UNL     1      14.307 -37.194  -6.226  1.00  0.00     0.157 A 
ATOM     16  C   UNL     1      14.113 -37.486  -8.627  1.00  0.00     0.062 A 
ATOM     17  C   UNL     1      14.264 -38.034  -7.345  1.00  0.00     0.158 A 
BRANCH  15  18
ATOM     18  O   UNL     1      14.460 -37.743  -4.955  1.00  0.00    -0.504 OA
ATOM     19  H   UNL     1      15.377 -37.946  -4.572  1.00  0.00     0.293 HD
ENDBRANCH  15  18
BRANCH  17  20
ATOM     20  O   UNL     1      14.368 -39.414  -7.176  1.00  0.00    -0.504 OA
ATOM     21  H   UNL     1      13.597 -39.965  -6.819  1.00  0.00     0.293 HD
ENDBRANCH  17  20
ENDBRANCH   1  12
BRANCH   6  22
ATOM     22  O   UNL     1      14.035 -33.331 -14.853  1.00  0.00    -0.507 OA
ATOM     23  H   UNL     1      15.035 -33.444 -14.790  1.00  0.00     0.293 HD
ENDBRANCH   6  22
BRANCH   8  24
ATOM     24  O   UNL     1       9.538 -34.912 -14.267  1.00  0.00    -0.508 OA
ATOM     25  H   UNL     1       8.991 -34.119 -14.582  1.00  0.00     0.293 HD
ENDBRANCH   8  24
TORSDOF 5
ENDMDL
MODEL 8
REMARK VINA RESULT:    -6.775      2.093      2.329
REMARK INTER + INTRA:          -8.277
REMARK INTER:                  -8.013
REMARK INTRA:                  -0.264
REMARK UNBOUND:                -0.314
REMARK SMILES O=c1cc(-c2ccc(O)c(O)c2)oc2cc(O)cc(O)c12
REMARK SMILES IDX 4 1 3 2 2 3 1 4 21 5 19 6 18 7 16 8 15 9 14 10 13 11 5 12
REMARK SMILES IDX 6 13 7 14 8 15 12 16 10 17 9 18 11 20 20 22 17 24
REMARK H PARENT 9 19 11 21 20 23 17 25
REMARK Flexibility Score: inf
ROOT
ATOM      1  C   UNL     1      14.745 -32.727 -19.507  1.00  0.00     0.138 A 
ATOM      2  C   UNL     1      13.593 -32.965 -20.268  1.00  0.00     0.100 A 
ATOM      3  C   UNL     1      12.428 -33.409 -19.638  1.00  0.00     0.197 A 
ATOM      4  O   UNL     1      11.393 -33.553 -20.338  1.00  0.00    -0.289 OA
ATOM      5  C   UNL     1      12.430 -33.642 -18.242  1.00  0.00     0.107 A 
ATOM      6  C   UNL     1      11.314 -34.132 -17.499  1.00  0.00     0.134 A 
ATOM      7  C   UNL     1      11.397 -34.215 -16.104  1.00  0.00     0.093 A 
ATOM      8  C   UNL     1      12.575 -33.882 -15.431  1.00  0.00     0.123 A 
ATOM      9  C   UNL     1      13.687 -33.454 -16.152  1.00  0.00     0.094 A 
ATOM     10  C   UNL     1      13.626 -33.328 -17.542  1.00  0.00     0.146 A 
ATOM     11  O   UNL     1      14.705 -32.902 -18.190  1.00  0.00    -0.456 OA
ENDROOT
BRANCH   1  12
ATOM     12  C   UNL     1      16.010 -32.257 -20.126  1.00  0.00     0.021 A 
ATOM     13  C   UNL     1      16.504 -30.980 -19.806  1.00  0.00     0.016 A 
ATOM     14  C   UNL     1      17.696 -30.517 -20.369  1.00  0.00     0.051 A 
ATOM     15  C   UNL     1      18.420 -31.326 -21.253  1.00  0.00     0.157 A 
ATOM     16  C   UNL     1      16.751 -33.069 -21.007  1.00  0.00     0.062 A 
ATOM     17  C   UNL     1      17.948 -32.605 -21.571  1.00  0.00     0.158 A 
BRANCH  15  18
ATOM     18  O   UNL     1      19.608 -30.867 -21.819  1.00  0.00    -0.504 OA
ATOM     19  H   UNL     1      20.340 -30.456 -21.251  1.00  0.00     0.293 HD
ENDBRANCH  15  18
BRANCH  17  20
ATOM     20  O   UNL     1      18.676 -33.411 -22.444  1.00  0.00    -0.504 OA
ATOM     21  H   UNL     1      18.219 -34.063 -23.071  1.00  0.00     0.293 HD
ENDBRANCH  17  20
ENDBRANCH   1  12
BRANCH   6  22
ATOM     22  O   UNL     1      10.121 -34.572 -18.081  1.00  0.00    -0.507 OA
ATOM     23  H   UNL     1       9.449 -33.976 -18.539  1.00  0.00     0.293 HD
ENDBRANCH   6  22
BRANCH   8  24
ATOM     24  O   UNL     1      12.653 -33.982 -14.044  1.00  0.00    -0.508 OA
ATOM     25  H   UNL     1      13.242 -34.673 -13.594  1.00  0.00     0.293 HD
ENDBRANCH   8  24
TORSDOF 5
ENDMDL
MODEL 9
REMARK VINA RESULT:    -6.602      4.292      6.642
REMARK INTER + INTRA:          -8.074
REMARK INTER:                  -7.809
REMARK INTRA:                  -0.265
REMARK UNBOUND:                -0.314
REMARK SMILES O=c1cc(-c2ccc(O)c(O)c2)oc2cc(O)cc(O)c12
REMARK SMILES IDX 4 1 3 2 2 3 1 4 21 5 19 6 18 7 16 8 15 9 14 10 13 11 5 12
REMARK SMILES IDX 6 13 7 14 8 15 12 16 10 17 9 18 11 20 20 22 17 24
REMARK H PARENT 9 19 11 21 20 23 17 25
REMARK Flexibility Score: inf
ROOT
ATOM      1  C   UNL     1      17.322 -28.895 -19.015  1.00  0.00     0.138 A 
ATOM      2  C   UNL     1      18.288 -29.153 -19.997  1.00  0.00     0.100 A 
ATOM      3  C   UNL     1      18.198 -30.316 -20.765  1.00  0.00     0.197 A 
ATOM      4  O   UNL     1      19.043 -30.489 -21.680  1.00  0.00    -0.289 OA
ATOM      5  C   UNL     1      17.150 -31.237 -20.525  1.00  0.00     0.107 A 
ATOM      6  C   UNL     1      16.981 -32.473 -21.219  1.00  0.00     0.134 A 
ATOM      7  C   UNL     1      15.841 -33.250 -20.977  1.00  0.00     0.093 A 
ATOM      8  C   UNL     1      14.896 -32.864 -20.023  1.00  0.00     0.123 A 
ATOM      9  C   UNL     1      15.080 -31.686 -19.303  1.00  0.00     0.094 A 
ATOM     10  C   UNL     1      16.188 -30.872 -19.546  1.00  0.00     0.146 A 
ATOM     11  O   UNL     1      16.318 -29.749 -18.847  1.00  0.00    -0.456 OA
ENDROOT
BRANCH   1  12
ATOM     12  C   UNL     1      17.371 -27.675 -18.170  1.00  0.00     0.021 A 
ATOM     13  C   UNL     1      16.779 -26.487 -18.633  1.00  0.00     0.016 A 
ATOM     14  C   UNL     1      16.805 -25.328 -17.854  1.00  0.00     0.051 A 
ATOM     15  C   UNL     1      17.414 -25.339 -16.593  1.00  0.00     0.157 A 
ATOM     16  C   UNL     1      17.970 -27.681 -16.895  1.00  0.00     0.062 A 
ATOM     17  C   UNL     1      17.995 -26.518 -16.112  1.00  0.00     0.158 A 
BRANCH  15  18
ATOM     18  O   UNL     1      17.443 -24.184 -15.814  1.00  0.00    -0.504 OA
ATOM     19  H   UNL     1      17.428 -24.228 -14.801  1.00  0.00     0.293 HD
ENDBRANCH  15  18
BRANCH  17  20
ATOM     20  O   UNL     1      18.591 -26.528 -14.852  1.00  0.00    -0.504 OA
ATOM     21  H   UNL     1      19.594 -26.438 -14.738  1.00  0.00     0.293 HD
ENDBRANCH  17  20
ENDBRANCH   1  12
BRANCH   6  22
ATOM     22  O   UNL     1      17.908 -32.992 -22.128  1.00  0.00    -0.507 OA
ATOM     23  H   UNL     1      18.840 -33.297 -21.890  1.00  0.00     0.293 HD
ENDBRANCH   6  22
BRANCH   8  24
ATOM     24  O   UNL     1      13.773 -33.651 -19.778  1.00  0.00    -0.508 OA
ATOM     25  H   UNL     1      12.842 -33.251 -19.744  1.00  0.00     0.293 HD
ENDBRANCH   8  24
TORSDOF 5
ENDMDL
