MODEL 1
REMARK VINA RESULT:    -6.408      0.000      0.000
REMARK INTER + INTRA:          -7.497
REMARK INTER:                  -7.344
REMARK INTRA:                  -0.153
REMARK UNBOUND:                -0.153
REMARK SMILES O=C([O-])C=Cc1ccc(O)cc1
REMARK SMILES IDX 6 1 7 2 12 3 8 4 11 5 9 6 5 7 4 8 2 9 1 10 3 11 10 12
REMARK H PARENT 10 13
REMARK Flexibility Score: inf
ROOT
ATOM      1  C   UNL     1      13.415 -12.371  28.984  1.00  0.00    -0.025 A 
ATOM      2  C   UNL     1      13.980 -11.942  30.197  1.00  0.00     0.012 A 
ATOM      3  C   UNL     1      12.387 -11.598  28.404  1.00  0.00     0.012 A 
ATOM      4  C   UNL     1      13.517 -10.785  30.830  1.00  0.00     0.047 A 
ATOM      5  C   UNL     1      11.927 -10.441  29.040  1.00  0.00     0.047 A 
ATOM      6  C   UNL     1      12.486 -10.032  30.253  1.00  0.00     0.115 A 
ENDROOT
BRANCH   1   7
ATOM      7  C   UNL     1      13.948 -13.599  28.346  1.00  0.00     0.010 C 
ATOM      8  C   UNL     1      14.854 -14.404  28.920  1.00  0.00     0.025 C 
BRANCH   8   9
ATOM      9  C   UNL     1      15.363 -15.608  28.244  1.00  0.00     0.064 C 
ATOM     10  O   UNL     1      15.776 -15.526  27.058  1.00  0.00    -0.545 OA
ATOM     11  O   UNL     1      15.399 -16.835  28.896  1.00  0.00    -0.545 OA
ENDBRANCH   8   9
ENDBRANCH   1   7
BRANCH   6  12
ATOM     12  O   UNL     1      12.015  -8.879  30.875  1.00  0.00    -0.508 OA
ATOM     13  H   UNL     1      12.470  -8.496  31.695  1.00  0.00     0.293 HD
ENDBRANCH   6  12
TORSDOF 3
ENDMDL
MODEL 2
REMARK VINA RESULT:    -6.167      1.456      5.670
REMARK INTER + INTRA:          -7.221
REMARK INTER:                  -7.077
REMARK INTRA:                  -0.144
REMARK UNBOUND:                -0.153
REMARK SMILES O=C([O-])C=Cc1ccc(O)cc1
REMARK SMILES IDX 6 1 7 2 12 3 8 4 11 5 9 6 5 7 4 8 2 9 1 10 3 11 10 12
REMARK H PARENT 10 13
REMARK Flexibility Score: inf
ROOT
ATOM      1  C   UNL     1      13.404 -12.988  28.648  1.00  0.00    -0.025 A 
ATOM      2  C   UNL     1      14.125 -13.335  29.803  1.00  0.00     0.012 A 
ATOM      3  C   UNL     1      13.578 -13.763  27.482  1.00  0.00     0.012 A 
ATOM      4  C   UNL     1      15.016 -14.412  29.791  1.00  0.00     0.047 A 
ATOM      5  C   UNL     1      14.469 -14.840  27.474  1.00  0.00     0.047 A 
ATOM      6  C   UNL     1      15.192 -15.166  28.624  1.00  0.00     0.115 A 
ENDROOT
BRANCH   1   7
ATOM      7  C   UNL     1      12.464 -11.843  28.715  1.00  0.00     0.010 C 
ATOM      8  C   UNL     1      11.635 -11.618  29.744  1.00  0.00     0.025 C 
BRANCH   8   9
ATOM      9  C   UNL     1      10.710 -10.474  29.762  1.00  0.00     0.064 C 
ATOM     10  O   UNL     1      11.103  -9.364  30.208  1.00  0.00    -0.545 OA
ATOM     11  O   UNL     1       9.408 -10.597  29.292  1.00  0.00    -0.545 OA
ENDBRANCH   8   9
ENDBRANCH   1   7
BRANCH   6  12
ATOM     12  O   UNL     1      16.077 -16.240  28.599  1.00  0.00    -0.508 OA
ATOM     13  H   UNL     1      16.794 -16.320  27.888  1.00  0.00     0.293 HD
ENDBRANCH   6  12
TORSDOF 3
ENDMDL
MODEL 3
REMARK VINA RESULT:    -6.138      1.449      5.821
REMARK INTER + INTRA:          -7.188
REMARK INTER:                  -7.053
REMARK INTRA:                  -0.135
REMARK UNBOUND:                -0.153
REMARK SMILES O=C([O-])C=Cc1ccc(O)cc1
REMARK SMILES IDX 6 1 7 2 12 3 8 4 11 5 9 6 5 7 4 8 2 9 1 10 3 11 10 12
REMARK H PARENT 10 13
REMARK Flexibility Score: inf
ROOT
ATOM      1  C   UNL     1      13.566 -12.986  28.853  1.00  0.00    -0.025 A 
ATOM      2  C   UNL     1      13.712 -13.640  27.618  1.00  0.00     0.012 A 
ATOM      3  C   UNL     1      14.286 -13.468  29.965  1.00  0.00     0.012 A 
ATOM      4  C   UNL     1      14.537 -14.762  27.499  1.00  0.00     0.047 A 
ATOM      5  C   UNL     1      15.111 -14.590  29.842  1.00  0.00     0.047 A 
ATOM      6  C   UNL     1      15.237 -15.242  28.612  1.00  0.00     0.115 A 
ENDROOT
BRANCH   1   7
ATOM      7  C   UNL     1      12.686 -11.794  28.925  1.00  0.00     0.010 C 
ATOM      8  C   UNL     1      11.599 -11.715  29.705  1.00  0.00     0.025 C 
BRANCH   8   9
ATOM      9  C   UNL     1      10.748 -10.515  29.736  1.00  0.00     0.064 C 
ATOM     10  O   UNL     1      11.223  -9.429  30.158  1.00  0.00    -0.545 OA
ATOM     11  O   UNL     1       9.428 -10.560  29.304  1.00  0.00    -0.545 OA
ENDBRANCH   8   9
ENDBRANCH   1   7
BRANCH   6  12
ATOM     12  O   UNL     1      16.061 -16.359  28.507  1.00  0.00    -0.508 OA
ATOM     13  H   UNL     1      16.626 -16.524  27.682  1.00  0.00     0.293 HD
ENDBRANCH   6  12
TORSDOF 3
ENDMDL
MODEL 4
REMARK VINA RESULT:    -6.107      1.510      2.144
REMARK INTER + INTRA:          -7.152
REMARK INTER:                  -7.009
REMARK INTRA:                  -0.143
REMARK UNBOUND:                -0.153
REMARK SMILES O=C([O-])C=Cc1ccc(O)cc1
REMARK SMILES IDX 6 1 7 2 12 3 8 4 11 5 9 6 5 7 4 8 2 9 1 10 3 11 10 12
REMARK H PARENT 10 13
REMARK Flexibility Score: inf
ROOT
ATOM      1  C   UNL     1      12.563 -12.837  28.357  1.00  0.00    -0.025 A 
ATOM      2  C   UNL     1      11.490 -12.440  27.541  1.00  0.00     0.012 A 
ATOM      3  C   UNL     1      12.583 -12.418  29.703  1.00  0.00     0.012 A 
ATOM      4  C   UNL     1      10.475 -11.624  28.047  1.00  0.00     0.047 A 
ATOM      5  C   UNL     1      11.565 -11.602  30.206  1.00  0.00     0.047 A 
ATOM      6  C   UNL     1      10.511 -11.201  29.381  1.00  0.00     0.115 A 
ENDROOT
BRANCH   1   7
ATOM      7  C   UNL     1      13.611 -13.712  27.776  1.00  0.00     0.010 C 
ATOM      8  C   UNL     1      14.318 -14.601  28.487  1.00  0.00     0.025 C 
BRANCH   8   9
ATOM      9  C   UNL     1      15.358 -15.440  27.870  1.00  0.00     0.064 C 
ATOM     10  O   UNL     1      15.960 -15.029  26.844  1.00  0.00    -0.545 OA
ATOM     11  O   UNL     1      15.688 -16.681  28.403  1.00  0.00    -0.545 OA
ENDBRANCH   8   9
ENDBRANCH   1   7
BRANCH   6  12
ATOM     12  O   UNL     1       9.505 -10.387  29.896  1.00  0.00    -0.508 OA
ATOM     13  H   UNL     1       9.718  -9.591  30.486  1.00  0.00     0.293 HD
ENDBRANCH   6  12
TORSDOF 3
ENDMDL
MODEL 5
REMARK VINA RESULT:    -5.777     10.479     13.183
REMARK INTER + INTRA:          -6.774
REMARK INTER:                  -6.635
REMARK INTRA:                  -0.139
REMARK UNBOUND:                -0.153
REMARK SMILES O=C([O-])C=Cc1ccc(O)cc1
REMARK SMILES IDX 6 1 7 2 12 3 8 4 11 5 9 6 5 7 4 8 2 9 1 10 3 11 10 12
REMARK H PARENT 10 13
REMARK Flexibility Score: inf
ROOT
ATOM      1  C   UNL     1      16.276  -1.405  27.562  1.00  0.00    -0.025 A 
ATOM      2  C   UNL     1      15.830  -1.512  28.891  1.00  0.00     0.012 A 
ATOM      3  C   UNL     1      17.346  -2.220  27.138  1.00  0.00     0.012 A 
ATOM      4  C   UNL     1      16.450  -2.392  29.781  1.00  0.00     0.047 A 
ATOM      5  C   UNL     1      17.962  -3.101  28.032  1.00  0.00     0.047 A 
ATOM      6  C   UNL     1      17.520  -3.188  29.355  1.00  0.00     0.115 A 
ENDROOT
BRANCH   1   7
ATOM      7  C   UNL     1      15.580  -0.462  26.653  1.00  0.00     0.010 C 
ATOM      8  C   UNL     1      15.712   0.870  26.716  1.00  0.00     0.025 C 
BRANCH   8   9
ATOM      9  C   UNL     1      14.991   1.767  25.799  1.00  0.00     0.064 C 
ATOM     10  O   UNL     1      14.589   1.329  24.690  1.00  0.00    -0.545 OA
ATOM     11  O   UNL     1      14.744   3.093  26.139  1.00  0.00    -0.545 OA
ENDBRANCH   8   9
ENDBRANCH   1   7
BRANCH   6  12
ATOM     12  O   UNL     1      18.146  -4.069  30.233  1.00  0.00    -0.508 OA
ATOM     13  H   UNL     1      18.573  -3.745  31.093  1.00  0.00     0.293 HD
ENDBRANCH   6  12
TORSDOF 3
ENDMDL
MODEL 6
REMARK VINA RESULT:    -5.767     11.277     13.483
REMARK INTER + INTRA:          -6.763
REMARK INTER:                  -6.618
REMARK INTRA:                  -0.145
REMARK UNBOUND:                -0.153
REMARK SMILES O=C([O-])C=Cc1ccc(O)cc1
REMARK SMILES IDX 6 1 7 2 12 3 8 4 11 5 9 6 5 7 4 8 2 9 1 10 3 11 10 12
REMARK H PARENT 10 13
REMARK Flexibility Score: inf
ROOT
ATOM      1  C   UNL     1      17.612  -1.646  26.726  1.00  0.00    -0.025 A 
ATOM      2  C   UNL     1      18.889  -1.275  26.274  1.00  0.00     0.012 A 
ATOM      3  C   UNL     1      17.507  -2.627  27.734  1.00  0.00     0.012 A 
ATOM      4  C   UNL     1      20.034  -1.884  26.795  1.00  0.00     0.047 A 
ATOM      5  C   UNL     1      18.655  -3.233  28.254  1.00  0.00     0.047 A 
ATOM      6  C   UNL     1      19.920  -2.867  27.786  1.00  0.00     0.115 A 
ENDROOT
BRANCH   1   7
ATOM      7  C   UNL     1      16.428  -0.963  26.149  1.00  0.00     0.010 C 
ATOM      8  C   UNL     1      16.277   0.369  26.117  1.00  0.00     0.025 C 
BRANCH   8   9
ATOM      9  C   UNL     1      15.079   1.002  25.544  1.00  0.00     0.064 C 
ATOM     10  O   UNL     1      14.350   0.349  24.753  1.00  0.00    -0.545 OA
ATOM     11  O   UNL     1      14.736   2.311  25.865  1.00  0.00    -0.545 OA
ENDBRANCH   8   9
ENDBRANCH   1   7
BRANCH   6  12
ATOM     12  O   UNL     1      21.053  -3.482  28.312  1.00  0.00    -0.508 OA
ATOM     13  H   UNL     1      21.002  -4.387  28.765  1.00  0.00     0.293 HD
ENDBRANCH   6  12
TORSDOF 3
ENDMDL
MODEL 7
REMARK VINA RESULT:    -5.713      1.214      5.866
REMARK INTER + INTRA:          -6.700
REMARK INTER:                  -6.558
REMARK INTRA:                  -0.142
REMARK UNBOUND:                -0.153
REMARK SMILES O=C([O-])C=Cc1ccc(O)cc1
REMARK SMILES IDX 6 1 7 2 12 3 8 4 11 5 9 6 5 7 4 8 2 9 1 10 3 11 10 12
REMARK H PARENT 10 13
REMARK Flexibility Score: inf
ROOT
ATOM      1  C   UNL     1      14.396 -12.829  29.019  1.00  0.00    -0.025 A 
ATOM      2  C   UNL     1      14.819 -12.933  27.683  1.00  0.00     0.012 A 
ATOM      3  C   UNL     1      14.543 -13.947  29.866  1.00  0.00     0.012 A 
ATOM      4  C   UNL     1      15.352 -14.129  27.196  1.00  0.00     0.047 A 
ATOM      5  C   UNL     1      15.078 -15.142  29.375  1.00  0.00     0.047 A 
ATOM      6  C   UNL     1      15.481 -15.239  28.041  1.00  0.00     0.115 A 
ENDROOT
BRANCH   1   7
ATOM      7  C   UNL     1      13.846 -11.535  29.491  1.00  0.00     0.010 C 
ATOM      8  C   UNL     1      13.543 -11.275  30.771  1.00  0.00     0.025 C 
BRANCH   8   9
ATOM      9  C   UNL     1      12.988  -9.980  31.192  1.00  0.00     0.064 C 
ATOM     10  O   UNL     1      13.317  -9.495  32.306  1.00  0.00    -0.545 OA
ATOM     11  O   UNL     1      12.106  -9.278  30.377  1.00  0.00    -0.545 OA
ENDBRANCH   8   9
ENDBRANCH   1   7
BRANCH   6  12
ATOM     12  O   UNL     1      16.009 -16.436  27.566  1.00  0.00    -0.508 OA
ATOM     13  H   UNL     1      16.824 -16.861  27.993  1.00  0.00     0.293 HD
ENDBRANCH   6  12
TORSDOF 3
ENDMDL
MODEL 8
REMARK VINA RESULT:    -5.642     11.107     12.731
REMARK INTER + INTRA:          -6.620
REMARK INTER:                  -6.483
REMARK INTRA:                  -0.136
REMARK UNBOUND:                -0.153
REMARK SMILES O=C([O-])C=Cc1ccc(O)cc1
REMARK SMILES IDX 6 1 7 2 12 3 8 4 11 5 9 6 5 7 4 8 2 9 1 10 3 11 10 12
REMARK H PARENT 10 13
REMARK Flexibility Score: inf
ROOT
ATOM      1  C   UNL     1      15.929  -0.515  26.622  1.00  0.00    -0.025 A 
ATOM      2  C   UNL     1      15.963   0.618  27.453  1.00  0.00     0.012 A 
ATOM      3  C   UNL     1      15.343  -0.403  25.344  1.00  0.00     0.012 A 
ATOM      4  C   UNL     1      15.404   1.827  27.031  1.00  0.00     0.047 A 
ATOM      5  C   UNL     1      14.786   0.810  24.925  1.00  0.00     0.047 A 
ATOM      6  C   UNL     1      14.811   1.926  25.766  1.00  0.00     0.115 A 
ENDROOT
BRANCH   1   7
ATOM      7  C   UNL     1      16.544  -1.773  27.112  1.00  0.00     0.010 C 
ATOM      8  C   UNL     1      17.857  -2.037  27.044  1.00  0.00     0.025 C 
BRANCH   8   9
ATOM      9  C   UNL     1      18.421  -3.305  27.532  1.00  0.00     0.064 C 
ATOM     10  O   UNL     1      17.985  -4.395  27.078  1.00  0.00    -0.545 OA
ATOM     11  O   UNL     1      19.433  -3.320  28.486  1.00  0.00    -0.545 OA
ENDBRANCH   8   9
ENDBRANCH   1   7
BRANCH   6  12
ATOM     12  O   UNL     1      14.251   3.125  25.335  1.00  0.00    -0.508 OA
ATOM     13  H   UNL     1      13.248   3.240  25.248  1.00  0.00     0.293 HD
ENDBRANCH   6  12
TORSDOF 3
ENDMDL
