MODEL 1
REMARK VINA RESULT:    -6.076      0.000      0.000
REMARK INTER + INTRA:         -10.494
REMARK INTER:                  -9.273
REMARK INTRA:                  -1.221
REMARK UNBOUND:                -1.221
REMARK SMILES OC[C@@H]1O[C@H](O[C@@]2(CO)O[C@H](CO)[C@@H](O)[C@@H]2O)[C@@H](O)[C@@H](O)[C@H]1O
REMARK SMILES IDX 6 1 5 2 3 3 22 4 4 5 20 6 18 7 2 8 1 9 23 11 21 13 19 15
REMARK SMILES IDX 7 17 16 18 10 19 14 20 11 21 8 22 9 23 17 25 15 27 12 29
REMARK SMILES IDX 13 30
REMARK H PARENT 1 10 23 12 21 14 19 16 9 24 17 26 15 28 13 31
REMARK Flexibility Score: inf
ROOT
ATOM      1  O   UNL     1      26.347  34.274   6.946  1.00  0.00    -0.313 OA
ENDROOT
BRANCH   1   2
ATOM      2  C   UNL     1      27.691  34.619   6.628  1.00  0.00     0.285 C 
ATOM      3  C   UNL     1      27.308  36.976   6.762  1.00  0.00     0.178 C 
ATOM      4  C   UNL     1      28.091  37.098   8.100  1.00  0.00     0.177 C 
ATOM      5  O   UNL     1      27.704  35.869   5.954  1.00  0.00    -0.341 OA
ATOM      6  C   UNL     1      28.212  35.742   8.818  1.00  0.00     0.179 C 
ATOM      7  C   UNL     1      28.659  34.654   7.836  1.00  0.00     0.202 C 
BRANCH   3   8
ATOM      8  C   UNL     1      25.771  37.112   6.897  1.00  0.00     0.191 C 
BRANCH   8   9
ATOM      9  O   UNL     1      25.406  37.874   8.014  1.00  0.00    -0.394 OA
ATOM     10  H   UNL     1      25.093  37.228   8.701  1.00  0.00     0.210 HD
ENDBRANCH   8   9
ENDBRANCH   3   8
BRANCH   4  11
ATOM     11  O   UNL     1      29.379  37.608   7.848  1.00  0.00    -0.387 OA
ATOM     12  H   UNL     1      29.280  38.316   7.158  1.00  0.00     0.211 HD
ENDBRANCH   4  11
BRANCH   6  13
ATOM     13  O   UNL     1      29.130  35.846   9.877  1.00  0.00    -0.387 OA
ATOM     14  H   UNL     1      28.879  36.650  10.400  1.00  0.00     0.211 HD
ENDBRANCH   6  13
BRANCH   7  15
ATOM     15  O   UNL     1      29.965  34.924   7.390  1.00  0.00    -0.385 OA
ATOM     16  H   UNL     1      29.916  35.040   6.405  1.00  0.00     0.211 HD
ENDBRANCH   7  15
ENDBRANCH   1   2
BRANCH   1  17
ATOM     17  C   UNL     1      25.663  33.366   6.078  1.00  0.00     0.224 C 
ATOM     18  C   UNL     1      24.867  32.406   7.002  1.00  0.00     0.208 C 
ATOM     19  O   UNL     1      26.611  32.588   5.367  1.00  0.00    -0.337 OA
ATOM     20  C   UNL     1      25.176  31.040   6.450  1.00  0.00     0.180 C 
ATOM     21  C   UNL     1      26.554  31.266   5.848  1.00  0.00     0.179 C 
BRANCH  17  22
ATOM     22  C   UNL     1      24.732  34.072   5.045  1.00  0.00     0.225 C 
BRANCH  22  23
ATOM     23  O   UNL     1      25.466  34.864   4.148  1.00  0.00    -0.391 OA
ATOM     24  H   UNL     1      26.028  35.472   4.696  1.00  0.00     0.210 HD
ENDBRANCH  22  23
ENDBRANCH  17  22
BRANCH  18  25
ATOM     25  O   UNL     1      23.484  32.661   7.014  1.00  0.00    -0.385 OA
ATOM     26  H   UNL     1      23.310  33.320   6.292  1.00  0.00     0.211 HD
ENDBRANCH  18  25
BRANCH  20  27
ATOM     27  O   UNL     1      25.211  30.084   7.477  1.00  0.00    -0.387 OA
ATOM     28  H   UNL     1      24.270  29.821   7.648  1.00  0.00     0.211 HD
ENDBRANCH  20  27
BRANCH  21  29
ATOM     29  C   UNL     1      26.889  30.281   4.722  1.00  0.00     0.191 C 
BRANCH  29  30
ATOM     30  O   UNL     1      26.511  28.974   5.066  1.00  0.00    -0.394 OA
ATOM     31  H   UNL     1      26.535  28.435   4.232  1.00  0.00     0.210 HD
ENDBRANCH  29  30
ENDBRANCH  21  29
ENDBRANCH   1  17
TORSDOF 13
ENDMDL
MODEL 2
REMARK VINA RESULT:    -5.929      1.823      5.776
REMARK INTER + INTRA:         -10.270
REMARK INTER:                  -9.013
REMARK INTRA:                  -1.257
REMARK UNBOUND:                -1.221
REMARK SMILES OC[C@@H]1O[C@H](O[C@@]2(CO)O[C@H](CO)[C@@H](O)[C@@H]2O)[C@@H](O)[C@@H](O)[C@H]1O
REMARK SMILES IDX 6 1 5 2 3 3 22 4 4 5 20 6 18 7 2 8 1 9 23 11 21 13 19 15
REMARK SMILES IDX 7 17 16 18 10 19 14 20 11 21 8 22 9 23 17 25 15 27 12 29
REMARK SMILES IDX 13 30
REMARK H PARENT 1 10 23 12 21 14 19 16 9 24 17 26 15 28 13 31
REMARK Flexibility Score: inf
ROOT
ATOM      1  O   UNL     1      26.849  34.469   7.120  1.00  0.00    -0.313 OA
ENDROOT
BRANCH   1   2
ATOM      2  C   UNL     1      26.636  34.659   5.725  1.00  0.00     0.285 C 
ATOM      3  C   UNL     1      24.817  33.110   5.609  1.00  0.00     0.178 C 
ATOM      4  C   UNL     1      23.768  34.247   5.444  1.00  0.00     0.177 C 
ATOM      5  O   UNL     1      26.127  33.457   5.164  1.00  0.00    -0.341 OA
ATOM      6  C   UNL     1      24.313  35.603   5.928  1.00  0.00     0.179 C 
ATOM      7  C   UNL     1      25.716  35.849   5.362  1.00  0.00     0.202 C 
BRANCH   3   8
ATOM      8  C   UNL     1      24.808  32.418   6.995  1.00  0.00     0.191 C 
BRANCH   8   9
ATOM      9  O   UNL     1      25.958  31.646   7.205  1.00  0.00    -0.394 OA
ATOM     10  H   UNL     1      26.534  31.783   6.407  1.00  0.00     0.210 HD
ENDBRANCH   8   9
ENDBRANCH   3   8
BRANCH   4  11
ATOM     11  O   UNL     1      23.395  34.351   4.091  1.00  0.00    -0.387 OA
ATOM     12  H   UNL     1      23.646  33.495   3.654  1.00  0.00     0.211 HD
ENDBRANCH   4  11
BRANCH   6  13
ATOM     13  O   UNL     1      23.443  36.633   5.531  1.00  0.00    -0.387 OA
ATOM     14  H   UNL     1      23.882  37.110   4.781  1.00  0.00     0.211 HD
ENDBRANCH   6  13
BRANCH   7  15
ATOM     15  O   UNL     1      25.646  35.986   3.964  1.00  0.00    -0.385 OA
ATOM     16  H   UNL     1      25.914  36.917   3.750  1.00  0.00     0.211 HD
ENDBRANCH   7  15
ENDBRANCH   1   2
BRANCH   1  17
ATOM     17  C   UNL     1      28.113  34.858   7.665  1.00  0.00     0.224 C 
ATOM     18  C   UNL     1      27.868  36.200   8.404  1.00  0.00     0.208 C 
ATOM     19  O   UNL     1      29.026  35.109   6.610  1.00  0.00    -0.337 OA
ATOM     20  C   UNL     1      28.995  37.079   7.932  1.00  0.00     0.180 C 
ATOM     21  C   UNL     1      29.273  36.494   6.556  1.00  0.00     0.179 C 
BRANCH  17  22
ATOM     22  C   UNL     1      28.740  33.787   8.612  1.00  0.00     0.225 C 
BRANCH  22  23
ATOM     23  O   UNL     1      27.768  32.895   9.094  1.00  0.00    -0.391 OA
ATOM     24  H   UNL     1      26.885  33.266   8.836  1.00  0.00     0.210 HD
ENDBRANCH  22  23
ENDBRANCH  17  22
BRANCH  18  25
ATOM     25  O   UNL     1      27.859  36.074   9.805  1.00  0.00    -0.385 OA
ATOM     26  H   UNL     1      27.290  36.809  10.153  1.00  0.00     0.211 HD
ENDBRANCH  18  25
BRANCH  20  27
ATOM     27  O   UNL     1      28.582  38.418   7.850  1.00  0.00    -0.387 OA
ATOM     28  H   UNL     1      29.340  38.966   8.180  1.00  0.00     0.211 HD
ENDBRANCH  20  27
BRANCH  21  29
ATOM     29  C   UNL     1      30.704  36.754   6.068  1.00  0.00     0.191 C 
BRANCH  29  30
ATOM     30  O   UNL     1      31.595  35.802   6.586  1.00  0.00    -0.394 OA
ATOM     31  H   UNL     1      32.511  36.095   6.339  1.00  0.00     0.210 HD
ENDBRANCH  29  30
ENDBRANCH  21  29
ENDBRANCH   1  17
TORSDOF 13
ENDMDL
MODEL 3
REMARK VINA RESULT:    -5.252      2.757      4.265
REMARK INTER + INTRA:          -9.236
REMARK INTER:                  -8.341
REMARK INTRA:                  -0.895
REMARK UNBOUND:                -1.221
REMARK SMILES OC[C@@H]1O[C@H](O[C@@]2(CO)O[C@H](CO)[C@@H](O)[C@@H]2O)[C@@H](O)[C@@H](O)[C@H]1O
REMARK SMILES IDX 6 1 5 2 3 3 22 4 4 5 20 6 18 7 2 8 1 9 23 11 21 13 19 15
REMARK SMILES IDX 7 17 16 18 10 19 14 20 11 21 8 22 9 23 17 25 15 27 12 29
REMARK SMILES IDX 13 30
REMARK H PARENT 1 10 23 12 21 14 19 16 9 24 17 26 15 28 13 31
REMARK Flexibility Score: inf
ROOT
ATOM      1  O   UNL     1      24.077  33.024   6.830  1.00  0.00    -0.313 OA
ENDROOT
BRANCH   1   2
ATOM      2  C   UNL     1      24.366  33.467   5.508  1.00  0.00     0.285 C 
ATOM      3  C   UNL     1      22.411  34.835   5.346  1.00  0.00     0.178 C 
ATOM      4  C   UNL     1      23.236  36.149   5.461  1.00  0.00     0.177 C 
ATOM      5  O   UNL     1      23.147  33.729   4.828  1.00  0.00    -0.341 OA
ATOM      6  C   UNL     1      24.621  35.903   6.085  1.00  0.00     0.179 C 
ATOM      7  C   UNL     1      25.300  34.699   5.423  1.00  0.00     0.202 C 
BRANCH   3   8
ATOM      8  C   UNL     1      21.583  34.478   6.606  1.00  0.00     0.191 C 
BRANCH   8   9
ATOM      9  O   UNL     1      22.024  35.173   7.740  1.00  0.00    -0.394 OA
ATOM     10  H   UNL     1      21.577  36.060   7.713  1.00  0.00     0.210 HD
ENDBRANCH   8   9
ENDBRANCH   3   8
BRANCH   4  11
ATOM     11  O   UNL     1      23.394  36.719   4.184  1.00  0.00    -0.387 OA
ATOM     12  H   UNL     1      24.340  36.575   3.917  1.00  0.00     0.211 HD
ENDBRANCH   4  11
BRANCH   6  13
ATOM     13  O   UNL     1      25.418  37.050   5.938  1.00  0.00    -0.387 OA
ATOM     14  H   UNL     1      26.251  36.892   6.454  1.00  0.00     0.211 HD
ENDBRANCH   6  13
BRANCH   7  15
ATOM     15  O   UNL     1      25.577  34.992   4.076  1.00  0.00    -0.385 OA
ATOM     16  H   UNL     1      26.367  34.449   3.817  1.00  0.00     0.211 HD
ENDBRANCH   7  15
ENDBRANCH   1   2
BRANCH   1  17
ATOM     17  C   UNL     1      24.521  31.718   7.212  1.00  0.00     0.224 C 
ATOM     18  C   UNL     1      26.067  31.802   7.312  1.00  0.00     0.208 C 
ATOM     19  O   UNL     1      24.206  30.793   6.186  1.00  0.00    -0.337 OA
ATOM     20  C   UNL     1      26.540  30.586   6.560  1.00  0.00     0.180 C 
ATOM     21  C   UNL     1      25.405  30.389   5.567  1.00  0.00     0.179 C 
BRANCH  17  22
ATOM     22  C   UNL     1      23.886  31.210   8.543  1.00  0.00     0.225 C 
BRANCH  22  23
ATOM     23  O   UNL     1      24.248  29.880   8.811  1.00  0.00    -0.391 OA
ATOM     24  H   UNL     1      25.238  29.836   8.756  1.00  0.00     0.210 HD
ENDBRANCH  22  23
ENDBRANCH  17  22
BRANCH  18  25
ATOM     25  O   UNL     1      26.542  31.812   8.635  1.00  0.00    -0.385 OA
ATOM     26  H   UNL     1      25.763  32.019   9.215  1.00  0.00     0.211 HD
ENDBRANCH  18  25
BRANCH  20  27
ATOM     27  O   UNL     1      27.756  30.844   5.910  1.00  0.00    -0.387 OA
ATOM     28  H   UNL     1      28.468  30.455   6.480  1.00  0.00     0.211 HD
ENDBRANCH  20  27
BRANCH  21  29
ATOM     29  C   UNL     1      25.281  28.943   5.073  1.00  0.00     0.191 C 
BRANCH  29  30
ATOM     30  O   UNL     1      26.540  28.405   4.765  1.00  0.00    -0.394 OA
ATOM     31  H   UNL     1      26.887  28.906   3.981  1.00  0.00     0.210 HD
ENDBRANCH  29  30
ENDBRANCH  21  29
ENDBRANCH   1  17
TORSDOF 13
ENDMDL
MODEL 4
REMARK VINA RESULT:    -5.220      2.580      4.175
REMARK INTER + INTRA:          -9.187
REMARK INTER:                  -8.234
REMARK INTRA:                  -0.953
REMARK UNBOUND:                -1.221
REMARK SMILES OC[C@@H]1O[C@H](O[C@@]2(CO)O[C@H](CO)[C@@H](O)[C@@H]2O)[C@@H](O)[C@@H](O)[C@H]1O
REMARK SMILES IDX 6 1 5 2 3 3 22 4 4 5 20 6 18 7 2 8 1 9 23 11 21 13 19 15
REMARK SMILES IDX 7 17 16 18 10 19 14 20 11 21 8 22 9 23 17 25 15 27 12 29
REMARK SMILES IDX 13 30
REMARK H PARENT 1 10 23 12 21 14 19 16 9 24 17 26 15 28 13 31
REMARK Flexibility Score: inf
ROOT
ATOM      1  O   UNL     1      24.781  33.224   6.247  1.00  0.00    -0.313 OA
ENDROOT
BRANCH   1   2
ATOM      2  C   UNL     1      25.031  33.985   5.071  1.00  0.00     0.285 C 
ATOM      3  C   UNL     1      22.843  34.950   5.012  1.00  0.00     0.178 C 
ATOM      4  C   UNL     1      23.370  36.344   5.458  1.00  0.00     0.177 C 
ATOM      5  O   UNL     1      23.817  34.144   4.351  1.00  0.00    -0.341 OA
ATOM      6  C   UNL     1      24.746  36.244   6.140  1.00  0.00     0.179 C 
ATOM      7  C   UNL     1      25.691  35.364   5.315  1.00  0.00     0.202 C 
BRANCH   3   8
ATOM      8  C   UNL     1      22.051  34.180   6.098  1.00  0.00     0.191 C 
BRANCH   8   9
ATOM      9  O   UNL     1      22.228  34.735   7.372  1.00  0.00    -0.394 OA
ATOM     10  H   UNL     1      23.193  34.640   7.585  1.00  0.00     0.210 HD
ENDBRANCH   8   9
ENDBRANCH   3   8
BRANCH   4  11
ATOM     11  O   UNL     1      23.465  37.192   4.339  1.00  0.00    -0.387 OA
ATOM     12  H   UNL     1      24.251  37.780   4.486  1.00  0.00     0.211 HD
ENDBRANCH   4  11
BRANCH   6  13
ATOM     13  O   UNL     1      25.293  37.529   6.295  1.00  0.00    -0.387 OA
ATOM     14  H   UNL     1      25.007  38.062   5.509  1.00  0.00     0.211 HD
ENDBRANCH   6  13
BRANCH   7  15
ATOM     15  O   UNL     1      25.962  35.985   4.083  1.00  0.00    -0.385 OA
ATOM     16  H   UNL     1      26.683  36.648   4.245  1.00  0.00     0.211 HD
ENDBRANCH   7  15
ENDBRANCH   1   2
BRANCH   1  17
ATOM     17  C   UNL     1      25.546  32.032   6.452  1.00  0.00     0.224 C 
ATOM     18  C   UNL     1      24.550  30.969   6.988  1.00  0.00     0.208 C 
ATOM     19  O   UNL     1      26.514  32.261   7.462  1.00  0.00    -0.337 OA
ATOM     20  C   UNL     1      25.269  30.367   8.165  1.00  0.00     0.180 C 
ATOM     21  C   UNL     1      26.143  31.530   8.607  1.00  0.00     0.179 C 
BRANCH  17  22
ATOM     22  C   UNL     1      26.282  31.536   5.170  1.00  0.00     0.225 C 
BRANCH  22  23
ATOM     23  O   UNL     1      27.056  30.393   5.430  1.00  0.00    -0.391 OA
ATOM     24  H   UNL     1      27.992  30.702   5.548  1.00  0.00     0.210 HD
ENDBRANCH  22  23
ENDBRANCH  17  22
BRANCH  18  25
ATOM     25  O   UNL     1      24.208  29.994   6.033  1.00  0.00    -0.385 OA
ATOM     26  H   UNL     1      23.219  29.910   6.055  1.00  0.00     0.211 HD
ENDBRANCH  18  25
BRANCH  20  27
ATOM     27  O   UNL     1      24.360  29.994   9.166  1.00  0.00    -0.387 OA
ATOM     28  H   UNL     1      23.692  29.402   8.733  1.00  0.00     0.211 HD
ENDBRANCH  20  27
BRANCH  21  29
ATOM     29  C   UNL     1      27.394  31.086   9.376  1.00  0.00     0.191 C 
BRANCH  29  30
ATOM     30  O   UNL     1      27.969  32.161  10.070  1.00  0.00    -0.394 OA
ATOM     31  H   UNL     1      28.174  32.864   9.400  1.00  0.00     0.210 HD
ENDBRANCH  29  30
ENDBRANCH  21  29
ENDBRANCH   1  17
TORSDOF 13
ENDMDL
MODEL 5
REMARK VINA RESULT:    -5.130      6.701      8.828
REMARK INTER + INTRA:          -9.050
REMARK INTER:                  -7.821
REMARK INTRA:                  -1.229
REMARK UNBOUND:                -1.221
REMARK SMILES OC[C@@H]1O[C@H](O[C@@]2(CO)O[C@H](CO)[C@@H](O)[C@@H]2O)[C@@H](O)[C@@H](O)[C@H]1O
REMARK SMILES IDX 6 1 5 2 3 3 22 4 4 5 20 6 18 7 2 8 1 9 23 11 21 13 19 15
REMARK SMILES IDX 7 17 16 18 10 19 14 20 11 21 8 22 9 23 17 25 15 27 12 29
REMARK SMILES IDX 13 30
REMARK H PARENT 1 10 23 12 21 14 19 16 9 24 17 26 15 28 13 31
REMARK Flexibility Score: inf
ROOT
ATOM      1  O   UNL     1      19.502  30.785   8.912  1.00  0.00    -0.313 OA
ENDROOT
BRANCH   1   2
ATOM      2  C   UNL     1      19.003  31.868   9.691  1.00  0.00     0.285 C 
ATOM      3  C   UNL     1      21.155  32.858  10.020  1.00  0.00     0.178 C 
ATOM      4  C   UNL     1      20.841  34.031   9.048  1.00  0.00     0.177 C 
ATOM      5  O   UNL     1      20.000  32.272  10.618  1.00  0.00    -0.341 OA
ATOM      6  C   UNL     1      19.682  33.690   8.095  1.00  0.00     0.179 C 
ATOM      7  C   UNL     1      18.508  33.085   8.873  1.00  0.00     0.202 C 
BRANCH   3   8
ATOM      8  C   UNL     1      22.153  31.810   9.469  1.00  0.00     0.191 C 
BRANCH   8   9
ATOM      9  O   UNL     1      22.404  30.786  10.392  1.00  0.00    -0.394 OA
ATOM     10  H   UNL     1      22.979  30.125   9.923  1.00  0.00     0.210 HD
ENDBRANCH   8   9
ENDBRANCH   3   8
BRANCH   4  11
ATOM     11  O   UNL     1      20.511  35.182   9.789  1.00  0.00    -0.387 OA
ATOM     12  H   UNL     1      20.324  34.885  10.717  1.00  0.00     0.211 HD
ENDBRANCH   4  11
BRANCH   6  13
ATOM     13  O   UNL     1      19.268  34.849   7.417  1.00  0.00    -0.387 OA
ATOM     14  H   UNL     1      19.647  34.800   6.502  1.00  0.00     0.211 HD
ENDBRANCH   6  13
BRANCH   7  15
ATOM     15  O   UNL     1      17.967  34.051   9.740  1.00  0.00    -0.385 OA
ATOM     16  H   UNL     1      16.993  34.097   9.551  1.00  0.00     0.211 HD
ENDBRANCH   7  15
ENDBRANCH   1   2
BRANCH   1  17
ATOM     17  C   UNL     1      19.038  29.467   9.219  1.00  0.00     0.224 C 
ATOM     18  C   UNL     1      20.303  28.638   9.571  1.00  0.00     0.208 C 
ATOM     19  O   UNL     1      18.456  28.890   8.063  1.00  0.00    -0.337 OA
ATOM     20  C   UNL     1      20.131  27.370   8.779  1.00  0.00     0.180 C 
ATOM     21  C   UNL     1      19.301  27.862   7.603  1.00  0.00     0.179 C 
BRANCH  17  22
ATOM     22  C   UNL     1      17.987  29.427  10.371  1.00  0.00     0.225 C 
BRANCH  22  23
ATOM     23  O   UNL     1      17.525  28.122  10.602  1.00  0.00    -0.391 OA
ATOM     24  H   UNL     1      17.677  27.612   9.764  1.00  0.00     0.210 HD
ENDBRANCH  22  23
ENDBRANCH  17  22
BRANCH  18  25
ATOM     25  O   UNL     1      20.435  28.378  10.947  1.00  0.00    -0.385 OA
ATOM     26  H   UNL     1      21.397  28.197  11.111  1.00  0.00     0.211 HD
ENDBRANCH  18  25
BRANCH  20  27
ATOM     27  O   UNL     1      21.374  26.871   8.361  1.00  0.00    -0.387 OA
ATOM     28  H   UNL     1      21.569  26.086   8.935  1.00  0.00     0.211 HD
ENDBRANCH  20  27
BRANCH  21  29
ATOM     29  C   UNL     1      18.472  26.753   6.944  1.00  0.00     0.191 C 
BRANCH  29  30
ATOM     30  O   UNL     1      19.286  25.896   6.187  1.00  0.00    -0.394 OA
ATOM     31  H   UNL     1      19.648  26.430   5.432  1.00  0.00     0.210 HD
ENDBRANCH  29  30
ENDBRANCH  21  29
ENDBRANCH   1  17
TORSDOF 13
ENDMDL
MODEL 6
REMARK VINA RESULT:    -5.128      4.495      6.633
REMARK INTER + INTRA:          -9.047
REMARK INTER:                  -7.978
REMARK INTRA:                  -1.069
REMARK UNBOUND:                -1.221
REMARK SMILES OC[C@@H]1O[C@H](O[C@@]2(CO)O[C@H](CO)[C@@H](O)[C@@H]2O)[C@@H](O)[C@@H](O)[C@H]1O
REMARK SMILES IDX 6 1 5 2 3 3 22 4 4 5 20 6 18 7 2 8 1 9 23 11 21 13 19 15
REMARK SMILES IDX 7 17 16 18 10 19 14 20 11 21 8 22 9 23 17 25 15 27 12 29
REMARK SMILES IDX 13 30
REMARK H PARENT 1 10 23 12 21 14 19 16 9 24 17 26 15 28 13 31
REMARK Flexibility Score: inf
ROOT
ATOM      1  O   UNL     1      21.071  35.381   7.292  1.00  0.00    -0.313 OA
ENDROOT
BRANCH   1   2
ATOM      2  C   UNL     1      20.970  35.675   5.903  1.00  0.00     0.285 C 
ATOM      3  C   UNL     1      22.569  37.452   5.979  1.00  0.00     0.178 C 
ATOM      4  C   UNL     1      23.647  36.607   5.240  1.00  0.00     0.177 C 
ATOM      5  O   UNL     1      21.227  37.057   5.700  1.00  0.00    -0.341 OA
ATOM      6  C   UNL     1      23.350  35.099   5.327  1.00  0.00     0.179 C 
ATOM      7  C   UNL     1      21.882  34.821   4.988  1.00  0.00     0.202 C 
BRANCH   3   8
ATOM      8  C   UNL     1      22.839  37.666   7.489  1.00  0.00     0.191 C 
BRANCH   8   9
ATOM      9  O   UNL     1      24.197  37.884   7.756  1.00  0.00    -0.394 OA
ATOM     10  H   UNL     1      24.234  38.390   8.609  1.00  0.00     0.210 HD
ENDBRANCH   8   9
ENDBRANCH   3   8
BRANCH   4  11
ATOM     11  O   UNL     1      23.703  36.994   3.888  1.00  0.00    -0.387 OA
ATOM     12  H   UNL     1      23.518  36.183   3.346  1.00  0.00     0.211 HD
ENDBRANCH   4  11
BRANCH   6  13
ATOM     13  O   UNL     1      24.191  34.399   4.445  1.00  0.00    -0.387 OA
ATOM     14  H   UNL     1      24.683  33.728   4.986  1.00  0.00     0.211 HD
ENDBRANCH   6  13
BRANCH   7  15
ATOM     15  O   UNL     1      21.636  35.144   3.641  1.00  0.00    -0.385 OA
ATOM     16  H   UNL     1      21.866  36.103   3.527  1.00  0.00     0.211 HD
ENDBRANCH   7  15
ENDBRANCH   1   2
BRANCH   1  17
ATOM     17  C   UNL     1      20.095  34.507   7.867  1.00  0.00     0.224 C 
ATOM     18  C   UNL     1      19.752  35.101   9.259  1.00  0.00     0.208 C 
ATOM     19  O   UNL     1      20.670  33.228   8.076  1.00  0.00    -0.337 OA
ATOM     20  C   UNL     1      19.813  33.912  10.180  1.00  0.00     0.180 C 
ATOM     21  C   UNL     1      20.822  33.029   9.462  1.00  0.00     0.179 C 
BRANCH  17  22
ATOM     22  C   UNL     1      18.819  34.332   6.987  1.00  0.00     0.225 C 
BRANCH  22  23
ATOM     23  O   UNL     1      18.046  33.239   7.410  1.00  0.00    -0.391 OA
ATOM     24  H   UNL     1      17.734  32.774   6.591  1.00  0.00     0.210 HD
ENDBRANCH  22  23
ENDBRANCH  17  22
BRANCH  18  25
ATOM     25  O   UNL     1      18.495  35.729   9.303  1.00  0.00    -0.385 OA
ATOM     26  H   UNL     1      18.003  35.439   8.491  1.00  0.00     0.211 HD
ENDBRANCH  18  25
BRANCH  20  27
ATOM     27  O   UNL     1      20.270  34.290  11.451  1.00  0.00    -0.387 OA
ATOM     28  H   UNL     1      19.948  33.598  12.084  1.00  0.00     0.211 HD
ENDBRANCH  20  27
BRANCH  21  29
ATOM     29  C   UNL     1      20.670  31.541   9.800  1.00  0.00     0.191 C 
BRANCH  29  30
ATOM     30  O   UNL     1      19.743  30.922   8.947  1.00  0.00    -0.394 OA
ATOM     31  H   UNL     1      20.029  29.977   8.844  1.00  0.00     0.210 HD
ENDBRANCH  29  30
ENDBRANCH  21  29
ENDBRANCH   1  17
TORSDOF 13
ENDMDL
MODEL 7
REMARK VINA RESULT:    -5.111      1.286      2.155
REMARK INTER + INTRA:          -9.021
REMARK INTER:                  -7.679
REMARK INTRA:                  -1.342
REMARK UNBOUND:                -1.221
REMARK SMILES OC[C@@H]1O[C@H](O[C@@]2(CO)O[C@H](CO)[C@@H](O)[C@@H]2O)[C@@H](O)[C@@H](O)[C@H]1O
REMARK SMILES IDX 6 1 5 2 3 3 22 4 4 5 20 6 18 7 2 8 1 9 23 11 21 13 19 15
REMARK SMILES IDX 7 17 16 18 10 19 14 20 11 21 8 22 9 23 17 25 15 27 12 29
REMARK SMILES IDX 13 30
REMARK H PARENT 1 10 23 12 21 14 19 16 9 24 17 26 15 28 13 31
REMARK Flexibility Score: inf
ROOT
ATOM      1  O   UNL     1      26.520  34.312   7.086  1.00  0.00    -0.313 OA
ENDROOT
BRANCH   1   2
ATOM      2  C   UNL     1      27.840  34.680   6.696  1.00  0.00     0.285 C 
ATOM      3  C   UNL     1      27.403  37.030   6.776  1.00  0.00     0.178 C 
ATOM      4  C   UNL     1      28.243  37.213   8.073  1.00  0.00     0.177 C 
ATOM      5  O   UNL     1      27.790  35.908   5.985  1.00  0.00    -0.341 OA
ATOM      6  C   UNL     1      28.430  35.883   8.825  1.00  0.00     0.179 C 
ATOM      7  C   UNL     1      28.859  34.775   7.857  1.00  0.00     0.202 C 
BRANCH   3   8
ATOM      8  C   UNL     1      25.871  37.133   6.978  1.00  0.00     0.191 C 
BRANCH   8   9
ATOM      9  O   UNL     1      25.161  36.654   5.869  1.00  0.00    -0.394 OA
ATOM     10  H   UNL     1      24.224  36.963   5.984  1.00  0.00     0.210 HD
ENDBRANCH   8   9
ENDBRANCH   3   8
BRANCH   4  11
ATOM     11  O   UNL     1      29.504  37.745   7.747  1.00  0.00    -0.387 OA
ATOM     12  H   UNL     1      29.867  38.158   8.573  1.00  0.00     0.211 HD
ENDBRANCH   4  11
BRANCH   6  13
ATOM     13  O   UNL     1      29.392  36.042   9.837  1.00  0.00    -0.387 OA
ATOM     14  H   UNL     1      28.934  36.466  10.608  1.00  0.00     0.211 HD
ENDBRANCH   6  13
BRANCH   7  15
ATOM     15  O   UNL     1      30.137  35.063   7.344  1.00  0.00    -0.385 OA
ATOM     16  H   UNL     1      30.530  35.767   7.924  1.00  0.00     0.211 HD
ENDBRANCH   7  15
ENDBRANCH   1   2
BRANCH   1  17
ATOM     17  C   UNL     1      25.940  33.152   6.483  1.00  0.00     0.224 C 
ATOM     18  C   UNL     1      24.447  33.498   6.236  1.00  0.00     0.208 C 
ATOM     19  O   UNL     1      25.984  32.072   7.399  1.00  0.00    -0.337 OA
ATOM     20  C   UNL     1      23.710  32.294   6.759  1.00  0.00     0.180 C 
ATOM     21  C   UNL     1      24.671  31.797   7.828  1.00  0.00     0.179 C 
BRANCH  17  22
ATOM     22  C   UNL     1      26.653  32.710   5.168  1.00  0.00     0.225 C 
BRANCH  22  23
ATOM     23  O   UNL     1      26.392  31.363   4.869  1.00  0.00    -0.391 OA
ATOM     24  H   UNL     1      25.481  31.165   5.208  1.00  0.00     0.210 HD
ENDBRANCH  22  23
ENDBRANCH  17  22
BRANCH  18  25
ATOM     25  O   UNL     1      24.147  33.744   4.884  1.00  0.00    -0.385 OA
ATOM     26  H   UNL     1      23.640  34.597   4.856  1.00  0.00     0.211 HD
ENDBRANCH  18  25
BRANCH  20  27
ATOM     27  O   UNL     1      22.474  32.667   7.309  1.00  0.00    -0.387 OA
ATOM     28  H   UNL     1      21.868  31.891   7.190  1.00  0.00     0.211 HD
ENDBRANCH  20  27
BRANCH  21  29
ATOM     29  C   UNL     1      24.517  30.302   8.129  1.00  0.00     0.191 C 
BRANCH  29  30
ATOM     30  O   UNL     1      23.263  30.027   8.696  1.00  0.00    -0.394 OA
ATOM     31  H   UNL     1      23.413  29.848   9.661  1.00  0.00     0.210 HD
ENDBRANCH  29  30
ENDBRANCH  21  29
ENDBRANCH   1  17
TORSDOF 13
ENDMDL
MODEL 8
REMARK VINA RESULT:    -5.013      1.641      6.086
REMARK INTER + INTRA:          -8.872
REMARK INTER:                  -7.843
REMARK INTRA:                  -1.029
REMARK UNBOUND:                -1.221
REMARK SMILES OC[C@@H]1O[C@H](O[C@@]2(CO)O[C@H](CO)[C@@H](O)[C@@H]2O)[C@@H](O)[C@@H](O)[C@H]1O
REMARK SMILES IDX 6 1 5 2 3 3 22 4 4 5 20 6 18 7 2 8 1 9 23 11 21 13 19 15
REMARK SMILES IDX 7 17 16 18 10 19 14 20 11 21 8 22 9 23 17 25 15 27 12 29
REMARK SMILES IDX 13 30
REMARK H PARENT 1 10 23 12 21 14 19 16 9 24 17 26 15 28 13 31
REMARK Flexibility Score: inf
ROOT
ATOM      1  O   UNL     1      27.305  33.633   8.093  1.00  0.00    -0.313 OA
ENDROOT
BRANCH   1   2
ATOM      2  C   UNL     1      27.133  33.389   6.700  1.00  0.00     0.285 C 
ATOM      3  C   UNL     1      26.830  31.032   6.967  1.00  0.00     0.178 C 
ATOM      4  C   UNL     1      25.308  31.122   6.658  1.00  0.00     0.177 C 
ATOM      5  O   UNL     1      27.604  32.084   6.394  1.00  0.00    -0.341 OA
ATOM      6  C   UNL     1      24.767  32.549   6.858  1.00  0.00     0.179 C 
ATOM      7  C   UNL     1      25.686  33.571   6.181  1.00  0.00     0.202 C 
BRANCH   3   8
ATOM      8  C   UNL     1      27.174  30.762   8.453  1.00  0.00     0.191 C 
BRANCH   8   9
ATOM      9  O   UNL     1      26.133  31.140   9.311  1.00  0.00    -0.394 OA
ATOM     10  H   UNL     1      26.543  31.718  10.007  1.00  0.00     0.210 HD
ENDBRANCH   8   9
ENDBRANCH   3   8
BRANCH   4  11
ATOM     11  O   UNL     1      25.071  30.716   5.331  1.00  0.00    -0.387 OA
ATOM     12  H   UNL     1      25.819  30.116   5.074  1.00  0.00     0.211 HD
ENDBRANCH   4  11
BRANCH   6  13
ATOM     13  O   UNL     1      23.468  32.642   6.332  1.00  0.00    -0.387 OA
ATOM     14  H   UNL     1      23.367  31.904   5.677  1.00  0.00     0.211 HD
ENDBRANCH   6  13
BRANCH   7  15
ATOM     15  O   UNL     1      25.656  33.384   4.787  1.00  0.00    -0.385 OA
ATOM     16  H   UNL     1      25.330  34.233   4.388  1.00  0.00     0.211 HD
ENDBRANCH   7  15
ENDBRANCH   1   2
BRANCH   1  17
ATOM     17  C   UNL     1      28.408  34.446   8.501  1.00  0.00     0.224 C 
ATOM     18  C   UNL     1      27.801  35.804   8.944  1.00  0.00     0.208 C 
ATOM     19  O   UNL     1      29.249  34.695   7.388  1.00  0.00    -0.337 OA
ATOM     20  C   UNL     1      28.669  36.825   8.258  1.00  0.00     0.180 C 
ATOM     21  C   UNL     1      29.126  36.052   7.031  1.00  0.00     0.179 C 
BRANCH  17  22
ATOM     22  C   UNL     1      29.269  33.806   9.634  1.00  0.00     0.225 C 
BRANCH  22  23
ATOM     23  O   UNL     1      28.473  33.096  10.546  1.00  0.00    -0.391 OA
ATOM     24  H   UNL     1      28.633  32.131  10.376  1.00  0.00     0.210 HD
ENDBRANCH  22  23
ENDBRANCH  17  22
BRANCH  18  25
ATOM     25  O   UNL     1      27.790  35.983  10.338  1.00  0.00    -0.385 OA
ATOM     26  H   UNL     1      27.291  36.823  10.513  1.00  0.00     0.211 HD
ENDBRANCH  18  25
BRANCH  20  27
ATOM     27  O   UNL     1      27.921  37.959   7.906  1.00  0.00    -0.387 OA
ATOM     28  H   UNL     1      26.989  37.782   8.195  1.00  0.00     0.211 HD
ENDBRANCH  20  27
BRANCH  21  29
ATOM     29  C   UNL     1      30.450  36.567   6.453  1.00  0.00     0.191 C 
BRANCH  29  30
ATOM     30  O   UNL     1      31.488  35.648   6.673  1.00  0.00    -0.394 OA
ATOM     31  H   UNL     1      31.783  35.324   5.782  1.00  0.00     0.210 HD
ENDBRANCH  29  30
ENDBRANCH  21  29
ENDBRANCH   1  17
TORSDOF 13
ENDMDL
MODEL 9
REMARK VINA RESULT:    -4.881      2.469      5.440
REMARK INTER + INTRA:          -8.670
REMARK INTER:                  -7.527
REMARK INTRA:                  -1.142
REMARK UNBOUND:                -1.221
REMARK SMILES OC[C@@H]1O[C@H](O[C@@]2(CO)O[C@H](CO)[C@@H](O)[C@@H]2O)[C@@H](O)[C@@H](O)[C@H]1O
REMARK SMILES IDX 6 1 5 2 3 3 22 4 4 5 20 6 18 7 2 8 1 9 23 11 21 13 19 15
REMARK SMILES IDX 7 17 16 18 10 19 14 20 11 21 8 22 9 23 17 25 15 27 12 29
REMARK SMILES IDX 13 30
REMARK H PARENT 1 10 23 12 21 14 19 16 9 24 17 26 15 28 13 31
REMARK Flexibility Score: inf
ROOT
ATOM      1  O   UNL     1      24.690  33.928   6.215  1.00  0.00    -0.313 OA
ENDROOT
BRANCH   1   2
ATOM      2  C   UNL     1      24.886  32.586   5.780  1.00  0.00     0.285 C 
ATOM      3  C   UNL     1      27.098  32.428   6.675  1.00  0.00     0.178 C 
ATOM      4  C   UNL     1      26.640  31.489   7.828  1.00  0.00     0.177 C 
ATOM      5  O   UNL     1      26.266  32.378   5.517  1.00  0.00    -0.341 OA
ATOM      6  C   UNL     1      25.125  31.586   8.076  1.00  0.00     0.179 C 
ATOM      7  C   UNL     1      24.358  31.503   6.752  1.00  0.00     0.202 C 
BRANCH   3   8
ATOM      8  C   UNL     1      27.443  33.873   7.114  1.00  0.00     0.191 C 
BRANCH   8   9
ATOM      9  O   UNL     1      27.769  33.946   8.475  1.00  0.00    -0.394 OA
ATOM     10  H   UNL     1      27.881  34.910   8.683  1.00  0.00     0.210 HD
ENDBRANCH   8   9
ENDBRANCH   3   8
BRANCH   4  11
ATOM     11  O   UNL     1      26.978  30.159   7.514  1.00  0.00    -0.387 OA
ATOM     12  H   UNL     1      27.733  29.905   8.105  1.00  0.00     0.211 HD
ENDBRANCH   4  11
BRANCH   6  13
ATOM     13  O   UNL     1      24.718  30.553   8.937  1.00  0.00    -0.387 OA
ATOM     14  H   UNL     1      23.738  30.643   9.056  1.00  0.00     0.211 HD
ENDBRANCH   6  13
BRANCH   7  15
ATOM     15  O   UNL     1      24.532  30.229   6.183  1.00  0.00    -0.385 OA
ATOM     16  H   UNL     1      24.026  29.588   6.747  1.00  0.00     0.211 HD
ENDBRANCH   7  15
ENDBRANCH   1   2
BRANCH   1  17
ATOM     17  C   UNL     1      24.119  34.857   5.289  1.00  0.00     0.224 C 
ATOM     18  C   UNL     1      23.467  35.973   6.148  1.00  0.00     0.208 C 
ATOM     19  O   UNL     1      23.086  34.220   4.557  1.00  0.00    -0.337 OA
ATOM     20  C   UNL     1      22.104  36.146   5.533  1.00  0.00     0.180 C 
ATOM     21  C   UNL     1      21.851  34.756   4.970  1.00  0.00     0.179 C 
BRANCH  17  22
ATOM     22  C   UNL     1      25.151  35.442   4.276  1.00  0.00     0.225 C 
BRANCH  22  23
ATOM     23  O   UNL     1      26.280  35.959   4.931  1.00  0.00    -0.391 OA
ATOM     24  H   UNL     1      26.140  35.812   5.902  1.00  0.00     0.210 HD
ENDBRANCH  22  23
ENDBRANCH  17  22
BRANCH  18  25
ATOM     25  O   UNL     1      24.195  37.176   6.147  1.00  0.00    -0.385 OA
ATOM     26  H   UNL     1      24.510  37.317   5.216  1.00  0.00     0.211 HD
ENDBRANCH  18  25
BRANCH  20  27
ATOM     27  O   UNL     1      21.156  36.487   6.511  1.00  0.00    -0.387 OA
ATOM     28  H   UNL     1      21.663  36.655   7.347  1.00  0.00     0.211 HD
ENDBRANCH  20  27
BRANCH  21  29
ATOM     29  C   UNL     1      20.858  34.751   3.801  1.00  0.00     0.191 C 
BRANCH  29  30
ATOM     30  O   UNL     1      19.981  35.844   3.879  1.00  0.00    -0.394 OA
ATOM     31  H   UNL     1      19.180  35.615   3.340  1.00  0.00     0.210 HD
ENDBRANCH  29  30
ENDBRANCH  21  29
ENDBRANCH   1  17
TORSDOF 13
ENDMDL
