MODEL 1
REMARK VINA RESULT:    -3.596      0.000      0.000
REMARK INTER + INTRA:         -14.492
REMARK INTER:                  -9.063
REMARK INTRA:                  -5.430
REMARK UNBOUND:                -5.430
REMARK SMILES CCCCCCCCCCCCCCCCCCCCCCCCCCCC(=O)[O-]
REMARK SMILES IDX 15 1 16 2 17 3 18 4 19 5 20 6 21 7 22 8 23 9 24 10 25 11
REMARK SMILES IDX 26 12 27 13 28 14 29 15 30 16 14 17 13 18 12 19 11 20 10 21
REMARK SMILES IDX 9 22 8 23 7 24 6 25 5 26 4 27 3 28 2 29 1 30
REMARK H PARENT
REMARK Flexibility Score: inf
ROOT
ATOM      1  C   UNL     1      16.529 131.289  55.036  1.00  0.00     0.000 C 
ENDROOT
BRANCH   1   2
ATOM      2  C   UNL     1      15.059 131.507  54.636  1.00  0.00     0.000 C 
BRANCH   2   3
ATOM      3  C   UNL     1      14.679 132.996  54.556  1.00  0.00     0.000 C 
BRANCH   3   4
ATOM      4  C   UNL     1      13.746 133.439  55.700  1.00  0.00     0.000 C 
BRANCH   4   5
ATOM      5  C   UNL     1      14.413 134.287  56.800  1.00  0.00     0.000 C 
BRANCH   5   6
ATOM      6  C   UNL     1      14.031 133.843  58.220  1.00  0.00     0.000 C 
BRANCH   6   7
ATOM      7  C   UNL     1      13.545 132.386  58.222  1.00  0.00     0.000 C 
BRANCH   7   8
ATOM      8  C   UNL     1      14.369 131.482  59.158  1.00  0.00     0.000 C 
BRANCH   8   9
ATOM      9  C   UNL     1      14.639 132.069  60.559  1.00  0.00     0.000 C 
BRANCH   9  10
ATOM     10  C   UNL     1      16.115 132.058  60.999  1.00  0.00     0.000 C 
BRANCH  10  11
ATOM     11  C   UNL     1      16.889 133.295  60.507  1.00  0.00     0.000 C 
BRANCH  11  12
ATOM     12  C   UNL     1      18.410 133.149  60.675  1.00  0.00     0.006 C 
BRANCH  12  13
ATOM     13  C   UNL     1      18.866 133.325  62.128  1.00  0.00     0.053 C 
BRANCH  13  14
ATOM     14  C   UNL     1      19.912 132.314  62.478  1.00  0.00     0.041 C 
ATOM     15  O   UNL     1      21.036 132.339  61.908  1.00  0.00    -0.550 OA
ATOM     16  O   UNL     1      19.665 131.372  63.469  1.00  0.00    -0.550 OA
ENDBRANCH  13  14
ENDBRANCH  12  13
ENDBRANCH  11  12
ENDBRANCH  10  11
ENDBRANCH   9  10
ENDBRANCH   8   9
ENDBRANCH   7   8
ENDBRANCH   6   7
ENDBRANCH   5   6
ENDBRANCH   4   5
ENDBRANCH   3   4
ENDBRANCH   2   3
ENDBRANCH   1   2
BRANCH   1  17
ATOM     17  C   UNL     1      16.676 130.679  56.441  1.00  0.00     0.000 C 
BRANCH  17  18
ATOM     18  C   UNL     1      17.469 131.584  57.399  1.00  0.00     0.000 C 
BRANCH  18  19
ATOM     19  C   UNL     1      17.743 132.978  56.812  1.00  0.00     0.000 C 
BRANCH  19  20
ATOM     20  C   UNL     1      19.213 133.113  56.391  1.00  0.00     0.000 C 
BRANCH  20  21
ATOM     21  C   UNL     1      20.010 134.075  57.291  1.00  0.00     0.000 C 
BRANCH  21  22
ATOM     22  C   UNL     1      19.279 135.381  57.667  1.00  0.00    -0.000 C 
BRANCH  22  23
ATOM     23  C   UNL     1      19.785 136.645  56.942  1.00  0.00    -0.000 C 
BRANCH  23  24
ATOM     24  C   UNL     1      18.858 137.173  55.829  1.00  0.00    -0.000 C 
BRANCH  24  25
ATOM     25  C   UNL     1      17.457 136.529  55.790  1.00  0.00    -0.000 C 
BRANCH  25  26
ATOM     26  C   UNL     1      16.996 136.063  54.394  1.00  0.00    -0.000 C 
BRANCH  26  27
ATOM     27  C   UNL     1      18.114 135.501  53.490  1.00  0.00    -0.000 C 
BRANCH  27  28
ATOM     28  C   UNL     1      17.924 134.032  53.055  1.00  0.00    -0.000 C 
BRANCH  28  29
ATOM     29  C   UNL     1      17.808 133.823  51.534  1.00  0.00    -0.003 C 
ATOM     30  C   UNL     1      16.385 133.483  51.086  1.00  0.00     0.004 C 
ENDBRANCH  28  29
ENDBRANCH  27  28
ENDBRANCH  26  27
ENDBRANCH  25  26
ENDBRANCH  24  25
ENDBRANCH  23  24
ENDBRANCH  22  23
ENDBRANCH  21  22
ENDBRANCH  20  21
ENDBRANCH  19  20
ENDBRANCH  18  19
ENDBRANCH  17  18
ENDBRANCH   1  17
TORSDOF 26
ENDMDL
MODEL 2
REMARK VINA RESULT:    -3.588      3.165      6.271
REMARK INTER + INTRA:         -14.472
REMARK INTER:                 -10.193
REMARK INTRA:                  -4.280
REMARK UNBOUND:                -5.430
REMARK SMILES CCCCCCCCCCCCCCCCCCCCCCCCCCCC(=O)[O-]
REMARK SMILES IDX 15 1 16 2 17 3 18 4 19 5 20 6 21 7 22 8 23 9 24 10 25 11
REMARK SMILES IDX 26 12 27 13 28 14 29 15 30 16 14 17 13 18 12 19 11 20 10 21
REMARK SMILES IDX 9 22 8 23 7 24 6 25 5 26 4 27 3 28 2 29 1 30
REMARK H PARENT
REMARK Flexibility Score: inf
ROOT
ATOM      1  C   UNL     1      14.294 132.151  60.388  1.00  0.00     0.000 C 
ENDROOT
BRANCH   1   2
ATOM      2  C   UNL     1      15.298 131.691  61.459  1.00  0.00     0.000 C 
BRANCH   2   3
ATOM      3  C   UNL     1      14.971 132.245  62.857  1.00  0.00     0.000 C 
BRANCH   3   4
ATOM      4  C   UNL     1      13.501 132.020  63.263  1.00  0.00     0.000 C 
BRANCH   4   5
ATOM      5  C   UNL     1      13.251 131.897  64.779  1.00  0.00     0.000 C 
BRANCH   5   6
ATOM      6  C   UNL     1      14.242 130.954  65.480  1.00  0.00     0.000 C 
BRANCH   6   7
ATOM      7  C   UNL     1      14.957 131.676  66.632  1.00  0.00     0.000 C 
BRANCH   7   8
ATOM      8  C   UNL     1      15.996 130.788  67.339  1.00  0.00     0.000 C 
BRANCH   8   9
ATOM      9  C   UNL     1      17.260 131.526  67.829  1.00  0.00     0.000 C 
BRANCH   9  10
ATOM     10  C   UNL     1      18.537 131.246  67.015  1.00  0.00     0.000 C 
BRANCH  10  11
ATOM     11  C   UNL     1      18.480 131.842  65.596  1.00  0.00     0.000 C 
BRANCH  11  12
ATOM     12  C   UNL     1      18.825 130.815  64.506  1.00  0.00     0.006 C 
BRANCH  12  13
ATOM     13  C   UNL     1      17.588 130.088  63.964  1.00  0.00     0.053 C 
BRANCH  13  14
ATOM     14  C   UNL     1      17.607 128.646  64.365  1.00  0.00     0.041 C 
ATOM     15  O   UNL     1      16.640 128.154  65.006  1.00  0.00    -0.550 OA
ATOM     16  O   UNL     1      18.668 127.833  63.990  1.00  0.00    -0.550 OA
ENDBRANCH  13  14
ENDBRANCH  12  13
ENDBRANCH  11  12
ENDBRANCH  10  11
ENDBRANCH   9  10
ENDBRANCH   8   9
ENDBRANCH   7   8
ENDBRANCH   6   7
ENDBRANCH   5   6
ENDBRANCH   4   5
ENDBRANCH   3   4
ENDBRANCH   2   3
ENDBRANCH   1   2
BRANCH   1  17
ATOM     17  C   UNL     1      14.517 131.460  59.032  1.00  0.00     0.000 C 
BRANCH  17  18
ATOM     18  C   UNL     1      14.415 132.436  57.847  1.00  0.00     0.000 C 
BRANCH  18  19
ATOM     19  C   UNL     1      15.685 132.460  56.983  1.00  0.00     0.000 C 
BRANCH  19  20
ATOM     20  C   UNL     1      16.530 131.200  57.221  1.00  0.00     0.000 C 
BRANCH  20  21
ATOM     21  C   UNL     1      17.585 130.969  56.124  1.00  0.00     0.000 C 
BRANCH  21  22
ATOM     22  C   UNL     1      18.429 132.206  55.753  1.00  0.00    -0.000 C 
BRANCH  22  23
ATOM     23  C   UNL     1      19.733 132.375  56.559  1.00  0.00    -0.000 C 
BRANCH  23  24
ATOM     24  C   UNL     1      19.966 133.787  57.133  1.00  0.00    -0.000 C 
BRANCH  24  25
ATOM     25  C   UNL     1      18.707 134.674  57.208  1.00  0.00    -0.000 C 
BRANCH  25  26
ATOM     26  C   UNL     1      18.460 135.336  58.579  1.00  0.00    -0.000 C 
BRANCH  26  27
ATOM     27  C   UNL     1      17.565 134.529  59.543  1.00  0.00    -0.000 C 
BRANCH  27  28
ATOM     28  C   UNL     1      18.119 133.145  59.943  1.00  0.00    -0.000 C 
BRANCH  28  29
ATOM     29  C   UNL     1      19.032 133.153  61.183  1.00  0.00    -0.003 C 
ATOM     30  C   UNL     1      18.361 133.769  62.413  1.00  0.00     0.004 C 
ENDBRANCH  28  29
ENDBRANCH  27  28
ENDBRANCH  26  27
ENDBRANCH  25  26
ENDBRANCH  24  25
ENDBRANCH  23  24
ENDBRANCH  22  23
ENDBRANCH  21  22
ENDBRANCH  20  21
ENDBRANCH  19  20
ENDBRANCH  18  19
ENDBRANCH  17  18
ENDBRANCH   1  17
TORSDOF 26
ENDMDL
MODEL 3
REMARK VINA RESULT:    -3.575      3.021      7.947
REMARK INTER + INTRA:         -14.438
REMARK INTER:                  -9.937
REMARK INTRA:                  -4.501
REMARK UNBOUND:                -5.430
REMARK SMILES CCCCCCCCCCCCCCCCCCCCCCCCCCCC(=O)[O-]
REMARK SMILES IDX 15 1 16 2 17 3 18 4 19 5 20 6 21 7 22 8 23 9 24 10 25 11
REMARK SMILES IDX 26 12 27 13 28 14 29 15 30 16 14 17 13 18 12 19 11 20 10 21
REMARK SMILES IDX 9 22 8 23 7 24 6 25 5 26 4 27 3 28 2 29 1 30
REMARK H PARENT
REMARK Flexibility Score: inf
ROOT
ATOM      1  C   UNL     1      17.343 135.580  56.999  1.00  0.00     0.000 C 
ENDROOT
BRANCH   1   2
ATOM      2  C   UNL     1      17.711 135.565  58.494  1.00  0.00     0.000 C 
BRANCH   2   3
ATOM      3  C   UNL     1      19.129 135.025  58.750  1.00  0.00     0.000 C 
BRANCH   3   4
ATOM      4  C   UNL     1      19.222 133.493  58.611  1.00  0.00     0.000 C 
BRANCH   4   5
ATOM      5  C   UNL     1      19.889 132.992  57.315  1.00  0.00     0.000 C 
BRANCH   5   6
ATOM      6  C   UNL     1      18.993 132.045  56.501  1.00  0.00     0.000 C 
BRANCH   6   7
ATOM      7  C   UNL     1      17.633 131.857  57.191  1.00  0.00     0.000 C 
BRANCH   7   8
ATOM      8  C   UNL     1      16.750 130.806  56.493  1.00  0.00     0.000 C 
BRANCH   8   9
ATOM      9  C   UNL     1      16.581 131.002  54.972  1.00  0.00     0.000 C 
BRANCH   9  10
ATOM     10  C   UNL     1      15.568 132.087  54.562  1.00  0.00     0.000 C 
BRANCH  10  11
ATOM     11  C   UNL     1      16.024 132.890  53.330  1.00  0.00     0.000 C 
BRANCH  11  12
ATOM     12  C   UNL     1      17.549 133.068  53.267  1.00  0.00     0.006 C 
BRANCH  12  13
ATOM     13  C   UNL     1      17.971 134.269  52.411  1.00  0.00     0.053 C 
BRANCH  13  14
ATOM     14  C   UNL     1      17.719 135.551  53.141  1.00  0.00     0.041 C 
ATOM     15  O   UNL     1      18.657 136.127  53.754  1.00  0.00    -0.550 OA
ATOM     16  O   UNL     1      16.460 136.136  53.105  1.00  0.00    -0.550 OA
ENDBRANCH  13  14
ENDBRANCH  12  13
ENDBRANCH  11  12
ENDBRANCH  10  11
ENDBRANCH   9  10
ENDBRANCH   8   9
ENDBRANCH   7   8
ENDBRANCH   6   7
ENDBRANCH   5   6
ENDBRANCH   4   5
ENDBRANCH   3   4
ENDBRANCH   2   3
ENDBRANCH   1   2
BRANCH   1  17
ATOM     17  C   UNL     1      15.884 135.163  56.746  1.00  0.00     0.000 C 
BRANCH  17  18
ATOM     18  C   UNL     1      15.278 134.384  57.925  1.00  0.00     0.000 C 
BRANCH  18  19
ATOM     19  C   UNL     1      14.150 133.433  57.495  1.00  0.00     0.000 C 
BRANCH  19  20
ATOM     20  C   UNL     1      13.881 132.380  58.579  1.00  0.00     0.000 C 
BRANCH  20  21
ATOM     21  C   UNL     1      13.463 132.997  59.926  1.00  0.00     0.000 C 
BRANCH  21  22
ATOM     22  C   UNL     1      14.180 132.420  61.165  1.00  0.00    -0.000 C 
BRANCH  22  23
ATOM     23  C   UNL     1      15.474 131.635  60.866  1.00  0.00    -0.000 C 
BRANCH  23  24
ATOM     24  C   UNL     1      16.758 132.485  60.823  1.00  0.00    -0.000 C 
BRANCH  24  25
ATOM     25  C   UNL     1      17.353 132.834  62.203  1.00  0.00    -0.000 C 
BRANCH  25  26
ATOM     26  C   UNL     1      18.890 132.733  62.291  1.00  0.00    -0.000 C 
BRANCH  26  27
ATOM     27  C   UNL     1      19.421 131.829  63.424  1.00  0.00    -0.000 C 
BRANCH  27  28
ATOM     28  C   UNL     1      18.382 130.860  64.027  1.00  0.00    -0.000 C 
BRANCH  28  29
ATOM     29  C   UNL     1      18.928 129.461  64.364  1.00  0.00    -0.003 C 
ATOM     30  C   UNL     1      17.927 128.343  64.067  1.00  0.00     0.004 C 
ENDBRANCH  28  29
ENDBRANCH  27  28
ENDBRANCH  26  27
ENDBRANCH  25  26
ENDBRANCH  24  25
ENDBRANCH  23  24
ENDBRANCH  22  23
ENDBRANCH  21  22
ENDBRANCH  20  21
ENDBRANCH  19  20
ENDBRANCH  18  19
ENDBRANCH  17  18
ENDBRANCH   1  17
TORSDOF 26
ENDMDL
MODEL 4
REMARK VINA RESULT:    -3.568      2.768      5.406
REMARK INTER + INTRA:         -14.422
REMARK INTER:                  -9.521
REMARK INTRA:                  -4.901
REMARK UNBOUND:                -5.430
REMARK SMILES CCCCCCCCCCCCCCCCCCCCCCCCCCCC(=O)[O-]
REMARK SMILES IDX 15 1 16 2 17 3 18 4 19 5 20 6 21 7 22 8 23 9 24 10 25 11
REMARK SMILES IDX 26 12 27 13 28 14 29 15 30 16 14 17 13 18 12 19 11 20 10 21
REMARK SMILES IDX 9 22 8 23 7 24 6 25 5 26 4 27 3 28 2 29 1 30
REMARK H PARENT
REMARK Flexibility Score: inf
ROOT
ATOM      1  C   UNL     1      14.508 133.228  58.888  1.00  0.00     0.000 C 
ENDROOT
BRANCH   1   2
ATOM      2  C   UNL     1      14.344 131.712  59.096  1.00  0.00     0.000 C 
BRANCH   2   3
ATOM      3  C   UNL     1      14.908 131.234  60.446  1.00  0.00     0.000 C 
BRANCH   3   4
ATOM      4  C   UNL     1      14.515 132.153  61.619  1.00  0.00     0.000 C 
BRANCH   4   5
ATOM      5  C   UNL     1      15.694 132.710  62.439  1.00  0.00     0.000 C 
BRANCH   5   6
ATOM      6  C   UNL     1      17.062 132.438  61.792  1.00  0.00     0.000 C 
BRANCH   6   7
ATOM      7  C   UNL     1      18.144 133.335  62.410  1.00  0.00     0.000 C 
BRANCH   7   8
ATOM      8  C   UNL     1      19.384 132.545  62.869  1.00  0.00     0.000 C 
BRANCH   8   9
ATOM      9  C   UNL     1      19.099 131.406  63.869  1.00  0.00     0.000 C 
BRANCH   9  10
ATOM     10  C   UNL     1      18.955 131.847  65.338  1.00  0.00     0.000 C 
BRANCH  10  11
ATOM     11  C   UNL     1      17.656 131.334  65.987  1.00  0.00     0.000 C 
BRANCH  11  12
ATOM     12  C   UNL     1      16.954 130.259  65.143  1.00  0.00     0.006 C 
BRANCH  12  13
ATOM     13  C   UNL     1      15.490 130.048  65.550  1.00  0.00     0.053 C 
BRANCH  13  14
ATOM     14  C   UNL     1      15.325 128.745  66.266  1.00  0.00     0.041 C 
ATOM     15  O   UNL     1      14.883 128.721  67.447  1.00  0.00    -0.550 OA
ATOM     16  O   UNL     1      15.611 127.552  65.615  1.00  0.00    -0.550 OA
ENDBRANCH  13  14
ENDBRANCH  12  13
ENDBRANCH  11  12
ENDBRANCH  10  11
ENDBRANCH   9  10
ENDBRANCH   8   9
ENDBRANCH   7   8
ENDBRANCH   6   7
ENDBRANCH   5   6
ENDBRANCH   4   5
ENDBRANCH   3   4
ENDBRANCH   2   3
ENDBRANCH   1   2
BRANCH   1  17
ATOM     17  C   UNL     1      13.758 133.739  57.645  1.00  0.00     0.000 C 
BRANCH  17  18
ATOM     18  C   UNL     1      13.823 132.751  56.468  1.00  0.00     0.000 C 
BRANCH  18  19
ATOM     19  C   UNL     1      15.108 132.894  55.639  1.00  0.00     0.000 C 
BRANCH  19  20
ATOM     20  C   UNL     1      15.630 131.519  55.199  1.00  0.00     0.000 C 
BRANCH  20  21
ATOM     21  C   UNL     1      16.609 130.896  56.210  1.00  0.00     0.000 C 
BRANCH  21  22
ATOM     22  C   UNL     1      17.488 131.903  56.981  1.00  0.00    -0.000 C 
BRANCH  22  23
ATOM     23  C   UNL     1      18.962 131.964  56.531  1.00  0.00    -0.000 C 
BRANCH  23  24
ATOM     24  C   UNL     1      19.905 132.717  57.489  1.00  0.00    -0.000 C 
BRANCH  24  25
ATOM     25  C   UNL     1      19.255 133.187  58.807  1.00  0.00    -0.000 C 
BRANCH  25  26
ATOM     26  C   UNL     1      19.062 134.713  58.927  1.00  0.00    -0.000 C 
BRANCH  26  27
ATOM     27  C   UNL     1      17.597 135.194  58.867  1.00  0.00    -0.000 C 
BRANCH  27  28
ATOM     28  C   UNL     1      17.080 135.535  57.454  1.00  0.00    -0.000 C 
BRANCH  28  29
ATOM     29  C   UNL     1      18.180 135.881  56.434  1.00  0.00    -0.003 C 
ATOM     30  C   UNL     1      17.928 135.268  55.055  1.00  0.00     0.004 C 
ENDBRANCH  28  29
ENDBRANCH  27  28
ENDBRANCH  26  27
ENDBRANCH  25  26
ENDBRANCH  24  25
ENDBRANCH  23  24
ENDBRANCH  22  23
ENDBRANCH  21  22
ENDBRANCH  20  21
ENDBRANCH  19  20
ENDBRANCH  18  19
ENDBRANCH  17  18
ENDBRANCH   1  17
TORSDOF 26
ENDMDL
MODEL 5
REMARK VINA RESULT:    -3.545      1.337      4.647
REMARK INTER + INTRA:         -14.363
REMARK INTER:                  -8.241
REMARK INTRA:                  -6.122
REMARK UNBOUND:                -5.430
REMARK SMILES CCCCCCCCCCCCCCCCCCCCCCCCCCCC(=O)[O-]
REMARK SMILES IDX 15 1 16 2 17 3 18 4 19 5 20 6 21 7 22 8 23 9 24 10 25 11
REMARK SMILES IDX 26 12 27 13 28 14 29 15 30 16 14 17 13 18 12 19 11 20 10 21
REMARK SMILES IDX 9 22 8 23 7 24 6 25 5 26 4 27 3 28 2 29 1 30
REMARK H PARENT
REMARK Flexibility Score: inf
ROOT
ATOM      1  C   UNL     1      16.929 132.293  53.330  1.00  0.00     0.000 C 
ENDROOT
BRANCH   1   2
ATOM      2  C   UNL     1      17.416 133.585  54.009  1.00  0.00     0.000 C 
BRANCH   2   3
ATOM      3  C   UNL     1      17.520 134.768  53.031  1.00  0.00     0.000 C 
BRANCH   3   4
ATOM      4  C   UNL     1      18.502 135.856  53.507  1.00  0.00     0.000 C 
BRANCH   4   5
ATOM      5  C   UNL     1      17.995 136.735  54.667  1.00  0.00     0.000 C 
BRANCH   5   6
ATOM      6  C   UNL     1      18.826 136.579  55.950  1.00  0.00     0.000 C 
BRANCH   6   7
ATOM      7  C   UNL     1      20.092 135.752  55.681  1.00  0.00     0.000 C 
BRANCH   7   8
ATOM      8  C   UNL     1      20.450 134.811  56.846  1.00  0.00     0.000 C 
BRANCH   8   9
ATOM      9  C   UNL     1      19.863 133.388  56.739  1.00  0.00     0.000 C 
BRANCH   9  10
ATOM     10  C   UNL     1      19.035 132.930  57.954  1.00  0.00     0.000 C 
BRANCH  10  11
ATOM     11  C   UNL     1      17.861 133.877  58.264  1.00  0.00     0.000 C 
BRANCH  11  12
ATOM     12  C   UNL     1      17.747 134.214  59.759  1.00  0.00     0.006 C 
BRANCH  12  13
ATOM     13  C   UNL     1      17.787 132.969  60.653  1.00  0.00     0.053 C 
BRANCH  13  14
ATOM     14  C   UNL     1      18.874 133.088  61.675  1.00  0.00     0.041 C 
ATOM     15  O   UNL     1      20.083 133.022  61.325  1.00  0.00    -0.550 OA
ATOM     16  O   UNL     1      18.555 133.320  63.006  1.00  0.00    -0.550 OA
ENDBRANCH  13  14
ENDBRANCH  12  13
ENDBRANCH  11  12
ENDBRANCH  10  11
ENDBRANCH   9  10
ENDBRANCH   8   9
ENDBRANCH   7   8
ENDBRANCH   6   7
ENDBRANCH   5   6
ENDBRANCH   4   5
ENDBRANCH   3   4
ENDBRANCH   2   3
ENDBRANCH   1   2
BRANCH   1  17
ATOM     17  C   UNL     1      16.260 131.321  54.317  1.00  0.00     0.000 C 
BRANCH  17  18
ATOM     18  C   UNL     1      17.237 130.795  55.382  1.00  0.00     0.000 C 
BRANCH  18  19
ATOM     19  C   UNL     1      16.555 130.517  56.730  1.00  0.00     0.000 C 
BRANCH  19  20
ATOM     20  C   UNL     1      15.395 131.495  56.968  1.00  0.00     0.000 C 
BRANCH  20  21
ATOM     21  C   UNL     1      14.958 131.562  58.442  1.00  0.00     0.000 C 
BRANCH  21  22
ATOM     22  C   UNL     1      13.639 132.319  58.703  1.00  0.00    -0.000 C 
BRANCH  22  23
ATOM     23  C   UNL     1      13.802 133.741  59.277  1.00  0.00    -0.000 C 
BRANCH  23  24
ATOM     24  C   UNL     1      13.382 134.880  58.327  1.00  0.00    -0.000 C 
BRANCH  24  25
ATOM     25  C   UNL     1      14.550 135.660  57.689  1.00  0.00    -0.000 C 
BRANCH  25  26
ATOM     26  C   UNL     1      15.083 135.064  56.370  1.00  0.00    -0.000 C 
BRANCH  26  27
ATOM     27  C   UNL     1      14.544 135.730  55.086  1.00  0.00    -0.000 C 
BRANCH  27  28
ATOM     28  C   UNL     1      13.429 134.945  54.364  1.00  0.00    -0.000 C 
BRANCH  28  29
ATOM     29  C   UNL     1      13.315 133.465  54.774  1.00  0.00    -0.003 C 
ATOM     30  C   UNL     1      11.960 133.121  55.394  1.00  0.00     0.004 C 
ENDBRANCH  28  29
ENDBRANCH  27  28
ENDBRANCH  26  27
ENDBRANCH  25  26
ENDBRANCH  24  25
ENDBRANCH  23  24
ENDBRANCH  22  23
ENDBRANCH  21  22
ENDBRANCH  20  21
ENDBRANCH  19  20
ENDBRANCH  18  19
ENDBRANCH  17  18
ENDBRANCH   1  17
TORSDOF 26
ENDMDL
MODEL 6
REMARK VINA RESULT:    -3.527      1.601      4.397
REMARK INTER + INTRA:         -14.318
REMARK INTER:                  -8.812
REMARK INTRA:                  -5.506
REMARK UNBOUND:                -5.430
REMARK SMILES CCCCCCCCCCCCCCCCCCCCCCCCCCCC(=O)[O-]
REMARK SMILES IDX 15 1 16 2 17 3 18 4 19 5 20 6 21 7 22 8 23 9 24 10 25 11
REMARK SMILES IDX 26 12 27 13 28 14 29 15 30 16 14 17 13 18 12 19 11 20 10 21
REMARK SMILES IDX 9 22 8 23 7 24 6 25 5 26 4 27 3 28 2 29 1 30
REMARK H PARENT
REMARK Flexibility Score: inf
ROOT
ATOM      1  C   UNL     1      16.372 135.418  56.138  1.00  0.00     0.000 C 
ENDROOT
BRANCH   1   2
ATOM      2  C   UNL     1      15.423 134.803  57.182  1.00  0.00     0.000 C 
BRANCH   2   3
ATOM      3  C   UNL     1      14.136 134.238  56.554  1.00  0.00     0.000 C 
BRANCH   3   4
ATOM      4  C   UNL     1      13.083 133.836  57.604  1.00  0.00     0.000 C 
BRANCH   4   5
ATOM      5  C   UNL     1      13.321 132.473  58.284  1.00  0.00     0.000 C 
BRANCH   5   6
ATOM      6  C   UNL     1      13.886 132.599  59.708  1.00  0.00     0.000 C 
BRANCH   6   7
ATOM      7  C   UNL     1      14.965 131.535  59.961  1.00  0.00     0.000 C 
BRANCH   7   8
ATOM      8  C   UNL     1      15.929 131.922  61.096  1.00  0.00     0.000 C 
BRANCH   8   9
ATOM      9  C   UNL     1      16.729 133.220  60.860  1.00  0.00     0.000 C 
BRANCH   9  10
ATOM     10  C   UNL     1      18.259 133.050  60.836  1.00  0.00     0.000 C 
BRANCH  10  11
ATOM     11  C   UNL     1      18.911 133.354  62.198  1.00  0.00     0.000 C 
BRANCH  11  12
ATOM     12  C   UNL     1      19.225 132.083  63.004  1.00  0.00     0.006 C 
BRANCH  12  13
ATOM     13  C   UNL     1      18.913 132.236  64.497  1.00  0.00     0.053 C 
BRANCH  13  14
ATOM     14  C   UNL     1      17.580 131.638  64.822  1.00  0.00     0.041 C 
ATOM     15  O   UNL     1      17.510 130.503  65.366  1.00  0.00    -0.550 OA
ATOM     16  O   UNL     1      16.417 132.353  64.569  1.00  0.00    -0.550 OA
ENDBRANCH  13  14
ENDBRANCH  12  13
ENDBRANCH  11  12
ENDBRANCH  10  11
ENDBRANCH   9  10
ENDBRANCH   8   9
ENDBRANCH   7   8
ENDBRANCH   6   7
ENDBRANCH   5   6
ENDBRANCH   4   5
ENDBRANCH   3   4
ENDBRANCH   2   3
ENDBRANCH   1   2
BRANCH   1  17
ATOM     17  C   UNL     1      16.180 134.816  54.735  1.00  0.00     0.000 C 
BRANCH  17  18
ATOM     18  C   UNL     1      17.515 134.562  54.013  1.00  0.00     0.000 C 
BRANCH  18  19
ATOM     19  C   UNL     1      17.622 133.140  53.442  1.00  0.00     0.000 C 
BRANCH  19  20
ATOM     20  C   UNL     1      16.274 132.411  53.537  1.00  0.00     0.000 C 
BRANCH  20  21
ATOM     21  C   UNL     1      16.350 131.111  54.358  1.00  0.00     0.000 C 
BRANCH  21  22
ATOM     22  C   UNL     1      15.858 131.224  55.816  1.00  0.00    -0.000 C 
BRANCH  22  23
ATOM     23  C   UNL     1      16.914 130.895  56.891  1.00  0.00    -0.000 C 
BRANCH  23  24
ATOM     24  C   UNL     1      17.715 132.105  57.411  1.00  0.00    -0.000 C 
BRANCH  24  25
ATOM     25  C   UNL     1      19.080 132.324  56.727  1.00  0.00    -0.000 C 
BRANCH  25  26
ATOM     26  C   UNL     1      19.985 133.372  57.406  1.00  0.00    -0.000 C 
BRANCH  26  27
ATOM     27  C   UNL     1      20.184 134.679  56.610  1.00  0.00    -0.000 C 
BRANCH  27  28
ATOM     28  C   UNL     1      19.841 135.971  57.380  1.00  0.00    -0.000 C 
BRANCH  28  29
ATOM     29  C   UNL     1      19.189 135.744  58.756  1.00  0.00    -0.003 C 
ATOM     30  C   UNL     1      18.171 136.827  59.120  1.00  0.00     0.004 C 
ENDBRANCH  28  29
ENDBRANCH  27  28
ENDBRANCH  26  27
ENDBRANCH  25  26
ENDBRANCH  24  25
ENDBRANCH  23  24
ENDBRANCH  22  23
ENDBRANCH  21  22
ENDBRANCH  20  21
ENDBRANCH  19  20
ENDBRANCH  18  19
ENDBRANCH  17  18
ENDBRANCH   1  17
TORSDOF 26
ENDMDL
MODEL 7
REMARK VINA RESULT:    -3.503      1.845      3.806
REMARK INTER + INTRA:         -14.257
REMARK INTER:                  -8.732
REMARK INTRA:                  -5.525
REMARK UNBOUND:                -5.430
REMARK SMILES CCCCCCCCCCCCCCCCCCCCCCCCCCCC(=O)[O-]
REMARK SMILES IDX 15 1 16 2 17 3 18 4 19 5 20 6 21 7 22 8 23 9 24 10 25 11
REMARK SMILES IDX 26 12 27 13 28 14 29 15 30 16 14 17 13 18 12 19 11 20 10 21
REMARK SMILES IDX 9 22 8 23 7 24 6 25 5 26 4 27 3 28 2 29 1 30
REMARK H PARENT
REMARK Flexibility Score: inf
ROOT
ATOM      1  C   UNL     1      16.007 131.610  59.158  1.00  0.00     0.000 C 
ENDROOT
BRANCH   1   2
ATOM      2  C   UNL     1      14.543 131.634  58.682  1.00  0.00     0.000 C 
BRANCH   2   3
ATOM      3  C   UNL     1      13.772 132.863  59.195  1.00  0.00     0.000 C 
BRANCH   3   4
ATOM      4  C   UNL     1      14.074 133.187  60.671  1.00  0.00     0.000 C 
BRANCH   4   5
ATOM      5  C   UNL     1      14.569 134.622  60.940  1.00  0.00     0.000 C 
BRANCH   5   6
ATOM      6  C   UNL     1      15.733 135.039  60.027  1.00  0.00     0.000 C 
BRANCH   6   7
ATOM      7  C   UNL     1      17.018 135.245  60.843  1.00  0.00     0.000 C 
BRANCH   7   8
ATOM      8  C   UNL     1      18.054 134.129  60.616  1.00  0.00     0.000 C 
BRANCH   8   9
ATOM      9  C   UNL     1      18.168 133.102  61.762  1.00  0.00     0.000 C 
BRANCH   9  10
ATOM     10  C   UNL     1      17.585 133.560  63.111  1.00  0.00     0.000 C 
BRANCH  10  11
ATOM     11  C   UNL     1      16.390 132.701  63.565  1.00  0.00     0.000 C 
BRANCH  11  12
ATOM     12  C   UNL     1      16.558 131.215  63.213  1.00  0.00     0.006 C 
BRANCH  12  13
ATOM     13  C   UNL     1      16.885 130.349  64.436  1.00  0.00     0.053 C 
BRANCH  13  14
ATOM     14  C   UNL     1      18.026 129.427  64.140  1.00  0.00     0.041 C 
ATOM     15  O   UNL     1      19.202 129.875  64.073  1.00  0.00    -0.550 OA
ATOM     16  O   UNL     1      17.799 128.066  63.985  1.00  0.00    -0.550 OA
ENDBRANCH  13  14
ENDBRANCH  12  13
ENDBRANCH  11  12
ENDBRANCH  10  11
ENDBRANCH   9  10
ENDBRANCH   8   9
ENDBRANCH   7   8
ENDBRANCH   6   7
ENDBRANCH   5   6
ENDBRANCH   4   5
ENDBRANCH   3   4
ENDBRANCH   2   3
ENDBRANCH   1   2
BRANCH   1  17
ATOM     17  C   UNL     1      17.009 131.616  57.990  1.00  0.00     0.000 C 
BRANCH  17  18
ATOM     18  C   UNL     1      16.559 130.723  56.821  1.00  0.00     0.000 C 
BRANCH  18  19
ATOM     19  C   UNL     1      17.107 131.196  55.466  1.00  0.00     0.000 C 
BRANCH  19  20
ATOM     20  C   UNL     1      15.975 131.326  54.436  1.00  0.00     0.000 C 
BRANCH  20  21
ATOM     21  C   UNL     1      14.753 132.088  54.979  1.00  0.00     0.000 C 
BRANCH  21  22
ATOM     22  C   UNL     1      14.399 133.387  54.224  1.00  0.00    -0.000 C 
BRANCH  22  23
ATOM     23  C   UNL     1      14.829 134.691  54.926  1.00  0.00    -0.000 C 
BRANCH  23  24
ATOM     24  C   UNL     1      15.501 134.500  56.300  1.00  0.00    -0.000 C 
BRANCH  24  25
ATOM     25  C   UNL     1      16.834 135.255  56.482  1.00  0.00    -0.000 C 
BRANCH  25  26
ATOM     26  C   UNL     1      18.018 134.685  55.674  1.00  0.00    -0.000 C 
BRANCH  26  27
ATOM     27  C   UNL     1      18.679 135.677  54.694  1.00  0.00    -0.000 C 
BRANCH  27  28
ATOM     28  C   UNL     1      18.219 135.548  53.226  1.00  0.00    -0.000 C 
BRANCH  28  29
ATOM     29  C   UNL     1      17.905 134.109  52.776  1.00  0.00    -0.003 C 
ATOM     30  C   UNL     1      16.907 134.052  51.618  1.00  0.00     0.004 C 
ENDBRANCH  28  29
ENDBRANCH  27  28
ENDBRANCH  26  27
ENDBRANCH  25  26
ENDBRANCH  24  25
ENDBRANCH  23  24
ENDBRANCH  22  23
ENDBRANCH  21  22
ENDBRANCH  20  21
ENDBRANCH  19  20
ENDBRANCH  18  19
ENDBRANCH  17  18
ENDBRANCH   1  17
TORSDOF 26
ENDMDL
MODEL 8
REMARK VINA RESULT:    -3.493      1.380      3.890
REMARK INTER + INTRA:         -14.231
REMARK INTER:                  -8.955
REMARK INTRA:                  -5.276
REMARK UNBOUND:                -5.430
REMARK SMILES CCCCCCCCCCCCCCCCCCCCCCCCCCCC(=O)[O-]
REMARK SMILES IDX 15 1 16 2 17 3 18 4 19 5 20 6 21 7 22 8 23 9 24 10 25 11
REMARK SMILES IDX 26 12 27 13 28 14 29 15 30 16 14 17 13 18 12 19 11 20 10 21
REMARK SMILES IDX 9 22 8 23 7 24 6 25 5 26 4 27 3 28 2 29 1 30
REMARK H PARENT
REMARK Flexibility Score: inf
ROOT
ATOM      1  C   UNL     1      18.877 134.527  60.041  1.00  0.00     0.000 C 
ENDROOT
BRANCH   1   2
ATOM      2  C   UNL     1      17.915 135.481  59.311  1.00  0.00     0.000 C 
BRANCH   2   3
ATOM      3  C   UNL     1      16.640 135.774  60.121  1.00  0.00     0.000 C 
BRANCH   3   4
ATOM      4  C   UNL     1      15.349 135.543  59.312  1.00  0.00     0.000 C 
BRANCH   4   5
ATOM      5  C   UNL     1      15.549 134.889  57.931  1.00  0.00     0.000 C 
BRANCH   5   6
ATOM      6  C   UNL     1      14.524 133.783  57.633  1.00  0.00     0.000 C 
BRANCH   6   7
ATOM      7  C   UNL     1      13.882 133.273  58.932  1.00  0.00     0.000 C 
BRANCH   7   8
ATOM      8  C   UNL     1      14.027 131.750  59.112  1.00  0.00     0.000 C 
BRANCH   8   9
ATOM      9  C   UNL     1      14.942 131.316  60.276  1.00  0.00     0.000 C 
BRANCH   9  10
ATOM     10  C   UNL     1      15.355 132.444  61.239  1.00  0.00     0.000 C 
BRANCH  10  11
ATOM     11  C   UNL     1      16.577 132.073  62.098  1.00  0.00     0.000 C 
BRANCH  11  12
ATOM     12  C   UNL     1      17.134 133.268  62.888  1.00  0.00     0.006 C 
BRANCH  12  13
ATOM     13  C   UNL     1      18.025 132.840  64.061  1.00  0.00     0.053 C 
BRANCH  13  14
ATOM     14  C   UNL     1      19.078 131.882  63.600  1.00  0.00     0.041 C 
ATOM     15  O   UNL     1      19.063 130.684  63.994  1.00  0.00    -0.550 OA
ATOM     16  O   UNL     1      20.050 132.296  62.699  1.00  0.00    -0.550 OA
ENDBRANCH  13  14
ENDBRANCH  12  13
ENDBRANCH  11  12
ENDBRANCH  10  11
ENDBRANCH   9  10
ENDBRANCH   8   9
ENDBRANCH   7   8
ENDBRANCH   6   7
ENDBRANCH   5   6
ENDBRANCH   4   5
ENDBRANCH   3   4
ENDBRANCH   2   3
ENDBRANCH   1   2
BRANCH   1  17
ATOM     17  C   UNL     1      18.931 133.132  59.395  1.00  0.00     0.000 C 
BRANCH  17  18
ATOM     18  C   UNL     1      19.534 133.159  57.980  1.00  0.00     0.000 C 
BRANCH  18  19
ATOM     19  C   UNL     1      18.678 132.403  56.952  1.00  0.00     0.000 C 
BRANCH  19  20
ATOM     20  C   UNL     1      17.451 131.770  57.625  1.00  0.00     0.000 C 
BRANCH  20  21
ATOM     21  C   UNL     1      16.705 130.784  56.707  1.00  0.00     0.000 C 
BRANCH  21  22
ATOM     22  C   UNL     1      17.114 130.832  55.220  1.00  0.00    -0.000 C 
BRANCH  22  23
ATOM     23  C   UNL     1      16.156 131.618  54.302  1.00  0.00    -0.000 C 
BRANCH  23  24
ATOM     24  C   UNL     1      16.802 132.201  53.030  1.00  0.00    -0.000 C 
BRANCH  24  25
ATOM     25  C   UNL     1      16.537 133.702  52.797  1.00  0.00    -0.000 C 
BRANCH  25  26
ATOM     26  C   UNL     1      17.759 134.508  52.310  1.00  0.00    -0.000 C 
BRANCH  26  27
ATOM     27  C   UNL     1      18.411 135.414  53.376  1.00  0.00    -0.000 C 
BRANCH  27  28
ATOM     28  C   UNL     1      17.787 135.318  54.784  1.00  0.00    -0.000 C 
BRANCH  28  29
ATOM     29  C   UNL     1      18.389 136.284  55.820  1.00  0.00    -0.003 C 
ATOM     30  C   UNL     1      19.913 136.185  55.913  1.00  0.00     0.004 C 
ENDBRANCH  28  29
ENDBRANCH  27  28
ENDBRANCH  26  27
ENDBRANCH  25  26
ENDBRANCH  24  25
ENDBRANCH  23  24
ENDBRANCH  22  23
ENDBRANCH  21  22
ENDBRANCH  20  21
ENDBRANCH  19  20
ENDBRANCH  18  19
ENDBRANCH  17  18
ENDBRANCH   1  17
TORSDOF 26
ENDMDL
MODEL 9
REMARK VINA RESULT:    -3.443      1.650      3.796
REMARK INTER + INTRA:         -14.105
REMARK INTER:                  -8.360
REMARK INTRA:                  -5.745
REMARK UNBOUND:                -5.430
REMARK SMILES CCCCCCCCCCCCCCCCCCCCCCCCCCCC(=O)[O-]
REMARK SMILES IDX 15 1 16 2 17 3 18 4 19 5 20 6 21 7 22 8 23 9 24 10 25 11
REMARK SMILES IDX 26 12 27 13 28 14 29 15 30 16 14 17 13 18 12 19 11 20 10 21
REMARK SMILES IDX 9 22 8 23 7 24 6 25 5 26 4 27 3 28 2 29 1 30
REMARK H PARENT
REMARK Flexibility Score: inf
ROOT
ATOM      1  C   UNL     1      17.237 132.015  58.631  1.00  0.00     0.000 C 
ENDROOT
BRANCH   1   2
ATOM      2  C   UNL     1      15.901 132.472  59.242  1.00  0.00     0.000 C 
BRANCH   2   3
ATOM      3  C   UNL     1      15.464 131.602  60.434  1.00  0.00     0.000 C 
BRANCH   3   4
ATOM      4  C   UNL     1      14.839 132.422  61.579  1.00  0.00     0.000 C 
BRANCH   4   5
ATOM      5  C   UNL     1      14.446 133.866  61.213  1.00  0.00     0.000 C 
BRANCH   5   6
ATOM      6  C   UNL     1      15.376 134.921  61.834  1.00  0.00     0.000 C 
BRANCH   6   7
ATOM      7  C   UNL     1      15.840 135.930  60.773  1.00  0.00     0.000 C 
BRANCH   7   8
ATOM      8  C   UNL     1      17.321 135.756  60.391  1.00  0.00     0.000 C 
BRANCH   8   9
ATOM      9  C   UNL     1      18.216 135.164  61.500  1.00  0.00     0.000 C 
BRANCH   9  10
ATOM     10  C   UNL     1      19.245 134.123  61.024  1.00  0.00     0.000 C 
BRANCH  10  11
ATOM     11  C   UNL     1      19.118 132.780  61.766  1.00  0.00     0.000 C 
BRANCH  11  12
ATOM     12  C   UNL     1      18.520 132.932  63.174  1.00  0.00     0.006 C 
BRANCH  12  13
ATOM     13  C   UNL     1      17.796 131.667  63.650  1.00  0.00     0.053 C 
BRANCH  13  14
ATOM     14  C   UNL     1      18.674 130.869  64.562  1.00  0.00     0.041 C 
ATOM     15  O   UNL     1      18.862 131.243  65.751  1.00  0.00    -0.550 OA
ATOM     16  O   UNL     1      19.247 129.685  64.116  1.00  0.00    -0.550 OA
ENDBRANCH  13  14
ENDBRANCH  12  13
ENDBRANCH  11  12
ENDBRANCH  10  11
ENDBRANCH   9  10
ENDBRANCH   8   9
ENDBRANCH   7   8
ENDBRANCH   6   7
ENDBRANCH   5   6
ENDBRANCH   4   5
ENDBRANCH   3   4
ENDBRANCH   2   3
ENDBRANCH   1   2
BRANCH   1  17
ATOM     17  C   UNL     1      17.908 133.113  57.787  1.00  0.00     0.000 C 
BRANCH  17  18
ATOM     18  C   UNL     1      19.342 132.745  57.370  1.00  0.00     0.000 C 
BRANCH  18  19
ATOM     19  C   UNL     1      20.149 133.956  56.879  1.00  0.00     0.000 C 
BRANCH  19  20
ATOM     20  C   UNL     1      19.588 135.260  57.464  1.00  0.00     0.000 C 
BRANCH  20  21
ATOM     21  C   UNL     1      19.837 136.481  56.561  1.00  0.00     0.000 C 
BRANCH  21  22
ATOM     22  C   UNL     1      18.872 136.622  55.365  1.00  0.00    -0.000 C 
BRANCH  22  23
ATOM     23  C   UNL     1      17.373 136.576  55.725  1.00  0.00    -0.000 C 
BRANCH  23  24
ATOM     24  C   UNL     1      16.619 135.330  55.221  1.00  0.00    -0.000 C 
BRANCH  24  25
ATOM     25  C   UNL     1      17.147 134.742  53.896  1.00  0.00    -0.000 C 
BRANCH  25  26
ATOM     26  C   UNL     1      17.801 133.351  54.018  1.00  0.00    -0.000 C 
BRANCH  26  27
ATOM     27  C   UNL     1      16.873 132.161  53.693  1.00  0.00    -0.000 C 
BRANCH  27  28
ATOM     28  C   UNL     1      16.540 131.247  54.892  1.00  0.00    -0.000 C 
BRANCH  28  29
ATOM     29  C   UNL     1      15.225 131.591  55.615  1.00  0.00    -0.003 C 
ATOM     30  C   UNL     1      14.280 132.439  54.763  1.00  0.00     0.004 C 
ENDBRANCH  28  29
ENDBRANCH  27  28
ENDBRANCH  26  27
ENDBRANCH  25  26
ENDBRANCH  24  25
ENDBRANCH  23  24
ENDBRANCH  22  23
ENDBRANCH  21  22
ENDBRANCH  20  21
ENDBRANCH  19  20
ENDBRANCH  18  19
ENDBRANCH  17  18
ENDBRANCH   1  17
TORSDOF 26
ENDMDL
