MODEL 1
REMARK VINA RESULT:    -5.427      0.000      0.000
REMARK INTER + INTRA:          -9.574
REMARK INTER:                  -8.282
REMARK INTRA:                  -1.292
REMARK UNBOUND:                -1.292
REMARK SMILES OC[C@@H]1O[C@H](O[C@@]2(CO)O[C@H](CO)[C@@H](O)[C@@H]2O)[C@H](O)[C@@H](O)[C@H]1O
REMARK SMILES IDX 6 1 5 2 3 3 22 4 4 5 20 6 18 7 2 8 1 9 23 11 21 13 19 15
REMARK SMILES IDX 7 17 16 18 10 19 14 20 11 21 8 22 9 23 17 25 15 27 12 29
REMARK SMILES IDX 13 30
REMARK H PARENT 1 10 23 12 21 14 19 16 9 24 17 26 15 28 13 31
REMARK Flexibility Score: inf
ROOT
ATOM      1  O   UNL     1     -25.496  23.648 -24.504  1.00  0.00    -0.313 OA
ENDROOT
BRANCH   1   2
ATOM      2  C   UNL     1     -25.632  22.273 -24.837  1.00  0.00     0.285 C 
ATOM      3  C   UNL     1     -25.033  20.685 -26.442  1.00  0.00     0.178 C 
ATOM      4  C   UNL     1     -24.432  19.705 -25.404  1.00  0.00     0.177 C 
ATOM      5  O   UNL     1     -24.867  22.024 -26.004  1.00  0.00    -0.341 OA
ATOM      6  C   UNL     1     -25.082  19.931 -24.023  1.00  0.00     0.179 C 
ATOM      7  C   UNL     1     -25.098  21.428 -23.658  1.00  0.00     0.202 C 
BRANCH   3   8
ATOM      8  C   UNL     1     -24.343  20.536 -27.803  1.00  0.00     0.191 C 
BRANCH   8   9
ATOM      9  O   UNL     1     -23.100  19.913 -27.634  1.00  0.00    -0.394 OA
ATOM     10  H   UNL     1     -23.188  19.010 -28.034  1.00  0.00     0.210 HD
ENDBRANCH   8   9
ENDBRANCH   3   8
BRANCH   4  11
ATOM     11  O   UNL     1     -24.642  18.373 -25.804  1.00  0.00    -0.387 OA
ATOM     12  H   UNL     1     -24.697  18.369 -26.796  1.00  0.00     0.211 HD
ENDBRANCH   4  11
BRANCH   6  13
ATOM     13  O   UNL     1     -26.404  19.449 -24.024  1.00  0.00    -0.387 OA
ATOM     14  H   UNL     1     -26.370  18.501 -23.731  1.00  0.00     0.211 HD
ENDBRANCH   6  13
BRANCH   7  15
ATOM     15  O   UNL     1     -23.824  21.862 -23.243  1.00  0.00    -0.385 OA
ATOM     16  H   UNL     1     -23.789  21.822 -22.253  1.00  0.00     0.211 HD
ENDBRANCH   7  15
ENDBRANCH   1   2
BRANCH   1  17
ATOM     17  C   UNL     1     -26.603  24.468 -24.875  1.00  0.00     0.224 C 
ATOM     18  C   UNL     1     -26.932  25.524 -23.783  1.00  0.00     0.208 C 
ATOM     19  O   UNL     1     -27.722  23.606 -24.988  1.00  0.00    -0.337 OA
ATOM     20  C   UNL     1     -28.430  25.448 -23.663  1.00  0.00     0.180 C 
ATOM     21  C   UNL     1     -28.700  24.004 -24.054  1.00  0.00     0.179 C 
BRANCH  17  22
ATOM     22  C   UNL     1     -26.377  25.076 -26.285  1.00  0.00     0.225 C 
BRANCH  22  23
ATOM     23  O   UNL     1     -25.006  25.207 -26.545  1.00  0.00    -0.391 OA
ATOM     24  H   UNL     1     -24.860  26.159 -26.784  1.00  0.00     0.210 HD
ENDBRANCH  22  23
ENDBRANCH  17  22
BRANCH  18  25
ATOM     25  O   UNL     1     -26.521  26.820 -24.140  1.00  0.00    -0.385 OA
ATOM     26  H   UNL     1     -26.078  27.208 -23.341  1.00  0.00     0.211 HD
ENDBRANCH  18  25
BRANCH  20  27
ATOM     27  O   UNL     1     -28.854  25.696 -22.348  1.00  0.00    -0.387 OA
ATOM     28  H   UNL     1     -29.681  25.163 -22.214  1.00  0.00     0.211 HD
ENDBRANCH  20  27
BRANCH  21  29
ATOM     29  C   UNL     1     -30.093  23.817 -24.661  1.00  0.00     0.191 C 
BRANCH  29  30
ATOM     30  O   UNL     1     -31.077  24.166 -23.726  1.00  0.00    -0.394 OA
ATOM     31  H   UNL     1     -31.551  24.951 -24.106  1.00  0.00     0.210 HD
ENDBRANCH  29  30
ENDBRANCH  21  29
ENDBRANCH   1  17
TORSDOF 13
ENDMDL
MODEL 2
REMARK VINA RESULT:    -5.415      1.721      6.516
REMARK INTER + INTRA:          -9.556
REMARK INTER:                  -8.461
REMARK INTRA:                  -1.095
REMARK UNBOUND:                -1.292
REMARK SMILES OC[C@@H]1O[C@H](O[C@@]2(CO)O[C@H](CO)[C@@H](O)[C@@H]2O)[C@H](O)[C@@H](O)[C@H]1O
REMARK SMILES IDX 6 1 5 2 3 3 22 4 4 5 20 6 18 7 2 8 1 9 23 11 21 13 19 15
REMARK SMILES IDX 7 17 16 18 10 19 14 20 11 21 8 22 9 23 17 25 15 27 12 29
REMARK SMILES IDX 13 30
REMARK H PARENT 1 10 23 12 21 14 19 16 9 24 17 26 15 28 13 31
REMARK Flexibility Score: inf
ROOT
ATOM      1  O   UNL     1     -24.989  22.765 -24.920  1.00  0.00    -0.313 OA
ENDROOT
BRANCH   1   2
ATOM      2  C   UNL     1     -26.131  23.611 -24.900  1.00  0.00     0.285 C 
ATOM      3  C   UNL     1     -27.191  25.266 -23.637  1.00  0.00     0.178 C 
ATOM      4  C   UNL     1     -27.281  26.262 -24.820  1.00  0.00     0.177 C 
ATOM      5  O   UNL     1     -26.034  24.456 -23.766  1.00  0.00    -0.341 OA
ATOM      6  C   UNL     1     -27.275  25.496 -26.160  1.00  0.00     0.179 C 
ATOM      7  C   UNL     1     -26.140  24.454 -26.195  1.00  0.00     0.202 C 
BRANCH   3   8
ATOM      8  C   UNL     1     -27.111  26.007 -22.298  1.00  0.00     0.191 C 
BRANCH   8   9
ATOM      9  O   UNL     1     -26.723  27.335 -22.518  1.00  0.00    -0.394 OA
ATOM     10  H   UNL     1     -26.808  27.488 -23.494  1.00  0.00     0.210 HD
ENDBRANCH   8   9
ENDBRANCH   3   8
BRANCH   4  11
ATOM     11  O   UNL     1     -28.456  27.030 -24.728  1.00  0.00    -0.387 OA
ATOM     12  H   UNL     1     -28.202  27.976 -24.890  1.00  0.00     0.211 HD
ENDBRANCH   4  11
BRANCH   6  13
ATOM     13  O   UNL     1     -28.504  24.837 -26.348  1.00  0.00    -0.387 OA
ATOM     14  H   UNL     1     -29.206  25.402 -25.931  1.00  0.00     0.211 HD
ENDBRANCH   6  13
BRANCH   7  15
ATOM     15  O   UNL     1     -24.895  25.069 -26.424  1.00  0.00    -0.385 OA
ATOM     16  H   UNL     1     -24.976  25.649 -27.224  1.00  0.00     0.211 HD
ENDBRANCH   7  15
ENDBRANCH   1   2
BRANCH   1  17
ATOM     17  C   UNL     1     -25.275  21.368 -24.913  1.00  0.00     0.224 C 
ATOM     18  C   UNL     1     -24.097  20.539 -24.332  1.00  0.00     0.208 C 
ATOM     19  O   UNL     1     -25.442  20.985 -26.267  1.00  0.00    -0.337 OA
ATOM     20  C   UNL     1     -23.961  19.396 -25.301  1.00  0.00     0.180 C 
ATOM     21  C   UNL     1     -24.464  20.022 -26.592  1.00  0.00     0.179 C 
BRANCH  17  22
ATOM     22  C   UNL     1     -26.634  21.099 -24.215  1.00  0.00     0.225 C 
BRANCH  22  23
ATOM     23  O   UNL     1     -26.901  19.723 -24.181  1.00  0.00    -0.391 OA
ATOM     24  H   UNL     1     -27.840  19.616 -24.485  1.00  0.00     0.210 HD
ENDBRANCH  22  23
ENDBRANCH  17  22
BRANCH  18  25
ATOM     25  O   UNL     1     -24.353  20.068 -23.032  1.00  0.00    -0.385 OA
ATOM     26  H   UNL     1     -23.549  19.561 -22.750  1.00  0.00     0.211 HD
ENDBRANCH  18  25
BRANCH  20  27
ATOM     27  O   UNL     1     -22.624  18.988 -25.433  1.00  0.00    -0.387 OA
ATOM     28  H   UNL     1     -22.643  18.008 -25.588  1.00  0.00     0.211 HD
ENDBRANCH  20  27
BRANCH  21  29
ATOM     29  C   UNL     1     -25.064  18.985 -27.546  1.00  0.00     0.191 C 
BRANCH  29  30
ATOM     30  O   UNL     1     -25.151  17.739 -26.909  1.00  0.00    -0.394 OA
ATOM     31  H   UNL     1     -24.323  17.647 -26.370  1.00  0.00     0.210 HD
ENDBRANCH  29  30
ENDBRANCH  21  29
ENDBRANCH   1  17
TORSDOF 13
ENDMDL
MODEL 3
REMARK VINA RESULT:    -5.391      2.361      3.857
REMARK INTER + INTRA:          -9.519
REMARK INTER:                  -8.251
REMARK INTRA:                  -1.268
REMARK UNBOUND:                -1.292
REMARK SMILES OC[C@@H]1O[C@H](O[C@@]2(CO)O[C@H](CO)[C@@H](O)[C@@H]2O)[C@H](O)[C@@H](O)[C@H]1O
REMARK SMILES IDX 6 1 5 2 3 3 22 4 4 5 20 6 18 7 2 8 1 9 23 11 21 13 19 15
REMARK SMILES IDX 7 17 16 18 10 19 14 20 11 21 8 22 9 23 17 25 15 27 12 29
REMARK SMILES IDX 13 30
REMARK H PARENT 1 10 23 12 21 14 19 16 9 24 17 26 15 28 13 31
REMARK Flexibility Score: inf
ROOT
ATOM      1  O   UNL     1     -26.497  21.843 -21.379  1.00  0.00    -0.313 OA
ENDROOT
BRANCH   1   2
ATOM      2  C   UNL     1     -26.306  21.395 -22.715  1.00  0.00     0.285 C 
ATOM      3  C   UNL     1     -25.528  22.081 -24.808  1.00  0.00     0.178 C 
ATOM      4  C   UNL     1     -24.554  20.886 -24.957  1.00  0.00     0.177 C 
ATOM      5  O   UNL     1     -25.667  22.431 -23.441  1.00  0.00    -0.341 OA
ATOM      6  C   UNL     1     -25.049  19.691 -24.117  1.00  0.00     0.179 C 
ATOM      7  C   UNL     1     -25.413  20.134 -22.687  1.00  0.00     0.202 C 
BRANCH   3   8
ATOM      8  C   UNL     1     -25.013  23.309 -25.568  1.00  0.00     0.191 C 
BRANCH   8   9
ATOM      9  O   UNL     1     -25.094  23.076 -26.948  1.00  0.00    -0.394 OA
ATOM     10  H   UNL     1     -24.173  22.860 -27.245  1.00  0.00     0.210 HD
ENDBRANCH   8   9
ENDBRANCH   3   8
BRANCH   4  11
ATOM     11  O   UNL     1     -24.455  20.497 -26.305  1.00  0.00    -0.387 OA
ATOM     12  H   UNL     1     -24.739  21.272 -26.857  1.00  0.00     0.211 HD
ENDBRANCH   4  11
BRANCH   6  13
ATOM     13  O   UNL     1     -26.184  19.112 -24.716  1.00  0.00    -0.387 OA
ATOM     14  H   UNL     1     -25.929  18.860 -25.641  1.00  0.00     0.211 HD
ENDBRANCH   6  13
BRANCH   7  15
ATOM     15  O   UNL     1     -24.256  20.333 -21.908  1.00  0.00    -0.385 OA
ATOM     16  H   UNL     1     -24.358  19.825 -21.064  1.00  0.00     0.211 HD
ENDBRANCH   7  15
ENDBRANCH   1   2
BRANCH   1  17
ATOM     17  C   UNL     1     -27.728  22.523 -21.144  1.00  0.00     0.224 C 
ATOM     18  C   UNL     1     -28.691  22.413 -22.359  1.00  0.00     0.208 C 
ATOM     19  O   UNL     1     -27.406  23.892 -20.976  1.00  0.00    -0.337 OA
ATOM     20  C   UNL     1     -29.207  23.817 -22.525  1.00  0.00     0.180 C 
ATOM     21  C   UNL     1     -28.049  24.640 -21.984  1.00  0.00     0.179 C 
BRANCH  17  22
ATOM     22  C   UNL     1     -28.356  22.056 -19.804  1.00  0.00     0.225 C 
BRANCH  22  23
ATOM     23  O   UNL     1     -28.593  20.674 -19.833  1.00  0.00    -0.391 OA
ATOM     24  H   UNL     1     -29.239  20.520 -20.570  1.00  0.00     0.210 HD
ENDBRANCH  22  23
ENDBRANCH  17  22
BRANCH  18  25
ATOM     25  O   UNL     1     -29.747  21.512 -22.135  1.00  0.00    -0.385 OA
ATOM     26  H   UNL     1     -30.348  21.938 -21.471  1.00  0.00     0.211 HD
ENDBRANCH  18  25
BRANCH  20  27
ATOM     27  O   UNL     1     -29.447  24.121 -23.874  1.00  0.00    -0.387 OA
ATOM     28  H   UNL     1     -28.901  23.486 -24.407  1.00  0.00     0.211 HD
ENDBRANCH  20  27
BRANCH  21  29
ATOM     29  C   UNL     1     -28.508  25.983 -21.411  1.00  0.00     0.191 C 
BRANCH  29  30
ATOM     30  O   UNL     1     -29.847  26.219 -21.751  1.00  0.00    -0.394 OA
ATOM     31  H   UNL     1     -30.390  25.816 -21.025  1.00  0.00     0.210 HD
ENDBRANCH  29  30
ENDBRANCH  21  29
ENDBRANCH   1  17
TORSDOF 13
ENDMDL
MODEL 4
REMARK VINA RESULT:    -5.357      2.502      4.962
REMARK INTER + INTRA:          -9.467
REMARK INTER:                  -8.260
REMARK INTRA:                  -1.207
REMARK UNBOUND:                -1.292
REMARK SMILES OC[C@@H]1O[C@H](O[C@@]2(CO)O[C@H](CO)[C@@H](O)[C@@H]2O)[C@H](O)[C@@H](O)[C@H]1O
REMARK SMILES IDX 6 1 5 2 3 3 22 4 4 5 20 6 18 7 2 8 1 9 23 11 21 13 19 15
REMARK SMILES IDX 7 17 16 18 10 19 14 20 11 21 8 22 9 23 17 25 15 27 12 29
REMARK SMILES IDX 13 30
REMARK H PARENT 1 10 23 12 21 14 19 16 9 24 17 26 15 28 13 31
REMARK Flexibility Score: inf
ROOT
ATOM      1  O   UNL     1     -29.033  23.625 -23.481  1.00  0.00    -0.313 OA
ENDROOT
BRANCH   1   2
ATOM      2  C   UNL     1     -27.907  24.273 -24.057  1.00  0.00     0.285 C 
ATOM      3  C   UNL     1     -25.861  23.855 -25.104  1.00  0.00     0.178 C 
ATOM      4  C   UNL     1     -26.182  24.749 -26.327  1.00  0.00     0.177 C 
ATOM      5  O   UNL     1     -27.051  23.278 -24.594  1.00  0.00    -0.341 OA
ATOM      6  C   UNL     1     -27.211  25.831 -25.938  1.00  0.00     0.179 C 
ATOM      7  C   UNL     1     -28.401  25.213 -25.179  1.00  0.00     0.202 C 
BRANCH   3   8
ATOM      8  C   UNL     1     -24.904  22.721 -25.488  1.00  0.00     0.191 C 
BRANCH   8   9
ATOM      9  O   UNL     1     -24.918  22.544 -26.878  1.00  0.00    -0.394 OA
ATOM     10  H   UNL     1     -25.101  21.581 -27.030  1.00  0.00     0.210 HD
ENDBRANCH   8   9
ENDBRANCH   3   8
BRANCH   4  11
ATOM     11  O   UNL     1     -25.014  25.369 -26.805  1.00  0.00    -0.387 OA
ATOM     12  H   UNL     1     -24.580  25.816 -26.031  1.00  0.00     0.211 HD
ENDBRANCH   4  11
BRANCH   6  13
ATOM     13  O   UNL     1     -26.606  26.804 -25.121  1.00  0.00    -0.387 OA
ATOM     14  H   UNL     1     -27.210  27.593 -25.111  1.00  0.00     0.211 HD
ENDBRANCH   6  13
BRANCH   7  15
ATOM     15  O   UNL     1     -29.278  24.553 -26.061  1.00  0.00    -0.385 OA
ATOM     16  H   UNL     1     -29.947  24.058 -25.524  1.00  0.00     0.211 HD
ENDBRANCH   7  15
ENDBRANCH   1   2
BRANCH   1  17
ATOM     17  C   UNL     1     -29.273  23.939 -22.111  1.00  0.00     0.224 C 
ATOM     18  C   UNL     1     -28.235  24.957 -21.561  1.00  0.00     0.208 C 
ATOM     19  O   UNL     1     -29.114  22.732 -21.388  1.00  0.00    -0.337 OA
ATOM     20  C   UNL     1     -27.848  24.376 -20.229  1.00  0.00     0.180 C 
ATOM     21  C   UNL     1     -28.060  22.890 -20.464  1.00  0.00     0.179 C 
BRANCH  17  22
ATOM     22  C   UNL     1     -30.747  24.378 -21.908  1.00  0.00     0.225 C 
BRANCH  22  23
ATOM     23  O   UNL     1     -31.157  25.215 -22.955  1.00  0.00    -0.391 OA
ATOM     24  H   UNL     1     -30.599  26.033 -22.889  1.00  0.00     0.210 HD
ENDBRANCH  22  23
ENDBRANCH  17  22
BRANCH  18  25
ATOM     25  O   UNL     1     -28.769  26.249 -21.412  1.00  0.00    -0.385 OA
ATOM     26  H   UNL     1     -29.630  26.260 -21.905  1.00  0.00     0.211 HD
ENDBRANCH  18  25
BRANCH  20  27
ATOM     27  O   UNL     1     -26.505  24.646 -19.920  1.00  0.00    -0.387 OA
ATOM     28  H   UNL     1     -26.401  24.478 -18.948  1.00  0.00     0.211 HD
ENDBRANCH  20  27
BRANCH  21  29
ATOM     29  C   UNL     1     -28.395  22.138 -19.172  1.00  0.00     0.191 C 
BRANCH  29  30
ATOM     30  O   UNL     1     -28.807  20.832 -19.468  1.00  0.00    -0.394 OA
ATOM     31  H   UNL     1     -29.156  20.455 -18.619  1.00  0.00     0.210 HD
ENDBRANCH  29  30
ENDBRANCH  21  29
ENDBRANCH   1  17
TORSDOF 13
ENDMDL
MODEL 5
REMARK VINA RESULT:    -5.347      1.539      6.673
REMARK INTER + INTRA:          -9.451
REMARK INTER:                  -8.106
REMARK INTRA:                  -1.346
REMARK UNBOUND:                -1.292
REMARK SMILES OC[C@@H]1O[C@H](O[C@@]2(CO)O[C@H](CO)[C@@H](O)[C@@H]2O)[C@H](O)[C@@H](O)[C@H]1O
REMARK SMILES IDX 6 1 5 2 3 3 22 4 4 5 20 6 18 7 2 8 1 9 23 11 21 13 19 15
REMARK SMILES IDX 7 17 16 18 10 19 14 20 11 21 8 22 9 23 17 25 15 27 12 29
REMARK SMILES IDX 13 30
REMARK H PARENT 1 10 23 12 21 14 19 16 9 24 17 26 15 28 13 31
REMARK Flexibility Score: inf
ROOT
ATOM      1  O   UNL     1     -24.971  21.663 -25.237  1.00  0.00    -0.313 OA
ENDROOT
BRANCH   1   2
ATOM      2  C   UNL     1     -26.033  22.539 -25.593  1.00  0.00     0.285 C 
ATOM      3  C   UNL     1     -28.098  23.346 -24.857  1.00  0.00     0.178 C 
ATOM      4  C   UNL     1     -27.690  24.833 -25.004  1.00  0.00     0.177 C 
ATOM      5  O   UNL     1     -26.965  22.559 -24.526  1.00  0.00    -0.341 OA
ATOM      6  C   UNL     1     -26.576  24.975 -26.061  1.00  0.00     0.179 C 
ATOM      7  C   UNL     1     -25.450  23.952 -25.818  1.00  0.00     0.202 C 
BRANCH   3   8
ATOM      8  C   UNL     1     -29.145  23.169 -23.752  1.00  0.00     0.191 C 
BRANCH   8   9
ATOM      9  O   UNL     1     -28.975  24.163 -22.779  1.00  0.00    -0.394 OA
ATOM     10  H   UNL     1     -29.826  24.673 -22.755  1.00  0.00     0.210 HD
ENDBRANCH   8   9
ENDBRANCH   3   8
BRANCH   4  11
ATOM     11  O   UNL     1     -28.797  25.611 -25.387  1.00  0.00    -0.387 OA
ATOM     12  H   UNL     1     -29.551  24.988 -25.558  1.00  0.00     0.211 HD
ENDBRANCH   4  11
BRANCH   6  13
ATOM     13  O   UNL     1     -27.102  24.774 -27.351  1.00  0.00    -0.387 OA
ATOM     14  H   UNL     1     -26.442  25.141 -27.996  1.00  0.00     0.211 HD
ENDBRANCH   6  13
BRANCH   7  15
ATOM     15  O   UNL     1     -24.625  24.351 -24.748  1.00  0.00    -0.385 OA
ATOM     16  H   UNL     1     -25.048  24.055 -23.902  1.00  0.00     0.211 HD
ENDBRANCH   7  15
ENDBRANCH   1   2
BRANCH   1  17
ATOM     17  C   UNL     1     -24.934  20.437 -25.963  1.00  0.00     0.224 C 
ATOM     18  C   UNL     1     -23.529  19.775 -25.909  1.00  0.00     0.208 C 
ATOM     19  O   UNL     1     -25.202  20.763 -27.316  1.00  0.00    -0.337 OA
ATOM     20  C   UNL     1     -23.281  19.363 -27.335  1.00  0.00     0.180 C 
ATOM     21  C   UNL     1     -24.090  20.396 -28.102  1.00  0.00     0.179 C 
BRANCH  17  22
ATOM     22  C   UNL     1     -26.083  19.502 -25.504  1.00  0.00     0.225 C 
BRANCH  22  23
ATOM     23  O   UNL     1     -26.177  19.494 -24.106  1.00  0.00    -0.391 OA
ATOM     24  H   UNL     1     -27.146  19.533 -23.893  1.00  0.00     0.210 HD
ENDBRANCH  22  23
ENDBRANCH  17  22
BRANCH  18  25
ATOM     25  O   UNL     1     -23.485  18.664 -25.049  1.00  0.00    -0.385 OA
ATOM     26  H   UNL     1     -23.280  19.014 -24.143  1.00  0.00     0.211 HD
ENDBRANCH  18  25
BRANCH  20  27
ATOM     27  O   UNL     1     -21.919  19.450 -27.667  1.00  0.00    -0.387 OA
ATOM     28  H   UNL     1     -21.673  20.409 -27.594  1.00  0.00     0.211 HD
ENDBRANCH  20  27
BRANCH  21  29
ATOM     29  C   UNL     1     -24.573  19.868 -29.456  1.00  0.00     0.191 C 
BRANCH  29  30
ATOM     30  O   UNL     1     -23.477  19.626 -30.296  1.00  0.00    -0.394 OA
ATOM     31  H   UNL     1     -22.674  19.921 -29.793  1.00  0.00     0.210 HD
ENDBRANCH  29  30
ENDBRANCH  21  29
ENDBRANCH   1  17
TORSDOF 13
ENDMDL
MODEL 6
REMARK VINA RESULT:    -5.335      2.235      3.874
REMARK INTER + INTRA:          -9.434
REMARK INTER:                  -8.487
REMARK INTRA:                  -0.947
REMARK UNBOUND:                -1.292
REMARK SMILES OC[C@@H]1O[C@H](O[C@@]2(CO)O[C@H](CO)[C@@H](O)[C@@H]2O)[C@H](O)[C@@H](O)[C@H]1O
REMARK SMILES IDX 6 1 5 2 3 3 22 4 4 5 20 6 18 7 2 8 1 9 23 11 21 13 19 15
REMARK SMILES IDX 7 17 16 18 10 19 14 20 11 21 8 22 9 23 17 25 15 27 12 29
REMARK SMILES IDX 13 30
REMARK H PARENT 1 10 23 12 21 14 19 16 9 24 17 26 15 28 13 31
REMARK Flexibility Score: inf
ROOT
ATOM      1  O   UNL     1     -26.815  24.869 -23.012  1.00  0.00    -0.313 OA
ENDROOT
BRANCH   1   2
ATOM      2  C   UNL     1     -26.894  23.451 -22.955  1.00  0.00     0.285 C 
ATOM      3  C   UNL     1     -25.648  21.508 -23.316  1.00  0.00     0.178 C 
ATOM      4  C   UNL     1     -25.941  20.931 -21.909  1.00  0.00     0.177 C 
ATOM      5  O   UNL     1     -25.615  22.925 -23.266  1.00  0.00    -0.341 OA
ATOM      6  C   UNL     1     -27.264  21.506 -21.364  1.00  0.00     0.179 C 
ATOM      7  C   UNL     1     -27.308  23.038 -21.525  1.00  0.00     0.202 C 
BRANCH   3   8
ATOM      8  C   UNL     1     -24.295  21.015 -23.843  1.00  0.00     0.191 C 
BRANCH   8   9
ATOM      9  O   UNL     1     -23.366  20.982 -22.794  1.00  0.00    -0.394 OA
ATOM     10  H   UNL     1     -23.847  21.307 -21.990  1.00  0.00     0.210 HD
ENDBRANCH   8   9
ENDBRANCH   3   8
BRANCH   4  11
ATOM     11  O   UNL     1     -26.030  19.528 -21.961  1.00  0.00    -0.387 OA
ATOM     12  H   UNL     1     -26.939  19.303 -22.292  1.00  0.00     0.211 HD
ENDBRANCH   4  11
BRANCH   6  13
ATOM     13  O   UNL     1     -28.357  20.946 -22.052  1.00  0.00    -0.387 OA
ATOM     14  H   UNL     1     -28.141  20.981 -23.021  1.00  0.00     0.211 HD
ENDBRANCH   6  13
BRANCH   7  15
ATOM     15  O   UNL     1     -26.513  23.673 -20.551  1.00  0.00    -0.385 OA
ATOM     16  H   UNL     1     -25.562  23.478 -20.749  1.00  0.00     0.211 HD
ENDBRANCH   7  15
ENDBRANCH   1   2
BRANCH   1  17
ATOM     17  C   UNL     1     -27.350  25.454 -24.197  1.00  0.00     0.224 C 
ATOM     18  C   UNL     1     -28.405  24.534 -24.872  1.00  0.00     0.208 C 
ATOM     19  O   UNL     1     -26.267  25.596 -25.099  1.00  0.00    -0.337 OA
ATOM     20  C   UNL     1     -28.028  24.578 -26.328  1.00  0.00     0.180 C 
ATOM     21  C   UNL     1     -26.532  24.831 -26.254  1.00  0.00     0.179 C 
BRANCH  17  22
ATOM     22  C   UNL     1     -27.866  26.888 -23.907  1.00  0.00     0.225 C 
BRANCH  22  23
ATOM     23  O   UNL     1     -26.809  27.807 -23.963  1.00  0.00    -0.391 OA
ATOM     24  H   UNL     1     -26.371  27.672 -24.843  1.00  0.00     0.210 HD
ENDBRANCH  22  23
ENDBRANCH  17  22
BRANCH  18  25
ATOM     25  O   UNL     1     -29.722  24.985 -24.678  1.00  0.00    -0.385 OA
ATOM     26  H   UNL     1     -29.699  25.604 -23.903  1.00  0.00     0.211 HD
ENDBRANCH  18  25
BRANCH  20  27
ATOM     27  O   UNL     1     -28.297  23.356 -26.966  1.00  0.00    -0.387 OA
ATOM     28  H   UNL     1     -28.634  23.580 -27.872  1.00  0.00     0.211 HD
ENDBRANCH  20  27
BRANCH  21  29
ATOM     29  C   UNL     1     -26.006  25.568 -27.488  1.00  0.00     0.191 C 
BRANCH  29  30
ATOM     30  O   UNL     1     -24.623  25.768 -27.377  1.00  0.00    -0.394 OA
ATOM     31  H   UNL     1     -24.206  25.202 -28.078  1.00  0.00     0.210 HD
ENDBRANCH  29  30
ENDBRANCH  21  29
ENDBRANCH   1  17
TORSDOF 13
ENDMDL
MODEL 7
REMARK VINA RESULT:    -5.324      2.349      6.463
REMARK INTER + INTRA:          -9.416
REMARK INTER:                  -8.244
REMARK INTRA:                  -1.172
REMARK UNBOUND:                -1.292
REMARK SMILES OC[C@@H]1O[C@H](O[C@@]2(CO)O[C@H](CO)[C@@H](O)[C@@H]2O)[C@H](O)[C@@H](O)[C@H]1O
REMARK SMILES IDX 6 1 5 2 3 3 22 4 4 5 20 6 18 7 2 8 1 9 23 11 21 13 19 15
REMARK SMILES IDX 7 17 16 18 10 19 14 20 11 21 8 22 9 23 17 25 15 27 12 29
REMARK SMILES IDX 13 30
REMARK H PARENT 1 10 23 12 21 14 19 16 9 24 17 26 15 28 13 31
REMARK Flexibility Score: inf
ROOT
ATOM      1  O   UNL     1     -27.171  21.979 -23.123  1.00  0.00    -0.313 OA
ENDROOT
BRANCH   1   2
ATOM      2  C   UNL     1     -27.206  22.877 -22.021  1.00  0.00     0.285 C 
ATOM      3  C   UNL     1     -27.356  25.145 -21.482  1.00  0.00     0.178 C 
ATOM      4  C   UNL     1     -28.556  24.947 -20.522  1.00  0.00     0.177 C 
ATOM      5  O   UNL     1     -27.403  24.187 -22.526  1.00  0.00    -0.341 OA
ATOM      6  C   UNL     1     -28.559  23.508 -19.967  1.00  0.00     0.179 C 
ATOM      7  C   UNL     1     -28.381  22.479 -21.100  1.00  0.00     0.202 C 
BRANCH   3   8
ATOM      8  C   UNL     1     -27.379  26.543 -22.111  1.00  0.00     0.191 C 
BRANCH   8   9
ATOM      9  O   UNL     1     -26.623  27.424 -21.326  1.00  0.00    -0.394 OA
ATOM     10  H   UNL     1     -26.834  28.336 -21.656  1.00  0.00     0.210 HD
ENDBRANCH   8   9
ENDBRANCH   3   8
BRANCH   4  11
ATOM     11  O   UNL     1     -28.486  25.858 -19.452  1.00  0.00    -0.387 OA
ATOM     12  H   UNL     1     -27.932  26.625 -19.754  1.00  0.00     0.211 HD
ENDBRANCH   4  11
BRANCH   6  13
ATOM     13  O   UNL     1     -27.517  23.344 -19.036  1.00  0.00    -0.387 OA
ATOM     14  H   UNL     1     -27.935  23.293 -18.136  1.00  0.00     0.211 HD
ENDBRANCH   6  13
BRANCH   7  15
ATOM     15  O   UNL     1     -29.576  22.310 -21.825  1.00  0.00    -0.385 OA
ATOM     16  H   UNL     1     -29.978  23.204 -21.976  1.00  0.00     0.211 HD
ENDBRANCH   7  15
ENDBRANCH   1   2
BRANCH   1  17
ATOM     17  C   UNL     1     -25.863  21.610 -23.556  1.00  0.00     0.224 C 
ATOM     18  C   UNL     1     -25.319  22.579 -24.643  1.00  0.00     0.208 C 
ATOM     19  O   UNL     1     -25.981  20.328 -24.146  1.00  0.00    -0.337 OA
ATOM     20  C   UNL     1     -24.737  21.653 -25.676  1.00  0.00     0.180 C 
ATOM     21  C   UNL     1     -25.594  20.411 -25.499  1.00  0.00     0.179 C 
BRANCH  17  22
ATOM     22  C   UNL     1     -24.917  21.443 -22.337  1.00  0.00     0.225 C 
BRANCH  22  23
ATOM     23  O   UNL     1     -24.626  20.088 -22.128  1.00  0.00    -0.391 OA
ATOM     24  H   UNL     1     -25.038  19.597 -22.886  1.00  0.00     0.210 HD
ENDBRANCH  22  23
ENDBRANCH  17  22
BRANCH  18  25
ATOM     25  O   UNL     1     -24.341  23.458 -24.146  1.00  0.00    -0.385 OA
ATOM     26  H   UNL     1     -23.994  23.053 -23.309  1.00  0.00     0.211 HD
ENDBRANCH  18  25
BRANCH  20  27
ATOM     27  O   UNL     1     -24.877  22.175 -26.972  1.00  0.00    -0.387 OA
ATOM     28  H   UNL     1     -24.867  23.164 -26.880  1.00  0.00     0.211 HD
ENDBRANCH  20  27
BRANCH  21  29
ATOM     29  C   UNL     1     -24.853  19.132 -25.899  1.00  0.00     0.191 C 
BRANCH  29  30
ATOM     30  O   UNL     1     -24.116  18.642 -24.811  1.00  0.00    -0.394 OA
ATOM     31  H   UNL     1     -24.728  18.669 -24.030  1.00  0.00     0.210 HD
ENDBRANCH  29  30
ENDBRANCH  21  29
ENDBRANCH   1  17
TORSDOF 13
ENDMDL
MODEL 8
REMARK VINA RESULT:    -5.301      2.803      6.639
REMARK INTER + INTRA:          -9.382
REMARK INTER:                  -8.199
REMARK INTRA:                  -1.183
REMARK UNBOUND:                -1.292
REMARK SMILES OC[C@@H]1O[C@H](O[C@@]2(CO)O[C@H](CO)[C@@H](O)[C@@H]2O)[C@H](O)[C@@H](O)[C@H]1O
REMARK SMILES IDX 6 1 5 2 3 3 22 4 4 5 20 6 18 7 2 8 1 9 23 11 21 13 19 15
REMARK SMILES IDX 7 17 16 18 10 19 14 20 11 21 8 22 9 23 17 25 15 27 12 29
REMARK SMILES IDX 13 30
REMARK H PARENT 1 10 23 12 21 14 19 16 9 24 17 26 15 28 13 31
REMARK Flexibility Score: inf
ROOT
ATOM      1  O   UNL     1     -27.135  21.955 -21.712  1.00  0.00    -0.313 OA
ENDROOT
BRANCH   1   2
ATOM      2  C   UNL     1     -27.185  23.202 -21.031  1.00  0.00     0.285 C 
ATOM      3  C   UNL     1     -27.963  25.396 -21.234  1.00  0.00     0.178 C 
ATOM      4  C   UNL     1     -28.718  25.366 -19.882  1.00  0.00     0.177 C 
ATOM      5  O   UNL     1     -27.951  24.102 -21.815  1.00  0.00    -0.341 OA
ATOM      6  C   UNL     1     -28.074  24.330 -18.937  1.00  0.00     0.179 C 
ATOM      7  C   UNL     1     -27.858  22.985 -19.658  1.00  0.00     0.202 C 
BRANCH   3   8
ATOM      8  C   UNL     1     -28.636  26.358 -22.219  1.00  0.00     0.191 C 
BRANCH   8   9
ATOM      9  O   UNL     1     -30.000  26.465 -21.915  1.00  0.00    -0.394 OA
ATOM     10  H   UNL     1     -30.249  27.407 -22.097  1.00  0.00     0.210 HD
ENDBRANCH   8   9
ENDBRANCH   3   8
BRANCH   4  11
ATOM     11  O   UNL     1     -28.686  26.633 -19.272  1.00  0.00    -0.387 OA
ATOM     12  H   UNL     1     -28.131  26.552 -18.453  1.00  0.00     0.211 HD
ENDBRANCH   4  11
BRANCH   6  13
ATOM     13  O   UNL     1     -26.832  24.802 -18.473  1.00  0.00    -0.387 OA
ATOM     14  H   UNL     1     -26.989  25.208 -17.580  1.00  0.00     0.211 HD
ENDBRANCH   6  13
BRANCH   7  15
ATOM     15  O   UNL     1     -29.068  22.275 -19.778  1.00  0.00    -0.385 OA
ATOM     16  H   UNL     1     -29.186  21.720 -18.965  1.00  0.00     0.211 HD
ENDBRANCH   7  15
ENDBRANCH   1   2
BRANCH   1  17
ATOM     17  C   UNL     1     -25.978  21.758 -22.522  1.00  0.00     0.224 C 
ATOM     18  C   UNL     1     -24.825  22.722 -22.126  1.00  0.00     0.208 C 
ATOM     19  O   UNL     1     -26.358  22.068 -23.850  1.00  0.00    -0.337 OA
ATOM     20  C   UNL     1     -24.325  23.231 -23.451  1.00  0.00     0.180 C 
ATOM     21  C   UNL     1     -25.577  23.149 -24.308  1.00  0.00     0.179 C 
BRANCH  17  22
ATOM     22  C   UNL     1     -25.568  20.262 -22.524  1.00  0.00     0.225 C 
BRANCH  22  23
ATOM     23  O   UNL     1     -26.417  19.523 -21.688  1.00  0.00    -0.391 OA
ATOM     24  H   UNL     1     -26.000  19.538 -20.787  1.00  0.00     0.210 HD
ENDBRANCH  22  23
ENDBRANCH  17  22
BRANCH  18  25
ATOM     25  O   UNL     1     -23.798  22.077 -21.414  1.00  0.00    -0.385 OA
ATOM     26  H   UNL     1     -23.771  22.495 -20.514  1.00  0.00     0.211 HD
ENDBRANCH  18  25
BRANCH  20  27
ATOM     27  O   UNL     1     -23.872  24.557 -23.355  1.00  0.00    -0.387 OA
ATOM     28  H   UNL     1     -24.564  25.122 -23.786  1.00  0.00     0.211 HD
ENDBRANCH  20  27
BRANCH  21  29
ATOM     29  C   UNL     1     -25.253  22.954 -25.792  1.00  0.00     0.191 C 
BRANCH  29  30
ATOM     30  O   UNL     1     -24.745  24.143 -26.334  1.00  0.00    -0.394 OA
ATOM     31  H   UNL     1     -24.170  24.542 -25.630  1.00  0.00     0.210 HD
ENDBRANCH  29  30
ENDBRANCH  21  29
ENDBRANCH   1  17
TORSDOF 13
ENDMDL
MODEL 9
REMARK VINA RESULT:    -5.259      2.210      3.257
REMARK INTER + INTRA:          -9.318
REMARK INTER:                  -7.908
REMARK INTRA:                  -1.409
REMARK UNBOUND:                -1.292
REMARK SMILES OC[C@@H]1O[C@H](O[C@@]2(CO)O[C@H](CO)[C@@H](O)[C@@H]2O)[C@H](O)[C@@H](O)[C@H]1O
REMARK SMILES IDX 6 1 5 2 3 3 22 4 4 5 20 6 18 7 2 8 1 9 23 11 21 13 19 15
REMARK SMILES IDX 7 17 16 18 10 19 14 20 11 21 8 22 9 23 17 25 15 27 12 29
REMARK SMILES IDX 13 30
REMARK H PARENT 1 10 23 12 21 14 19 16 9 24 17 26 15 28 13 31
REMARK Flexibility Score: inf
ROOT
ATOM      1  O   UNL     1     -26.185  22.867 -24.740  1.00  0.00    -0.313 OA
ENDROOT
BRANCH   1   2
ATOM      2  C   UNL     1     -25.849  21.494 -24.898  1.00  0.00     0.285 C 
ATOM      3  C   UNL     1     -26.706  19.447 -25.626  1.00  0.00     0.178 C 
ATOM      4  C   UNL     1     -25.528  19.175 -26.594  1.00  0.00     0.177 C 
ATOM      5  O   UNL     1     -26.942  20.841 -25.521  1.00  0.00    -0.341 OA
ATOM      6  C   UNL     1     -24.267  19.926 -26.118  1.00  0.00     0.179 C 
ATOM      7  C   UNL     1     -24.590  21.397 -25.789  1.00  0.00     0.202 C 
BRANCH   3   8
ATOM      8  C   UNL     1     -27.993  18.778 -26.124  1.00  0.00     0.191 C 
BRANCH   8   9
ATOM      9  O   UNL     1     -27.906  17.392 -25.935  1.00  0.00    -0.394 OA
ATOM     10  H   UNL     1     -27.072  17.105 -26.390  1.00  0.00     0.210 HD
ENDBRANCH   8   9
ENDBRANCH   3   8
BRANCH   4  11
ATOM     11  O   UNL     1     -25.251  17.798 -26.659  1.00  0.00    -0.387 OA
ATOM     12  H   UNL     1     -25.109  17.571 -27.615  1.00  0.00     0.211 HD
ENDBRANCH   4  11
BRANCH   6  13
ATOM     13  O   UNL     1     -23.739  19.309 -24.968  1.00  0.00    -0.387 OA
ATOM     14  H   UNL     1     -23.715  18.333 -25.145  1.00  0.00     0.211 HD
ENDBRANCH   6  13
BRANCH   7  15
ATOM     15  O   UNL     1     -24.725  22.160 -26.965  1.00  0.00    -0.385 OA
ATOM     16  H   UNL     1     -25.163  23.018 -26.731  1.00  0.00     0.211 HD
ENDBRANCH   7  15
ENDBRANCH   1   2
BRANCH   1  17
ATOM     17  C   UNL     1     -26.400  23.282 -23.393  1.00  0.00     0.224 C 
ATOM     18  C   UNL     1     -26.152  22.125 -22.385  1.00  0.00     0.208 C 
ATOM     19  O   UNL     1     -27.766  23.647 -23.298  1.00  0.00    -0.337 OA
ATOM     20  C   UNL     1     -27.327  22.218 -21.450  1.00  0.00     0.180 C 
ATOM     21  C   UNL     1     -28.396  22.812 -22.353  1.00  0.00     0.179 C 
BRANCH  17  22
ATOM     22  C   UNL     1     -25.584  24.565 -23.086  1.00  0.00     0.225 C 
BRANCH  22  23
ATOM     23  O   UNL     1     -24.296  24.466 -23.631  1.00  0.00    -0.391 OA
ATOM     24  H   UNL     1     -24.127  25.326 -24.098  1.00  0.00     0.210 HD
ENDBRANCH  22  23
ENDBRANCH  17  22
BRANCH  18  25
ATOM     25  O   UNL     1     -24.940  22.265 -21.686  1.00  0.00    -0.385 OA
ATOM     26  H   UNL     1     -25.177  22.400 -20.731  1.00  0.00     0.211 HD
ENDBRANCH  18  25
BRANCH  20  27
ATOM     27  O   UNL     1     -27.715  20.951 -20.985  1.00  0.00    -0.387 OA
ATOM     28  H   UNL     1     -26.887  20.407 -20.928  1.00  0.00     0.211 HD
ENDBRANCH  20  27
BRANCH  21  29
ATOM     29  C   UNL     1     -29.435  23.618 -21.569  1.00  0.00     0.191 C 
BRANCH  29  30
ATOM     30  O   UNL     1     -29.527  23.138 -20.256  1.00  0.00    -0.394 OA
ATOM     31  H   UNL     1     -29.813  23.910 -19.701  1.00  0.00     0.210 HD
ENDBRANCH  29  30
ENDBRANCH  21  29
ENDBRANCH   1  17
TORSDOF 13
ENDMDL
