MODEL 1
REMARK VINA RESULT:     8.371      0.000      0.000
REMARK INTER + INTRA:          10.484
REMARK INTER:                  10.084
REMARK INTRA:                   0.399
REMARK UNBOUND:                 0.399
REMARK SMILES Oc1cc(O)c2cc(O)c(-c3ccc(O)c(O)c3)[o+]c2c1.[Cl-]
REMARK SMILES IDX 10 1 19 2 20 3 21 4 2 5 3 6 4 7 6 8 7 9 8 10 11 11 12 12
REMARK SMILES IDX 13 13 14 14 18 15 16 16 15 17 17 19 9 21 1 23 5 25
REMARK H PARENT 15 18 17 20 9 22 1 24 5 26
REMARK Flexibility Score: inf
ROOT
ATOM      1  C   UNL     1       3.178 135.167 155.471  1.00  0.00     0.402 A 
ATOM      2  O   UNL     1       2.800 133.905 155.281  1.00  0.00    -0.202 OA
ATOM      3  C   UNL     1       3.243 133.153 154.279  1.00  0.00     0.368 A 
ATOM      4  C   UNL     1       2.790 131.836 154.166  1.00  0.00     0.162 A 
ATOM      5  C   UNL     1       3.242 131.021 153.123  1.00  0.00     0.128 A 
ATOM      6  C   UNL     1       4.151 131.527 152.191  1.00  0.00     0.093 A 
ATOM      7  C   UNL     1       4.620 132.843 152.283  1.00  0.00     0.136 A 
ATOM      8  C   UNL     1       4.162 133.674 153.338  1.00  0.00     0.125 A 
ATOM      9  C   UNL     1       4.568 135.009 153.501  1.00  0.00     0.078 A 
ATOM     10  C   UNL     1       4.070 135.768 154.564  1.00  0.00     0.223 A 
ENDROOT
BRANCH   1  11
ATOM     11  C   UNL     1       2.621 135.898 156.632  1.00  0.00     0.087 A 
ATOM     12  C   UNL     1       1.954 135.186 157.639  1.00  0.00     0.022 A 
ATOM     13  C   UNL     1       1.437 135.853 158.751  1.00  0.00     0.051 A 
ATOM     14  C   UNL     1       1.589 137.237 158.889  1.00  0.00     0.157 A 
ATOM     15  C   UNL     1       2.795 137.285 156.776  1.00  0.00     0.068 A 
ATOM     16  C   UNL     1       2.283 137.962 157.892  1.00  0.00     0.158 A 
BRANCH  14  17
ATOM     17  O   UNL     1       1.042 137.845 160.021  1.00  0.00    -0.504 OA
ATOM     18  H   UNL     1       1.425 138.671 160.458  1.00  0.00     0.293 HD
ENDBRANCH  14  17
BRANCH  16  19
ATOM     19  O   UNL     1       2.492 139.340 157.969  1.00  0.00    -0.504 OA
ATOM     20  H   UNL     1       2.164 139.999 157.278  1.00  0.00     0.293 HD
ENDBRANCH  16  19
ENDBRANCH   1  11
BRANCH  10  21
ATOM     21  O   UNL     1       4.434 137.109 154.697  1.00  0.00    -0.500 OA
ATOM     22  H   UNL     1       5.273 137.478 154.267  1.00  0.00     0.294 HD
ENDBRANCH  10  21
BRANCH   5  23
ATOM     23  O   UNL     1       2.795 129.708 153.003  1.00  0.00    -0.507 OA
ATOM     24  H   UNL     1       2.656 129.277 152.097  1.00  0.00     0.293 HD
ENDBRANCH   5  23
BRANCH   7  25
ATOM     25  O   UNL     1       5.531 133.272 151.312  1.00  0.00    -0.507 OA
ATOM     26  H   UNL     1       6.305 133.894 151.491  1.00  0.00     0.293 HD
ENDBRANCH   7  25
TORSDOF 6
ENDMDL
MODEL 2
REMARK VINA RESULT:    10.267      1.601      6.784
REMARK INTER + INTRA:          12.768
REMARK INTER:                  12.817
REMARK INTRA:                  -0.050
REMARK UNBOUND:                 0.399
REMARK SMILES Oc1cc(O)c2cc(O)c(-c3ccc(O)c(O)c3)[o+]c2c1.[Cl-]
REMARK SMILES IDX 10 1 19 2 20 3 21 4 2 5 3 6 4 7 6 8 7 9 8 10 11 11 12 12
REMARK SMILES IDX 13 13 14 14 18 15 16 16 15 17 17 19 9 21 1 23 5 25
REMARK H PARENT 15 18 17 20 9 22 1 24 5 26
REMARK Flexibility Score: inf
ROOT
ATOM      1  C   UNL     1       3.491 134.729 154.191  1.00  0.00     0.402 A 
ATOM      2  O   UNL     1       2.867 134.199 155.240  1.00  0.00    -0.202 OA
ATOM      3  C   UNL     1       2.545 134.894 156.326  1.00  0.00     0.368 A 
ATOM      4  C   UNL     1       1.885 134.248 157.375  1.00  0.00     0.162 A 
ATOM      5  C   UNL     1       1.532 134.956 158.528  1.00  0.00     0.128 A 
ATOM      6  C   UNL     1       1.839 136.314 158.630  1.00  0.00     0.093 A 
ATOM      7  C   UNL     1       2.499 136.985 157.593  1.00  0.00     0.136 A 
ATOM      8  C   UNL     1       2.862 136.270 156.422  1.00  0.00     0.125 A 
ATOM      9  C   UNL     1       3.536 136.856 155.337  1.00  0.00     0.078 A 
ATOM     10  C   UNL     1       3.865 136.085 154.218  1.00  0.00     0.223 A 
ENDROOT
BRANCH   1  11
ATOM     11  C   UNL     1       3.786 133.852 153.034  1.00  0.00     0.087 A 
ATOM     12  C   UNL     1       2.740 133.153 152.415  1.00  0.00     0.022 A 
ATOM     13  C   UNL     1       2.993 132.336 151.312  1.00  0.00     0.051 A 
ATOM     14  C   UNL     1       4.288 132.211 150.797  1.00  0.00     0.157 A 
ATOM     15  C   UNL     1       5.084 133.748 152.507  1.00  0.00     0.068 A 
ATOM     16  C   UNL     1       5.347 132.932 151.398  1.00  0.00     0.158 A 
BRANCH  14  17
ATOM     17  O   UNL     1       4.475 131.372 149.697  1.00  0.00    -0.504 OA
ATOM     18  H   UNL     1       4.955 131.647 148.852  1.00  0.00     0.293 HD
ENDBRANCH  14  17
BRANCH  16  19
ATOM     19  O   UNL     1       6.660 132.875 150.928  1.00  0.00    -0.504 OA
ATOM     20  H   UNL     1       7.474 132.956 151.519  1.00  0.00     0.293 HD
ENDBRANCH  16  19
ENDBRANCH   1  11
BRANCH  10  21
ATOM     21  O   UNL     1       4.579 136.654 153.162  1.00  0.00    -0.500 OA
ATOM     22  H   UNL     1       4.525 137.645 152.956  1.00  0.00     0.294 HD
ENDBRANCH  10  21
BRANCH   5  23
ATOM     23  O   UNL     1       0.876 134.319 159.579  1.00  0.00    -0.507 OA
ATOM     24  H   UNL     1       0.165 133.617 159.410  1.00  0.00     0.293 HD
ENDBRANCH   5  23
BRANCH   7  25
ATOM     25  O   UNL     1       2.767 138.345 157.772  1.00  0.00    -0.507 OA
ATOM     26  H   UNL     1       3.331 138.903 157.147  1.00  0.00     0.293 HD
ENDBRANCH   7  25
TORSDOF 6
ENDMDL
MODEL 3
REMARK VINA RESULT:    10.361      1.567      7.239
REMARK INTER + INTRA:          12.881
REMARK INTER:                  13.033
REMARK INTRA:                  -0.152
REMARK UNBOUND:                 0.399
REMARK SMILES Oc1cc(O)c2cc(O)c(-c3ccc(O)c(O)c3)[o+]c2c1.[Cl-]
REMARK SMILES IDX 10 1 19 2 20 3 21 4 2 5 3 6 4 7 6 8 7 9 8 10 11 11 12 12
REMARK SMILES IDX 13 13 14 14 18 15 16 16 15 17 17 19 9 21 1 23 5 25
REMARK H PARENT 15 18 17 20 9 22 1 24 5 26
REMARK Flexibility Score: inf
ROOT
ATOM      1  C   UNL     1       2.891 133.690 154.511  1.00  0.00     0.402 A 
ATOM      2  O   UNL     1       3.079 134.967 154.836  1.00  0.00    -0.202 OA
ATOM      3  C   UNL     1       2.701 135.488 155.998  1.00  0.00     0.368 A 
ATOM      4  C   UNL     1       2.946 136.841 156.248  1.00  0.00     0.162 A 
ATOM      5  C   UNL     1       2.561 137.415 157.463  1.00  0.00     0.128 A 
ATOM      6  C   UNL     1       1.930 136.632 158.432  1.00  0.00     0.093 A 
ATOM      7  C   UNL     1       1.674 135.274 158.207  1.00  0.00     0.136 A 
ATOM      8  C   UNL     1       2.060 134.687 156.973  1.00  0.00     0.125 A 
ATOM      9  C   UNL     1       1.832 133.338 156.655  1.00  0.00     0.078 A 
ATOM     10  C   UNL     1       2.238 132.833 155.416  1.00  0.00     0.223 A 
ENDROOT
BRANCH   1  11
ATOM     11  C   UNL     1       3.367 133.226 153.188  1.00  0.00     0.087 A 
ATOM     12  C   UNL     1       2.439 132.762 152.245  1.00  0.00     0.022 A 
ATOM     13  C   UNL     1       2.865 132.337 150.986  1.00  0.00     0.051 A 
ATOM     14  C   UNL     1       4.219 132.380 150.636  1.00  0.00     0.157 A 
ATOM     15  C   UNL     1       4.726 133.291 152.835  1.00  0.00     0.068 A 
ATOM     16  C   UNL     1       5.161 132.870 151.571  1.00  0.00     0.158 A 
BRANCH  14  17
ATOM     17  O   UNL     1       4.579 131.933 149.364  1.00  0.00    -0.504 OA
ATOM     18  H   UNL     1       5.532 131.760 149.075  1.00  0.00     0.293 HD
ENDBRANCH  14  17
BRANCH  16  19
ATOM     19  O   UNL     1       6.526 132.962 151.288  1.00  0.00    -0.504 OA
ATOM     20  H   UNL     1       7.128 133.687 151.648  1.00  0.00     0.293 HD
ENDBRANCH  16  19
ENDBRANCH   1  11
BRANCH  10  21
ATOM     21  O   UNL     1       1.967 131.506 155.079  1.00  0.00    -0.500 OA
ATOM     22  H   UNL     1       1.754 130.811 155.785  1.00  0.00     0.294 HD
ENDBRANCH  10  21
BRANCH   5  23
ATOM     23  O   UNL     1       2.801 138.763 157.719  1.00  0.00    -0.507 OA
ATOM     24  H   UNL     1       2.671 139.469 157.004  1.00  0.00     0.293 HD
ENDBRANCH   5  23
BRANCH   7  25
ATOM     25  O   UNL     1       1.042 134.559 159.228  1.00  0.00    -0.507 OA
ATOM     26  H   UNL     1       0.200 134.015 159.108  1.00  0.00     0.293 HD
ENDBRANCH   7  25
TORSDOF 6
ENDMDL
MODEL 4
REMARK VINA RESULT:    10.829      1.116      2.889
REMARK INTER + INTRA:          13.445
REMARK INTER:                  13.079
REMARK INTRA:                   0.366
REMARK UNBOUND:                 0.399
REMARK SMILES Oc1cc(O)c2cc(O)c(-c3ccc(O)c(O)c3)[o+]c2c1.[Cl-]
REMARK SMILES IDX 10 1 19 2 20 3 21 4 2 5 3 6 4 7 6 8 7 9 8 10 11 11 12 12
REMARK SMILES IDX 13 13 14 14 18 15 16 16 15 17 17 19 9 21 1 23 5 25
REMARK H PARENT 15 18 17 20 9 22 1 24 5 26
REMARK Flexibility Score: inf
ROOT
ATOM      1  C   UNL     1       2.709 134.602 155.760  1.00  0.00     0.402 A 
ATOM      2  O   UNL     1       3.678 134.721 154.856  1.00  0.00    -0.202 OA
ATOM      3  C   UNL     1       3.904 133.819 153.906  1.00  0.00     0.368 A 
ATOM      4  C   UNL     1       4.946 134.035 152.999  1.00  0.00     0.162 A 
ATOM      5  C   UNL     1       5.204 133.105 151.987  1.00  0.00     0.128 A 
ATOM      6  C   UNL     1       4.418 131.956 151.883  1.00  0.00     0.093 A 
ATOM      7  C   UNL     1       3.368 131.717 152.779  1.00  0.00     0.136 A 
ATOM      8  C   UNL     1       3.103 132.657 153.809  1.00  0.00     0.125 A 
ATOM      9  C   UNL     1       2.082 132.494 154.759  1.00  0.00     0.078 A 
ATOM     10  C   UNL     1       1.884 133.462 155.748  1.00  0.00     0.223 A 
ENDROOT
BRANCH   1  11
ATOM     11  C   UNL     1       2.550 135.680 156.762  1.00  0.00     0.087 A 
ATOM     12  C   UNL     1       3.098 136.945 156.507  1.00  0.00     0.022 A 
ATOM     13  C   UNL     1       2.945 137.981 157.431  1.00  0.00     0.051 A 
ATOM     14  C   UNL     1       2.231 137.781 158.617  1.00  0.00     0.157 A 
ATOM     15  C   UNL     1       1.813 135.480 157.942  1.00  0.00     0.068 A 
ATOM     16  C   UNL     1       1.651 136.515 158.873  1.00  0.00     0.158 A 
BRANCH  14  17
ATOM     17  O   UNL     1       2.121 138.855 159.502  1.00  0.00    -0.504 OA
ATOM     18  H   UNL     1       2.611 139.731 159.390  1.00  0.00     0.293 HD
ENDBRANCH  14  17
BRANCH  16  19
ATOM     19  O   UNL     1       0.909 136.245 160.025  1.00  0.00    -0.504 OA
ATOM     20  H   UNL     1       0.209 135.520 160.087  1.00  0.00     0.293 HD
ENDBRANCH  16  19
ENDBRANCH   1  11
BRANCH  10  21
ATOM     21  O   UNL     1       0.902 133.277 156.722  1.00  0.00    -0.500 OA
ATOM     22  H   UNL     1       0.802 132.399 157.217  1.00  0.00     0.294 HD
ENDBRANCH  10  21
BRANCH   5  23
ATOM     23  O   UNL     1       6.241 133.312 151.080  1.00  0.00    -0.507 OA
ATOM     24  H   UNL     1       7.108 132.792 151.140  1.00  0.00     0.293 HD
ENDBRANCH   5  23
BRANCH   7  25
ATOM     25  O   UNL     1       2.626 130.545 152.604  1.00  0.00    -0.507 OA
ATOM     26  H   UNL     1       2.566 129.801 153.284  1.00  0.00     0.293 HD
ENDBRANCH   7  25
TORSDOF 6
ENDMDL
