MODEL 1
REMARK VINA RESULT:    -3.725      0.000      0.000
REMARK INTER + INTRA:          -4.168
REMARK INTER:                  -4.161
REMARK INTRA:                  -0.007
REMARK UNBOUND:                -0.007
REMARK SMILES CCCC(=O)[O-]
REMARK SMILES IDX 3 1 4 2 5 3 6 4 2 5 1 6
REMARK H PARENT
REMARK Flexibility Score: inf
ROOT
ATOM      1  C   UNL     1     -12.488   2.639  -9.463  1.00  0.00     0.052 C 
ENDROOT
BRANCH   1   2
ATOM      2  C   UNL     1     -12.174   3.834  -8.616  1.00  0.00     0.041 C 
ATOM      3  O   UNL     1     -11.044   3.944  -8.070  1.00  0.00    -0.550 OA
ATOM      4  O   UNL     1     -13.116   4.841  -8.458  1.00  0.00    -0.550 OA
ENDBRANCH   1   2
BRANCH   1   5
ATOM      5  C   UNL     1     -13.970   2.255  -9.375  1.00  0.00     0.003 C 
ATOM      6  C   UNL     1     -14.221   0.806  -9.791  1.00  0.00     0.004 C 
ENDBRANCH   1   5
TORSDOF 2
ENDMDL
MODEL 2
REMARK VINA RESULT:    -3.396      2.701      3.758
REMARK INTER + INTRA:          -3.800
REMARK INTER:                  -3.788
REMARK INTRA:                  -0.012
REMARK UNBOUND:                -0.007
REMARK SMILES CCCC(=O)[O-]
REMARK SMILES IDX 3 1 4 2 5 3 6 4 2 5 1 6
REMARK H PARENT
REMARK Flexibility Score: inf
ROOT
ATOM      1  C   UNL     1     -13.755   2.406  -9.445  1.00  0.00     0.052 C 
ENDROOT
BRANCH   1   2
ATOM      2  C   UNL     1     -13.530   0.943  -9.676  1.00  0.00     0.041 C 
ATOM      3  O   UNL     1     -14.510   0.152  -9.726  1.00  0.00    -0.550 OA
ATOM      4  O   UNL     1     -12.244   0.459  -9.868  1.00  0.00    -0.550 OA
ENDBRANCH   1   2
BRANCH   1   5
ATOM      5  C   UNL     1     -12.432   3.161  -9.266  1.00  0.00     0.003 C 
ATOM      6  C   UNL     1     -12.568   4.354  -8.321  1.00  0.00     0.004 C 
ENDBRANCH   1   5
TORSDOF 2
ENDMDL
MODEL 3
REMARK VINA RESULT:    -3.232      3.708      4.191
REMARK INTER + INTRA:          -3.617
REMARK INTER:                  -3.608
REMARK INTRA:                  -0.009
REMARK UNBOUND:                -0.007
REMARK SMILES CCCC(=O)[O-]
REMARK SMILES IDX 3 1 4 2 5 3 6 4 2 5 1 6
REMARK H PARENT
REMARK Flexibility Score: inf
ROOT
ATOM      1  C   UNL     1     -12.188   0.675  -9.761  1.00  0.00     0.052 C 
ENDROOT
BRANCH   1   2
ATOM      2  C   UNL     1     -11.534  -0.618 -10.142  1.00  0.00     0.041 C 
ATOM      3  O   UNL     1     -10.279  -0.711 -10.163  1.00  0.00    -0.550 OA
ATOM      4  O   UNL     1     -12.312  -1.728 -10.441  1.00  0.00    -0.550 OA
ENDBRANCH   1   2
BRANCH   1   5
ATOM      5  C   UNL     1     -13.711   0.611  -9.925  1.00  0.00     0.003 C 
ATOM      6  C   UNL     1     -14.395   1.915  -9.517  1.00  0.00     0.004 C 
ENDBRANCH   1   5
TORSDOF 2
ENDMDL
MODEL 4
REMARK VINA RESULT:    -3.200      3.323      3.778
REMARK INTER + INTRA:          -3.581
REMARK INTER:                  -3.555
REMARK INTRA:                  -0.027
REMARK UNBOUND:                -0.007
REMARK SMILES CCCC(=O)[O-]
REMARK SMILES IDX 3 1 4 2 5 3 6 4 2 5 1 6
REMARK H PARENT
REMARK Flexibility Score: inf
ROOT
ATOM      1  C   UNL     1     -12.274   0.928  -9.691  1.00  0.00     0.052 C 
ENDROOT
BRANCH   1   2
ATOM      2  C   UNL     1     -13.771   0.948  -9.729  1.00  0.00     0.041 C 
ATOM      3  O   UNL     1     -14.419  -0.132  -9.721  1.00  0.00    -0.550 OA
ATOM      4  O   UNL     1     -14.451   2.158  -9.739  1.00  0.00    -0.550 OA
ENDBRANCH   1   2
BRANCH   1   5
ATOM      5  C   UNL     1     -11.704  -0.295 -10.420  1.00  0.00     0.003 C 
ATOM      6  C   UNL     1     -10.581  -0.970  -9.633  1.00  0.00     0.004 C 
ENDBRANCH   1   5
TORSDOF 2
ENDMDL
MODEL 5
REMARK VINA RESULT:    -3.137      3.003      3.436
REMARK INTER + INTRA:          -3.511
REMARK INTER:                  -3.470
REMARK INTRA:                  -0.041
REMARK UNBOUND:                -0.007
REMARK SMILES CCCC(=O)[O-]
REMARK SMILES IDX 3 1 4 2 5 3 6 4 2 5 1 6
REMARK H PARENT
REMARK Flexibility Score: inf
ROOT
ATOM      1  C   UNL     1     -12.482  -0.687 -10.680  1.00  0.00     0.052 C 
ENDROOT
BRANCH   1   2
ATOM      2  C   UNL     1     -11.716   0.232  -9.778  1.00  0.00     0.041 C 
ATOM      3  O   UNL     1     -10.622  -0.140  -9.276  1.00  0.00    -0.550 OA
ATOM      4  O   UNL     1     -12.194   1.510  -9.518  1.00  0.00    -0.550 OA
ENDBRANCH   1   2
BRANCH   1   5
ATOM      5  C   UNL     1     -13.965  -0.304 -10.752  1.00  0.00     0.003 C 
ATOM      6  C   UNL     1     -14.816  -1.084  -9.750  1.00  0.00     0.004 C 
ENDBRANCH   1   5
TORSDOF 2
ENDMDL
MODEL 6
REMARK VINA RESULT:    -3.089      1.520      2.163
REMARK INTER + INTRA:          -3.457
REMARK INTER:                  -3.530
REMARK INTRA:                   0.074
REMARK UNBOUND:                -0.007
REMARK SMILES CCCC(=O)[O-]
REMARK SMILES IDX 3 1 4 2 5 3 6 4 2 5 1 6
REMARK H PARENT
REMARK Flexibility Score: inf
ROOT
ATOM      1  C   UNL     1     -13.970   2.114  -9.715  1.00  0.00     0.052 C 
ENDROOT
BRANCH   1   2
ATOM      2  C   UNL     1     -12.522   2.340  -9.401  1.00  0.00     0.041 C 
ATOM      3  O   UNL     1     -12.115   3.488  -9.080  1.00  0.00    -0.550 OA
ATOM      4  O   UNL     1     -11.631   1.276  -9.430  1.00  0.00    -0.550 OA
ENDBRANCH   1   2
BRANCH   1   5
ATOM      5  C   UNL     1     -14.415   0.694  -9.348  1.00  0.00     0.003 C 
ATOM      6  C   UNL     1     -14.277  -0.280 -10.518  1.00  0.00     0.004 C 
ENDBRANCH   1   5
TORSDOF 2
ENDMDL
MODEL 7
REMARK VINA RESULT:    -3.075      5.068      5.791
REMARK INTER + INTRA:          -3.441
REMARK INTER:                  -3.420
REMARK INTRA:                  -0.021
REMARK UNBOUND:                -0.007
REMARK SMILES CCCC(=O)[O-]
REMARK SMILES IDX 3 1 4 2 5 3 6 4 2 5 1 6
REMARK H PARENT
REMARK Flexibility Score: inf
ROOT
ATOM      1  C   UNL     1     -10.562  -0.828  -9.635  1.00  0.00     0.052 C 
ENDROOT
BRANCH   1   2
ATOM      2  C   UNL     1     -10.494  -2.325  -9.615  1.00  0.00     0.041 C 
ATOM      3  O   UNL     1     -11.553  -3.007  -9.633  1.00  0.00    -0.550 OA
ATOM      4  O   UNL     1      -9.262  -2.965  -9.610  1.00  0.00    -0.550 OA
ENDBRANCH   1   2
BRANCH   1   5
ATOM      5  C   UNL     1     -11.818  -0.327 -10.357  1.00  0.00     0.003 C 
ATOM      6  C   UNL     1     -12.399   0.929  -9.709  1.00  0.00     0.004 C 
ENDBRANCH   1   5
TORSDOF 2
ENDMDL
MODEL 8
REMARK VINA RESULT:    -3.035      8.569      9.247
REMARK INTER + INTRA:          -3.397
REMARK INTER:                  -3.361
REMARK INTRA:                  -0.036
REMARK UNBOUND:                -0.007
REMARK SMILES CCCC(=O)[O-]
REMARK SMILES IDX 3 1 4 2 5 3 6 4 2 5 1 6
REMARK H PARENT
REMARK Flexibility Score: inf
ROOT
ATOM      1  C   UNL     1     -10.295  -4.495  -6.947  1.00  0.00     0.052 C 
ENDROOT
BRANCH   1   2
ATOM      2  C   UNL     1      -9.509  -5.050  -8.095  1.00  0.00     0.041 C 
ATOM      3  O   UNL     1      -8.455  -4.477  -8.478  1.00  0.00    -0.550 OA
ATOM      4  O   UNL     1      -9.924  -6.218  -8.721  1.00  0.00    -0.550 OA
ENDBRANCH   1   2
BRANCH   1   5
ATOM      5  C   UNL     1     -10.420  -5.508  -5.803  1.00  0.00     0.003 C 
ATOM      6  C   UNL     1     -11.870  -5.914  -5.542  1.00  0.00     0.004 C 
ENDBRANCH   1   5
TORSDOF 2
ENDMDL
MODEL 9
REMARK VINA RESULT:    -2.993      2.539      3.600
REMARK INTER + INTRA:          -3.350
REMARK INTER:                  -3.313
REMARK INTRA:                  -0.037
REMARK UNBOUND:                -0.007
REMARK SMILES CCCC(=O)[O-]
REMARK SMILES IDX 3 1 4 2 5 3 6 4 2 5 1 6
REMARK H PARENT
REMARK Flexibility Score: inf
ROOT
ATOM      1  C   UNL     1     -14.293  -0.171  -9.980  1.00  0.00     0.052 C 
ENDROOT
BRANCH   1   2
ATOM      2  C   UNL     1     -13.707   1.184  -9.723  1.00  0.00     0.041 C 
ATOM      3  O   UNL     1     -14.457   2.192  -9.633  1.00  0.00    -0.550 OA
ATOM      4  O   UNL     1     -12.337   1.328  -9.551  1.00  0.00    -0.550 OA
ENDBRANCH   1   2
BRANCH   1   5
ATOM      5  C   UNL     1     -13.480  -0.953 -11.019  1.00  0.00     0.003 C 
ATOM      6  C   UNL     1     -12.710  -2.118 -10.397  1.00  0.00     0.004 C 
ENDBRANCH   1   5
TORSDOF 2
ENDMDL
