MODEL 1
REMARK VINA RESULT:    -5.784      0.000      0.000
REMARK INTER + INTRA:         -12.112
REMARK INTER:                 -10.518
REMARK INTRA:                  -1.594
REMARK UNBOUND:                -1.594
REMARK SMILES CCCCCCCCCCCCCC[C@H](C)C(=O)[O-]
REMARK SMILES IDX 9 1 10 2 11 3 12 4 13 5 14 6 15 7 16 8 17 9 18 10 19 11 8 12
REMARK SMILES IDX 7 13 6 14 5 15 4 16 3 17 2 18 1 19
REMARK H PARENT
REMARK Flexibility Score: inf
ROOT
ATOM      1  C   UNL     1      20.335   9.164  45.292  1.00  0.00     0.000 C 
ENDROOT
BRANCH   1   2
ATOM      2  C   UNL     1      20.618  10.543  45.912  1.00  0.00     0.000 C 
BRANCH   2   3
ATOM      3  C   UNL     1      19.392  11.471  45.866  1.00  0.00     0.000 C 
BRANCH   3   4
ATOM      4  C   UNL     1      19.767  12.925  45.529  1.00  0.00     0.000 C 
BRANCH   4   5
ATOM      5  C   UNL     1      20.050  13.131  44.031  1.00  0.00     0.001 C 
BRANCH   5   6
ATOM      6  C   UNL     1      20.206  14.615  43.654  1.00  0.00     0.009 C 
BRANCH   6   7
ATOM      7  C   UNL     1      20.822  14.795  42.251  1.00  0.00     0.032 C 
ATOM      8  C   UNL     1      22.283  14.331  42.239  1.00  0.00     0.014 C 
BRANCH   7   9
ATOM      9  C   UNL     1      20.744  16.228  41.798  1.00  0.00     0.044 C 
ATOM     10  O   UNL     1      21.637  16.704  41.049  1.00  0.00    -0.550 OA
ATOM     11  O   UNL     1      19.689  17.038  42.206  1.00  0.00    -0.550 OA
ENDBRANCH   7   9
ENDBRANCH   6   7
ENDBRANCH   5   6
ENDBRANCH   4   5
ENDBRANCH   3   4
ENDBRANCH   2   3
ENDBRANCH   1   2
BRANCH   1  12
ATOM     12  C   UNL     1      20.961   8.998  43.896  1.00  0.00     0.000 C 
BRANCH  12  13
ATOM     13  C   UNL     1      22.104   9.982  43.567  1.00  0.00    -0.000 C 
BRANCH  13  14
ATOM     14  C   UNL     1      22.047  10.601  42.159  1.00  0.00    -0.000 C 
BRANCH  14  15
ATOM     15  C   UNL     1      20.635  10.585  41.555  1.00  0.00    -0.000 C 
BRANCH  15  16
ATOM     16  C   UNL     1      20.563   9.639  40.347  1.00  0.00    -0.000 C 
BRANCH  16  17
ATOM     17  C   UNL     1      19.208   9.730  39.613  1.00  0.00    -0.000 C 
BRANCH  17  18
ATOM     18  C   UNL     1      18.570   8.360  39.328  1.00  0.00    -0.003 C 
ATOM     19  C   UNL     1      17.201   8.189  39.982  1.00  0.00     0.004 C 
ENDBRANCH  17  18
ENDBRANCH  16  17
ENDBRANCH  15  16
ENDBRANCH  14  15
ENDBRANCH  13  14
ENDBRANCH  12  13
ENDBRANCH   1  12
TORSDOF 14
ENDMDL
MODEL 2
REMARK VINA RESULT:    -5.628     10.486     12.689
REMARK INTER + INTRA:         -11.828
REMARK INTER:                 -10.440
REMARK INTRA:                  -1.389
REMARK UNBOUND:                -1.594
REMARK SMILES CCCCCCCCCCCCCC[C@H](C)C(=O)[O-]
REMARK SMILES IDX 9 1 10 2 11 3 12 4 13 5 14 6 15 7 16 8 17 9 18 10 19 11 8 12
REMARK SMILES IDX 7 13 6 14 5 15 4 16 3 17 2 18 1 19
REMARK H PARENT
REMARK Flexibility Score: inf
ROOT
ATOM      1  C   UNL     1       8.599   9.992  39.256  1.00  0.00     0.000 C 
ENDROOT
BRANCH   1   2
ATOM      2  C   UNL     1       9.778  10.730  38.600  1.00  0.00     0.000 C 
BRANCH   2   3
ATOM      3  C   UNL     1       9.734  12.247  38.848  1.00  0.00     0.000 C 
BRANCH   3   4
ATOM      4  C   UNL     1       9.050  12.606  40.179  1.00  0.00     0.000 C 
BRANCH   4   5
ATOM      5  C   UNL     1       9.302  14.064  40.600  1.00  0.00     0.001 C 
BRANCH   5   6
ATOM      6  C   UNL     1       8.923  14.334  42.068  1.00  0.00     0.009 C 
BRANCH   6   7
ATOM      7  C   UNL     1       7.799  15.384  42.192  1.00  0.00     0.032 C 
ATOM      8  C   UNL     1       8.155  16.433  43.251  1.00  0.00     0.014 C 
BRANCH   7   9
ATOM      9  C   UNL     1       6.484  14.740  42.541  1.00  0.00     0.044 C 
ATOM     10  O   UNL     1       5.669  15.334  43.295  1.00  0.00    -0.550 OA
ATOM     11  O   UNL     1       6.161  13.483  42.040  1.00  0.00    -0.550 OA
ENDBRANCH   7   9
ENDBRANCH   6   7
ENDBRANCH   5   6
ENDBRANCH   4   5
ENDBRANCH   3   4
ENDBRANCH   2   3
ENDBRANCH   1   2
BRANCH   1  12
ATOM     12  C   UNL     1       9.011   8.649  39.885  1.00  0.00     0.000 C 
BRANCH  12  13
ATOM     13  C   UNL     1       8.673   8.494  41.383  1.00  0.00    -0.000 C 
BRANCH  13  14
ATOM     14  C   UNL     1       7.977   9.707  42.024  1.00  0.00    -0.000 C 
BRANCH  14  15
ATOM     15  C   UNL     1       8.796  10.334  43.162  1.00  0.00    -0.000 C 
BRANCH  15  16
ATOM     16  C   UNL     1       8.391   9.743  44.521  1.00  0.00    -0.000 C 
BRANCH  16  17
ATOM     17  C   UNL     1       9.614   9.423  45.407  1.00  0.00    -0.000 C 
BRANCH  17  18
ATOM     18  C   UNL     1      10.572   8.393  44.785  1.00  0.00    -0.003 C 
ATOM     19  C   UNL     1      11.965   8.417  45.409  1.00  0.00     0.004 C 
ENDBRANCH  17  18
ENDBRANCH  16  17
ENDBRANCH  15  16
ENDBRANCH  14  15
ENDBRANCH  13  14
ENDBRANCH  12  13
ENDBRANCH   1  12
TORSDOF 14
ENDMDL
MODEL 3
REMARK VINA RESULT:    -5.455      9.910     12.398
REMARK INTER + INTRA:         -11.514
REMARK INTER:                 -10.008
REMARK INTRA:                  -1.506
REMARK UNBOUND:                -1.594
REMARK SMILES CCCCCCCCCCCCCC[C@H](C)C(=O)[O-]
REMARK SMILES IDX 9 1 10 2 11 3 12 4 13 5 14 6 15 7 16 8 17 9 18 10 19 11 8 12
REMARK SMILES IDX 7 13 6 14 5 15 4 16 3 17 2 18 1 19
REMARK H PARENT
REMARK Flexibility Score: inf
ROOT
ATOM      1  C   UNL     1       7.723   9.814  40.089  1.00  0.00     0.000 C 
ENDROOT
BRANCH   1   2
ATOM      2  C   UNL     1       9.038  10.584  40.303  1.00  0.00     0.000 C 
BRANCH   2   3
ATOM      3  C   UNL     1       9.654  11.073  38.982  1.00  0.00     0.000 C 
BRANCH   3   4
ATOM      4  C   UNL     1       9.835  12.601  38.947  1.00  0.00     0.000 C 
BRANCH   4   5
ATOM      5  C   UNL     1       8.904  13.329  39.932  1.00  0.00     0.001 C 
BRANCH   5   6
ATOM      6  C   UNL     1       9.671  14.227  40.921  1.00  0.00     0.009 C 
BRANCH   6   7
ATOM      7  C   UNL     1       8.962  14.320  42.289  1.00  0.00     0.032 C 
ATOM      8  C   UNL     1       7.692  13.462  42.298  1.00  0.00     0.014 C 
BRANCH   7   9
ATOM      9  C   UNL     1       8.613  15.744  42.628  1.00  0.00     0.044 C 
ATOM     10  O   UNL     1       7.650  15.991  43.401  1.00  0.00    -0.550 OA
ATOM     11  O   UNL     1       9.345  16.795  42.088  1.00  0.00    -0.550 OA
ENDBRANCH   7   9
ENDBRANCH   6   7
ENDBRANCH   5   6
ENDBRANCH   4   5
ENDBRANCH   3   4
ENDBRANCH   2   3
ENDBRANCH   1   2
BRANCH   1  12
ATOM     12  C   UNL     1       7.705   8.454  40.809  1.00  0.00     0.000 C 
BRANCH  12  13
ATOM     13  C   UNL     1       6.752   8.363  42.019  1.00  0.00    -0.000 C 
BRANCH  13  14
ATOM     14  C   UNL     1       7.433   8.052  43.364  1.00  0.00    -0.000 C 
BRANCH  14  15
ATOM     15  C   UNL     1       8.898   8.509  43.412  1.00  0.00    -0.000 C 
BRANCH  15  16
ATOM     16  C   UNL     1       9.018   9.914  44.020  1.00  0.00    -0.000 C 
BRANCH  16  17
ATOM     17  C   UNL     1      10.070   9.975  45.148  1.00  0.00    -0.000 C 
BRANCH  17  18
ATOM     18  C   UNL     1      10.565   8.591  45.603  1.00  0.00    -0.003 C 
ATOM     19  C   UNL     1      12.054   8.372  45.341  1.00  0.00     0.004 C 
ENDBRANCH  17  18
ENDBRANCH  16  17
ENDBRANCH  15  16
ENDBRANCH  14  15
ENDBRANCH  13  14
ENDBRANCH  12  13
ENDBRANCH   1  12
TORSDOF 14
ENDMDL
MODEL 4
REMARK VINA RESULT:    -5.380     10.600     13.166
REMARK INTER + INTRA:         -11.378
REMARK INTER:                  -9.647
REMARK INTRA:                  -1.731
REMARK UNBOUND:                -1.594
REMARK SMILES CCCCCCCCCCCCCC[C@H](C)C(=O)[O-]
REMARK SMILES IDX 9 1 10 2 11 3 12 4 13 5 14 6 15 7 16 8 17 9 18 10 19 11 8 12
REMARK SMILES IDX 7 13 6 14 5 15 4 16 3 17 2 18 1 19
REMARK H PARENT
REMARK Flexibility Score: inf
ROOT
ATOM      1  C   UNL     1       8.301  13.622  41.986  1.00  0.00     0.000 C 
ENDROOT
BRANCH   1   2
ATOM      2  C   UNL     1       8.607  14.017  40.531  1.00  0.00     0.000 C 
BRANCH   2   3
ATOM      3  C   UNL     1       9.901  13.372  40.006  1.00  0.00     0.000 C 
BRANCH   3   4
ATOM      4  C   UNL     1       9.706  12.686  38.643  1.00  0.00     0.000 C 
BRANCH   4   5
ATOM      5  C   UNL     1      10.117  11.204  38.663  1.00  0.00     0.001 C 
BRANCH   5   6
ATOM      6  C   UNL     1       8.941  10.256  38.367  1.00  0.00     0.009 C 
BRANCH   6   7
ATOM      7  C   UNL     1       8.442   9.536  39.637  1.00  0.00     0.032 C 
ATOM      8  C   UNL     1       9.314   8.314  39.943  1.00  0.00     0.014 C 
BRANCH   7   9
ATOM      9  C   UNL     1       7.005   9.110  39.497  1.00  0.00     0.044 C 
ATOM     10  O   UNL     1       6.721   7.897  39.320  1.00  0.00    -0.550 OA
ATOM     11  O   UNL     1       5.984  10.052  39.557  1.00  0.00    -0.550 OA
ENDBRANCH   7   9
ENDBRANCH   6   7
ENDBRANCH   5   6
ENDBRANCH   4   5
ENDBRANCH   3   4
ENDBRANCH   2   3
ENDBRANCH   1   2
BRANCH   1  12
ATOM     12  C   UNL     1       7.684  12.217  42.105  1.00  0.00     0.000 C 
BRANCH  12  13
ATOM     13  C   UNL     1       8.581  11.161  42.785  1.00  0.00    -0.000 C 
BRANCH  13  14
ATOM     14  C   UNL     1       7.836  10.142  43.666  1.00  0.00    -0.000 C 
BRANCH  14  15
ATOM     15  C   UNL     1       8.085   8.688  43.241  1.00  0.00    -0.000 C 
BRANCH  15  16
ATOM     16  C   UNL     1       9.291   8.096  43.987  1.00  0.00    -0.000 C 
BRANCH  16  17
ATOM     17  C   UNL     1       9.534   8.786  45.346  1.00  0.00    -0.000 C 
BRANCH  17  18
ATOM     18  C   UNL     1      10.985   9.257  45.545  1.00  0.00    -0.003 C 
ATOM     19  C   UNL     1      12.014   8.282  44.979  1.00  0.00     0.004 C 
ENDBRANCH  17  18
ENDBRANCH  16  17
ENDBRANCH  15  16
ENDBRANCH  14  15
ENDBRANCH  13  14
ENDBRANCH  12  13
ENDBRANCH   1  12
TORSDOF 14
ENDMDL
MODEL 5
REMARK VINA RESULT:    -5.340     10.499     12.581
REMARK INTER + INTRA:         -11.306
REMARK INTER:                  -9.655
REMARK INTRA:                  -1.650
REMARK UNBOUND:                -1.594
REMARK SMILES CCCCCCCCCCCCCC[C@H](C)C(=O)[O-]
REMARK SMILES IDX 9 1 10 2 11 3 12 4 13 5 14 6 15 7 16 8 17 9 18 10 19 11 8 12
REMARK SMILES IDX 7 13 6 14 5 15 4 16 3 17 2 18 1 19
REMARK H PARENT
REMARK Flexibility Score: inf
ROOT
ATOM      1  C   UNL     1       9.783  11.041  39.214  1.00  0.00     0.000 C 
ENDROOT
BRANCH   1   2
ATOM      2  C   UNL     1       9.614  12.542  38.926  1.00  0.00     0.000 C 
BRANCH   2   3
ATOM      3  C   UNL     1       9.193  13.337  40.173  1.00  0.00     0.000 C 
BRANCH   3   4
ATOM      4  C   UNL     1       8.958  12.433  41.396  1.00  0.00     0.000 C 
BRANCH   4   5
ATOM      5  C   UNL     1       7.708  12.835  42.197  1.00  0.00     0.001 C 
BRANCH   5   6
ATOM      6  C   UNL     1       7.161  14.216  41.792  1.00  0.00     0.009 C 
BRANCH   6   7
ATOM      7  C   UNL     1       7.425  15.284  42.873  1.00  0.00     0.032 C 
ATOM      8  C   UNL     1       6.105  15.849  43.408  1.00  0.00     0.014 C 
BRANCH   7   9
ATOM      9  C   UNL     1       8.275  16.405  42.339  1.00  0.00     0.044 C 
ATOM     10  O   UNL     1       9.518  16.250  42.213  1.00  0.00    -0.550 OA
ATOM     11  O   UNL     1       7.697  17.620  41.988  1.00  0.00    -0.550 OA
ENDBRANCH   7   9
ENDBRANCH   6   7
ENDBRANCH   5   6
ENDBRANCH   4   5
ENDBRANCH   3   4
ENDBRANCH   2   3
ENDBRANCH   1   2
BRANCH   1  12
ATOM     12  C   UNL     1       8.648  10.188  38.620  1.00  0.00     0.000 C 
BRANCH  12  13
ATOM     13  C   UNL     1       7.797   9.415  39.650  1.00  0.00    -0.000 C 
BRANCH  13  14
ATOM     14  C   UNL     1       8.601   8.626  40.699  1.00  0.00    -0.000 C 
BRANCH  14  15
ATOM     15  C   UNL     1       8.076   8.826  42.128  1.00  0.00    -0.000 C 
BRANCH  15  16
ATOM     16  C   UNL     1       9.210   8.690  43.155  1.00  0.00    -0.000 C 
BRANCH  16  17
ATOM     17  C   UNL     1       9.193   9.827  44.199  1.00  0.00    -0.000 C 
BRANCH  17  18
ATOM     18  C   UNL     1      10.025   9.521  45.456  1.00  0.00    -0.003 C 
ATOM     19  C   UNL     1      11.146   8.516  45.201  1.00  0.00     0.004 C 
ENDBRANCH  17  18
ENDBRANCH  16  17
ENDBRANCH  15  16
ENDBRANCH  14  15
ENDBRANCH  13  14
ENDBRANCH  12  13
ENDBRANCH   1  12
TORSDOF 14
ENDMDL
MODEL 6
REMARK VINA RESULT:    -5.309     10.712     12.614
REMARK INTER + INTRA:         -11.249
REMARK INTER:                  -9.106
REMARK INTRA:                  -2.143
REMARK UNBOUND:                -1.594
REMARK SMILES CCCCCCCCCCCCCC[C@H](C)C(=O)[O-]
REMARK SMILES IDX 9 1 10 2 11 3 12 4 13 5 14 6 15 7 16 8 17 9 18 10 19 11 8 12
REMARK SMILES IDX 7 13 6 14 5 15 4 16 3 17 2 18 1 19
REMARK H PARENT
REMARK Flexibility Score: inf
ROOT
ATOM      1  C   UNL     1       8.897  13.871  41.876  1.00  0.00     0.000 C 
ENDROOT
BRANCH   1   2
ATOM      2  C   UNL     1       7.417  13.511  41.666  1.00  0.00     0.000 C 
BRANCH   2   3
ATOM      3  C   UNL     1       7.040  12.170  42.318  1.00  0.00     0.000 C 
BRANCH   3   4
ATOM      4  C   UNL     1       8.271  11.381  42.796  1.00  0.00     0.000 C 
BRANCH   4   5
ATOM      5  C   UNL     1       7.901  10.020  43.410  1.00  0.00     0.001 C 
BRANCH   5   6
ATOM      6  C   UNL     1       9.050   8.999  43.332  1.00  0.00     0.009 C 
BRANCH   6   7
ATOM      7  C   UNL     1       9.440   8.457  44.724  1.00  0.00     0.032 C 
ATOM      8  C   UNL     1       8.321   8.718  45.738  1.00  0.00     0.014 C 
BRANCH   7   9
ATOM      9  C   UNL     1      10.721   9.076  45.214  1.00  0.00     0.044 C 
ATOM     10  O   UNL     1      10.785  10.316  45.420  1.00  0.00    -0.550 OA
ATOM     11  O   UNL     1      11.843   8.286  45.436  1.00  0.00    -0.550 OA
ENDBRANCH   7   9
ENDBRANCH   6   7
ENDBRANCH   5   6
ENDBRANCH   4   5
ENDBRANCH   3   4
ENDBRANCH   2   3
ENDBRANCH   1   2
BRANCH   1  12
ATOM     12  C   UNL     1       9.684  13.949  40.555  1.00  0.00     0.000 C 
BRANCH  12  13
ATOM     13  C   UNL     1       9.095  13.128  39.389  1.00  0.00    -0.000 C 
BRANCH  13  14
ATOM     14  C   UNL     1      10.127  12.357  38.547  1.00  0.00    -0.000 C 
BRANCH  14  15
ATOM     15  C   UNL     1       9.790  10.865  38.406  1.00  0.00    -0.000 C 
BRANCH  15  16
ATOM     16  C   UNL     1       9.333  10.275  39.748  1.00  0.00    -0.000 C 
BRANCH  16  17
ATOM     17  C   UNL     1       8.730   8.862  39.591  1.00  0.00    -0.000 C 
BRANCH  17  18
ATOM     18  C   UNL     1       7.256   8.771  40.021  1.00  0.00    -0.003 C 
ATOM     19  C   UNL     1       6.357   9.768  39.293  1.00  0.00     0.004 C 
ENDBRANCH  17  18
ENDBRANCH  16  17
ENDBRANCH  15  16
ENDBRANCH  14  15
ENDBRANCH  13  14
ENDBRANCH  12  13
ENDBRANCH   1  12
TORSDOF 14
ENDMDL
MODEL 7
REMARK VINA RESULT:    -5.216      1.463      2.471
REMARK INTER + INTRA:         -11.080
REMARK INTER:                  -9.708
REMARK INTRA:                  -1.371
REMARK UNBOUND:                -1.594
REMARK SMILES CCCCCCCCCCCCCC[C@H](C)C(=O)[O-]
REMARK SMILES IDX 9 1 10 2 11 3 12 4 13 5 14 6 15 7 16 8 17 9 18 10 19 11 8 12
REMARK SMILES IDX 7 13 6 14 5 15 4 16 3 17 2 18 1 19
REMARK H PARENT
REMARK Flexibility Score: inf
ROOT
ATOM      1  C   UNL     1      19.509  11.234  46.058  1.00  0.00     0.000 C 
ENDROOT
BRANCH   1   2
ATOM      2  C   UNL     1      19.621  12.749  45.811  1.00  0.00     0.000 C 
BRANCH   2   3
ATOM      3  C   UNL     1      19.700  13.096  44.314  1.00  0.00     0.000 C 
BRANCH   3   4
ATOM      4  C   UNL     1      21.028  13.775  43.937  1.00  0.00     0.000 C 
BRANCH   4   5
ATOM      5  C   UNL     1      21.254  13.828  42.417  1.00  0.00     0.001 C 
BRANCH   5   6
ATOM      6  C   UNL     1      22.622  14.425  42.039  1.00  0.00     0.009 C 
BRANCH   6   7
ATOM      7  C   UNL     1      22.579  15.966  41.954  1.00  0.00     0.032 C 
ATOM      8  C   UNL     1      21.342  16.429  41.178  1.00  0.00     0.014 C 
BRANCH   7   9
ATOM      9  C   UNL     1      23.820  16.513  41.302  1.00  0.00     0.044 C 
ATOM     10  O   UNL     1      24.192  17.692  41.542  1.00  0.00    -0.550 OA
ATOM     11  O   UNL     1      24.560  15.726  40.427  1.00  0.00    -0.550 OA
ENDBRANCH   7   9
ENDBRANCH   6   7
ENDBRANCH   5   6
ENDBRANCH   4   5
ENDBRANCH   3   4
ENDBRANCH   2   3
ENDBRANCH   1   2
BRANCH   1  12
ATOM     12  C   UNL     1      20.663  10.439  45.422  1.00  0.00     0.000 C 
BRANCH  12  13
ATOM     13  C   UNL     1      20.287   9.036  44.903  1.00  0.00    -0.000 C 
BRANCH  13  14
ATOM     14  C   UNL     1      20.655   8.763  43.434  1.00  0.00    -0.000 C 
BRANCH  14  15
ATOM     15  C   UNL     1      21.053  10.035  42.671  1.00  0.00    -0.000 C 
BRANCH  15  16
ATOM     16  C   UNL     1      20.313  10.126  41.328  1.00  0.00    -0.000 C 
BRANCH  16  17
ATOM     17  C   UNL     1      20.173   8.749  40.643  1.00  0.00    -0.000 C 
BRANCH  17  18
ATOM     18  C   UNL     1      19.251   8.766  39.411  1.00  0.00    -0.003 C 
ATOM     19  C   UNL     1      17.853   8.225  39.702  1.00  0.00     0.004 C 
ENDBRANCH  17  18
ENDBRANCH  16  17
ENDBRANCH  15  16
ENDBRANCH  14  15
ENDBRANCH  13  14
ENDBRANCH  12  13
ENDBRANCH   1  12
TORSDOF 14
ENDMDL
MODEL 8
REMARK VINA RESULT:    -5.203      2.919      5.969
REMARK INTER + INTRA:         -11.056
REMARK INTER:                  -9.405
REMARK INTRA:                  -1.651
REMARK UNBOUND:                -1.594
REMARK SMILES CCCCCCCCCCCCCC[C@H](C)C(=O)[O-]
REMARK SMILES IDX 9 1 10 2 11 3 12 4 13 5 14 6 15 7 16 8 17 9 18 10 19 11 8 12
REMARK SMILES IDX 7 13 6 14 5 15 4 16 3 17 2 18 1 19
REMARK H PARENT
REMARK Flexibility Score: inf
ROOT
ATOM      1  C   UNL     1      19.384  11.901  45.883  1.00  0.00     0.000 C 
ENDROOT
BRANCH   1   2
ATOM      2  C   UNL     1      20.228  10.638  46.123  1.00  0.00     0.000 C 
BRANCH   2   3
ATOM      3  C   UNL     1      20.022   9.577  45.029  1.00  0.00     0.000 C 
BRANCH   3   4
ATOM      4  C   UNL     1      21.217   9.489  44.062  1.00  0.00     0.000 C 
BRANCH   4   5
ATOM      5  C   UNL     1      20.904   8.652  42.810  1.00  0.00     0.001 C 
BRANCH   5   6
ATOM      6  C   UNL     1      20.410   9.509  41.630  1.00  0.00     0.009 C 
BRANCH   6   7
ATOM      7  C   UNL     1      20.153   8.662  40.366  1.00  0.00     0.032 C 
ATOM      8  C   UNL     1      21.293   8.838  39.357  1.00  0.00     0.014 C 
BRANCH   7   9
ATOM      9  C   UNL     1      18.844   9.027  39.719  1.00  0.00     0.044 C 
ATOM     10  O   UNL     1      18.574  10.232  39.476  1.00  0.00    -0.550 OA
ATOM     11  O   UNL     1      17.923   8.038  39.390  1.00  0.00    -0.550 OA
ENDBRANCH   7   9
ENDBRANCH   6   7
ENDBRANCH   5   6
ENDBRANCH   4   5
ENDBRANCH   3   4
ENDBRANCH   2   3
ENDBRANCH   1   2
BRANCH   1  12
ATOM     12  C   UNL     1      20.210  13.073  45.322  1.00  0.00     0.000 C 
BRANCH  12  13
ATOM     13  C   UNL     1      19.603  13.774  44.089  1.00  0.00    -0.000 C 
BRANCH  13  14
ATOM     14  C   UNL     1      20.179  13.328  42.734  1.00  0.00    -0.000 C 
BRANCH  14  15
ATOM     15  C   UNL     1      21.660  12.930  42.816  1.00  0.00    -0.000 C 
BRANCH  15  16
ATOM     16  C   UNL     1      22.569  14.161  42.676  1.00  0.00    -0.000 C 
BRANCH  16  17
ATOM     17  C   UNL     1      22.016  15.185  41.662  1.00  0.00    -0.000 C 
BRANCH  17  18
ATOM     18  C   UNL     1      21.726  16.565  42.276  1.00  0.00    -0.003 C 
ATOM     19  C   UNL     1      20.248  16.944  42.228  1.00  0.00     0.004 C 
ENDBRANCH  17  18
ENDBRANCH  16  17
ENDBRANCH  15  16
ENDBRANCH  14  15
ENDBRANCH  13  14
ENDBRANCH  12  13
ENDBRANCH   1  12
TORSDOF 14
ENDMDL
MODEL 9
REMARK VINA RESULT:    -5.147     11.043     13.541
REMARK INTER + INTRA:         -10.955
REMARK INTER:                  -9.349
REMARK INTRA:                  -1.605
REMARK UNBOUND:                -1.594
REMARK SMILES CCCCCCCCCCCCCC[C@H](C)C(=O)[O-]
REMARK SMILES IDX 9 1 10 2 11 3 12 4 13 5 14 6 15 7 16 8 17 9 18 10 19 11 8 12
REMARK SMILES IDX 7 13 6 14 5 15 4 16 3 17 2 18 1 19
REMARK H PARENT
REMARK Flexibility Score: inf
ROOT
ATOM      1  C   UNL     1       8.989  12.400  40.659  1.00  0.00     0.000 C 
ENDROOT
BRANCH   1   2
ATOM      2  C   UNL     1       8.607  11.963  42.083  1.00  0.00     0.000 C 
BRANCH   2   3
ATOM      3  C   UNL     1       7.449  10.950  42.096  1.00  0.00     0.000 C 
BRANCH   3   4
ATOM      4  C   UNL     1       7.915   9.519  41.777  1.00  0.00     0.000 C 
BRANCH   4   5
ATOM      5  C   UNL     1       7.905   8.604  43.013  1.00  0.00     0.001 C 
BRANCH   5   6
ATOM      6  C   UNL     1       9.321   8.255  43.506  1.00  0.00     0.009 C 
BRANCH   6   7
ATOM      7  C   UNL     1       9.465   8.431  45.032  1.00  0.00     0.032 C 
ATOM      8  C   UNL     1       8.273   9.208  45.600  1.00  0.00     0.014 C 
BRANCH   7   9
ATOM      9  C   UNL     1      10.745   9.140  45.384  1.00  0.00     0.044 C 
ATOM     10  O   UNL     1      11.772   8.478  45.685  1.00  0.00    -0.550 OA
ATOM     11  O   UNL     1      10.800  10.530  45.385  1.00  0.00    -0.550 OA
ENDBRANCH   7   9
ENDBRANCH   6   7
ENDBRANCH   5   6
ENDBRANCH   4   5
ENDBRANCH   3   4
ENDBRANCH   2   3
ENDBRANCH   1   2
BRANCH   1  12
ATOM     12  C   UNL     1       9.061  13.930  40.505  1.00  0.00     0.000 C 
BRANCH  12  13
ATOM     13  C   UNL     1       9.571  14.693  41.746  1.00  0.00    -0.000 C 
BRANCH  13  14
ATOM     14  C   UNL     1       9.243  16.196  41.768  1.00  0.00    -0.000 C 
BRANCH  14  15
ATOM     15  C   UNL     1       8.321  16.590  42.931  1.00  0.00    -0.000 C 
BRANCH  15  16
ATOM     16  C   UNL     1       7.149  17.452  42.437  1.00  0.00    -0.000 C 
BRANCH  16  17
ATOM     17  C   UNL     1       5.889  16.612  42.139  1.00  0.00    -0.000 C 
BRANCH  17  18
ATOM     18  C   UNL     1       5.830  15.292  42.927  1.00  0.00    -0.003 C 
ATOM     19  C   UNL     1       5.570  14.076  42.040  1.00  0.00     0.004 C 
ENDBRANCH  17  18
ENDBRANCH  16  17
ENDBRANCH  15  16
ENDBRANCH  14  15
ENDBRANCH  13  14
ENDBRANCH  12  13
ENDBRANCH   1  12
TORSDOF 14
ENDMDL
