MODEL 1
REMARK VINA RESULT:    -3.309      0.000      0.000
REMARK INTER + INTRA:          -4.029
REMARK INTER:                  -3.889
REMARK INTRA:                  -0.139
REMARK UNBOUND:                -0.139
REMARK SMILES O=C([O-])C=Cc1ccc(O)c(O)c1
REMARK SMILES IDX 6 1 13 2 7 3 11 4 8 5 9 6 5 7 4 8 2 9 1 10 3 11 12 12 10 14
REMARK H PARENT 12 13 10 15
REMARK Flexibility Score: inf
ROOT
ATOM      1  C   UNL     1      -9.883   4.130  -7.237  1.00  0.00    -0.022 A 
ATOM      2  C   UNL     1      -9.996   4.986  -6.124  1.00  0.00     0.058 A 
ATOM      3  C   UNL     1      -9.810   4.694  -8.518  1.00  0.00     0.012 A 
ATOM      4  C   UNL     1     -10.009   6.378  -6.284  1.00  0.00     0.157 A 
ATOM      5  C   UNL     1      -9.819   6.080  -8.687  1.00  0.00     0.051 A 
ATOM      6  C   UNL     1      -9.915   6.931  -7.582  1.00  0.00     0.157 A 
ENDROOT
BRANCH   1   7
ATOM      7  C   UNL     1      -9.877   2.651  -7.110  1.00  0.00     0.010 C 
ATOM      8  C   UNL     1      -8.958   1.859  -7.679  1.00  0.00     0.025 C 
BRANCH   8   9
ATOM      9  C   UNL     1      -8.990   0.394  -7.542  1.00  0.00     0.064 C 
ATOM     10  O   UNL     1      -8.622  -0.358  -8.485  1.00  0.00    -0.545 OA
ATOM     11  O   UNL     1      -9.434  -0.172  -6.354  1.00  0.00    -0.545 OA
ENDBRANCH   8   9
ENDBRANCH   1   7
BRANCH   4  12
ATOM     12  O   UNL     1     -10.125   7.165  -5.136  1.00  0.00    -0.504 OA
ATOM     13  H   UNL     1     -10.918   7.143  -4.514  1.00  0.00     0.293 HD
ENDBRANCH   4  12
BRANCH   6  14
ATOM     14  O   UNL     1      -9.913   8.308  -7.818  1.00  0.00    -0.504 OA
ATOM     15  H   UNL     1     -10.191   8.732  -8.692  1.00  0.00     0.293 HD
ENDBRANCH   6  14
TORSDOF 4
ENDMDL
MODEL 2
REMARK VINA RESULT:    -3.260     12.324     14.842
REMARK INTER + INTRA:          -3.971
REMARK INTER:                  -3.832
REMARK INTRA:                  -0.138
REMARK UNBOUND:                -0.139
REMARK SMILES O=C([O-])C=Cc1ccc(O)c(O)c1
REMARK SMILES IDX 6 1 13 2 7 3 11 4 8 5 9 6 5 7 4 8 2 9 1 10 3 11 12 12 10 14
REMARK H PARENT 12 13 10 15
REMARK Flexibility Score: inf
ROOT
ATOM      1  C   UNL     1      -9.033  -8.765  -0.701  1.00  0.00    -0.022 A 
ATOM      2  C   UNL     1      -9.786  -8.438   0.443  1.00  0.00     0.058 A 
ATOM      3  C   UNL     1      -7.694  -9.150  -0.542  1.00  0.00     0.012 A 
ATOM      4  C   UNL     1      -9.223  -8.517   1.723  1.00  0.00     0.157 A 
ATOM      5  C   UNL     1      -7.126  -9.236   0.730  1.00  0.00     0.051 A 
ATOM      6  C   UNL     1      -7.877  -8.927   1.868  1.00  0.00     0.157 A 
ENDROOT
BRANCH   1   7
ATOM      7  C   UNL     1      -9.589  -8.681  -2.075  1.00  0.00     0.010 C 
ATOM      8  C   UNL     1      -9.026  -7.974  -3.065  1.00  0.00     0.025 C 
BRANCH   8   9
ATOM      9  C   UNL     1      -9.612  -7.904  -4.413  1.00  0.00     0.064 C 
ATOM     10  O   UNL     1     -10.036  -8.939  -4.996  1.00  0.00    -0.545 OA
ATOM     11  O   UNL     1      -9.699  -6.677  -5.057  1.00  0.00    -0.545 OA
ENDBRANCH   8   9
ENDBRANCH   1   7
BRANCH   4  12
ATOM     12  O   UNL     1     -10.028  -8.176   2.812  1.00  0.00    -0.504 OA
ATOM     13  H   UNL     1     -10.971  -8.511   2.943  1.00  0.00     0.293 HD
ENDBRANCH   4  12
BRANCH   6  14
ATOM     14  O   UNL     1      -7.251  -9.039   3.112  1.00  0.00    -0.504 OA
ATOM     15  H   UNL     1      -7.714  -9.363   3.950  1.00  0.00     0.293 HD
ENDBRANCH   6  14
TORSDOF 4
ENDMDL
MODEL 3
REMARK VINA RESULT:    -3.186     21.630     23.002
REMARK INTER + INTRA:          -3.884
REMARK INTER:                  -3.756
REMARK INTRA:                  -0.127
REMARK UNBOUND:                -0.139
REMARK SMILES O=C([O-])C=Cc1ccc(O)c(O)c1
REMARK SMILES IDX 6 1 13 2 7 3 11 4 8 5 9 6 5 7 4 8 2 9 1 10 3 11 12 12 10 14
REMARK H PARENT 12 13 10 15
REMARK Flexibility Score: inf
ROOT
ATOM      1  C   UNL     1       0.613  -9.046   8.573  1.00  0.00    -0.022 A 
ATOM      2  C   UNL     1       0.045  -7.798   8.895  1.00  0.00     0.058 A 
ATOM      3  C   UNL     1      -0.239 -10.125   8.297  1.00  0.00     0.012 A 
ATOM      4  C   UNL     1      -1.345  -7.622   8.917  1.00  0.00     0.157 A 
ATOM      5  C   UNL     1      -1.625  -9.959   8.312  1.00  0.00     0.051 A 
ATOM      6  C   UNL     1      -2.190  -8.716   8.616  1.00  0.00     0.157 A 
ENDROOT
BRANCH   1   7
ATOM      7  C   UNL     1       2.079  -9.276   8.551  1.00  0.00     0.010 C 
ATOM      8  C   UNL     1       2.864  -8.979   7.506  1.00  0.00     0.025 C 
BRANCH   8   9
ATOM      9  C   UNL     1       4.314  -9.231   7.515  1.00  0.00     0.064 C 
ATOM     10  O   UNL     1       5.083  -8.652   6.700  1.00  0.00    -0.545 OA
ATOM     11  O   UNL     1       4.846 -10.125   8.435  1.00  0.00    -0.545 OA
ENDBRANCH   8   9
ENDBRANCH   1   7
BRANCH   4  12
ATOM     12  O   UNL     1      -1.837  -6.358   9.246  1.00  0.00    -0.504 OA
ATOM     13  H   UNL     1      -1.327  -5.499   9.104  1.00  0.00     0.293 HD
ENDBRANCH   4  12
BRANCH   6  14
ATOM     14  O   UNL     1      -3.583  -8.614   8.609  1.00  0.00    -0.504 OA
ATOM     15  H   UNL     1      -4.208  -9.407   8.649  1.00  0.00     0.293 HD
ENDBRANCH   6  14
TORSDOF 4
ENDMDL
MODEL 4
REMARK VINA RESULT:    -3.167     21.386     22.273
REMARK INTER + INTRA:          -3.862
REMARK INTER:                  -3.723
REMARK INTRA:                  -0.139
REMARK UNBOUND:                -0.139
REMARK SMILES O=C([O-])C=Cc1ccc(O)c(O)c1
REMARK SMILES IDX 6 1 13 2 7 3 11 4 8 5 9 6 5 7 4 8 2 9 1 10 3 11 12 12 10 14
REMARK H PARENT 12 13 10 15
REMARK Flexibility Score: inf
ROOT
ATOM      1  C   UNL     1      -0.444  -6.638   9.357  1.00  0.00    -0.022 A 
ATOM      2  C   UNL     1      -1.814  -6.774   9.654  1.00  0.00     0.058 A 
ATOM      3  C   UNL     1       0.209  -7.685   8.691  1.00  0.00     0.012 A 
ATOM      4  C   UNL     1      -2.525  -7.920   9.274  1.00  0.00     0.157 A 
ATOM      5  C   UNL     1      -0.491  -8.829   8.305  1.00  0.00     0.051 A 
ATOM      6  C   UNL     1      -1.855  -8.958   8.586  1.00  0.00     0.157 A 
ENDROOT
BRANCH   1   7
ATOM      7  C   UNL     1       0.346  -5.446   9.753  1.00  0.00     0.010 C 
ATOM      8  C   UNL     1       1.174  -4.793   8.926  1.00  0.00     0.025 C 
BRANCH   8   9
ATOM      9  C   UNL     1       1.952  -3.620   9.357  1.00  0.00     0.064 C 
ATOM     10  O   UNL     1       2.978  -3.747  10.079  1.00  0.00    -0.545 OA
ATOM     11  O   UNL     1       1.549  -2.351   8.964  1.00  0.00    -0.545 OA
ENDBRANCH   8   9
ENDBRANCH   1   7
BRANCH   4  12
ATOM     12  O   UNL     1      -3.880  -7.986   9.603  1.00  0.00    -0.504 OA
ATOM     13  H   UNL     1      -4.518  -8.673   9.232  1.00  0.00     0.293 HD
ENDBRANCH   4  12
BRANCH   6  14
ATOM     14  O   UNL     1      -2.499 -10.125   8.167  1.00  0.00    -0.504 OA
ATOM     15  H   UNL     1      -3.111 -10.674   8.754  1.00  0.00     0.293 HD
ENDBRANCH   6  14
TORSDOF 4
ENDMDL
MODEL 5
REMARK VINA RESULT:    -3.161      6.740      9.281
REMARK INTER + INTRA:          -3.855
REMARK INTER:                  -3.716
REMARK INTRA:                  -0.139
REMARK UNBOUND:                -0.139
REMARK SMILES O=C([O-])C=Cc1ccc(O)c(O)c1
REMARK SMILES IDX 6 1 13 2 7 3 11 4 8 5 9 6 5 7 4 8 2 9 1 10 3 11 12 12 10 14
REMARK H PARENT 12 13 10 15
REMARK Flexibility Score: inf
ROOT
ATOM      1  C   UNL     1      -8.925   8.698  -0.459  1.00  0.00    -0.022 A 
ATOM      2  C   UNL     1      -9.670   8.294  -1.584  1.00  0.00     0.058 A 
ATOM      3  C   UNL     1      -7.601   9.121  -0.642  1.00  0.00     0.012 A 
ATOM      4  C   UNL     1      -9.115   8.335  -2.869  1.00  0.00     0.157 A 
ATOM      5  C   UNL     1      -7.041   9.169  -1.920  1.00  0.00     0.051 A 
ATOM      6  C   UNL     1      -7.784   8.784  -3.039  1.00  0.00     0.157 A 
ENDROOT
BRANCH   1   7
ATOM      7  C   UNL     1      -9.473   8.657   0.920  1.00  0.00     0.010 C 
ATOM      8  C   UNL     1      -8.881   8.017   1.938  1.00  0.00     0.025 C 
BRANCH   8   9
ATOM      9  C   UNL     1      -9.460   7.987   3.291  1.00  0.00     0.064 C 
ATOM     10  O   UNL     1     -10.125   8.961   3.739  1.00  0.00    -0.545 OA
ATOM     11  O   UNL     1      -9.270   6.868   4.091  1.00  0.00    -0.545 OA
ENDBRANCH   8   9
ENDBRANCH   1   7
BRANCH   4  12
ATOM     12  O   UNL     1      -9.912   7.919  -3.938  1.00  0.00    -0.504 OA
ATOM     13  H   UNL     1      -9.631   7.971  -4.905  1.00  0.00     0.293 HD
ENDBRANCH   4  12
BRANCH   6  14
ATOM     14  O   UNL     1      -7.167   8.861  -4.290  1.00  0.00    -0.504 OA
ATOM     15  H   UNL     1      -7.475   8.349  -5.104  1.00  0.00     0.293 HD
ENDBRANCH   6  14
TORSDOF 4
ENDMDL
MODEL 6
REMARK VINA RESULT:    -3.160     20.908     21.732
REMARK INTER + INTRA:          -3.854
REMARK INTER:                  -3.717
REMARK INTRA:                  -0.137
REMARK UNBOUND:                -0.139
REMARK SMILES O=C([O-])C=Cc1ccc(O)c(O)c1
REMARK SMILES IDX 6 1 13 2 7 3 11 4 8 5 9 6 5 7 4 8 2 9 1 10 3 11 12 12 10 14
REMARK H PARENT 12 13 10 15
REMARK Flexibility Score: inf
ROOT
ATOM      1  C   UNL     1      -2.559  -7.408   9.602  1.00  0.00    -0.022 A 
ATOM      2  C   UNL     1      -1.732  -6.352  10.029  1.00  0.00     0.058 A 
ATOM      3  C   UNL     1      -2.035  -8.361   8.717  1.00  0.00     0.012 A 
ATOM      4  C   UNL     1      -0.400  -6.261   9.603  1.00  0.00     0.157 A 
ATOM      5  C   UNL     1      -0.709  -8.281   8.290  1.00  0.00     0.051 A 
ATOM      6  C   UNL     1       0.119  -7.242   8.726  1.00  0.00     0.157 A 
ENDROOT
BRANCH   1   7
ATOM      7  C   UNL     1      -3.977  -7.533  10.022  1.00  0.00     0.010 C 
ATOM      8  C   UNL     1      -5.001  -7.634   9.163  1.00  0.00     0.025 C 
BRANCH   8   9
ATOM      9  C   UNL     1      -6.398  -7.744   9.615  1.00  0.00     0.064 C 
ATOM     10  O   UNL     1      -7.017  -6.745  10.073  1.00  0.00    -0.545 OA
ATOM     11  O   UNL     1      -7.047  -8.969   9.537  1.00  0.00    -0.545 OA
ENDBRANCH   8   9
ENDBRANCH   1   7
BRANCH   4  12
ATOM     12  O   UNL     1       0.361  -5.185  10.065  1.00  0.00    -0.504 OA
ATOM     13  H   UNL     1       1.332  -5.254  10.330  1.00  0.00     0.293 HD
ENDBRANCH   4  12
BRANCH   6  14
ATOM     14  O   UNL     1       1.438  -7.222   8.266  1.00  0.00    -0.504 OA
ATOM     15  H   UNL     1       1.893  -6.401   7.892  1.00  0.00     0.293 HD
ENDBRANCH   6  14
TORSDOF 4
ENDMDL
MODEL 7
REMARK VINA RESULT:    -3.159     11.990     14.824
REMARK INTER + INTRA:          -3.852
REMARK INTER:                  -3.720
REMARK INTRA:                  -0.132
REMARK UNBOUND:                -0.139
REMARK SMILES O=C([O-])C=Cc1ccc(O)c(O)c1
REMARK SMILES IDX 6 1 13 2 7 3 11 4 8 5 9 6 5 7 4 8 2 9 1 10 3 11 12 12 10 14
REMARK H PARENT 12 13 10 15
REMARK Flexibility Score: inf
ROOT
ATOM      1  C   UNL     1      -9.035  -8.687  -0.790  1.00  0.00    -0.022 A 
ATOM      2  C   UNL     1      -7.802  -9.058  -0.219  1.00  0.00     0.058 A 
ATOM      3  C   UNL     1     -10.107  -8.380   0.059  1.00  0.00     0.012 A 
ATOM      4  C   UNL     1      -7.634  -9.099   1.171  1.00  0.00     0.157 A 
ATOM      5  C   UNL     1      -9.949  -8.415   1.446  1.00  0.00     0.051 A 
ATOM      6  C   UNL     1      -8.721  -8.767   2.014  1.00  0.00     0.157 A 
ENDROOT
BRANCH   1   7
ATOM      7  C   UNL     1      -9.255  -8.643  -2.257  1.00  0.00     0.010 C 
ATOM      8  C   UNL     1      -9.396  -7.508  -2.955  1.00  0.00     0.025 C 
BRANCH   8   9
ATOM      9  C   UNL     1      -9.627  -7.503  -4.409  1.00  0.00     0.064 C 
ATOM     10  O   UNL     1      -9.512  -6.444  -5.085  1.00  0.00    -0.545 OA
ATOM     11  O   UNL     1      -9.978  -8.684  -5.049  1.00  0.00    -0.545 OA
ENDBRANCH   8   9
ENDBRANCH   1   7
BRANCH   4  12
ATOM     12  O   UNL     1      -6.385  -9.478   1.667  1.00  0.00    -0.504 OA
ATOM     13  H   UNL     1      -5.533  -8.962   1.504  1.00  0.00     0.293 HD
ENDBRANCH   4  12
BRANCH   6  14
ATOM     14  O   UNL     1      -8.626  -8.777   3.408  1.00  0.00    -0.504 OA
ATOM     15  H   UNL     1      -7.774  -8.591   3.917  1.00  0.00     0.293 HD
ENDBRANCH   6  14
TORSDOF 4
ENDMDL
MODEL 8
REMARK VINA RESULT:    -3.150     21.388     22.625
REMARK INTER + INTRA:          -3.842
REMARK INTER:                  -3.693
REMARK INTRA:                  -0.149
REMARK UNBOUND:                -0.139
REMARK SMILES O=C([O-])C=Cc1ccc(O)c(O)c1
REMARK SMILES IDX 6 1 13 2 7 3 11 4 8 5 9 6 5 7 4 8 2 9 1 10 3 11 12 12 10 14
REMARK H PARENT 12 13 10 15
REMARK Flexibility Score: inf
ROOT
ATOM      1  C   UNL     1       0.150  -8.450   8.628  1.00  0.00    -0.022 A 
ATOM      2  C   UNL     1      -1.178  -8.920   8.617  1.00  0.00     0.058 A 
ATOM      3  C   UNL     1       0.393  -7.121   9.003  1.00  0.00     0.012 A 
ATOM      4  C   UNL     1      -2.240  -8.090   8.997  1.00  0.00     0.157 A 
ATOM      5  C   UNL     1      -0.659  -6.287   9.386  1.00  0.00     0.051 A 
ATOM      6  C   UNL     1      -1.976  -6.757   9.392  1.00  0.00     0.157 A 
ENDROOT
BRANCH   1   7
ATOM      7  C   UNL     1       1.301  -9.294   8.222  1.00  0.00     0.010 C 
ATOM      8  C   UNL     1       2.498  -8.803   7.874  1.00  0.00     0.025 C 
BRANCH   8   9
ATOM      9  C   UNL     1       3.614  -9.671   7.464  1.00  0.00     0.064 C 
ATOM     10  O   UNL     1       4.433 -10.125   8.309  1.00  0.00    -0.545 OA
ATOM     11  O   UNL     1       3.771  -9.995   6.122  1.00  0.00    -0.545 OA
ENDBRANCH   8   9
ENDBRANCH   1   7
BRANCH   4  12
ATOM     12  O   UNL     1      -3.530  -8.623   8.960  1.00  0.00    -0.504 OA
ATOM     13  H   UNL     1      -3.992  -9.038   9.755  1.00  0.00     0.293 HD
ENDBRANCH   4  12
BRANCH   6  14
ATOM     14  O   UNL     1      -2.982  -5.874   9.791  1.00  0.00    -0.504 OA
ATOM     15  H   UNL     1      -3.844  -6.162  10.233  1.00  0.00     0.293 HD
ENDBRANCH   6  14
TORSDOF 4
ENDMDL
MODEL 9
REMARK VINA RESULT:    -3.119     20.873     22.140
REMARK INTER + INTRA:          -3.805
REMARK INTER:                  -3.661
REMARK INTRA:                  -0.144
REMARK UNBOUND:                -0.139
REMARK SMILES O=C([O-])C=Cc1ccc(O)c(O)c1
REMARK SMILES IDX 6 1 13 2 7 3 11 4 8 5 9 6 5 7 4 8 2 9 1 10 3 11 12 12 10 14
REMARK H PARENT 12 13 10 15
REMARK Flexibility Score: inf
ROOT
ATOM      1  C   UNL     1       3.657   7.995   9.565  1.00  0.00    -0.022 A 
ATOM      2  C   UNL     1       2.832   6.959  10.043  1.00  0.00     0.058 A 
ATOM      3  C   UNL     1       3.137   8.893   8.623  1.00  0.00     0.012 A 
ATOM      4  C   UNL     1       1.505   6.835   9.610  1.00  0.00     0.157 A 
ATOM      5  C   UNL     1       1.815   8.780   8.187  1.00  0.00     0.051 A 
ATOM      6  C   UNL     1       0.989   7.762   8.673  1.00  0.00     0.157 A 
ENDROOT
BRANCH   1   7
ATOM      7  C   UNL     1       5.071   8.152   9.991  1.00  0.00     0.010 C 
ATOM      8  C   UNL     1       6.051   8.567   9.177  1.00  0.00     0.025 C 
BRANCH   8   9
ATOM      9  C   UNL     1       7.445   8.700   9.631  1.00  0.00     0.064 C 
ATOM     10  O   UNL     1       8.244   7.725   9.582  1.00  0.00    -0.545 OA
ATOM     11  O   UNL     1       7.890   9.920  10.123  1.00  0.00    -0.545 OA
ENDBRANCH   8   9
ENDBRANCH   1   7
BRANCH   4  12
ATOM     12  O   UNL     1       0.746   5.783  10.125  1.00  0.00    -0.504 OA
ATOM     13  H   UNL     1       1.109   5.076  10.746  1.00  0.00     0.293 HD
ENDBRANCH   4  12
BRANCH   6  14
ATOM     14  O   UNL     1      -0.324   7.707   8.202  1.00  0.00    -0.504 OA
ATOM     15  H   UNL     1      -0.865   6.857   8.133  1.00  0.00     0.293 HD
ENDBRANCH   6  14
TORSDOF 4
ENDMDL
