MODEL 1
REMARK VINA RESULT:    -4.094      0.000      0.000
REMARK INTER + INTRA:          -5.670
REMARK INTER:                  -5.531
REMARK INTRA:                  -0.139
REMARK UNBOUND:                -0.139
REMARK SMILES [NH3+]CCCC[C@H]([NH3+])C(=O)[O-]
REMARK SMILES IDX 4 1 3 2 2 3 1 4 5 8 6 9 7 10 8 14 9 15 10 16
REMARK H PARENT 1 5 1 6 1 7 7 11 7 12 7 13
REMARK Flexibility Score: inf
ROOT
ATOM      1  C   UNL     1     178.541 167.898 183.967  1.00  0.00     0.012 C 
ENDROOT
BRANCH   1   2
ATOM      2  C   UNL     1     180.068 167.993 183.800  1.00  0.00     0.061 C 
BRANCH   2   3
ATOM      3  C   UNL     1     180.804 166.640 183.829  1.00  0.00     0.258 C 
BRANCH   3   4
ATOM      4  N   UNL     1     181.476 166.400 185.107  1.00  0.00    -0.358 N 
ATOM      5  H   UNL     1     181.028 166.992 185.843  1.00  0.00     0.344 HD
ATOM      6  H   UNL     1     181.374 165.398 185.387  1.00  0.00     0.344 HD
ATOM      7  H   UNL     1     182.489 166.654 185.042  1.00  0.00     0.344 HD
ENDBRANCH   3   4
ENDBRANCH   2   3
ENDBRANCH   1   2
BRANCH   1   8
ATOM      8  C   UNL     1     178.069 168.320 185.372  1.00  0.00     0.072 C 
BRANCH   8   9
ATOM      9  C   UNL     1     177.826 169.839 185.528  1.00  0.00     0.227 C 
BRANCH   9  10
ATOM     10  N   UNL     1     178.535 170.393 186.691  1.00  0.00    -0.350 N 
ATOM     11  H   UNL     1     179.526 170.601 186.428  1.00  0.00     0.345 HD
ATOM     12  H   UNL     1     178.542 169.693 187.468  1.00  0.00     0.345 HD
ATOM     13  H   UNL     1     178.085 171.274 187.027  1.00  0.00     0.345 HD
ENDBRANCH   9  10
BRANCH   9  14
ATOM     14  C   UNL     1     176.353 170.163 185.576  1.00  0.00     0.099 C 
ATOM     15  O   UNL     1     175.588 169.740 184.670  1.00  0.00    -0.544 OA
ATOM     16  O   UNL     1     175.817 170.887 186.636  1.00  0.00    -0.544 OA
ENDBRANCH   9  14
ENDBRANCH   8   9
ENDBRANCH   1   8
TORSDOF 7
ENDMDL
MODEL 2
REMARK VINA RESULT:    -4.020     12.526     15.049
REMARK INTER + INTRA:          -5.569
REMARK INTER:                  -5.438
REMARK INTRA:                  -0.132
REMARK UNBOUND:                -0.139
REMARK SMILES [NH3+]CCCC[C@H]([NH3+])C(=O)[O-]
REMARK SMILES IDX 4 1 3 2 2 3 1 4 5 8 6 9 7 10 8 14 9 15 10 16
REMARK H PARENT 1 5 1 6 1 7 7 11 7 12 7 13
REMARK Flexibility Score: inf
ROOT
ATOM      1  C   UNL     1     165.599 176.582 183.803  1.00  0.00     0.012 C 
ENDROOT
BRANCH   1   2
ATOM      2  C   UNL     1     164.066 176.682 183.715  1.00  0.00     0.061 C 
BRANCH   2   3
ATOM      3  C   UNL     1     163.503 178.106 183.878  1.00  0.00     0.258 C 
BRANCH   3   4
ATOM      4  N   UNL     1     162.638 178.231 185.053  1.00  0.00    -0.358 N 
ATOM      5  H   UNL     1     162.244 177.291 185.286  1.00  0.00     0.344 HD
ATOM      6  H   UNL     1     163.190 178.566 185.875  1.00  0.00     0.344 HD
ATOM      7  H   UNL     1     161.848 178.889 184.857  1.00  0.00     0.344 HD
ENDBRANCH   3   4
ENDBRANCH   2   3
ENDBRANCH   1   2
BRANCH   1   8
ATOM      8  C   UNL     1     166.084 176.080 185.177  1.00  0.00     0.072 C 
BRANCH   8   9
ATOM      9  C   UNL     1     166.350 174.558 185.236  1.00  0.00     0.227 C 
BRANCH   9  10
ATOM     10  N   UNL     1     165.577 173.905 186.303  1.00  0.00    -0.350 N 
ATOM     11  H   UNL     1     164.860 173.274 185.878  1.00  0.00     0.345 HD
ATOM     12  H   UNL     1     165.080 174.627 186.873  1.00  0.00     0.345 HD
ATOM     13  H   UNL     1     166.194 173.339 186.929  1.00  0.00     0.345 HD
ENDBRANCH   9  10
BRANCH   9  14
ATOM     14  C   UNL     1     167.824 174.256 185.361  1.00  0.00     0.099 C 
ATOM     15  O   UNL     1     168.631 174.720 184.515  1.00  0.00    -0.544 OA
ATOM     16  O   UNL     1     168.309 173.509 186.428  1.00  0.00    -0.544 OA
ENDBRANCH   9  14
ENDBRANCH   8   9
ENDBRANCH   1   8
TORSDOF 7
ENDMDL
MODEL 3
REMARK VINA RESULT:    -3.976     14.395     16.365
REMARK INTER + INTRA:          -5.511
REMARK INTER:                  -5.363
REMARK INTRA:                  -0.148
REMARK UNBOUND:                -0.139
REMARK SMILES [NH3+]CCCC[C@H]([NH3+])C(=O)[O-]
REMARK SMILES IDX 4 1 3 2 2 3 1 4 5 8 6 9 7 10 8 14 9 15 10 16
REMARK H PARENT 1 5 1 6 1 7 7 11 7 12 7 13
REMARK Flexibility Score: inf
ROOT
ATOM      1  C   UNL     1     165.483 176.064 183.654  1.00  0.00     0.012 C 
ENDROOT
BRANCH   1   2
ATOM      2  C   UNL     1     165.930 176.150 185.123  1.00  0.00     0.061 C 
BRANCH   2   3
ATOM      3  C   UNL     1     166.593 174.872 185.670  1.00  0.00     0.258 C 
BRANCH   3   4
ATOM      4  N   UNL     1     165.624 173.958 186.278  1.00  0.00    -0.358 N 
ATOM      5  H   UNL     1     165.896 172.974 186.049  1.00  0.00     0.344 HD
ATOM      6  H   UNL     1     165.628 174.065 187.317  1.00  0.00     0.344 HD
ATOM      7  H   UNL     1     164.665 174.138 185.900  1.00  0.00     0.344 HD
ENDBRANCH   3   4
ENDBRANCH   2   3
ENDBRANCH   1   2
BRANCH   1   8
ATOM      8  C   UNL     1     164.043 176.570 183.439  1.00  0.00     0.072 C 
BRANCH   8   9
ATOM      9  C   UNL     1     163.796 178.008 183.948  1.00  0.00     0.227 C 
BRANCH   9  10
ATOM     10  N   UNL     1     162.697 178.065 184.923  1.00  0.00    -0.350 N 
ATOM     11  H   UNL     1     162.532 179.059 185.205  1.00  0.00     0.345 HD
ATOM     12  H   UNL     1     162.954 177.521 185.779  1.00  0.00     0.345 HD
ATOM     13  H   UNL     1     161.812 177.679 184.523  1.00  0.00     0.345 HD
ENDBRANCH   9  10
BRANCH   9  14
ATOM     14  C   UNL     1     163.568 178.970 182.807  1.00  0.00     0.099 C 
ATOM     15  O   UNL     1     164.529 179.293 182.061  1.00  0.00    -0.544 OA
ATOM     16  O   UNL     1     162.299 179.470 182.539  1.00  0.00    -0.544 OA
ENDBRANCH   9  14
ENDBRANCH   8   9
ENDBRANCH   1   8
TORSDOF 7
ENDMDL
MODEL 4
REMARK VINA RESULT:    -3.838     14.579     16.568
REMARK INTER + INTRA:          -5.324
REMARK INTER:                  -5.225
REMARK INTRA:                  -0.099
REMARK UNBOUND:                -0.139
REMARK SMILES [NH3+]CCCC[C@H]([NH3+])C(=O)[O-]
REMARK SMILES IDX 4 1 3 2 2 3 1 4 5 8 6 9 7 10 8 14 9 15 10 16
REMARK H PARENT 1 5 1 6 1 7 7 11 7 12 7 13
REMARK Flexibility Score: inf
ROOT
ATOM      1  C   UNL     1     165.069 176.203 183.752  1.00  0.00     0.012 C 
ENDROOT
BRANCH   1   2
ATOM      2  C   UNL     1     165.808 176.140 185.100  1.00  0.00     0.061 C 
BRANCH   2   3
ATOM      3  C   UNL     1     166.475 174.786 185.406  1.00  0.00     0.258 C 
BRANCH   3   4
ATOM      4  N   UNL     1     165.670 173.961 186.309  1.00  0.00    -0.358 N 
ATOM      5  H   UNL     1     166.180 173.068 186.498  1.00  0.00     0.344 HD
ATOM      6  H   UNL     1     165.526 174.454 187.219  1.00  0.00     0.344 HD
ATOM      7  H   UNL     1     164.747 173.734 185.872  1.00  0.00     0.344 HD
ENDBRANCH   3   4
ENDBRANCH   2   3
ENDBRANCH   1   2
BRANCH   1   8
ATOM      8  C   UNL     1     163.953 177.266 183.734  1.00  0.00     0.072 C 
BRANCH   8   9
ATOM      9  C   UNL     1     164.088 178.305 182.596  1.00  0.00     0.227 C 
BRANCH   9  10
ATOM     10  N   UNL     1     164.324 179.660 183.114  1.00  0.00    -0.350 N 
ATOM     11  H   UNL     1     163.718 179.825 183.950  1.00  0.00     0.345 HD
ATOM     12  H   UNL     1     164.074 180.367 182.384  1.00  0.00     0.345 HD
ATOM     13  H   UNL     1     165.323 179.793 183.393  1.00  0.00     0.345 HD
ENDBRANCH   9  10
BRANCH   9  14
ATOM     14  C   UNL     1     162.897 178.270 181.669  1.00  0.00     0.099 C 
ATOM     15  O   UNL     1     162.216 179.312 181.487  1.00  0.00    -0.544 OA
ATOM     16  O   UNL     1     162.569 177.111 180.976  1.00  0.00    -0.544 OA
ENDBRANCH   9  14
ENDBRANCH   8   9
ENDBRANCH   1   8
TORSDOF 7
ENDMDL
MODEL 5
REMARK VINA RESULT:    -3.823      3.663      5.513
REMARK INTER + INTRA:          -5.303
REMARK INTER:                  -5.187
REMARK INTRA:                  -0.116
REMARK UNBOUND:                -0.139
REMARK SMILES [NH3+]CCCC[C@H]([NH3+])C(=O)[O-]
REMARK SMILES IDX 4 1 3 2 2 3 1 4 5 8 6 9 7 10 8 14 9 15 10 16
REMARK H PARENT 1 5 1 6 1 7 7 11 7 12 7 13
REMARK Flexibility Score: inf
ROOT
ATOM      1  C   UNL     1     178.583 168.157 183.894  1.00  0.00     0.012 C 
ENDROOT
BRANCH   1   2
ATOM      2  C   UNL     1     178.231 168.554 185.337  1.00  0.00     0.061 C 
BRANCH   2   3
ATOM      3  C   UNL     1     178.032 170.065 185.559  1.00  0.00     0.258 C 
BRANCH   3   4
ATOM      4  N   UNL     1     178.551 170.511 186.854  1.00  0.00    -0.358 N 
ATOM      5  H   UNL     1     177.812 171.067 187.342  1.00  0.00     0.344 HD
ATOM      6  H   UNL     1     178.788 169.687 187.452  1.00  0.00     0.344 HD
ATOM      7  H   UNL     1     179.394 171.115 186.722  1.00  0.00     0.344 HD
ENDBRANCH   3   4
ENDBRANCH   2   3
ENDBRANCH   1   2
BRANCH   1   8
ATOM      8  C   UNL     1     180.072 167.800 183.721  1.00  0.00     0.072 C 
BRANCH   8   9
ATOM      9  C   UNL     1     180.321 166.415 183.080  1.00  0.00     0.227 C 
BRANCH   9  10
ATOM     10  N   UNL     1     179.084 165.626 182.978  1.00  0.00    -0.350 N 
ATOM     11  H   UNL     1     179.002 165.230 182.013  1.00  0.00     0.345 HD
ATOM     12  H   UNL     1     178.256 166.241 183.151  1.00  0.00     0.345 HD
ATOM     13  H   UNL     1     179.077 164.838 183.665  1.00  0.00     0.345 HD
ENDBRANCH   9  10
BRANCH   9  14
ATOM     14  C   UNL     1     181.401 165.652 183.809  1.00  0.00     0.099 C 
ATOM     15  O   UNL     1     182.125 164.837 183.180  1.00  0.00    -0.544 OA
ATOM     16  O   UNL     1     181.639 165.871 185.161  1.00  0.00    -0.544 OA
ENDBRANCH   9  14
ENDBRANCH   8   9
ENDBRANCH   1   8
TORSDOF 7
ENDMDL
MODEL 6
REMARK VINA RESULT:    -3.820      1.779      2.169
REMARK INTER + INTRA:          -5.299
REMARK INTER:                  -5.119
REMARK INTRA:                  -0.180
REMARK UNBOUND:                -0.139
REMARK SMILES [NH3+]CCCC[C@H]([NH3+])C(=O)[O-]
REMARK SMILES IDX 4 1 3 2 2 3 1 4 5 8 6 9 7 10 8 14 9 15 10 16
REMARK H PARENT 1 5 1 6 1 7 7 11 7 12 7 13
REMARK Flexibility Score: inf
ROOT
ATOM      1  C   UNL     1     178.109 168.541 185.506  1.00  0.00     0.012 C 
ENDROOT
BRANCH   1   2
ATOM      2  C   UNL     1     179.025 168.688 184.279  1.00  0.00     0.061 C 
BRANCH   2   3
ATOM      3  C   UNL     1     179.794 167.412 183.892  1.00  0.00     0.258 C 
BRANCH   3   4
ATOM      4  N   UNL     1     181.157 167.400 184.428  1.00  0.00    -0.358 N 
ATOM      5  H   UNL     1     181.112 167.473 185.470  1.00  0.00     0.344 HD
ATOM      6  H   UNL     1     181.634 166.503 184.184  1.00  0.00     0.344 HD
ATOM      7  H   UNL     1     181.703 168.211 184.058  1.00  0.00     0.344 HD
ENDBRANCH   3   4
ENDBRANCH   2   3
ENDBRANCH   1   2
BRANCH   1   8
ATOM      8  C   UNL     1     177.949 169.857 186.291  1.00  0.00     0.072 C 
BRANCH   8   9
ATOM      9  C   UNL     1     176.563 170.524 186.132  1.00  0.00     0.227 C 
BRANCH   9  10
ATOM     10  N   UNL     1     175.601 169.640 185.458  1.00  0.00    -0.350 N 
ATOM     11  H   UNL     1     175.224 170.119 184.608  1.00  0.00     0.345 HD
ATOM     12  H   UNL     1     174.801 169.433 186.098  1.00  0.00     0.345 HD
ATOM     13  H   UNL     1     176.048 168.742 185.166  1.00  0.00     0.345 HD
ENDBRANCH   9  10
BRANCH   9  14
ATOM     14  C   UNL     1     176.666 171.859 185.435  1.00  0.00     0.099 C 
ATOM     15  O   UNL     1     175.842 172.771 185.705  1.00  0.00    -0.544 OA
ATOM     16  O   UNL     1     177.690 172.111 184.529  1.00  0.00    -0.544 OA
ENDBRANCH   9  14
ENDBRANCH   8   9
ENDBRANCH   1   8
TORSDOF 7
ENDMDL
MODEL 7
REMARK VINA RESULT:    -3.813     11.436     13.952
REMARK INTER + INTRA:          -5.290
REMARK INTER:                  -5.106
REMARK INTRA:                  -0.184
REMARK UNBOUND:                -0.139
REMARK SMILES [NH3+]CCCC[C@H]([NH3+])C(=O)[O-]
REMARK SMILES IDX 4 1 3 2 2 3 1 4 5 8 6 9 7 10 8 14 9 15 10 16
REMARK H PARENT 1 5 1 6 1 7 7 11 7 12 7 13
REMARK Flexibility Score: inf
ROOT
ATOM      1  C   UNL     1     166.208 175.812 185.381  1.00  0.00     0.012 C 
ENDROOT
BRANCH   1   2
ATOM      2  C   UNL     1     165.405 175.747 184.070  1.00  0.00     0.061 C 
BRANCH   2   3
ATOM      3  C   UNL     1     164.647 177.040 183.714  1.00  0.00     0.258 C 
BRANCH   3   4
ATOM      4  N   UNL     1     163.224 176.962 184.052  1.00  0.00    -0.358 N 
ATOM      5  H   UNL     1     162.806 177.917 183.980  1.00  0.00     0.344 HD
ATOM      6  H   UNL     1     162.726 176.335 183.381  1.00  0.00     0.344 HD
ATOM      7  H   UNL     1     163.099 176.614 185.031  1.00  0.00     0.344 HD
ENDBRANCH   3   4
ENDBRANCH   2   3
ENDBRANCH   1   2
BRANCH   1   8
ATOM      8  C   UNL     1     166.309 174.446 186.086  1.00  0.00     0.072 C 
BRANCH   8   9
ATOM      9  C   UNL     1     167.697 173.775 185.971  1.00  0.00     0.227 C 
BRANCH   9  10
ATOM     10  N   UNL     1     168.714 174.702 185.453  1.00  0.00    -0.350 N 
ATOM     11  H   UNL     1     168.573 175.647 185.877  1.00  0.00     0.345 HD
ATOM     12  H   UNL     1     168.617 174.791 184.416  1.00  0.00     0.345 HD
ATOM     13  H   UNL     1     169.680 174.373 185.681  1.00  0.00     0.345 HD
ENDBRANCH   9  10
BRANCH   9  14
ATOM     14  C   UNL     1     167.636 172.510 185.150  1.00  0.00     0.099 C 
ATOM     15  O   UNL     1     168.418 171.558 185.408  1.00  0.00    -0.544 OA
ATOM     16  O   UNL     1     166.694 172.363 184.138  1.00  0.00    -0.544 OA
ENDBRANCH   9  14
ENDBRANCH   8   9
ENDBRANCH   1   8
TORSDOF 7
ENDMDL
MODEL 8
REMARK VINA RESULT:    -3.794      1.727      1.915
REMARK INTER + INTRA:          -5.264
REMARK INTER:                  -5.164
REMARK INTRA:                  -0.100
REMARK UNBOUND:                -0.139
REMARK SMILES [NH3+]CCCC[C@H]([NH3+])C(=O)[O-]
REMARK SMILES IDX 4 1 3 2 2 3 1 4 5 8 6 9 7 10 8 14 9 15 10 16
REMARK H PARENT 1 5 1 6 1 7 7 11 7 12 7 13
REMARK Flexibility Score: inf
ROOT
ATOM      1  C   UNL     1     179.272 167.843 183.816  1.00  0.00     0.012 C 
ENDROOT
BRANCH   1   2
ATOM      2  C   UNL     1     180.641 167.163 183.989  1.00  0.00     0.061 C 
BRANCH   2   3
ATOM      3  C   UNL     1     180.928 166.027 182.989  1.00  0.00     0.258 C 
BRANCH   3   4
ATOM      4  N   UNL     1     180.046 164.875 183.188  1.00  0.00    -0.358 N 
ATOM      5  H   UNL     1     180.204 164.190 182.414  1.00  0.00     0.344 HD
ATOM      6  H   UNL     1     180.268 164.402 184.093  1.00  0.00     0.344 HD
ATOM      7  H   UNL     1     179.044 165.174 183.174  1.00  0.00     0.344 HD
ENDBRANCH   3   4
ENDBRANCH   2   3
ENDBRANCH   1   2
BRANCH   1   8
ATOM      8  C   UNL     1     178.618 168.216 185.161  1.00  0.00     0.072 C 
BRANCH   8   9
ATOM      9  C   UNL     1     177.344 169.082 185.025  1.00  0.00     0.227 C 
BRANCH   9  10
ATOM     10  N   UNL     1     177.236 169.698 183.695  1.00  0.00    -0.350 N 
ATOM     11  H   UNL     1     177.926 170.481 183.616  1.00  0.00     0.345 HD
ATOM     12  H   UNL     1     176.277 170.093 183.564  1.00  0.00     0.345 HD
ATOM     13  H   UNL     1     177.429 169.005 182.937  1.00  0.00     0.345 HD
ENDBRANCH   9  10
BRANCH   9  14
ATOM     14  C   UNL     1     177.259 170.118 186.120  1.00  0.00     0.099 C 
ATOM     15  O   UNL     1     178.304 170.487 186.715  1.00  0.00    -0.544 OA
ATOM     16  O   UNL     1     176.043 170.706 186.450  1.00  0.00    -0.544 OA
ENDBRANCH   9  14
ENDBRANCH   8   9
ENDBRANCH   1   8
TORSDOF 7
ENDMDL
MODEL 9
REMARK VINA RESULT:    -3.680      1.979      2.816
REMARK INTER + INTRA:          -5.110
REMARK INTER:                  -4.946
REMARK INTRA:                  -0.164
REMARK UNBOUND:                -0.139
REMARK SMILES [NH3+]CCCC[C@H]([NH3+])C(=O)[O-]
REMARK SMILES IDX 4 1 3 2 2 3 1 4 5 8 6 9 7 10 8 14 9 15 10 16
REMARK H PARENT 1 5 1 6 1 7 7 11 7 12 7 13
REMARK Flexibility Score: inf
ROOT
ATOM      1  C   UNL     1     178.030 170.311 186.225  1.00  0.00     0.012 C 
ENDROOT
BRANCH   1   2
ATOM      2  C   UNL     1     177.987 168.833 185.797  1.00  0.00     0.061 C 
BRANCH   2   3
ATOM      3  C   UNL     1     178.791 168.508 184.524  1.00  0.00     0.258 C 
BRANCH   3   4
ATOM      4  N   UNL     1     179.769 167.440 184.741  1.00  0.00    -0.358 N 
ATOM      5  H   UNL     1     179.660 166.722 183.989  1.00  0.00     0.344 HD
ATOM      6  H   UNL     1     180.740 167.822 184.690  1.00  0.00     0.344 HD
ATOM      7  H   UNL     1     179.610 166.981 185.668  1.00  0.00     0.344 HD
ENDBRANCH   3   4
ENDBRANCH   2   3
ENDBRANCH   1   2
BRANCH   1   8
ATOM      8  C   UNL     1     176.633 170.879 186.541  1.00  0.00     0.072 C 
BRANCH   8   9
ATOM      9  C   UNL     1     176.026 171.733 185.404  1.00  0.00     0.227 C 
BRANCH   9  10
ATOM     10  N   UNL     1     175.782 173.120 185.827  1.00  0.00    -0.350 N 
ATOM     11  H   UNL     1     175.694 173.732 184.983  1.00  0.00     0.345 HD
ATOM     12  H   UNL     1     176.589 173.464 186.397  1.00  0.00     0.345 HD
ATOM     13  H   UNL     1     174.906 173.198 186.391  1.00  0.00     0.345 HD
ENDBRANCH   9  10
BRANCH   9  14
ATOM     14  C   UNL     1     174.775 171.102 184.843  1.00  0.00     0.099 C 
ATOM     15  O   UNL     1     174.757 169.870 184.585  1.00  0.00    -0.544 OA
ATOM     16  O   UNL     1     173.623 171.855 184.648  1.00  0.00    -0.544 OA
ENDBRANCH   9  14
ENDBRANCH   8   9
ENDBRANCH   1   8
TORSDOF 7
ENDMDL
