MODEL 1
REMARK VINA RESULT:    -5.275      0.000      0.000
REMARK INTER + INTRA:          -7.282
REMARK INTER:                  -6.817
REMARK INTRA:                  -0.465
REMARK UNBOUND:                -0.465
REMARK SMILES CCO[C@@H]1O[C@H](CO)[C@@H](O)[C@H](O)[C@H]1O
REMARK SMILES IDX 4 1 13 2 11 3 9 4 6 5 5 6 3 7 2 8 1 9 14 10 12 12 7 14 8 15
REMARK SMILES IDX 10 17
REMARK H PARENT 14 11 12 13 8 16 10 18
REMARK Flexibility Score: inf
ROOT
ATOM      1  C   UNL     1      22.246  20.800  85.153  1.00  0.00     0.281 C 
ATOM      2  C   UNL     1      22.692  21.893  86.145  1.00  0.00     0.202 C 
ATOM      3  C   UNL     1      24.112  21.630  86.655  1.00  0.00     0.179 C 
ATOM      4  C   UNL     1      25.069  21.404  85.473  1.00  0.00     0.177 C 
ATOM      5  C   UNL     1      24.508  20.371  84.465  1.00  0.00     0.178 C 
ATOM      6  O   UNL     1      23.159  20.621  84.075  1.00  0.00    -0.341 OA
ENDROOT
BRANCH   1   7
ATOM      7  O   UNL     1      22.016  19.583  85.842  1.00  0.00    -0.350 OA
BRANCH   7   8
ATOM      8  C   UNL     1      21.013  18.826  85.196  1.00  0.00     0.160 C 
ATOM      9  C   UNL     1      19.771  19.687  85.024  1.00  0.00     0.035 C 
ENDBRANCH   7   8
ENDBRANCH   1   7
BRANCH   2  10
ATOM     10  O   UNL     1      22.642  23.154  85.526  1.00  0.00    -0.385 OA
ATOM     11  H   UNL     1      21.931  23.674  85.984  1.00  0.00     0.211 HD
ENDBRANCH   2  10
BRANCH   3  12
ATOM     12  O   UNL     1      24.110  20.519  87.514  1.00  0.00    -0.387 OA
ATOM     13  H   UNL     1      25.038  20.413  87.851  1.00  0.00     0.211 HD
ENDBRANCH   3  12
BRANCH   5  14
ATOM     14  C   UNL     1      24.762  18.905  84.878  1.00  0.00     0.191 C 
BRANCH  14  15
ATOM     15  O   UNL     1      25.835  18.829  85.778  1.00  0.00    -0.394 OA
ATOM     16  H   UNL     1      25.446  18.845  86.689  1.00  0.00     0.210 HD
ENDBRANCH  14  15
ENDBRANCH   5  14
BRANCH   4  17
ATOM     17  O   UNL     1      25.291  22.619  84.800  1.00  0.00    -0.387 OA
ATOM     18  H   UNL     1      24.544  22.735  84.156  1.00  0.00     0.211 HD
ENDBRANCH   4  17
TORSDOF 7
ENDMDL
MODEL 2
REMARK VINA RESULT:    -5.264      1.671      2.152
REMARK INTER + INTRA:          -7.267
REMARK INTER:                  -6.865
REMARK INTRA:                  -0.403
REMARK UNBOUND:                -0.465
REMARK SMILES CCO[C@@H]1O[C@H](CO)[C@@H](O)[C@H](O)[C@H]1O
REMARK SMILES IDX 4 1 13 2 11 3 9 4 6 5 5 6 3 7 2 8 1 9 14 10 12 12 7 14 8 15
REMARK SMILES IDX 10 17
REMARK H PARENT 14 11 12 13 8 16 10 18
REMARK Flexibility Score: inf
ROOT
ATOM      1  C   UNL     1      22.532  20.845  84.908  1.00  0.00     0.281 C 
ATOM      2  C   UNL     1      21.872  20.645  86.287  1.00  0.00     0.202 C 
ATOM      3  C   UNL     1      22.918  20.331  87.360  1.00  0.00     0.179 C 
ATOM      4  C   UNL     1      24.044  21.379  87.330  1.00  0.00     0.177 C 
ATOM      5  C   UNL     1      24.587  21.602  85.898  1.00  0.00     0.178 C 
ATOM      6  O   UNL     1      23.569  21.821  84.922  1.00  0.00    -0.341 OA
ENDROOT
BRANCH   1   7
ATOM      7  O   UNL     1      23.000  19.603  84.410  1.00  0.00    -0.350 OA
BRANCH   7   8
ATOM      8  C   UNL     1      22.978  19.592  82.997  1.00  0.00     0.160 C 
ATOM      9  C   UNL     1      21.542  19.427  82.522  1.00  0.00     0.035 C 
ENDBRANCH   7   8
ENDBRANCH   1   7
BRANCH   2  10
ATOM     10  O   UNL     1      21.160  21.802  86.651  1.00  0.00    -0.385 OA
ATOM     11  H   UNL     1      20.999  21.748  87.629  1.00  0.00     0.211 HD
ENDBRANCH   2  10
BRANCH   3  12
ATOM     12  O   UNL     1      23.434  19.041  87.158  1.00  0.00    -0.387 OA
ATOM     13  H   UNL     1      23.070  18.716  86.293  1.00  0.00     0.211 HD
ENDBRANCH   3  12
BRANCH   5  14
ATOM     14  C   UNL     1      25.631  20.550  85.463  1.00  0.00     0.191 C 
BRANCH  14  15
ATOM     15  O   UNL     1      26.403  20.144  86.561  1.00  0.00    -0.394 OA
ATOM     16  H   UNL     1      26.663  19.203  86.397  1.00  0.00     0.210 HD
ENDBRANCH  14  15
ENDBRANCH   5  14
BRANCH   4  17
ATOM     17  O   UNL     1      23.567  22.605  87.829  1.00  0.00    -0.387 OA
ATOM     18  H   UNL     1      23.357  23.176  87.044  1.00  0.00     0.211 HD
ENDBRANCH   4  17
TORSDOF 7
ENDMDL
MODEL 3
REMARK VINA RESULT:    -5.173      1.732      4.060
REMARK INTER + INTRA:          -7.150
REMARK INTER:                  -6.689
REMARK INTRA:                  -0.461
REMARK UNBOUND:                -0.465
REMARK SMILES CCO[C@@H]1O[C@H](CO)[C@@H](O)[C@H](O)[C@H]1O
REMARK SMILES IDX 4 1 13 2 11 3 9 4 6 5 5 6 3 7 2 8 1 9 14 10 12 12 7 14 8 15
REMARK SMILES IDX 10 17
REMARK H PARENT 14 11 12 13 8 16 10 18
REMARK Flexibility Score: inf
ROOT
ATOM      1  C   UNL     1      24.375  20.097  85.658  1.00  0.00     0.281 C 
ATOM      2  C   UNL     1      24.993  20.722  86.925  1.00  0.00     0.202 C 
ATOM      3  C   UNL     1      23.929  21.430  87.767  1.00  0.00     0.179 C 
ATOM      4  C   UNL     1      22.740  20.489  88.026  1.00  0.00     0.177 C 
ATOM      5  C   UNL     1      22.240  19.818  86.724  1.00  0.00     0.178 C 
ATOM      6  O   UNL     1      23.279  19.233  85.941  1.00  0.00    -0.341 OA
ENDROOT
BRANCH   1   7
ATOM      7  O   UNL     1      24.008  21.116  84.744  1.00  0.00    -0.350 OA
BRANCH   7   8
ATOM      8  C   UNL     1      25.051  21.361  83.824  1.00  0.00     0.160 C 
ATOM      9  C   UNL     1      25.300  22.859  83.740  1.00  0.00     0.035 C 
ENDBRANCH   7   8
ENDBRANCH   1   7
BRANCH   2  10
ATOM     10  O   UNL     1      25.616  19.725  87.698  1.00  0.00    -0.385 OA
ATOM     11  H   UNL     1      24.919  19.339  88.290  1.00  0.00     0.211 HD
ENDBRANCH   2  10
BRANCH   3  12
ATOM     12  O   UNL     1      23.504  22.598  87.112  1.00  0.00    -0.387 OA
ATOM     13  H   UNL     1      24.176  22.795  86.408  1.00  0.00     0.211 HD
ENDBRANCH   3  12
BRANCH   5  14
ATOM     14  C   UNL     1      21.282  20.707  85.901  1.00  0.00     0.191 C 
BRANCH  14  15
ATOM     15  O   UNL     1      20.688  21.677  86.721  1.00  0.00    -0.394 OA
ATOM     16  H   UNL     1      20.536  21.253  87.603  1.00  0.00     0.210 HD
ENDBRANCH  14  15
ENDBRANCH   5  14
BRANCH   4  17
ATOM     17  O   UNL     1      23.118  19.485  88.936  1.00  0.00    -0.387 OA
ATOM     18  H   UNL     1      22.869  19.804  89.842  1.00  0.00     0.211 HD
ENDBRANCH   4  17
TORSDOF 7
ENDMDL
MODEL 4
REMARK VINA RESULT:    -5.169      1.395      2.801
REMARK INTER + INTRA:          -7.145
REMARK INTER:                  -6.708
REMARK INTRA:                  -0.437
REMARK UNBOUND:                -0.465
REMARK SMILES CCO[C@@H]1O[C@H](CO)[C@@H](O)[C@H](O)[C@H]1O
REMARK SMILES IDX 4 1 13 2 11 3 9 4 6 5 5 6 3 7 2 8 1 9 14 10 12 12 7 14 8 15
REMARK SMILES IDX 10 17
REMARK H PARENT 14 11 12 13 8 16 10 18
REMARK Flexibility Score: inf
ROOT
ATOM      1  C   UNL     1      22.593  19.745  85.568  1.00  0.00     0.281 C 
ATOM      2  C   UNL     1      23.233  20.536  84.410  1.00  0.00     0.202 C 
ATOM      3  C   UNL     1      23.852  21.844  84.910  1.00  0.00     0.179 C 
ATOM      4  C   UNL     1      24.789  21.571  86.099  1.00  0.00     0.177 C 
ATOM      5  C   UNL     1      24.114  20.685  87.174  1.00  0.00     0.178 C 
ATOM      6  O   UNL     1      23.492  19.514  86.649  1.00  0.00    -0.341 OA
ENDROOT
BRANCH   1   7
ATOM      7  O   UNL     1      21.414  20.397  86.009  1.00  0.00    -0.350 OA
BRANCH   7   8
ATOM      8  C   UNL     1      20.283  19.898  85.325  1.00  0.00     0.160 C 
ATOM      9  C   UNL     1      20.408  18.388  85.189  1.00  0.00     0.035 C 
ENDBRANCH   7   8
ENDBRANCH   1   7
BRANCH   2  10
ATOM     10  O   UNL     1      24.224  19.758  83.786  1.00  0.00    -0.385 OA
ATOM     11  H   UNL     1      23.898  19.553  82.870  1.00  0.00     0.211 HD
ENDBRANCH   2  10
BRANCH   3  12
ATOM     12  O   UNL     1      22.835  22.742  85.274  1.00  0.00    -0.387 OA
ATOM     13  H   UNL     1      22.001  22.426  84.839  1.00  0.00     0.211 HD
ENDBRANCH   3  12
BRANCH   5  14
ATOM     14  C   UNL     1      23.207  21.474  88.143  1.00  0.00     0.191 C 
BRANCH  14  15
ATOM     15  O   UNL     1      23.544  22.836  88.130  1.00  0.00    -0.394 OA
ATOM     16  H   UNL     1      23.627  23.101  87.180  1.00  0.00     0.210 HD
ENDBRANCH  14  15
ENDBRANCH   5  14
BRANCH   4  17
ATOM     17  O   UNL     1      25.955  20.926  85.648  1.00  0.00    -0.387 OA
ATOM     18  H   UNL     1      26.064  20.105  86.196  1.00  0.00     0.211 HD
ENDBRANCH   4  17
TORSDOF 7
ENDMDL
MODEL 5
REMARK VINA RESULT:    -5.120      1.694      3.050
REMARK INTER + INTRA:          -7.081
REMARK INTER:                  -6.618
REMARK INTRA:                  -0.464
REMARK UNBOUND:                -0.465
REMARK SMILES CCO[C@@H]1O[C@H](CO)[C@@H](O)[C@H](O)[C@H]1O
REMARK SMILES IDX 4 1 13 2 11 3 9 4 6 5 5 6 3 7 2 8 1 9 14 10 12 12 7 14 8 15
REMARK SMILES IDX 10 17
REMARK H PARENT 14 11 12 13 8 16 10 18
REMARK Flexibility Score: inf
ROOT
ATOM      1  C   UNL     1      24.430  20.906  85.443  1.00  0.00     0.281 C 
ATOM      2  C   UNL     1      23.121  21.682  85.197  1.00  0.00     0.202 C 
ATOM      3  C   UNL     1      22.157  21.528  86.376  1.00  0.00     0.179 C 
ATOM      4  C   UNL     1      22.870  21.869  87.696  1.00  0.00     0.177 C 
ATOM      5  C   UNL     1      24.225  21.133  87.827  1.00  0.00     0.178 C 
ATOM      6  O   UNL     1      25.059  21.250  86.675  1.00  0.00    -0.341 OA
ENDROOT
BRANCH   1   7
ATOM      7  O   UNL     1      24.192  19.512  85.357  1.00  0.00    -0.350 OA
BRANCH   7   8
ATOM      8  C   UNL     1      24.018  19.117  84.012  1.00  0.00     0.160 C 
ATOM      9  C   UNL     1      23.230  17.817  83.971  1.00  0.00     0.035 C 
ENDBRANCH   7   8
ENDBRANCH   1   7
BRANCH   2  10
ATOM     10  O   UNL     1      23.401  23.046  84.995  1.00  0.00    -0.385 OA
ATOM     11  H   UNL     1      24.373  23.117  84.803  1.00  0.00     0.211 HD
ENDBRANCH   2  10
BRANCH   3  12
ATOM     12  O   UNL     1      21.651  20.218  86.408  1.00  0.00    -0.387 OA
ATOM     13  H   UNL     1      22.355  19.646  86.812  1.00  0.00     0.211 HD
ENDBRANCH   3  12
BRANCH   5  14
ATOM     14  C   UNL     1      24.093  19.682  88.339  1.00  0.00     0.191 C 
BRANCH  14  15
ATOM     15  O   UNL     1      22.973  19.558  89.174  1.00  0.00    -0.394 OA
ATOM     16  H   UNL     1      22.648  18.628  89.081  1.00  0.00     0.210 HD
ENDBRANCH  14  15
ENDBRANCH   5  14
BRANCH   4  17
ATOM     17  O   UNL     1      23.098  23.255  87.769  1.00  0.00    -0.387 OA
ATOM     18  H   UNL     1      24.002  23.381  88.161  1.00  0.00     0.211 HD
ENDBRANCH   4  17
TORSDOF 7
ENDMDL
MODEL 6
REMARK VINA RESULT:    -5.094      1.797      3.188
REMARK INTER + INTRA:          -7.047
REMARK INTER:                  -6.834
REMARK INTRA:                  -0.214
REMARK UNBOUND:                -0.465
REMARK SMILES CCO[C@@H]1O[C@H](CO)[C@@H](O)[C@H](O)[C@H]1O
REMARK SMILES IDX 4 1 13 2 11 3 9 4 6 5 5 6 3 7 2 8 1 9 14 10 12 12 7 14 8 15
REMARK SMILES IDX 10 17
REMARK H PARENT 14 11 12 13 8 16 10 18
REMARK Flexibility Score: inf
ROOT
ATOM      1  C   UNL     1      22.598  19.260  86.922  1.00  0.00     0.281 C 
ATOM      2  C   UNL     1      23.604  19.192  88.088  1.00  0.00     0.202 C 
ATOM      3  C   UNL     1      24.701  20.249  87.934  1.00  0.00     0.179 C 
ATOM      4  C   UNL     1      24.076  21.636  87.701  1.00  0.00     0.177 C 
ATOM      5  C   UNL     1      23.002  21.605  86.587  1.00  0.00     0.178 C 
ATOM      6  O   UNL     1      22.044  20.559  86.738  1.00  0.00    -0.341 OA
ENDROOT
BRANCH   1   7
ATOM      7  O   UNL     1      23.203  18.784  85.731  1.00  0.00    -0.350 OA
BRANCH   7   8
ATOM      8  C   UNL     1      22.270  18.068  84.949  1.00  0.00     0.160 C 
ATOM      9  C   UNL     1      21.433  17.182  85.858  1.00  0.00     0.035 C 
ENDBRANCH   7   8
ENDBRANCH   1   7
BRANCH   2  10
ATOM     10  O   UNL     1      22.936  19.385  89.311  1.00  0.00    -0.385 OA
ATOM     11  H   UNL     1      22.385  18.575  89.471  1.00  0.00     0.211 HD
ENDBRANCH   2  10
BRANCH   3  12
ATOM     12  O   UNL     1      25.551  19.901  86.871  1.00  0.00    -0.387 OA
ATOM     13  H   UNL     1      25.348  20.522  86.124  1.00  0.00     0.211 HD
ENDBRANCH   3  12
BRANCH   5  14
ATOM     14  C   UNL     1      23.589  21.692  85.161  1.00  0.00     0.191 C 
BRANCH  14  15
ATOM     15  O   UNL     1      23.699  23.031  84.758  1.00  0.00    -0.394 OA
ATOM     16  H   UNL     1      23.697  23.579  85.582  1.00  0.00     0.210 HD
ENDBRANCH  14  15
ENDBRANCH   5  14
BRANCH   4  17
ATOM     17  O   UNL     1      23.482  22.096  88.890  1.00  0.00    -0.387 OA
ATOM     18  H   UNL     1      22.544  22.336  88.672  1.00  0.00     0.211 HD
ENDBRANCH   4  17
TORSDOF 7
ENDMDL
MODEL 7
REMARK VINA RESULT:    -4.967      1.776      2.465
REMARK INTER + INTRA:          -6.884
REMARK INTER:                  -6.422
REMARK INTRA:                  -0.462
REMARK UNBOUND:                -0.465
REMARK SMILES CCO[C@@H]1O[C@H](CO)[C@@H](O)[C@H](O)[C@H]1O
REMARK SMILES IDX 4 1 13 2 11 3 9 4 6 5 5 6 3 7 2 8 1 9 14 10 12 12 7 14 8 15
REMARK SMILES IDX 10 17
REMARK H PARENT 14 11 12 13 8 16 10 18
REMARK Flexibility Score: inf
ROOT
ATOM      1  C   UNL     1      23.465  21.310  85.364  1.00  0.00     0.281 C 
ATOM      2  C   UNL     1      24.928  21.614  85.745  1.00  0.00     0.202 C 
ATOM      3  C   UNL     1      25.818  20.385  85.544  1.00  0.00     0.179 C 
ATOM      4  C   UNL     1      25.626  19.813  84.129  1.00  0.00     0.177 C 
ATOM      5  C   UNL     1      24.129  19.632  83.777  1.00  0.00     0.178 C 
ATOM      6  O   UNL     1      23.330  20.782  84.048  1.00  0.00    -0.341 OA
ENDROOT
BRANCH   1   7
ATOM      7  O   UNL     1      22.881  20.450  86.328  1.00  0.00    -0.350 OA
BRANCH   7   8
ATOM      8  C   UNL     1      22.383  21.191  87.422  1.00  0.00     0.160 C 
ATOM      9  C   UNL     1      23.029  20.684  88.703  1.00  0.00     0.035 C 
ENDBRANCH   7   8
ENDBRANCH   1   7
BRANCH   2  10
ATOM     10  O   UNL     1      25.416  22.679  84.967  1.00  0.00    -0.385 OA
ATOM     11  H   UNL     1      26.176  22.325  84.436  1.00  0.00     0.211 HD
ENDBRANCH   2  10
BRANCH   3  12
ATOM     12  O   UNL     1      25.518  19.416  86.516  1.00  0.00    -0.387 OA
ATOM     13  H   UNL     1      24.883  19.834  87.154  1.00  0.00     0.211 HD
ENDBRANCH   3  12
BRANCH   5  14
ATOM     14  C   UNL     1      23.520  18.324  84.327  1.00  0.00     0.191 C 
BRANCH  14  15
ATOM     15  O   UNL     1      24.526  17.374  84.556  1.00  0.00    -0.394 OA
ATOM     16  H   UNL     1      24.084  16.488  84.579  1.00  0.00     0.210 HD
ENDBRANCH  14  15
ENDBRANCH   5  14
BRANCH   4  17
ATOM     17  O   UNL     1      26.212  20.675  83.184  1.00  0.00    -0.387 OA
ATOM     18  H   UNL     1      26.948  21.155  83.645  1.00  0.00     0.211 HD
ENDBRANCH   4  17
TORSDOF 7
ENDMDL
MODEL 8
REMARK VINA RESULT:    -4.949      1.600      3.639
REMARK INTER + INTRA:          -6.860
REMARK INTER:                  -6.472
REMARK INTRA:                  -0.388
REMARK UNBOUND:                -0.465
REMARK SMILES CCO[C@@H]1O[C@H](CO)[C@@H](O)[C@H](O)[C@H]1O
REMARK SMILES IDX 4 1 13 2 11 3 9 4 6 5 5 6 3 7 2 8 1 9 14 10 12 12 7 14 8 15
REMARK SMILES IDX 10 17
REMARK H PARENT 14 11 12 13 8 16 10 18
REMARK Flexibility Score: inf
ROOT
ATOM      1  C   UNL     1      23.593  20.541  86.587  1.00  0.00     0.281 C 
ATOM      2  C   UNL     1      22.668  19.381  86.167  1.00  0.00     0.202 C 
ATOM      3  C   UNL     1      22.760  19.118  84.661  1.00  0.00     0.179 C 
ATOM      4  C   UNL     1      24.230  18.957  84.237  1.00  0.00     0.177 C 
ATOM      5  C   UNL     1      25.117  20.103  84.781  1.00  0.00     0.178 C 
ATOM      6  O   UNL     1      24.944  20.354  86.175  1.00  0.00    -0.341 OA
ENDROOT
BRANCH   1   7
ATOM      7  O   UNL     1      23.074  21.772  86.112  1.00  0.00    -0.350 OA
BRANCH   7   8
ATOM      8  C   UNL     1      22.497  22.511  87.168  1.00  0.00     0.160 C 
ATOM      9  C   UNL     1      23.389  22.406  88.396  1.00  0.00     0.035 C 
ENDBRANCH   7   8
ENDBRANCH   1   7
BRANCH   2  10
ATOM     10  O   UNL     1      23.014  18.212  86.868  1.00  0.00    -0.385 OA
ATOM     11  H   UNL     1      22.348  17.518  86.621  1.00  0.00     0.211 HD
ENDBRANCH   2  10
BRANCH   3  12
ATOM     12  O   UNL     1      22.152  20.171  83.957  1.00  0.00    -0.387 OA
ATOM     13  H   UNL     1      22.121  20.950  84.572  1.00  0.00     0.211 HD
ENDBRANCH   3  12
BRANCH   5  14
ATOM     14  C   UNL     1      25.069  21.384  83.920  1.00  0.00     0.191 C 
BRANCH  14  15
ATOM     15  O   UNL     1      25.531  22.485  84.655  1.00  0.00    -0.394 OA
ATOM     16  H   UNL     1      26.516  22.506  84.550  1.00  0.00     0.210 HD
ENDBRANCH  14  15
ENDBRANCH   5  14
BRANCH   4  17
ATOM     17  O   UNL     1      24.731  17.731  84.712  1.00  0.00    -0.387 OA
ATOM     18  H   UNL     1      24.503  17.042  84.035  1.00  0.00     0.211 HD
ENDBRANCH   4  17
TORSDOF 7
ENDMDL
MODEL 9
REMARK VINA RESULT:    -4.921      1.497      3.190
REMARK INTER + INTRA:          -6.824
REMARK INTER:                  -6.369
REMARK INTRA:                  -0.455
REMARK UNBOUND:                -0.465
REMARK SMILES CCO[C@@H]1O[C@H](CO)[C@@H](O)[C@H](O)[C@H]1O
REMARK SMILES IDX 4 1 13 2 11 3 9 4 6 5 5 6 3 7 2 8 1 9 14 10 12 12 7 14 8 15
REMARK SMILES IDX 10 17
REMARK H PARENT 14 11 12 13 8 16 10 18
REMARK Flexibility Score: inf
ROOT
ATOM      1  C   UNL     1      21.828  20.075  86.362  1.00  0.00     0.281 C 
ATOM      2  C   UNL     1      22.630  18.759  86.317  1.00  0.00     0.202 C 
ATOM      3  C   UNL     1      24.010  18.974  85.690  1.00  0.00     0.179 C 
ATOM      4  C   UNL     1      24.731  20.146  86.378  1.00  0.00     0.177 C 
ATOM      5  C   UNL     1      23.829  21.400  86.480  1.00  0.00     0.178 C 
ATOM      6  O   UNL     1      22.530  21.134  87.006  1.00  0.00    -0.341 OA
ENDROOT
BRANCH   1   7
ATOM      7  O   UNL     1      21.424  20.442  85.054  1.00  0.00    -0.350 OA
BRANCH   7   8
ATOM      8  C   UNL     1      20.332  19.654  84.629  1.00  0.00     0.160 C 
ATOM      9  C   UNL     1      20.378  19.514  83.115  1.00  0.00     0.035 C 
ENDBRANCH   7   8
ENDBRANCH   1   7
BRANCH   2  10
ATOM     10  O   UNL     1      22.781  18.243  87.617  1.00  0.00    -0.385 OA
ATOM     11  H   UNL     1      22.751  17.253  87.542  1.00  0.00     0.211 HD
ENDBRANCH   2  10
BRANCH   3  12
ATOM     12  O   UNL     1      23.873  19.213  84.312  1.00  0.00    -0.387 OA
ATOM     13  H   UNL     1      23.378  20.068  84.216  1.00  0.00     0.211 HD
ENDBRANCH   3  12
BRANCH   5  14
ATOM     14  C   UNL     1      23.803  22.247  85.189  1.00  0.00     0.191 C 
BRANCH  14  15
ATOM     15  O   UNL     1      22.763  23.187  85.243  1.00  0.00    -0.394 OA
ATOM     16  H   UNL     1      22.899  23.809  84.484  1.00  0.00     0.210 HD
ENDBRANCH  14  15
ENDBRANCH   5  14
BRANCH   4  17
ATOM     17  O   UNL     1      25.128  19.766  87.673  1.00  0.00    -0.387 OA
ATOM     18  H   UNL     1      24.626  18.940  87.900  1.00  0.00     0.211 HD
ENDBRANCH   4  17
TORSDOF 7
ENDMDL
