MODEL 1
REMARK VINA RESULT:    -3.546      0.000      0.000
REMARK INTER + INTRA:          -5.797
REMARK INTER:                  -5.205
REMARK INTRA:                  -0.592
REMARK UNBOUND:                -0.592
REMARK SMILES O=C([O-])CCCCCCCC(=O)[O-]
REMARK SMILES IDX 7 1 6 2 5 3 4 4 2 5 1 6 3 7 8 8 9 9 10 10 11 11 12 12 13 13
REMARK H PARENT
REMARK Flexibility Score: inf
ROOT
ATOM      1  C   UNL     1      12.327  22.722  17.056  1.00  0.00     0.000 C 
ENDROOT
BRANCH   1   2
ATOM      2  C   UNL     1      12.852  21.632  16.103  1.00  0.00     0.000 C 
BRANCH   2   3
ATOM      3  C   UNL     1      11.856  20.478  15.907  1.00  0.00     0.006 C 
BRANCH   3   4
ATOM      4  C   UNL     1      10.467  20.859  16.428  1.00  0.00     0.053 C 
BRANCH   4   5
ATOM      5  C   UNL     1       9.799  19.675  17.051  1.00  0.00     0.041 C 
ATOM      6  O   UNL     1      10.368  19.041  17.978  1.00  0.00    -0.550 OA
ATOM      7  O   UNL     1       8.524  19.302  16.644  1.00  0.00    -0.550 OA
ENDBRANCH   4   5
ENDBRANCH   3   4
ENDBRANCH   2   3
ENDBRANCH   1   2
BRANCH   1   8
ATOM      8  C   UNL     1      13.294  23.125  18.185  1.00  0.00     0.000 C 
BRANCH   8   9
ATOM      9  C   UNL     1      12.758  22.927  19.616  1.00  0.00     0.006 C 
BRANCH   9  10
ATOM     10  C   UNL     1      11.740  21.779  19.749  1.00  0.00     0.053 C 
BRANCH  10  11
ATOM     11  C   UNL     1      11.450  21.434  21.178  1.00  0.00     0.041 C 
ATOM     12  O   UNL     1      10.492  20.669  21.465  1.00  0.00    -0.550 OA
ATOM     13  O   UNL     1      12.260  21.929  22.193  1.00  0.00    -0.550 OA
ENDBRANCH  10  11
ENDBRANCH   9  10
ENDBRANCH   8   9
ENDBRANCH   1   8
TORSDOF 8
ENDMDL
MODEL 2
REMARK VINA RESULT:    -3.394      1.038      4.437
REMARK INTER + INTRA:          -5.574
REMARK INTER:                  -5.085
REMARK INTRA:                  -0.488
REMARK UNBOUND:                -0.592
REMARK SMILES O=C([O-])CCCCCCCC(=O)[O-]
REMARK SMILES IDX 7 1 6 2 5 3 4 4 2 5 1 6 3 7 8 8 9 9 10 10 11 11 12 12 13 13
REMARK H PARENT
REMARK Flexibility Score: inf
ROOT
ATOM      1  C   UNL     1      12.844  21.586  16.223  1.00  0.00     0.000 C 
ENDROOT
BRANCH   1   2
ATOM      2  C   UNL     1      12.345  22.840  16.965  1.00  0.00     0.000 C 
BRANCH   2   3
ATOM      3  C   UNL     1      12.937  22.976  18.376  1.00  0.00     0.006 C 
BRANCH   3   4
ATOM      4  C   UNL     1      12.225  22.045  19.362  1.00  0.00     0.053 C 
BRANCH   4   5
ATOM      5  C   UNL     1      12.442  22.505  20.768  1.00  0.00     0.041 C 
ATOM      6  O   UNL     1      13.525  23.059  21.093  1.00  0.00    -0.550 OA
ATOM      7  O   UNL     1      11.429  22.367  21.708  1.00  0.00    -0.550 OA
ENDBRANCH   4   5
ENDBRANCH   3   4
ENDBRANCH   2   3
ENDBRANCH   1   2
BRANCH   1   8
ATOM      8  C   UNL     1      11.772  20.512  15.958  1.00  0.00     0.000 C 
BRANCH   8   9
ATOM      9  C   UNL     1      10.334  20.902  16.352  1.00  0.00     0.006 C 
BRANCH   9  10
ATOM     10  C   UNL     1       9.390  19.700  16.541  1.00  0.00     0.053 C 
BRANCH  10  11
ATOM     11  C   UNL     1       9.260  19.294  17.978  1.00  0.00     0.041 C 
ATOM     12  O   UNL     1       8.173  19.468  18.590  1.00  0.00    -0.550 OA
ATOM     13  O   UNL     1      10.327  18.692  18.632  1.00  0.00    -0.550 OA
ENDBRANCH  10  11
ENDBRANCH   9  10
ENDBRANCH   8   9
ENDBRANCH   1   8
TORSDOF 8
ENDMDL
MODEL 3
REMARK VINA RESULT:    -3.353     11.211     12.603
REMARK INTER + INTRA:          -5.514
REMARK INTER:                  -5.250
REMARK INTRA:                  -0.263
REMARK UNBOUND:                -0.592
REMARK SMILES O=C([O-])CCCCCCCC(=O)[O-]
REMARK SMILES IDX 7 1 6 2 5 3 4 4 2 5 1 6 3 7 8 8 9 9 10 10 11 11 12 12 13 13
REMARK H PARENT
REMARK Flexibility Score: inf
ROOT
ATOM      1  C   UNL     1      13.139  23.125  28.791  1.00  0.00     0.000 C 
ENDROOT
BRANCH   1   2
ATOM      2  C   UNL     1      11.714  22.545  28.735  1.00  0.00     0.000 C 
BRANCH   2   3
ATOM      3  C   UNL     1      11.233  22.007  30.092  1.00  0.00     0.006 C 
BRANCH   3   4
ATOM      4  C   UNL     1       9.741  22.285  30.294  1.00  0.00     0.053 C 
BRANCH   4   5
ATOM      5  C   UNL     1       8.996  21.008  30.523  1.00  0.00     0.041 C 
ATOM      6  O   UNL     1       7.757  20.951  30.310  1.00  0.00    -0.550 OA
ATOM      7  O   UNL     1       9.680  19.867  30.923  1.00  0.00    -0.550 OA
ENDBRANCH   4   5
ENDBRANCH   3   4
ENDBRANCH   2   3
ENDBRANCH   1   2
BRANCH   1   8
ATOM      8  C   UNL     1      13.901  22.865  30.105  1.00  0.00     0.000 C 
BRANCH   8   9
ATOM      9  C   UNL     1      15.438  22.876  29.990  1.00  0.00     0.006 C 
BRANCH   9  10
ATOM     10  C   UNL     1      16.134  21.781  30.821  1.00  0.00     0.053 C 
BRANCH  10  11
ATOM     11  C   UNL     1      17.578  22.089  31.078  1.00  0.00     0.041 C 
ATOM     12  O   UNL     1      18.127  23.073  30.517  1.00  0.00    -0.550 OA
ATOM     13  O   UNL     1      18.309  21.311  31.967  1.00  0.00    -0.550 OA
ENDBRANCH  10  11
ENDBRANCH   9  10
ENDBRANCH   8   9
ENDBRANCH   1   8
TORSDOF 8
ENDMDL
MODEL 4
REMARK VINA RESULT:    -3.265      1.527      5.602
REMARK INTER + INTRA:          -5.384
REMARK INTER:                  -5.012
REMARK INTRA:                  -0.372
REMARK UNBOUND:                -0.592
REMARK SMILES O=C([O-])CCCCCCCC(=O)[O-]
REMARK SMILES IDX 7 1 6 2 5 3 4 4 2 5 1 6 3 7 8 8 9 9 10 10 11 11 12 12 13 13
REMARK H PARENT
REMARK Flexibility Score: inf
ROOT
ATOM      1  C   UNL     1      11.863  22.561  18.249  1.00  0.00     0.000 C 
ENDROOT
BRANCH   1   2
ATOM      2  C   UNL     1      12.267  21.856  19.557  1.00  0.00     0.000 C 
BRANCH   2   3
ATOM      3  C   UNL     1      12.734  22.835  20.645  1.00  0.00     0.006 C 
BRANCH   3   4
ATOM      4  C   UNL     1      12.482  22.262  22.042  1.00  0.00     0.053 C 
BRANCH   4   5
ATOM      5  C   UNL     1      13.638  22.554  22.945  1.00  0.00     0.041 C 
ATOM      6  O   UNL     1      13.500  22.487  24.194  1.00  0.00    -0.550 OA
ATOM      7  O   UNL     1      14.883  22.851  22.405  1.00  0.00    -0.550 OA
ENDBRANCH   4   5
ENDBRANCH   3   4
ENDBRANCH   2   3
ENDBRANCH   1   2
BRANCH   1   8
ATOM      8  C   UNL     1      12.661  22.134  17.002  1.00  0.00     0.000 C 
BRANCH   8   9
ATOM      9  C   UNL     1      12.083  20.935  16.226  1.00  0.00     0.006 C 
BRANCH   9  10
ATOM     10  C   UNL     1      10.559  21.003  16.014  1.00  0.00     0.053 C 
BRANCH  10  11
ATOM     11  C   UNL     1       9.840  19.853  16.651  1.00  0.00     0.041 C 
ATOM     12  O   UNL     1       8.786  19.399  16.134  1.00  0.00    -0.550 OA
ATOM     13  O   UNL     1      10.354  19.258  17.797  1.00  0.00    -0.550 OA
ENDBRANCH  10  11
ENDBRANCH   9  10
ENDBRANCH   8   9
ENDBRANCH   1   8
TORSDOF 8
ENDMDL
MODEL 5
REMARK VINA RESULT:    -3.253     20.962     22.674
REMARK INTER + INTRA:          -5.366
REMARK INTER:                  -4.553
REMARK INTRA:                  -0.813
REMARK UNBOUND:                -0.592
REMARK SMILES O=C([O-])CCCCCCCC(=O)[O-]
REMARK SMILES IDX 7 1 6 2 5 3 4 4 2 5 1 6 3 7 8 8 9 9 10 10 11 11 12 12 13 13
REMARK H PARENT
REMARK Flexibility Score: inf
ROOT
ATOM      1  C   UNL     1      12.357   4.173  35.688  1.00  0.00     0.000 C 
ENDROOT
BRANCH   1   2
ATOM      2  C   UNL     1      11.792   3.255  34.588  1.00  0.00     0.000 C 
BRANCH   2   3
ATOM      3  C   UNL     1      12.121   3.746  33.171  1.00  0.00     0.006 C 
BRANCH   3   4
ATOM      4  C   UNL     1      10.949   3.496  32.218  1.00  0.00     0.053 C 
BRANCH   4   5
ATOM      5  C   UNL     1      10.647   4.727  31.423  1.00  0.00     0.041 C 
ATOM      6  O   UNL     1      11.010   5.857  31.843  1.00  0.00    -0.550 OA
ATOM      7  O   UNL     1      10.008   4.621  30.194  1.00  0.00    -0.550 OA
ENDBRANCH   4   5
ENDBRANCH   3   4
ENDBRANCH   2   3
ENDBRANCH   1   2
BRANCH   1   8
ATOM      8  C   UNL     1      11.427   5.321  36.125  1.00  0.00     0.000 C 
BRANCH   8   9
ATOM      9  C   UNL     1       9.924   5.084  35.878  1.00  0.00     0.006 C 
BRANCH   9  10
ATOM     10  C   UNL     1       9.290   6.075  34.883  1.00  0.00     0.053 C 
BRANCH  10  11
ATOM     11  C   UNL     1       8.225   5.439  34.043  1.00  0.00     0.041 C 
ATOM     12  O   UNL     1       7.521   6.142  33.272  1.00  0.00    -0.550 OA
ATOM     13  O   UNL     1       8.033   4.063  34.084  1.00  0.00    -0.550 OA
ENDBRANCH  10  11
ENDBRANCH   9  10
ENDBRANCH   8   9
ENDBRANCH   1   8
TORSDOF 8
ENDMDL
MODEL 6
REMARK VINA RESULT:    -3.239     21.051     23.136
REMARK INTER + INTRA:          -5.347
REMARK INTER:                  -4.821
REMARK INTRA:                  -0.525
REMARK UNBOUND:                -0.592
REMARK SMILES O=C([O-])CCCCCCCC(=O)[O-]
REMARK SMILES IDX 7 1 6 2 5 3 4 4 2 5 1 6 3 7 8 8 9 9 10 10 11 11 12 12 13 13
REMARK H PARENT
REMARK Flexibility Score: inf
ROOT
ATOM      1  C   UNL     1      11.484   5.313  36.030  1.00  0.00     0.000 C 
ENDROOT
BRANCH   1   2
ATOM      2  C   UNL     1      10.089   4.730  35.737  1.00  0.00     0.000 C 
BRANCH   2   3
ATOM      3  C   UNL     1       9.047   5.808  35.404  1.00  0.00     0.006 C 
BRANCH   3   4
ATOM      4  C   UNL     1       8.789   5.875  33.896  1.00  0.00     0.053 C 
BRANCH   4   5
ATOM      5  C   UNL     1       9.951   6.500  33.192  1.00  0.00     0.041 C 
ATOM      6  O   UNL     1      10.458   5.941  32.185  1.00  0.00    -0.550 OA
ATOM      7  O   UNL     1      10.443   7.728  33.619  1.00  0.00    -0.550 OA
ENDBRANCH   4   5
ENDBRANCH   3   4
ENDBRANCH   2   3
ENDBRANCH   1   2
BRANCH   1   8
ATOM      8  C   UNL     1      12.624   4.279  36.104  1.00  0.00     0.000 C 
BRANCH   8   9
ATOM      9  C   UNL     1      12.380   2.970  35.330  1.00  0.00     0.006 C 
BRANCH   9  10
ATOM     10  C   UNL     1      13.119   2.894  33.981  1.00  0.00     0.053 C 
BRANCH  10  11
ATOM     11  C   UNL     1      12.187   2.979  32.811  1.00  0.00     0.041 C 
ATOM     12  O   UNL     1      10.944   2.876  32.982  1.00  0.00    -0.550 OA
ATOM     13  O   UNL     1      12.688   3.207  31.536  1.00  0.00    -0.550 OA
ENDBRANCH  10  11
ENDBRANCH   9  10
ENDBRANCH   8   9
ENDBRANCH   1   8
TORSDOF 8
ENDMDL
MODEL 7
REMARK VINA RESULT:    -3.193     20.944     22.341
REMARK INTER + INTRA:          -5.279
REMARK INTER:                  -4.617
REMARK INTRA:                  -0.662
REMARK UNBOUND:                -0.592
REMARK SMILES O=C([O-])CCCCCCCC(=O)[O-]
REMARK SMILES IDX 7 1 6 2 5 3 4 4 2 5 1 6 3 7 8 8 9 9 10 10 11 11 12 12 13 13
REMARK H PARENT
REMARK Flexibility Score: inf
ROOT
ATOM      1  C   UNL     1      11.621   3.125  34.807  1.00  0.00     0.000 C 
ENDROOT
BRANCH   1   2
ATOM      2  C   UNL     1      12.957   2.914  34.069  1.00  0.00     0.000 C 
BRANCH   2   3
ATOM      3  C   UNL     1      12.873   3.247  32.572  1.00  0.00     0.006 C 
BRANCH   3   4
ATOM      4  C   UNL     1      11.419   3.237  32.089  1.00  0.00     0.053 C 
BRANCH   4   5
ATOM      5  C   UNL     1      11.309   3.888  30.747  1.00  0.00     0.041 C 
ATOM      6  O   UNL     1      12.305   3.930  29.979  1.00  0.00    -0.550 OA
ATOM      7  O   UNL     1      10.090   4.404  30.324  1.00  0.00    -0.550 OA
ENDBRANCH   4   5
ENDBRANCH   3   4
ENDBRANCH   2   3
ENDBRANCH   1   2
BRANCH   1   8
ATOM      8  C   UNL     1      11.653   4.175  35.933  1.00  0.00     0.000 C 
BRANCH   8   9
ATOM      9  C   UNL     1      11.074   5.556  35.566  1.00  0.00     0.006 C 
BRANCH   9  10
ATOM     10  C   UNL     1       9.992   5.508  34.471  1.00  0.00     0.053 C 
BRANCH  10  11
ATOM     11  C   UNL     1       9.974   6.749  33.630  1.00  0.00     0.041 C 
ATOM     12  O   UNL     1      10.666   6.814  32.580  1.00  0.00    -0.550 OA
ATOM     13  O   UNL     1       9.165   7.821  33.987  1.00  0.00    -0.550 OA
ENDBRANCH  10  11
ENDBRANCH   9  10
ENDBRANCH   8   9
ENDBRANCH   1   8
TORSDOF 8
ENDMDL
MODEL 8
REMARK VINA RESULT:    -3.177     10.722     13.477
REMARK INTER + INTRA:          -5.256
REMARK INTER:                  -4.908
REMARK INTRA:                  -0.348
REMARK UNBOUND:                -0.592
REMARK SMILES O=C([O-])CCCCCCCC(=O)[O-]
REMARK SMILES IDX 7 1 6 2 5 3 4 4 2 5 1 6 3 7 8 8 9 9 10 10 11 11 12 12 13 13
REMARK H PARENT
REMARK Flexibility Score: inf
ROOT
ATOM      1  C   UNL     1       0.236  11.926  18.089  1.00  0.00     0.000 C 
ENDROOT
BRANCH   1   2
ATOM      2  C   UNL     1       0.550  12.910  19.230  1.00  0.00     0.000 C 
BRANCH   2   3
ATOM      3  C   UNL     1       0.183  12.357  20.615  1.00  0.00     0.006 C 
BRANCH   3   4
ATOM      4  C   UNL     1       0.210  13.465  21.673  1.00  0.00     0.053 C 
BRANCH   4   5
ATOM      5  C   UNL     1       1.090  13.076  22.818  1.00  0.00     0.041 C 
ATOM      6  O   UNL     1       1.290  11.861  23.079  1.00  0.00    -0.550 OA
ATOM      7  O   UNL     1       1.731  14.056  23.565  1.00  0.00    -0.550 OA
ENDBRANCH   4   5
ENDBRANCH   3   4
ENDBRANCH   2   3
ENDBRANCH   1   2
BRANCH   1   8
ATOM      8  C   UNL     1       0.815  12.311  16.714  1.00  0.00     0.000 C 
BRANCH   8   9
ATOM      9  C   UNL     1       2.119  13.132  16.753  1.00  0.00     0.006 C 
BRANCH   9  10
ATOM     10  C   UNL     1       1.970  14.566  16.211  1.00  0.00     0.053 C 
BRANCH  10  11
ATOM     11  C   UNL     1       2.819  15.550  16.958  1.00  0.00     0.041 C 
ATOM     12  O   UNL     1       2.762  15.613  18.214  1.00  0.00    -0.550 OA
ATOM     13  O   UNL     1       3.701  16.374  16.269  1.00  0.00    -0.550 OA
ENDBRANCH  10  11
ENDBRANCH   9  10
ENDBRANCH   8   9
ENDBRANCH   1   8
TORSDOF 8
ENDMDL
MODEL 9
REMARK VINA RESULT:    -3.122     21.227     22.909
REMARK INTER + INTRA:          -5.175
REMARK INTER:                  -4.647
REMARK INTRA:                  -0.528
REMARK UNBOUND:                -0.592
REMARK SMILES O=C([O-])CCCCCCCC(=O)[O-]
REMARK SMILES IDX 7 1 6 2 5 3 4 4 2 5 1 6 3 7 8 8 9 9 10 10 11 11 12 12 13 13
REMARK H PARENT
REMARK Flexibility Score: inf
ROOT
ATOM      1  C   UNL     1      11.374   3.603  35.620  1.00  0.00     0.000 C 
ENDROOT
BRANCH   1   2
ATOM      2  C   UNL     1      11.145   5.062  36.055  1.00  0.00     0.000 C 
BRANCH   2   3
ATOM      3  C   UNL     1       9.658   5.441  36.123  1.00  0.00     0.006 C 
BRANCH   3   4
ATOM      4  C   UNL     1       8.912   4.959  34.876  1.00  0.00     0.053 C 
BRANCH   4   5
ATOM      5  C   UNL     1       8.490   6.122  34.036  1.00  0.00     0.041 C 
ATOM      6  O   UNL     1       9.234   7.132  33.931  1.00  0.00    -0.550 OA
ATOM      7  O   UNL     1       7.296   6.070  33.327  1.00  0.00    -0.550 OA
ENDBRANCH   4   5
ENDBRANCH   3   4
ENDBRANCH   2   3
ENDBRANCH   1   2
BRANCH   1   8
ATOM      8  C   UNL     1      12.720   3.330  34.923  1.00  0.00     0.000 C 
BRANCH   8   9
ATOM      9  C   UNL     1      12.648   3.148  33.394  1.00  0.00     0.006 C 
BRANCH   9  10
ATOM     10  C   UNL     1      11.297   3.560  32.779  1.00  0.00     0.053 C 
BRANCH  10  11
ATOM     11  C   UNL     1      11.460   4.416  31.560  1.00  0.00     0.041 C 
ATOM     12  O   UNL     1      11.013   5.593  31.547  1.00  0.00    -0.550 OA
ATOM     13  O   UNL     1      12.138   3.927  30.450  1.00  0.00    -0.550 OA
ENDBRANCH  10  11
ENDBRANCH   9  10
ENDBRANCH   8   9
ENDBRANCH   1   8
TORSDOF 8
ENDMDL
