MODEL 1
REMARK VINA RESULT:    -3.511      0.000      0.000
REMARK INTER + INTRA:          -4.432
REMARK INTER:                  -4.332
REMARK INTRA:                  -0.101
REMARK UNBOUND:                -0.101
REMARK SMILES CCCCCC(=O)[O-]
REMARK SMILES IDX 4 1 5 2 6 3 7 4 8 5 3 6 2 7 1 8
REMARK H PARENT
REMARK Flexibility Score: inf
ROOT
ATOM      1  C   UNL     1      28.757  40.519  44.217  1.00  0.00     0.006 C 
ENDROOT
BRANCH   1   2
ATOM      2  C   UNL     1      27.783  40.831  45.357  1.00  0.00     0.053 C 
BRANCH   2   3
ATOM      3  C   UNL     1      27.709  42.306  45.594  1.00  0.00     0.041 C 
ATOM      4  O   UNL     1      27.668  43.104  44.621  1.00  0.00    -0.550 OA
ATOM      5  O   UNL     1      27.735  42.804  46.891  1.00  0.00    -0.550 OA
ENDBRANCH   2   3
ENDBRANCH   1   2
BRANCH   1   6
ATOM      6  C   UNL     1      29.779  39.456  44.643  1.00  0.00     0.000 C 
BRANCH   6   7
ATOM      7  C   UNL     1      29.120  38.218  45.268  1.00  0.00    -0.003 C 
ATOM      8  C   UNL     1      29.110  37.014  44.327  1.00  0.00     0.004 C 
ENDBRANCH   6   7
ENDBRANCH   1   6
TORSDOF 4
ENDMDL
MODEL 2
REMARK VINA RESULT:    -3.451     11.820     12.612
REMARK INTER + INTRA:          -4.358
REMARK INTER:                  -4.202
REMARK INTRA:                  -0.156
REMARK UNBOUND:                -0.101
REMARK SMILES CCCCCC(=O)[O-]
REMARK SMILES IDX 4 1 5 2 6 3 7 4 8 5 3 6 2 7 1 8
REMARK H PARENT
REMARK Flexibility Score: inf
ROOT
ATOM      1  C   UNL     1      19.231  33.026  43.966  1.00  0.00     0.006 C 
ENDROOT
BRANCH   1   2
ATOM      2  C   UNL     1      18.074  33.257  44.943  1.00  0.00     0.053 C 
BRANCH   2   3
ATOM      3  C   UNL     1      18.563  33.936  46.183  1.00  0.00     0.041 C 
ATOM      4  O   UNL     1      18.673  33.291  47.258  1.00  0.00    -0.550 OA
ATOM      5  O   UNL     1      18.851  35.295  46.164  1.00  0.00    -0.550 OA
ENDBRANCH   2   3
ENDBRANCH   1   2
BRANCH   1   6
ATOM      6  C   UNL     1      19.763  31.589  44.074  1.00  0.00     0.000 C 
BRANCH   6   7
ATOM      7  C   UNL     1      18.659  30.535  43.900  1.00  0.00    -0.003 C 
ATOM      8  C   UNL     1      18.599  29.544  45.062  1.00  0.00     0.004 C 
ENDBRANCH   6   7
ENDBRANCH   1   6
TORSDOF 4
ENDMDL
MODEL 3
REMARK VINA RESULT:    -3.431      1.641      2.108
REMARK INTER + INTRA:          -4.335
REMARK INTER:                  -4.240
REMARK INTRA:                  -0.095
REMARK UNBOUND:                -0.101
REMARK SMILES CCCCCC(=O)[O-]
REMARK SMILES IDX 4 1 5 2 6 3 7 4 8 5 3 6 2 7 1 8
REMARK H PARENT
REMARK Flexibility Score: inf
ROOT
ATOM      1  C   UNL     1      28.000  41.305  45.190  1.00  0.00     0.006 C 
ENDROOT
BRANCH   1   2
ATOM      2  C   UNL     1      27.617  42.751  44.862  1.00  0.00     0.053 C 
BRANCH   2   3
ATOM      3  C   UNL     1      26.849  43.359  45.993  1.00  0.00     0.041 C 
ATOM      4  O   UNL     1      25.688  43.808  45.802  1.00  0.00    -0.550 OA
ATOM      5  O   UNL     1      27.434  43.474  47.248  1.00  0.00    -0.550 OA
ENDBRANCH   2   3
ENDBRANCH   1   2
BRANCH   1   6
ATOM      6  C   UNL     1      28.687  40.633  43.991  1.00  0.00     0.000 C 
BRANCH   6   7
ATOM      7  C   UNL     1      29.988  39.916  44.381  1.00  0.00    -0.003 C 
ATOM      8  C   UNL     1      30.360  40.122  45.849  1.00  0.00     0.004 C 
ENDBRANCH   6   7
ENDBRANCH   1   6
TORSDOF 4
ENDMDL
MODEL 4
REMARK VINA RESULT:    -3.422     11.501     12.357
REMARK INTER + INTRA:          -4.322
REMARK INTER:                  -4.188
REMARK INTRA:                  -0.135
REMARK UNBOUND:                -0.101
REMARK SMILES CCCCCC(=O)[O-]
REMARK SMILES IDX 4 1 5 2 6 3 7 4 8 5 3 6 2 7 1 8
REMARK H PARENT
REMARK Flexibility Score: inf
ROOT
ATOM      1  C   UNL     1      18.280  32.727  44.982  1.00  0.00     0.006 C 
ENDROOT
BRANCH   1   2
ATOM      2  C   UNL     1      19.182  33.376  43.928  1.00  0.00     0.053 C 
BRANCH   2   3
ATOM      3  C   UNL     1      20.333  34.072  44.581  1.00  0.00     0.041 C 
ATOM      4  O   UNL     1      20.129  35.023  45.381  1.00  0.00    -0.550 OA
ATOM      5  O   UNL     1      21.636  33.704  44.269  1.00  0.00    -0.550 OA
ENDBRANCH   2   3
ENDBRANCH   1   2
BRANCH   1   6
ATOM      6  C   UNL     1      18.656  31.253  45.195  1.00  0.00     0.000 C 
BRANCH   6   7
ATOM      7  C   UNL     1      18.771  30.475  43.875  1.00  0.00    -0.003 C 
ATOM      8  C   UNL     1      17.964  29.177  43.881  1.00  0.00     0.004 C 
ENDBRANCH   6   7
ENDBRANCH   1   6
TORSDOF 4
ENDMDL
MODEL 5
REMARK VINA RESULT:    -3.409      2.498      4.645
REMARK INTER + INTRA:          -4.306
REMARK INTER:                  -4.250
REMARK INTRA:                  -0.056
REMARK UNBOUND:                -0.101
REMARK SMILES CCCCCC(=O)[O-]
REMARK SMILES IDX 4 1 5 2 6 3 7 4 8 5 3 6 2 7 1 8
REMARK H PARENT
REMARK Flexibility Score: inf
ROOT
ATOM      1  C   UNL     1      27.642  41.730  45.408  1.00  0.00     0.006 C 
ENDROOT
BRANCH   1   2
ATOM      2  C   UNL     1      28.352  41.117  44.198  1.00  0.00     0.053 C 
BRANCH   2   3
ATOM      3  C   UNL     1      29.257  40.007  44.629  1.00  0.00     0.041 C 
ATOM      4  O   UNL     1      30.401  39.886  44.116  1.00  0.00    -0.550 OA
ATOM      5  O   UNL     1      28.820  39.074  45.561  1.00  0.00    -0.550 OA
ENDBRANCH   2   3
ENDBRANCH   1   2
BRANCH   1   6
ATOM      6  C   UNL     1      27.395  43.231  45.197  1.00  0.00     0.000 C 
BRANCH   6   7
ATOM      7  C   UNL     1      26.080  43.709  45.832  1.00  0.00    -0.003 C 
ATOM      8  C   UNL     1      26.134  43.732  47.359  1.00  0.00     0.004 C 
ENDBRANCH   6   7
ENDBRANCH   1   6
TORSDOF 4
ENDMDL
MODEL 6
REMARK VINA RESULT:    -3.318      1.398      2.118
REMARK INTER + INTRA:          -4.195
REMARK INTER:                  -3.955
REMARK INTRA:                  -0.240
REMARK UNBOUND:                -0.101
REMARK SMILES CCCCCC(=O)[O-]
REMARK SMILES IDX 4 1 5 2 6 3 7 4 8 5 3 6 2 7 1 8
REMARK H PARENT
REMARK Flexibility Score: inf
ROOT
ATOM      1  C   UNL     1      29.069  39.688  44.575  1.00  0.00     0.006 C 
ENDROOT
BRANCH   1   2
ATOM      2  C   UNL     1      28.371  40.925  44.002  1.00  0.00     0.053 C 
BRANCH   2   3
ATOM      3  C   UNL     1      27.751  41.731  45.099  1.00  0.00     0.041 C 
ATOM      4  O   UNL     1      27.395  41.176  46.171  1.00  0.00    -0.550 OA
ATOM      5  O   UNL     1      27.519  43.089  44.918  1.00  0.00    -0.550 OA
ENDBRANCH   2   3
ENDBRANCH   1   2
BRANCH   1   6
ATOM      6  C   UNL     1      30.567  39.951  44.789  1.00  0.00     0.000 C 
BRANCH   6   7
ATOM      7  C   UNL     1      30.942  40.056  46.275  1.00  0.00    -0.003 C 
ATOM      8  C   UNL     1      30.152  39.086  47.154  1.00  0.00     0.004 C 
ENDBRANCH   6   7
ENDBRANCH   1   6
TORSDOF 4
ENDMDL
MODEL 7
REMARK VINA RESULT:    -3.294     11.303     11.802
REMARK INTER + INTRA:          -4.165
REMARK INTER:                  -3.944
REMARK INTRA:                  -0.221
REMARK UNBOUND:                -0.101
REMARK SMILES CCCCCC(=O)[O-]
REMARK SMILES IDX 4 1 5 2 6 3 7 4 8 5 3 6 2 7 1 8
REMARK H PARENT
REMARK Flexibility Score: inf
ROOT
ATOM      1  C   UNL     1      33.348  29.126  47.250  1.00  0.00     0.006 C 
ENDROOT
BRANCH   1   2
ATOM      2  C   UNL     1      33.852  30.552  47.007  1.00  0.00     0.053 C 
BRANCH   2   3
ATOM      3  C   UNL     1      33.849  31.333  48.283  1.00  0.00     0.041 C 
ATOM      4  O   UNL     1      34.837  32.051  48.589  1.00  0.00    -0.550 OA
ATOM      5  O   UNL     1      32.776  31.230  49.160  1.00  0.00    -0.550 OA
ENDBRANCH   2   3
ENDBRANCH   1   2
BRANCH   1   6
ATOM      6  C   UNL     1      32.221  28.767  46.271  1.00  0.00     0.000 C 
BRANCH   6   7
ATOM      7  C   UNL     1      30.863  29.346  46.695  1.00  0.00    -0.003 C 
ATOM      8  C   UNL     1      30.359  28.766  48.016  1.00  0.00     0.004 C 
ENDBRANCH   6   7
ENDBRANCH   1   6
TORSDOF 4
ENDMDL
MODEL 8
REMARK VINA RESULT:    -3.267     17.774     18.388
REMARK INTER + INTRA:          -4.131
REMARK INTER:                  -3.907
REMARK INTRA:                  -0.225
REMARK UNBOUND:                -0.101
REMARK SMILES CCCCCC(=O)[O-]
REMARK SMILES IDX 4 1 5 2 6 3 7 4 8 5 3 6 2 7 1 8
REMARK H PARENT
REMARK Flexibility Score: inf
ROOT
ATOM      1  C   UNL     1      29.843  44.029  62.412  1.00  0.00     0.006 C 
ENDROOT
BRANCH   1   2
ATOM      2  C   UNL     1      29.486  45.429  62.919  1.00  0.00     0.053 C 
BRANCH   2   3
ATOM      3  C   UNL     1      28.008  45.650  62.851  1.00  0.00     0.041 C 
ATOM      4  O   UNL     1      27.494  46.669  63.383  1.00  0.00    -0.550 OA
ATOM      5  O   UNL     1      27.191  44.706  62.242  1.00  0.00    -0.550 OA
ENDBRANCH   2   3
ENDBRANCH   1   2
BRANCH   1   6
ATOM      6  C   UNL     1      30.278  43.119  63.571  1.00  0.00     0.000 C 
BRANCH   6   7
ATOM      7  C   UNL     1      29.123  42.272  64.124  1.00  0.00    -0.003 C 
ATOM      8  C   UNL     1      28.377  41.505  63.032  1.00  0.00     0.004 C 
ENDBRANCH   6   7
ENDBRANCH   1   6
TORSDOF 4
ENDMDL
