MODEL 1
REMARK VINA RESULT:    -5.197      0.000      0.000
REMARK INTER + INTRA:          -5.790
REMARK INTER:                  -5.500
REMARK INTRA:                  -0.290
REMARK UNBOUND:                -0.290
REMARK SMILES C=C1CC[C@@H](C(C)C)[C@@H]2C=C(C)CC[C@H]12
REMARK SMILES IDX 12 1 11 2 10 3 9 4 15 5 14 6 13 7 2 8 1 9 3 10 4 11 5 12
REMARK SMILES IDX 6 13 7 14 8 15
REMARK H PARENT
REMARK Flexibility Score: inf
ROOT
ATOM      1  C   UNL     1       4.161  13.871  13.083  1.00  0.00     0.039 C 
ATOM      2  C   UNL     1       2.889  14.396  13.688  1.00  0.00    -0.077 C 
ATOM      3  C   UNL     1       2.537  14.044  14.935  1.00  0.00    -0.024 C 
ATOM      4  C   UNL     1       1.238  14.563  15.531  1.00  0.00     0.022 C 
ATOM      5  C   UNL     1       1.046  16.106  15.246  1.00  0.00     0.022 C 
ATOM      6  C   UNL     1       1.762  16.570  13.933  1.00  0.00     0.013 C 
ATOM      7  C   UNL     1       2.043  15.414  12.968  1.00  0.00     0.031 C 
ATOM      8  C   UNL     1       1.379  17.003  16.447  1.00  0.00    -0.074 C 
ATOM      9  C   UNL     1       1.649  18.315  16.299  1.00  0.00     0.008 C 
ATOM     10  C   UNL     1       1.204  16.487  17.855  1.00  0.00     0.031 C 
ATOM     11  C   UNL     1       0.394  15.197  17.876  1.00  0.00     0.009 C 
ATOM     12  C   UNL     1       1.088  14.119  17.028  1.00  0.00    -0.001 C 
ENDROOT
BRANCH  12  13
ATOM     13  C   UNL     1       0.405  12.723  17.234  1.00  0.00    -0.014 C 
ATOM     14  C   UNL     1       0.146  12.348  18.705  1.00  0.00     0.007 C 
ATOM     15  C   UNL     1      -0.886  12.578  16.417  1.00  0.00     0.007 C 
ENDBRANCH  12  13
TORSDOF 1
ENDMDL
MODEL 2
REMARK VINA RESULT:    -5.194      1.190      1.715
REMARK INTER + INTRA:          -5.787
REMARK INTER:                  -5.604
REMARK INTRA:                  -0.183
REMARK UNBOUND:                -0.290
REMARK SMILES C=C1CC[C@@H](C(C)C)[C@@H]2C=C(C)CC[C@H]12
REMARK SMILES IDX 12 1 11 2 10 3 9 4 15 5 14 6 13 7 2 8 1 9 3 10 4 11 5 12
REMARK SMILES IDX 6 13 7 14 8 15
REMARK H PARENT
REMARK Flexibility Score: inf
ROOT
ATOM      1  C   UNL     1       3.216  15.973  11.875  1.00  0.00     0.039 C 
ATOM      2  C   UNL     1       2.207  16.237  12.957  1.00  0.00    -0.077 C 
ATOM      3  C   UNL     1       2.135  15.429  14.027  1.00  0.00    -0.024 C 
ATOM      4  C   UNL     1       1.096  15.690  15.106  1.00  0.00     0.022 C 
ATOM      5  C   UNL     1       1.025  17.224  15.482  1.00  0.00     0.022 C 
ATOM      6  C   UNL     1       1.444  18.155  14.295  1.00  0.00     0.013 C 
ATOM      7  C   UNL     1       1.336  17.467  12.932  1.00  0.00     0.031 C 
ATOM      8  C   UNL     1       1.751  17.574  16.789  1.00  0.00    -0.074 C 
ATOM      9  C   UNL     1       2.130  18.835  17.074  1.00  0.00     0.008 C 
ATOM     10  C   UNL     1       1.870  16.550  17.893  1.00  0.00     0.031 C 
ATOM     11  C   UNL     1       0.941  15.366  17.653  1.00  0.00     0.009 C 
ATOM     12  C   UNL     1       1.269  14.697  16.308  1.00  0.00    -0.001 C 
ENDROOT
BRANCH  12  13
ATOM     13  C   UNL     1       0.497  13.342  16.157  1.00  0.00    -0.014 C 
ATOM     14  C   UNL     1       1.226  12.280  15.312  1.00  0.00     0.007 C 
ATOM     15  C   UNL     1       0.088  12.748  17.512  1.00  0.00     0.007 C 
ENDBRANCH  12  13
TORSDOF 1
ENDMDL
MODEL 3
REMARK VINA RESULT:    -5.137      1.757      4.321
REMARK INTER + INTRA:          -5.727
REMARK INTER:                  -5.470
REMARK INTRA:                  -0.257
REMARK UNBOUND:                -0.290
REMARK SMILES C=C1CC[C@@H](C(C)C)[C@@H]2C=C(C)CC[C@H]12
REMARK SMILES IDX 12 1 11 2 10 3 9 4 15 5 14 6 13 7 2 8 1 9 3 10 4 11 5 12
REMARK SMILES IDX 6 13 7 14 8 15
REMARK H PARENT
REMARK Flexibility Score: inf
ROOT
ATOM      1  C   UNL     1      -0.716  12.265  18.903  1.00  0.00     0.039 C 
ATOM      2  C   UNL     1       0.376  12.815  18.029  1.00  0.00    -0.077 C 
ATOM      3  C   UNL     1       0.300  12.692  16.694  1.00  0.00    -0.024 C 
ATOM      4  C   UNL     1       1.419  13.233  15.818  1.00  0.00     0.022 C 
ATOM      5  C   UNL     1       1.875  14.673  16.283  1.00  0.00     0.022 C 
ATOM      6  C   UNL     1       1.639  14.915  17.812  1.00  0.00     0.013 C 
ATOM      7  C   UNL     1       1.515  13.613  18.609  1.00  0.00     0.031 C 
ATOM      8  C   UNL     1       1.316  15.809  15.415  1.00  0.00    -0.074 C 
ATOM      9  C   UNL     1       1.266  17.081  15.857  1.00  0.00     0.008 C 
ATOM     10  C   UNL     1       1.004  15.571  13.957  1.00  0.00     0.031 C 
ATOM     11  C   UNL     1       1.608  14.260  13.468  1.00  0.00     0.009 C 
ATOM     12  C   UNL     1       1.067  13.084  14.297  1.00  0.00    -0.001 C 
ENDROOT
BRANCH  12  13
ATOM     13  C   UNL     1       1.482  11.714  13.658  1.00  0.00    -0.014 C 
ATOM     14  C   UNL     1       0.311  10.746  13.403  1.00  0.00     0.007 C 
ATOM     15  C   UNL     1       2.306  11.893  12.375  1.00  0.00     0.007 C 
ENDBRANCH  12  13
TORSDOF 1
ENDMDL
MODEL 4
REMARK VINA RESULT:    -4.931      1.616      2.633
REMARK INTER + INTRA:          -5.508
REMARK INTER:                  -5.253
REMARK INTRA:                  -0.255
REMARK UNBOUND:                -0.290
REMARK SMILES C=C1CC[C@@H](C(C)C)[C@@H]2C=C(C)CC[C@H]12
REMARK SMILES IDX 12 1 11 2 10 3 9 4 15 5 14 6 13 7 2 8 1 9 3 10 4 11 5 12
REMARK SMILES IDX 6 13 7 14 8 15
REMARK H PARENT
REMARK Flexibility Score: inf
ROOT
ATOM      1  C   UNL     1       2.714  17.405  11.891  1.00  0.00     0.039 C 
ATOM      2  C   UNL     1       1.785  16.926  12.972  1.00  0.00    -0.077 C 
ATOM      3  C   UNL     1       1.839  15.653  13.395  1.00  0.00    -0.024 C 
ATOM      4  C   UNL     1       0.881  15.171  14.473  1.00  0.00     0.022 C 
ATOM      5  C   UNL     1       0.771  16.213  15.657  1.00  0.00     0.022 C 
ATOM      6  C   UNL     1       1.048  17.683  15.194  1.00  0.00     0.013 C 
ATOM      7  C   UNL     1       0.861  17.877  13.687  1.00  0.00     0.031 C 
ATOM      8  C   UNL     1       1.585  15.825  16.900  1.00  0.00    -0.074 C 
ATOM      9  C   UNL     1       1.928  16.731  17.835  1.00  0.00     0.008 C 
ATOM     10  C   UNL     1       1.841  14.371  17.219  1.00  0.00     0.031 C 
ATOM     11  C   UNL     1       0.950  13.456  16.387  1.00  0.00     0.009 C 
ATOM     12  C   UNL     1       1.198  13.692  14.889  1.00  0.00    -0.001 C 
ENDROOT
BRANCH  12  13
ATOM     13  C   UNL     1       0.479  12.599  14.026  1.00  0.00    -0.014 C 
ATOM     14  C   UNL     1       1.213  11.246  13.965  1.00  0.00     0.007 C 
ATOM     15  C   UNL     1      -0.982  12.388  14.449  1.00  0.00     0.007 C 
ENDBRANCH  12  13
TORSDOF 1
ENDMDL
MODEL 5
REMARK VINA RESULT:    -4.902      1.176      4.314
REMARK INTER + INTRA:          -5.478
REMARK INTER:                  -5.226
REMARK INTRA:                  -0.252
REMARK UNBOUND:                -0.290
REMARK SMILES C=C1CC[C@@H](C(C)C)[C@@H]2C=C(C)CC[C@H]12
REMARK SMILES IDX 12 1 11 2 10 3 9 4 15 5 14 6 13 7 2 8 1 9 3 10 4 11 5 12
REMARK SMILES IDX 6 13 7 14 8 15
REMARK H PARENT
REMARK Flexibility Score: inf
ROOT
ATOM      1  C   UNL     1      -0.235  12.331  18.056  1.00  0.00     0.039 C 
ATOM      2  C   UNL     1       0.756  13.279  17.438  1.00  0.00    -0.077 C 
ATOM      3  C   UNL     1       0.944  13.287  16.108  1.00  0.00    -0.024 C 
ATOM      4  C   UNL     1       1.964  14.233  15.493  1.00  0.00     0.022 C 
ATOM      5  C   UNL     1       1.856  15.684  16.114  1.00  0.00     0.022 C 
ATOM      6  C   UNL     1       1.306  15.672  17.580  1.00  0.00     0.013 C 
ATOM      7  C   UNL     1       1.470  14.314  18.267  1.00  0.00     0.031 C 
ATOM      8  C   UNL     1       1.118  16.687  15.216  1.00  0.00    -0.074 C 
ATOM      9  C   UNL     1       0.594  17.827  15.707  1.00  0.00     0.008 C 
ATOM     10  C   UNL     1       1.144  16.528  13.715  1.00  0.00     0.031 C 
ATOM     11  C   UNL     1       2.204  15.523  13.282  1.00  0.00     0.009 C 
ATOM     12  C   UNL     1       1.934  14.154  13.927  1.00  0.00    -0.001 C 
ENDROOT
BRANCH  12  13
ATOM     13  C   UNL     1       2.862  13.053  13.308  1.00  0.00    -0.014 C 
ATOM     14  C   UNL     1       2.160  12.114  12.308  1.00  0.00     0.007 C 
ATOM     15  C   UNL     1       4.129  13.645  12.676  1.00  0.00     0.007 C 
ENDBRANCH  12  13
TORSDOF 1
ENDMDL
MODEL 6
REMARK VINA RESULT:    -4.869      1.701      3.814
REMARK INTER + INTRA:          -5.443
REMARK INTER:                  -5.122
REMARK INTRA:                  -0.321
REMARK UNBOUND:                -0.290
REMARK SMILES C=C1CC[C@@H](C(C)C)[C@@H]2C=C(C)CC[C@H]12
REMARK SMILES IDX 12 1 11 2 10 3 9 4 15 5 14 6 13 7 2 8 1 9 3 10 4 11 5 12
REMARK SMILES IDX 6 13 7 14 8 15
REMARK H PARENT
REMARK Flexibility Score: inf
ROOT
ATOM      1  C   UNL     1      -0.759  18.281  13.101  1.00  0.00     0.039 C 
ATOM      2  C   UNL     1       0.414  17.472  13.582  1.00  0.00    -0.077 C 
ATOM      3  C   UNL     1       0.250  16.547  14.541  1.00  0.00    -0.024 C 
ATOM      4  C   UNL     1       1.446  15.749  15.036  1.00  0.00     0.022 C 
ATOM      5  C   UNL     1       2.344  15.246  13.837  1.00  0.00     0.022 C 
ATOM      6  C   UNL     1       2.256  16.182  12.585  1.00  0.00     0.013 C 
ATOM      7  C   UNL     1       1.767  17.591  12.929  1.00  0.00     0.031 C 
ATOM      8  C   UNL     1       2.130  13.767  13.482  1.00  0.00    -0.074 C 
ATOM      9  C   UNL     1       2.494  13.265  12.286  1.00  0.00     0.008 C 
ATOM     10  C   UNL     1       1.701  12.783  14.544  1.00  0.00     0.031 C 
ATOM     11  C   UNL     1       1.849  13.375  15.940  1.00  0.00     0.009 C 
ATOM     12  C   UNL     1       1.004  14.653  16.068  1.00  0.00    -0.001 C 
ENDROOT
BRANCH  12  13
ATOM     13  C   UNL     1       0.948  15.138  17.558  1.00  0.00    -0.014 C 
ATOM     14  C   UNL     1       1.866  16.332  17.877  1.00  0.00     0.007 C 
ATOM     15  C   UNL     1      -0.485  15.435  18.022  1.00  0.00     0.007 C 
ENDBRANCH  12  13
TORSDOF 1
ENDMDL
MODEL 7
REMARK VINA RESULT:    -4.846      1.623      4.930
REMARK INTER + INTRA:          -5.419
REMARK INTER:                  -5.446
REMARK INTRA:                   0.027
REMARK UNBOUND:                -0.290
REMARK SMILES C=C1CC[C@@H](C(C)C)[C@@H]2C=C(C)CC[C@H]12
REMARK SMILES IDX 12 1 11 2 10 3 9 4 15 5 14 6 13 7 2 8 1 9 3 10 4 11 5 12
REMARK SMILES IDX 6 13 7 14 8 15
REMARK H PARENT
REMARK Flexibility Score: inf
ROOT
ATOM      1  C   UNL     1       1.926  14.672  18.068  1.00  0.00     0.039 C 
ATOM      2  C   UNL     1       1.613  14.636  16.599  1.00  0.00    -0.077 C 
ATOM      3  C   UNL     1       1.579  15.773  15.886  1.00  0.00    -0.024 C 
ATOM      4  C   UNL     1       1.241  15.729  14.404  1.00  0.00     0.022 C 
ATOM      5  C   UNL     1       2.010  14.560  13.669  1.00  0.00     0.022 C 
ATOM      6  C   UNL     1       2.340  13.363  14.623  1.00  0.00     0.013 C 
ATOM      7  C   UNL     1       1.447  13.329  15.866  1.00  0.00     0.031 C 
ATOM      8  C   UNL     1       3.233  15.030  12.870  1.00  0.00    -0.074 C 
ATOM      9  C   UNL     1       4.213  14.180  12.507  1.00  0.00     0.008 C 
ATOM     10  C   UNL     1       3.270  16.420  12.281  1.00  0.00     0.031 C 
ATOM     11  C   UNL     1       1.892  17.071  12.309  1.00  0.00     0.009 C 
ATOM     12  C   UNL     1       1.372  17.150  13.753  1.00  0.00    -0.001 C 
ENDROOT
BRANCH  12  13
ATOM     13  C   UNL     1       0.077  18.030  13.831  1.00  0.00    -0.014 C 
ATOM     14  C   UNL     1      -0.983  17.706  12.761  1.00  0.00     0.007 C 
ATOM     15  C   UNL     1      -0.561  18.009  15.228  1.00  0.00     0.007 C 
ENDBRANCH  12  13
TORSDOF 1
ENDMDL
MODEL 8
REMARK VINA RESULT:    -4.771      1.793      4.094
REMARK INTER + INTRA:          -5.340
REMARK INTER:                  -5.169
REMARK INTRA:                  -0.171
REMARK UNBOUND:                -0.290
REMARK SMILES C=C1CC[C@@H](C(C)C)[C@@H]2C=C(C)CC[C@H]12
REMARK SMILES IDX 12 1 11 2 10 3 9 4 15 5 14 6 13 7 2 8 1 9 3 10 4 11 5 12
REMARK SMILES IDX 6 13 7 14 8 15
REMARK H PARENT
REMARK Flexibility Score: inf
ROOT
ATOM      1  C   UNL     1       2.665  17.240  11.875  1.00  0.00     0.039 C 
ATOM      2  C   UNL     1       3.016  15.966  12.593  1.00  0.00    -0.077 C 
ATOM      3  C   UNL     1       2.257  15.532  13.611  1.00  0.00    -0.024 C 
ATOM      4  C   UNL     1       2.631  14.254  14.346  1.00  0.00     0.022 C 
ATOM      5  C   UNL     1       3.033  13.104  13.338  1.00  0.00     0.022 C 
ATOM      6  C   UNL     1       3.619  13.657  11.996  1.00  0.00     0.013 C 
ATOM      7  C   UNL     1       4.147  15.089  12.121  1.00  0.00     0.031 C 
ATOM      8  C   UNL     1       1.926  12.064  13.113  1.00  0.00    -0.074 C 
ATOM      9  C   UNL     1       1.922  11.254  12.037  1.00  0.00     0.008 C 
ATOM     10  C   UNL     1       0.923  11.771  14.203  1.00  0.00     0.031 C 
ATOM     11  C   UNL     1       1.368  12.359  15.538  1.00  0.00     0.009 C 
ATOM     12  C   UNL     1       1.547  13.880  15.415  1.00  0.00    -0.001 C 
ENDROOT
BRANCH  12  13
ATOM     13  C   UNL     1       1.763  14.531  16.825  1.00  0.00    -0.014 C 
ATOM     14  C   UNL     1       1.280  15.989  16.938  1.00  0.00     0.007 C 
ATOM     15  C   UNL     1       1.161  13.687  17.957  1.00  0.00     0.007 C 
ENDBRANCH  12  13
TORSDOF 1
ENDMDL
MODEL 9
REMARK VINA RESULT:    -4.667      1.538      3.926
REMARK INTER + INTRA:          -5.229
REMARK INTER:                  -4.973
REMARK INTRA:                  -0.256
REMARK UNBOUND:                -0.290
REMARK SMILES C=C1CC[C@@H](C(C)C)[C@@H]2C=C(C)CC[C@H]12
REMARK SMILES IDX 12 1 11 2 10 3 9 4 15 5 14 6 13 7 2 8 1 9 3 10 4 11 5 12
REMARK SMILES IDX 6 13 7 14 8 15
REMARK H PARENT
REMARK Flexibility Score: inf
ROOT
ATOM      1  C   UNL     1       2.511  13.283  11.939  1.00  0.00     0.039 C 
ATOM      2  C   UNL     1       2.434  14.050  13.230  1.00  0.00    -0.077 C 
ATOM      3  C   UNL     1       1.398  14.870  13.469  1.00  0.00    -0.024 C 
ATOM      4  C   UNL     1       1.338  15.657  14.768  1.00  0.00     0.022 C 
ATOM      5  C   UNL     1       1.713  14.754  16.011  1.00  0.00     0.022 C 
ATOM      6  C   UNL     1       2.678  13.581  15.633  1.00  0.00     0.013 C 
ATOM      7  C   UNL     1       3.441  13.834  14.330  1.00  0.00     0.031 C 
ATOM      8  C   UNL     1       0.497  14.279  16.819  1.00  0.00    -0.074 C 
ATOM      9  C   UNL     1       0.568  13.222  17.651  1.00  0.00     0.008 C 
ATOM     10  C   UNL     1      -0.759  15.116  16.870  1.00  0.00     0.031 C 
ATOM     11  C   UNL     1      -0.510  16.521  16.334  1.00  0.00     0.009 C 
ATOM     12  C   UNL     1      -0.007  16.455  14.883  1.00  0.00    -0.001 C 
ENDROOT
BRANCH  12  13
ATOM     13  C   UNL     1       0.019  17.884  14.237  1.00  0.00    -0.014 C 
ATOM     14  C   UNL     1       1.419  18.371  13.818  1.00  0.00     0.007 C 
ATOM     15  C   UNL     1      -0.958  18.011  13.060  1.00  0.00     0.007 C 
ENDBRANCH  12  13
TORSDOF 1
ENDMDL
