MODEL 1
REMARK VINA RESULT:   144.062      0.000      0.000
REMARK INTER + INTRA:         233.084
REMARK INTER:                 228.281
REMARK INTRA:                   4.803
REMARK UNBOUND:                 4.803
REMARK SMILES C[C@@H]1O[C@H](O[C@@H]2CC[C@]3(C)[C@H](CC[C@@]4(C)[C@@H]3C=C[C@]35OC[C@@]6(CCC(C)(C)C[C@H]63)[C@H](O)C[C@]45C)[C@@]2(C)CO)[C@@H](O)[C@@H](O[C@H]2O[C@H](CO)[C@@H](O)[C@H](O)[C@@H]2O)[C@@H]1O
REMARK SMILES IDX 1 1 2 2 54 3 41 4 39 5 4 6 3 7 55 8 42 10 43 11 52 12 44 13
REMARK SMILES IDX 50 14 45 15 48 16 53 17 51 19 46 21 47 22 49 24 5 26 6 27
REMARK SMILES IDX 7 28 35 29 8 30 11 31 36 32 9 33 12 34 10 35 16 36 13 37
REMARK SMILES IDX 14 38 17 39 15 40 33 41 18 42 19 43 32 44 34 45 29 46 20 47
REMARK SMILES IDX 30 48 22 49 28 50 21 51 23 52 25 53 24 54 26 55 27 56 37 57
REMARK SMILES IDX 38 58 31 60 40 62
REMARK H PARENT 55 9 53 18 51 20 47 23 49 25 38 59 31 61 40 63
REMARK Flexibility Score: inf
ROOT
ATOM      1  C   UNL     1      14.959  54.679  61.104  1.00  0.00     0.041 C 
ATOM      2  C   UNL     1      15.238  53.824  62.340  1.00  0.00     0.150 C 
ATOM      3  C   UNL     1      14.074  53.778  63.366  1.00  0.00     0.175 C 
ATOM      4  C   UNL     1      12.981  52.790  62.933  1.00  0.00     0.186 C 
ATOM      5  C   UNL     1      13.657  51.420  62.706  1.00  0.00     0.202 C 
ATOM      6  C   UNL     1      14.791  51.541  61.675  1.00  0.00     0.282 C 
ATOM      7  O   UNL     1      15.750  52.551  61.984  1.00  0.00    -0.344 OA
ENDROOT
BRANCH   3   8
ATOM      8  O   UNL     1      13.548  55.060  63.604  1.00  0.00    -0.388 OA
ATOM      9  H   UNL     1      12.570  54.979  63.756  1.00  0.00     0.211 HD
ENDBRANCH   3   8
BRANCH   4  10
ATOM     10  O   UNL     1      11.927  52.820  63.903  1.00  0.00    -0.341 OA
BRANCH  10  11
ATOM     11  C   UNL     1      10.611  53.052  63.402  1.00  0.00     0.282 C 
ATOM     12  C   UNL     1      10.402  54.513  62.927  1.00  0.00     0.202 C 
ATOM     13  O   UNL     1       9.701  52.776  64.459  1.00  0.00    -0.341 OA
ATOM     14  C   UNL     1       8.963  54.662  62.374  1.00  0.00     0.179 C 
ATOM     15  C   UNL     1       8.339  52.802  64.040  1.00  0.00     0.178 C 
ATOM     16  C   UNL     1       7.936  54.169  63.412  1.00  0.00     0.177 C 
BRANCH  12  17
ATOM     17  O   UNL     1      11.329  54.866  61.934  1.00  0.00    -0.385 OA
ATOM     18  H   UNL     1      12.214  54.496  62.208  1.00  0.00     0.211 HD
ENDBRANCH  12  17
BRANCH  14  19
ATOM     19  O   UNL     1       8.809  53.942  61.177  1.00  0.00    -0.387 OA
ATOM     20  H   UNL     1       8.702  54.607  60.442  1.00  0.00     0.211 HD
ENDBRANCH  14  19
BRANCH  15  21
ATOM     21  C   UNL     1       7.970  51.581  63.160  1.00  0.00     0.191 C 
BRANCH  21  22
ATOM     22  O   UNL     1       7.373  50.570  63.928  1.00  0.00    -0.394 OA
ATOM     23  H   UNL     1       6.487  50.913  64.227  1.00  0.00     0.210 HD
ENDBRANCH  21  22
ENDBRANCH  15  21
BRANCH  16  24
ATOM     24  O   UNL     1       7.814  55.125  64.439  1.00  0.00    -0.387 OA
ATOM     25  H   UNL     1       7.041  55.700  64.199  1.00  0.00     0.211 HD
ENDBRANCH  16  24
ENDBRANCH  10  11
ENDBRANCH   4  10
BRANCH   6  26
ATOM     26  O   UNL     1      14.231  51.639  60.365  1.00  0.00    -0.346 OA
BRANCH  26  27
ATOM     27  C   UNL     1      15.107  52.130  59.348  1.00  0.00     0.130 C 
ATOM     28  C   UNL     1      14.528  51.697  57.967  1.00  0.00     0.033 C 
ATOM     29  C   UNL     1      16.624  51.685  59.507  1.00  0.00     0.020 C 
ATOM     30  C   UNL     1      14.991  50.333  57.397  1.00  0.00     0.010 C 
ATOM     31  C   UNL     1      16.913  50.189  58.995  1.00  0.00     0.006 C 
ATOM     32  C   UNL     1      17.099  51.898  60.970  1.00  0.00     0.017 C 
ATOM     33  C   UNL     1      15.687  49.387  58.428  1.00  0.00    -0.022 C 
ATOM     34  C   UNL     1      17.823  49.315  59.897  1.00  0.00     0.005 C 
ATOM     35  C   UNL     1      14.603  49.025  59.496  1.00  0.00     0.012 C 
ATOM     36  C   UNL     1      16.228  48.040  57.745  1.00  0.00     0.024 C 
ATOM     37  C   UNL     1      18.268  47.993  59.226  1.00  0.00     0.008 C 
ATOM     38  C   UNL     1      17.096  47.092  58.691  1.00  0.00    -0.017 C 
ATOM     39  C   UNL     1      17.079  48.357  56.508  1.00  0.00    -0.024 C 
ATOM     40  C   UNL     1      16.332  46.589  59.967  1.00  0.00     0.013 C 
ATOM     41  C   UNL     1      17.631  45.770  57.864  1.00  0.00     0.009 C 
ATOM     42  C   UNL     1      17.852  47.449  55.919  1.00  0.00     0.005 C 
ATOM     43  C   UNL     1      17.781  46.004  56.278  1.00  0.00     0.096 C 
ATOM     44  C   UNL     1      16.712  44.505  58.077  1.00  0.00     0.043 C 
ATOM     45  C   UNL     1      19.019  45.339  58.456  1.00  0.00     0.015 C 
ATOM     46  C   UNL     1      16.724  45.337  55.371  1.00  0.00     0.037 C 
ATOM     47  O   UNL     1      18.979  45.382  55.838  1.00  0.00    -0.369 OA
ATOM     48  C   UNL     1      16.852  43.375  57.018  1.00  0.00     0.124 C 
ATOM     49  C   UNL     1      17.116  43.902  55.547  1.00  0.00     0.026 C 
ATOM     50  C   UNL     1      15.205  45.606  55.402  1.00  0.00     0.014 C 
ATOM     51  C   UNL     1      18.635  44.090  55.352  1.00  0.00     0.171 C 
ATOM     52  C   UNL     1      16.452  43.050  54.429  1.00  0.00     0.013 C 
ATOM     53  C   UNL     1      14.464  44.765  54.311  1.00  0.00    -0.035 C 
ATOM     54  C   UNL     1      14.919  43.270  54.321  1.00  0.00     0.007 C 
ATOM     55  C   UNL     1      12.951  44.820  54.606  1.00  0.00     0.011 C 
ATOM     56  C   UNL     1      14.691  45.367  52.902  1.00  0.00     0.011 C 
BRANCH  29  57
ATOM     57  C   UNL     1      17.466  52.682  58.638  1.00  0.00     0.165 C 
BRANCH  57  58
ATOM     58  O   UNL     1      18.836  52.381  58.694  1.00  0.00    -0.396 OA
ATOM     59  H   UNL     1      19.152  52.701  59.580  1.00  0.00     0.210 HD
ENDBRANCH  57  58
ENDBRANCH  29  57
BRANCH  48  60
ATOM     60  O   UNL     1      15.711  42.558  57.078  1.00  0.00    -0.392 OA
ATOM     61  H   UNL     1      15.323  42.524  56.161  1.00  0.00     0.210 HD
ENDBRANCH  48  60
ENDBRANCH  26  27
ENDBRANCH   6  26
BRANCH   5  62
ATOM     62  O   UNL     1      14.148  50.911  63.924  1.00  0.00    -0.385 OA
ATOM     63  H   UNL     1      13.748  51.458  64.648  1.00  0.00     0.211 HD
ENDBRANCH   5  62
TORSDOF 14
ENDMDL
