MODEL 1
REMARK VINA RESULT:    -5.399      0.000      0.000
REMARK INTER + INTRA:          -6.990
REMARK INTER:                  -6.662
REMARK INTRA:                  -0.329
REMARK UNBOUND:                -0.329
REMARK SMILES O=c1c(O)c(-c2cc(O)c(O)c(O)c2)oc2cc(O)cc(O)c12
REMARK SMILES IDX 5 1 3 2 2 3 1 4 23 5 21 6 20 7 18 8 17 9 16 10 15 11 6 12
REMARK SMILES IDX 7 13 8 14 14 15 10 16 12 17 9 18 11 20 13 22 4 24 22 26
REMARK SMILES IDX 19 28
REMARK H PARENT 9 19 11 21 13 23 4 25 22 27 19 29
REMARK Flexibility Score: inf
ROOT
ATOM      1  C   UNL     1      17.623 -50.565  -5.834  1.00  0.00     0.180 A 
ATOM      2  C   UNL     1      18.631 -51.142  -6.630  1.00  0.00     0.208 A 
ATOM      3  C   UNL     1      18.884 -50.601  -7.901  1.00  0.00     0.238 A 
ATOM      4  O   UNL     1      19.777 -51.116  -8.628  1.00  0.00    -0.285 OA
ATOM      5  C   UNL     1      18.144 -49.487  -8.344  1.00  0.00     0.111 A 
ATOM      6  C   UNL     1      18.339 -48.880  -9.608  1.00  0.00     0.134 A 
ATOM      7  C   UNL     1      17.568 -47.766  -9.973  1.00  0.00     0.093 A 
ATOM      8  C   UNL     1      16.606 -47.248  -9.097  1.00  0.00     0.123 A 
ATOM      9  C   UNL     1      16.409 -47.843  -7.850  1.00  0.00     0.094 A 
ATOM     10  C   UNL     1      17.167 -48.955  -7.469  1.00  0.00     0.146 A 
ATOM     11  O   UNL     1      16.955 -49.504  -6.279  1.00  0.00    -0.452 OA
ENDROOT
BRANCH   1  12
ATOM     12  C   UNL     1      17.285 -51.090  -4.491  1.00  0.00     0.029 A 
ATOM     13  C   UNL     1      16.199 -51.966  -4.347  1.00  0.00     0.062 A 
ATOM     14  C   UNL     1      15.863 -52.497  -3.097  1.00  0.00     0.162 A 
ATOM     15  C   UNL     1      18.062 -50.777  -3.367  1.00  0.00     0.062 A 
ATOM     16  C   UNL     1      16.638 -52.159  -1.961  1.00  0.00     0.200 A 
ATOM     17  C   UNL     1      17.742 -51.300  -2.111  1.00  0.00     0.162 A 
BRANCH  14  18
ATOM     18  O   UNL     1      14.761 -53.353  -3.031  1.00  0.00    -0.504 OA
ATOM     19  H   UNL     1      14.277 -53.590  -2.177  1.00  0.00     0.293 HD
ENDBRANCH  14  18
BRANCH  16  20
ATOM     20  O   UNL     1      16.348 -52.653  -0.686  1.00  0.00    -0.502 OA
ATOM     21  H   UNL     1      15.903 -52.115   0.043  1.00  0.00     0.293 HD
ENDBRANCH  16  20
BRANCH  17  22
ATOM     22  O   UNL     1      18.540 -50.955  -1.019  1.00  0.00    -0.504 OA
ATOM     23  H   UNL     1      18.148 -50.710  -0.118  1.00  0.00     0.293 HD
ENDBRANCH  17  22
ENDBRANCH   1  12
BRANCH   2  24
ATOM     24  O   UNL     1      19.385 -52.215  -6.148  1.00  0.00    -0.502 OA
ATOM     25  H   UNL     1      20.339 -52.384  -6.442  1.00  0.00     0.293 HD
ENDBRANCH   2  24
BRANCH   6  26
ATOM     26  O   UNL     1      19.292 -49.373 -10.501  1.00  0.00    -0.507 OA
ATOM     27  H   UNL     1      19.780 -50.245 -10.333  1.00  0.00     0.293 HD
ENDBRANCH   6  26
BRANCH   8  28
ATOM     28  O   UNL     1      15.840 -46.142  -9.458  1.00  0.00    -0.508 OA
ATOM     29  H   UNL     1      14.962 -46.244  -9.954  1.00  0.00     0.293 HD
ENDBRANCH   8  28
TORSDOF 7
ENDMDL
MODEL 2
REMARK VINA RESULT:    -5.343      1.689      7.311
REMARK INTER + INTRA:          -6.921
REMARK INTER:                  -6.711
REMARK INTRA:                  -0.210
REMARK UNBOUND:                -0.329
REMARK SMILES O=c1c(O)c(-c2cc(O)c(O)c(O)c2)oc2cc(O)cc(O)c12
REMARK SMILES IDX 5 1 3 2 2 3 1 4 23 5 21 6 20 7 18 8 17 9 16 10 15 11 6 12
REMARK SMILES IDX 7 13 8 14 14 15 10 16 12 17 9 18 11 20 13 22 4 24 22 26
REMARK SMILES IDX 19 28
REMARK H PARENT 9 19 11 21 13 23 4 25 22 27 19 29
REMARK Flexibility Score: inf
ROOT
ATOM      1  C   UNL     1      17.267 -50.732  -4.349  1.00  0.00     0.180 A 
ATOM      2  C   UNL     1      16.621 -51.976  -4.222  1.00  0.00     0.208 A 
ATOM      3  C   UNL     1      16.622 -52.617  -2.972  1.00  0.00     0.238 A 
ATOM      4  O   UNL     1      16.055 -53.737  -2.849  1.00  0.00    -0.285 OA
ATOM      5  C   UNL     1      17.248 -51.997  -1.872  1.00  0.00     0.111 A 
ATOM      6  C   UNL     1      17.292 -52.573  -0.579  1.00  0.00     0.134 A 
ATOM      7  C   UNL     1      17.927 -51.888   0.467  1.00  0.00     0.093 A 
ATOM      8  C   UNL     1      18.520 -50.639   0.246  1.00  0.00     0.123 A 
ATOM      9  C   UNL     1      18.480 -50.068  -1.027  1.00  0.00     0.094 A 
ATOM     10  C   UNL     1      17.853 -50.735  -2.084  1.00  0.00     0.146 A 
ATOM     11  O   UNL     1      17.835 -50.170  -3.285  1.00  0.00    -0.452 OA
ENDROOT
BRANCH   1  12
ATOM     12  C   UNL     1      17.325 -50.004  -5.637  1.00  0.00     0.029 A 
ATOM     13  C   UNL     1      16.748 -48.729  -5.736  1.00  0.00     0.062 A 
ATOM     14  C   UNL     1      16.802 -48.005  -6.931  1.00  0.00     0.162 A 
ATOM     15  C   UNL     1      17.995 -50.536  -6.748  1.00  0.00     0.062 A 
ATOM     16  C   UNL     1      17.461 -48.557  -8.056  1.00  0.00     0.200 A 
ATOM     17  C   UNL     1      18.060 -49.825  -7.949  1.00  0.00     0.162 A 
BRANCH  14  18
ATOM     18  O   UNL     1      16.194 -46.747  -6.955  1.00  0.00    -0.504 OA
ATOM     19  H   UNL     1      15.957 -46.215  -6.130  1.00  0.00     0.293 HD
ENDBRANCH  14  18
BRANCH  16  20
ATOM     20  O   UNL     1      17.542 -47.884  -9.278  1.00  0.00    -0.502 OA
ATOM     21  H   UNL     1      16.979 -48.105 -10.087  1.00  0.00     0.293 HD
ENDBRANCH  16  20
BRANCH  17  22
ATOM     22  O   UNL     1      18.732 -50.397  -9.030  1.00  0.00    -0.504 OA
ATOM     23  H   UNL     1      19.585 -50.003  -9.408  1.00  0.00     0.293 HD
ENDBRANCH  17  22
ENDBRANCH   1  12
BRANCH   2  24
ATOM     24  O   UNL     1      15.963 -52.546  -5.315  1.00  0.00    -0.502 OA
ATOM     25  H   UNL     1      16.404 -53.231  -5.917  1.00  0.00     0.293 HD
ENDBRANCH   2  24
BRANCH   6  26
ATOM     26  O   UNL     1      16.709 -53.816  -0.328  1.00  0.00    -0.507 OA
ATOM     27  H   UNL     1      15.720 -53.982  -0.479  1.00  0.00     0.293 HD
ENDBRANCH   6  26
BRANCH   8  28
ATOM     28  O   UNL     1      19.150 -49.959   1.284  1.00  0.00    -0.508 OA
ATOM     29  H   UNL     1      18.780 -49.970   2.228  1.00  0.00     0.293 HD
ENDBRANCH   8  28
TORSDOF 7
ENDMDL
MODEL 3
REMARK VINA RESULT:    -5.289      1.651      7.282
REMARK INTER + INTRA:          -6.855
REMARK INTER:                  -6.677
REMARK INTRA:                  -0.178
REMARK UNBOUND:                -0.329
REMARK SMILES O=c1c(O)c(-c2cc(O)c(O)c(O)c2)oc2cc(O)cc(O)c12
REMARK SMILES IDX 5 1 3 2 2 3 1 4 23 5 21 6 20 7 18 8 17 9 16 10 15 11 6 12
REMARK SMILES IDX 7 13 8 14 14 15 10 16 12 17 9 18 11 20 13 22 4 24 22 26
REMARK SMILES IDX 19 28
REMARK H PARENT 9 19 11 21 13 23 4 25 22 27 19 29
REMARK Flexibility Score: inf
ROOT
ATOM      1  C   UNL     1      17.279 -50.841  -4.376  1.00  0.00     0.180 A 
ATOM      2  C   UNL     1      16.634 -52.086  -4.248  1.00  0.00     0.208 A 
ATOM      3  C   UNL     1      16.620 -52.717  -2.994  1.00  0.00     0.238 A 
ATOM      4  O   UNL     1      16.055 -53.838  -2.869  1.00  0.00    -0.285 OA
ATOM      5  C   UNL     1      17.230 -52.087  -1.890  1.00  0.00     0.111 A 
ATOM      6  C   UNL     1      17.258 -52.654  -0.593  1.00  0.00     0.134 A 
ATOM      7  C   UNL     1      17.878 -51.960   0.457  1.00  0.00     0.093 A 
ATOM      8  C   UNL     1      18.470 -50.710   0.234  1.00  0.00     0.123 A 
ATOM      9  C   UNL     1      18.446 -50.149  -1.043  1.00  0.00     0.094 A 
ATOM     10  C   UNL     1      17.835 -50.826  -2.103  1.00  0.00     0.146 A 
ATOM     11  O   UNL     1      17.832 -50.270  -3.309  1.00  0.00    -0.452 OA
ENDROOT
BRANCH   1  12
ATOM     12  C   UNL     1      17.352 -50.123  -5.669  1.00  0.00     0.029 A 
ATOM     13  C   UNL     1      18.028 -50.711  -6.748  1.00  0.00     0.062 A 
ATOM     14  C   UNL     1      18.099 -50.070  -7.989  1.00  0.00     0.162 A 
ATOM     15  C   UNL     1      16.711 -48.890  -5.857  1.00  0.00     0.062 A 
ATOM     16  C   UNL     1      17.469 -48.815  -8.166  1.00  0.00     0.200 A 
ATOM     17  C   UNL     1      16.770 -48.237  -7.091  1.00  0.00     0.162 A 
BRANCH  14  18
ATOM     18  O   UNL     1      18.801 -50.714  -9.012  1.00  0.00    -0.504 OA
ATOM     19  H   UNL     1      18.499 -50.743  -9.975  1.00  0.00     0.293 HD
ENDBRANCH  14  18
BRANCH  16  20
ATOM     20  O   UNL     1      17.511 -48.124  -9.380  1.00  0.00    -0.502 OA
ATOM     21  H   UNL     1      18.281 -48.167 -10.032  1.00  0.00     0.293 HD
ENDBRANCH  16  20
BRANCH  17  22
ATOM     22  O   UNL     1      16.122 -47.009  -7.230  1.00  0.00    -0.504 OA
ATOM     23  H   UNL     1      15.590 -46.588  -6.478  1.00  0.00     0.293 HD
ENDBRANCH  17  22
ENDBRANCH   1  12
BRANCH   2  24
ATOM     24  O   UNL     1      15.993 -52.666  -5.346  1.00  0.00    -0.502 OA
ATOM     25  H   UNL     1      15.964 -52.222  -6.255  1.00  0.00     0.293 HD
ENDBRANCH   2  24
BRANCH   6  26
ATOM     26  O   UNL     1      16.675 -53.896  -0.339  1.00  0.00    -0.507 OA
ATOM     27  H   UNL     1      15.824 -53.985   0.205  1.00  0.00     0.293 HD
ENDBRANCH   6  26
BRANCH   8  28
ATOM     28  O   UNL     1      19.085 -50.021   1.275  1.00  0.00    -0.508 OA
ATOM     29  H   UNL     1      20.019 -49.639   1.180  1.00  0.00     0.293 HD
ENDBRANCH   8  28
TORSDOF 7
ENDMDL
MODEL 4
REMARK VINA RESULT:    -5.080      1.190      2.809
REMARK INTER + INTRA:          -6.597
REMARK INTER:                  -6.289
REMARK INTRA:                  -0.308
REMARK UNBOUND:                -0.329
REMARK SMILES O=c1c(O)c(-c2cc(O)c(O)c(O)c2)oc2cc(O)cc(O)c12
REMARK SMILES IDX 5 1 3 2 2 3 1 4 23 5 21 6 20 7 18 8 17 9 16 10 15 11 6 12
REMARK SMILES IDX 7 13 8 14 14 15 10 16 12 17 9 18 11 20 13 22 4 24 22 26
REMARK SMILES IDX 19 28
REMARK H PARENT 9 19 11 21 13 23 4 25 22 27 19 29
REMARK Flexibility Score: inf
ROOT
ATOM      1  C   UNL     1      17.208 -50.410  -5.789  1.00  0.00     0.180 A 
ATOM      2  C   UNL     1      16.423 -49.329  -6.231  1.00  0.00     0.208 A 
ATOM      3  C   UNL     1      16.698 -48.758  -7.484  1.00  0.00     0.238 A 
ATOM      4  O   UNL     1      16.008 -47.783  -7.887  1.00  0.00    -0.285 OA
ATOM      5  C   UNL     1      17.736 -49.288  -8.278  1.00  0.00     0.111 A 
ATOM      6  C   UNL     1      18.076 -48.774  -9.553  1.00  0.00     0.134 A 
ATOM      7  C   UNL     1      19.117 -49.362 -10.286  1.00  0.00     0.093 A 
ATOM      8  C   UNL     1      19.824 -50.455  -9.769  1.00  0.00     0.123 A 
ATOM      9  C   UNL     1      19.493 -50.965  -8.513  1.00  0.00     0.094 A 
ATOM     10  C   UNL     1      18.460 -50.391  -7.765  1.00  0.00     0.146 A 
ATOM     11  O   UNL     1      18.170 -50.893  -6.571  1.00  0.00    -0.452 OA
ENDROOT
BRANCH   1  12
ATOM     12  C   UNL     1      16.991 -51.053  -4.472  1.00  0.00     0.029 A 
ATOM     13  C   UNL     1      15.926 -51.950  -4.310  1.00  0.00     0.062 A 
ATOM     14  C   UNL     1      15.704 -52.591  -3.086  1.00  0.00     0.162 A 
ATOM     15  C   UNL     1      17.863 -50.828  -3.397  1.00  0.00     0.062 A 
ATOM     16  C   UNL     1      16.575 -52.342  -1.997  1.00  0.00     0.200 A 
ATOM     17  C   UNL     1      17.657 -51.461  -2.168  1.00  0.00     0.162 A 
BRANCH  14  18
ATOM     18  O   UNL     1      14.615 -53.462  -2.998  1.00  0.00    -0.504 OA
ATOM     19  H   UNL     1      13.652 -53.176  -3.091  1.00  0.00     0.293 HD
ENDBRANCH  14  18
BRANCH  16  20
ATOM     20  O   UNL     1      16.400 -52.947  -0.750  1.00  0.00    -0.502 OA
ATOM     21  H   UNL     1      16.205 -53.929  -0.617  1.00  0.00     0.293 HD
ENDBRANCH  16  20
BRANCH  17  22
ATOM     22  O   UNL     1      18.547 -51.202  -1.124  1.00  0.00    -0.504 OA
ATOM     23  H   UNL     1      18.864 -50.266  -0.902  1.00  0.00     0.293 HD
ENDBRANCH  17  22
ENDBRANCH   1  12
BRANCH   2  24
ATOM     24  O   UNL     1      15.367 -48.855  -5.448  1.00  0.00    -0.502 OA
ATOM     25  H   UNL     1      14.505 -49.372  -5.328  1.00  0.00     0.293 HD
ENDBRANCH   2  24
BRANCH   6  26
ATOM     26  O   UNL     1      17.389 -47.687 -10.095  1.00  0.00    -0.507 OA
ATOM     27  H   UNL     1      16.509 -47.803 -10.587  1.00  0.00     0.293 HD
ENDBRANCH   6  26
BRANCH   8  28
ATOM     28  O   UNL     1      20.857 -51.040 -10.496  1.00  0.00    -0.508 OA
ATOM     29  H   UNL     1      21.814 -50.716 -10.414  1.00  0.00     0.293 HD
ENDBRANCH   8  28
TORSDOF 7
ENDMDL
MODEL 5
REMARK VINA RESULT:    -5.041      3.245      4.046
REMARK INTER + INTRA:          -6.549
REMARK INTER:                  -6.222
REMARK INTRA:                  -0.327
REMARK UNBOUND:                -0.329
REMARK SMILES O=c1c(O)c(-c2cc(O)c(O)c(O)c2)oc2cc(O)cc(O)c12
REMARK SMILES IDX 5 1 3 2 2 3 1 4 23 5 21 6 20 7 18 8 17 9 16 10 15 11 6 12
REMARK SMILES IDX 7 13 8 14 14 15 10 16 12 17 9 18 11 20 13 22 4 24 22 26
REMARK SMILES IDX 19 28
REMARK H PARENT 9 19 11 21 13 23 4 25 22 27 19 29
REMARK Flexibility Score: inf
ROOT
ATOM      1  C   UNL     1      18.767 -47.842  -4.053  1.00  0.00     0.180 A 
ATOM      2  C   UNL     1      20.006 -48.242  -4.589  1.00  0.00     0.208 A 
ATOM      3  C   UNL     1      20.146 -48.331  -5.983  1.00  0.00     0.238 A 
ATOM      4  O   UNL     1      21.248 -48.699  -6.474  1.00  0.00    -0.285 OA
ATOM      5  C   UNL     1      19.056 -48.002  -6.814  1.00  0.00     0.111 A 
ATOM      6  C   UNL     1      19.114 -48.063  -8.228  1.00  0.00     0.134 A 
ATOM      7  C   UNL     1      17.989 -47.710  -8.987  1.00  0.00     0.093 A 
ATOM      8  C   UNL     1      16.807 -47.297  -8.360  1.00  0.00     0.123 A 
ATOM      9  C   UNL     1      16.744 -47.237  -6.967  1.00  0.00     0.094 A 
ATOM     10  C   UNL     1      17.855 -47.586  -6.192  1.00  0.00     0.146 A 
ATOM     11  O   UNL     1      17.765 -47.524  -4.869  1.00  0.00    -0.452 OA
ENDROOT
BRANCH   1  12
ATOM     12  C   UNL     1      18.537 -47.741  -2.594  1.00  0.00     0.029 A 
ATOM     13  C   UNL     1      18.469 -46.477  -1.992  1.00  0.00     0.062 A 
ATOM     14  C   UNL     1      18.232 -46.344  -0.619  1.00  0.00     0.162 A 
ATOM     15  C   UNL     1      18.327 -48.883  -1.807  1.00  0.00     0.062 A 
ATOM     16  C   UNL     1      18.043 -47.501   0.174  1.00  0.00     0.200 A 
ATOM     17  C   UNL     1      18.087 -48.769  -0.435  1.00  0.00     0.162 A 
BRANCH  14  18
ATOM     18  O   UNL     1      18.190 -45.051  -0.090  1.00  0.00    -0.504 OA
ATOM     19  H   UNL     1      17.355 -44.487  -0.036  1.00  0.00     0.293 HD
ENDBRANCH  14  18
BRANCH  16  20
ATOM     20  O   UNL     1      17.810 -47.432   1.550  1.00  0.00    -0.502 OA
ATOM     21  H   UNL     1      18.526 -47.258   2.240  1.00  0.00     0.293 HD
ENDBRANCH  16  20
BRANCH  17  22
ATOM     22  O   UNL     1      17.891 -49.932   0.310  1.00  0.00    -0.504 OA
ATOM     23  H   UNL     1      18.523 -50.722   0.258  1.00  0.00     0.293 HD
ENDBRANCH  17  22
ENDBRANCH   1  12
BRANCH   2  24
ATOM     24  O   UNL     1      21.086 -48.514  -3.745  1.00  0.00    -0.502 OA
ATOM     25  H   UNL     1      21.472 -49.445  -3.640  1.00  0.00     0.293 HD
ENDBRANCH   2  24
BRANCH   6  26
ATOM     26  O   UNL     1      20.279 -48.469  -8.882  1.00  0.00    -0.507 OA
ATOM     27  H   UNL     1      20.493 -48.167  -9.826  1.00  0.00     0.293 HD
ENDBRANCH   6  26
BRANCH   8  28
ATOM     28  O   UNL     1      15.689 -46.946  -9.113  1.00  0.00    -0.508 OA
ATOM     29  H   UNL     1      14.979 -46.320  -8.749  1.00  0.00     0.293 HD
ENDBRANCH   8  28
TORSDOF 7
ENDMDL
MODEL 6
REMARK VINA RESULT:    -5.004      1.986      7.482
REMARK INTER + INTRA:          -6.502
REMARK INTER:                  -6.362
REMARK INTRA:                  -0.140
REMARK UNBOUND:                -0.329
REMARK SMILES O=c1c(O)c(-c2cc(O)c(O)c(O)c2)oc2cc(O)cc(O)c12
REMARK SMILES IDX 5 1 3 2 2 3 1 4 23 5 21 6 20 7 18 8 17 9 16 10 15 11 6 12
REMARK SMILES IDX 7 13 8 14 14 15 10 16 12 17 9 18 11 20 13 22 4 24 22 26
REMARK SMILES IDX 19 28
REMARK H PARENT 9 19 11 21 13 23 4 25 22 27 19 29
REMARK Flexibility Score: inf
ROOT
ATOM      1  C   UNL     1      18.018 -49.456  -3.979  1.00  0.00     0.180 A 
ATOM      2  C   UNL     1      18.672 -48.642  -3.036  1.00  0.00     0.208 A 
ATOM      3  C   UNL     1      18.772 -49.087  -1.708  1.00  0.00     0.238 A 
ATOM      4  O   UNL     1      19.346 -48.360  -0.851  1.00  0.00    -0.285 OA
ATOM      5  C   UNL     1      18.235 -50.340  -1.351  1.00  0.00     0.111 A 
ATOM      6  C   UNL     1      18.295 -50.864  -0.037  1.00  0.00     0.134 A 
ATOM      7  C   UNL     1      17.746 -52.125   0.237  1.00  0.00     0.093 A 
ATOM      8  C   UNL     1      17.138 -52.873  -0.779  1.00  0.00     0.123 A 
ATOM      9  C   UNL     1      17.075 -52.361  -2.076  1.00  0.00     0.094 A 
ATOM     10  C   UNL     1      17.615 -51.105  -2.368  1.00  0.00     0.146 A 
ATOM     11  O   UNL     1      17.537 -50.640  -3.610  1.00  0.00    -0.452 OA
ENDROOT
BRANCH   1  12
ATOM     12  C   UNL     1      17.857 -49.048  -5.394  1.00  0.00     0.029 A 
ATOM     13  C   UNL     1      18.304 -49.901  -6.413  1.00  0.00     0.062 A 
ATOM     14  C   UNL     1      18.149 -49.557  -7.760  1.00  0.00     0.162 A 
ATOM     15  C   UNL     1      17.214 -47.851  -5.740  1.00  0.00     0.062 A 
ATOM     16  C   UNL     1      17.520 -48.336  -8.103  1.00  0.00     0.200 A 
ATOM     17  C   UNL     1      17.050 -47.492  -7.080  1.00  0.00     0.162 A 
BRANCH  14  18
ATOM     18  O   UNL     1      18.631 -50.454  -8.718  1.00  0.00    -0.504 OA
ATOM     19  H   UNL     1      19.540 -50.890  -8.679  1.00  0.00     0.293 HD
ENDBRANCH  14  18
BRANCH  16  20
ATOM     20  O   UNL     1      17.343 -47.936  -9.430  1.00  0.00    -0.502 OA
ATOM     21  H   UNL     1      16.938 -48.517 -10.149  1.00  0.00     0.293 HD
ENDBRANCH  16  20
BRANCH  17  22
ATOM     22  O   UNL     1      16.410 -46.288  -7.378  1.00  0.00    -0.504 OA
ATOM     23  H   UNL     1      16.405 -45.505  -6.736  1.00  0.00     0.293 HD
ENDBRANCH  17  22
ENDBRANCH   1  12
BRANCH   2  24
ATOM     24  O   UNL     1      19.240 -47.425  -3.425  1.00  0.00    -0.502 OA
ATOM     25  H   UNL     1      19.015 -46.550  -2.968  1.00  0.00     0.293 HD
ENDBRANCH   2  24
BRANCH   6  26
ATOM     26  O   UNL     1      18.897 -50.142   0.996  1.00  0.00    -0.507 OA
ATOM     27  H   UNL     1      18.868 -50.462   1.958  1.00  0.00     0.293 HD
ENDBRANCH   6  26
BRANCH   8  28
ATOM     28  O   UNL     1      16.592 -54.125  -0.508  1.00  0.00    -0.508 OA
ATOM     29  H   UNL     1      15.593 -54.290  -0.554  1.00  0.00     0.293 HD
ENDBRANCH   8  28
TORSDOF 7
ENDMDL
MODEL 7
REMARK VINA RESULT:    -4.907      2.552      7.524
REMARK INTER + INTRA:          -6.383
REMARK INTER:                  -6.112
REMARK INTRA:                  -0.271
REMARK UNBOUND:                -0.329
REMARK SMILES O=c1c(O)c(-c2cc(O)c(O)c(O)c2)oc2cc(O)cc(O)c12
REMARK SMILES IDX 5 1 3 2 2 3 1 4 23 5 21 6 20 7 18 8 17 9 16 10 15 11 6 12
REMARK SMILES IDX 7 13 8 14 14 15 10 16 12 17 9 18 11 20 13 22 4 24 22 26
REMARK SMILES IDX 19 28
REMARK H PARENT 9 19 11 21 13 23 4 25 22 27 19 29
REMARK Flexibility Score: inf
ROOT
ATOM      1  C   UNL     1      18.204 -47.833  -5.819  1.00  0.00     0.180 A 
ATOM      2  C   UNL     1      18.203 -49.217  -6.079  1.00  0.00     0.208 A 
ATOM      3  C   UNL     1      18.232 -50.110  -4.996  1.00  0.00     0.238 A 
ATOM      4  O   UNL     1      18.242 -51.352  -5.216  1.00  0.00    -0.285 OA
ATOM      5  C   UNL     1      18.241 -49.608  -3.679  1.00  0.00     0.111 A 
ATOM      6  C   UNL     1      18.266 -50.440  -2.533  1.00  0.00     0.134 A 
ATOM      7  C   UNL     1      18.265 -49.864  -1.254  1.00  0.00     0.093 A 
ATOM      8  C   UNL     1      18.237 -48.472  -1.099  1.00  0.00     0.123 A 
ATOM      9  C   UNL     1      18.213 -47.648  -2.225  1.00  0.00     0.094 A 
ATOM     10  C   UNL     1      18.216 -48.204  -3.509  1.00  0.00     0.146 A 
ATOM     11  O   UNL     1      18.198 -47.396  -4.563  1.00  0.00    -0.452 OA
ENDROOT
BRANCH   1  12
ATOM     12  C   UNL     1      18.193 -46.829  -6.907  1.00  0.00     0.029 A 
ATOM     13  C   UNL     1      19.366 -46.122  -7.206  1.00  0.00     0.062 A 
ATOM     14  C   UNL     1      19.398 -45.181  -8.241  1.00  0.00     0.162 A 
ATOM     15  C   UNL     1      17.048 -46.608  -7.687  1.00  0.00     0.062 A 
ATOM     16  C   UNL     1      18.232 -44.947  -9.009  1.00  0.00     0.200 A 
ATOM     17  C   UNL     1      17.062 -45.674  -8.725  1.00  0.00     0.162 A 
BRANCH  14  18
ATOM     18  O   UNL     1      20.601 -44.509  -8.469  1.00  0.00    -0.504 OA
ATOM     19  H   UNL     1      21.447 -44.954  -8.795  1.00  0.00     0.293 HD
ENDBRANCH  14  18
BRANCH  16  20
ATOM     20  O   UNL     1      18.201 -44.015 -10.051  1.00  0.00    -0.502 OA
ATOM     21  H   UNL     1      18.084 -43.021  -9.920  1.00  0.00     0.293 HD
ENDBRANCH  16  20
BRANCH  17  22
ATOM     22  O   UNL     1      15.897 -45.483  -9.470  1.00  0.00    -0.504 OA
ATOM     23  H   UNL     1      14.985 -45.760  -9.130  1.00  0.00     0.293 HD
ENDBRANCH  17  22
ENDBRANCH   1  12
BRANCH   2  24
ATOM     24  O   UNL     1      18.143 -49.689  -7.392  1.00  0.00    -0.502 OA
ATOM     25  H   UNL     1      18.309 -49.092  -8.192  1.00  0.00     0.293 HD
ENDBRANCH   2  24
BRANCH   6  26
ATOM     26  O   UNL     1      18.292 -51.830  -2.656  1.00  0.00    -0.507 OA
ATOM     27  H   UNL     1      17.724 -52.428  -2.066  1.00  0.00     0.293 HD
ENDBRANCH   6  26
BRANCH   8  28
ATOM     28  O   UNL     1      18.235 -47.900   0.170  1.00  0.00    -0.508 OA
ATOM     29  H   UNL     1      19.064 -47.897   0.753  1.00  0.00     0.293 HD
ENDBRANCH   8  28
TORSDOF 7
ENDMDL
MODEL 8
REMARK VINA RESULT:    -4.885      2.617      4.018
REMARK INTER + INTRA:          -6.356
REMARK INTER:                  -6.249
REMARK INTRA:                  -0.107
REMARK UNBOUND:                -0.329
REMARK SMILES O=c1c(O)c(-c2cc(O)c(O)c(O)c2)oc2cc(O)cc(O)c12
REMARK SMILES IDX 5 1 3 2 2 3 1 4 23 5 21 6 20 7 18 8 17 9 16 10 15 11 6 12
REMARK SMILES IDX 7 13 8 14 14 15 10 16 12 17 9 18 11 20 13 22 4 24 22 26
REMARK SMILES IDX 19 28
REMARK H PARENT 9 19 11 21 13 23 4 25 22 27 19 29
REMARK Flexibility Score: inf
ROOT
ATOM      1  C   UNL     1      18.081 -49.453  -3.096  1.00  0.00     0.180 A 
ATOM      2  C   UNL     1      17.704 -50.707  -3.613  1.00  0.00     0.208 A 
ATOM      3  C   UNL     1      17.182 -50.775  -4.915  1.00  0.00     0.238 A 
ATOM      4  O   UNL     1      16.831 -51.891  -5.385  1.00  0.00    -0.285 OA
ATOM      5  C   UNL     1      17.064 -49.597  -5.680  1.00  0.00     0.111 A 
ATOM      6  C   UNL     1      16.551 -49.579  -7.000  1.00  0.00     0.134 A 
ATOM      7  C   UNL     1      16.474 -48.366  -7.700  1.00  0.00     0.093 A 
ATOM      8  C   UNL     1      16.900 -47.171  -7.107  1.00  0.00     0.123 A 
ATOM      9  C   UNL     1      17.406 -47.184  -5.806  1.00  0.00     0.094 A 
ATOM     10  C   UNL     1      17.489 -48.383  -5.090  1.00  0.00     0.146 A 
ATOM     11  O   UNL     1      17.969 -48.365  -3.852  1.00  0.00    -0.452 OA
ENDROOT
BRANCH   1  12
ATOM     12  C   UNL     1      18.622 -49.298  -1.726  1.00  0.00     0.029 A 
ATOM     13  C   UNL     1      17.953 -48.475  -0.809  1.00  0.00     0.062 A 
ATOM     14  C   UNL     1      18.424 -48.322   0.499  1.00  0.00     0.162 A 
ATOM     15  C   UNL     1      19.760 -50.002  -1.306  1.00  0.00     0.062 A 
ATOM     16  C   UNL     1      19.586 -49.018   0.911  1.00  0.00     0.200 A 
ATOM     17  C   UNL     1      20.243 -49.862  -0.002  1.00  0.00     0.162 A 
BRANCH  14  18
ATOM     18  O   UNL     1      17.710 -47.475   1.351  1.00  0.00    -0.504 OA
ATOM     19  H   UNL     1      18.022 -47.201   2.271  1.00  0.00     0.293 HD
ENDBRANCH  14  18
BRANCH  16  20
ATOM     20  O   UNL     1      20.108 -48.899   2.202  1.00  0.00    -0.502 OA
ATOM     21  H   UNL     1      20.461 -49.674   2.745  1.00  0.00     0.293 HD
ENDBRANCH  16  20
BRANCH  17  22
ATOM     22  O   UNL     1      21.382 -50.577   0.370  1.00  0.00    -0.504 OA
ATOM     23  H   UNL     1      22.130 -50.161   0.911  1.00  0.00     0.293 HD
ENDBRANCH  17  22
ENDBRANCH   1  12
BRANCH   2  24
ATOM     24  O   UNL     1      17.878 -51.866  -2.853  1.00  0.00    -0.502 OA
ATOM     25  H   UNL     1      17.105 -52.468  -2.596  1.00  0.00     0.293 HD
ENDBRANCH   2  24
BRANCH   6  26
ATOM     26  O   UNL     1      16.120 -50.753  -7.619  1.00  0.00    -0.507 OA
ATOM     27  H   UNL     1      16.769 -51.489  -7.877  1.00  0.00     0.293 HD
ENDBRANCH   6  26
BRANCH   8  28
ATOM     28  O   UNL     1      16.825 -45.967  -7.801  1.00  0.00    -0.508 OA
ATOM     29  H   UNL     1      17.537 -45.252  -7.703  1.00  0.00     0.293 HD
ENDBRANCH   8  28
TORSDOF 7
ENDMDL
MODEL 9
REMARK VINA RESULT:    -4.855      1.317      7.099
REMARK INTER + INTRA:          -6.319
REMARK INTER:                  -5.965
REMARK INTRA:                  -0.354
REMARK UNBOUND:                -0.329
REMARK SMILES O=c1c(O)c(-c2cc(O)c(O)c(O)c2)oc2cc(O)cc(O)c12
REMARK SMILES IDX 5 1 3 2 2 3 1 4 23 5 21 6 20 7 18 8 17 9 16 10 15 11 6 12
REMARK SMILES IDX 7 13 8 14 14 15 10 16 12 17 9 18 11 20 13 22 4 24 22 26
REMARK SMILES IDX 19 28
REMARK H PARENT 9 19 11 21 13 23 4 25 22 27 19 29
REMARK Flexibility Score: inf
ROOT
ATOM      1  C   UNL     1      17.759 -49.498  -5.806  1.00  0.00     0.180 A 
ATOM      2  C   UNL     1      18.733 -49.268  -4.816  1.00  0.00     0.208 A 
ATOM      3  C   UNL     1      18.653 -49.976  -3.607  1.00  0.00     0.238 A 
ATOM      4  O   UNL     1      19.514 -49.770  -2.708  1.00  0.00    -0.285 OA
ATOM      5  C   UNL     1      17.616 -50.912  -3.415  1.00  0.00     0.111 A 
ATOM      6  C   UNL     1      17.465 -51.669  -2.228  1.00  0.00     0.134 A 
ATOM      7  C   UNL     1      16.412 -52.588  -2.118  1.00  0.00     0.093 A 
ATOM      8  C   UNL     1      15.507 -52.766  -3.171  1.00  0.00     0.123 A 
ATOM      9  C   UNL     1      15.651 -52.021  -4.343  1.00  0.00     0.094 A 
ATOM     10  C   UNL     1      16.693 -51.098  -4.472  1.00  0.00     0.146 A 
ATOM     11  O   UNL     1      16.803 -50.400  -5.596  1.00  0.00    -0.452 OA
ENDROOT
BRANCH   1  12
ATOM     12  C   UNL     1      17.765 -48.777  -7.099  1.00  0.00     0.029 A 
ATOM     13  C   UNL     1      17.170 -47.510  -7.186  1.00  0.00     0.062 A 
ATOM     14  C   UNL     1      17.176 -46.792  -8.387  1.00  0.00     0.162 A 
ATOM     15  C   UNL     1      18.405 -49.308  -8.228  1.00  0.00     0.062 A 
ATOM     16  C   UNL     1      17.804 -47.344  -9.529  1.00  0.00     0.200 A 
ATOM     17  C   UNL     1      18.423 -48.604  -9.435  1.00  0.00     0.162 A 
BRANCH  14  18
ATOM     18  O   UNL     1      16.552 -45.542  -8.397  1.00  0.00    -0.504 OA
ATOM     19  H   UNL     1      15.750 -45.314  -8.966  1.00  0.00     0.293 HD
ENDBRANCH  14  18
BRANCH  16  20
ATOM     20  O   UNL     1      17.837 -46.677 -10.757  1.00  0.00    -0.502 OA
ATOM     21  H   UNL     1      17.815 -45.673 -10.858  1.00  0.00     0.293 HD
ENDBRANCH  16  20
BRANCH  17  22
ATOM     22  O   UNL     1      19.066 -49.174 -10.534  1.00  0.00    -0.504 OA
ATOM     23  H   UNL     1      20.032 -49.475 -10.501  1.00  0.00     0.293 HD
ENDBRANCH  17  22
ENDBRANCH   1  12
BRANCH   2  24
ATOM     24  O   UNL     1      19.779 -48.371  -5.050  1.00  0.00    -0.502 OA
ATOM     25  H   UNL     1      20.626 -48.640  -5.536  1.00  0.00     0.293 HD
ENDBRANCH   2  24
BRANCH   6  26
ATOM     26  O   UNL     1      18.352 -51.515  -1.161  1.00  0.00    -0.507 OA
ATOM     27  H   UNL     1      18.486 -52.245  -0.470  1.00  0.00     0.293 HD
ENDBRANCH   6  26
BRANCH   8  28
ATOM     28  O   UNL     1      14.461 -53.679  -3.063  1.00  0.00    -0.508 OA
ATOM     29  H   UNL     1      14.405 -54.495  -3.661  1.00  0.00     0.293 HD
ENDBRANCH   8  28
TORSDOF 7
ENDMDL
