MODEL 1
REMARK VINA RESULT:    -8.436      0.000      0.000
REMARK INTER + INTRA:          -9.949
REMARK INTER:                  -9.669
REMARK INTRA:                  -0.280
REMARK UNBOUND:                -0.280
REMARK SMILES O=c1c(-c2ccc(O)cc2)coc2c(O)c(O)ccc12
REMARK SMILES IDX 3 1 11 2 12 3 13 4 20 5 2 6 1 7 19 8 18 9 16 10 14 11 4 12
REMARK SMILES IDX 5 13 6 14 7 15 10 16 9 17 8 18 15 20 17 22
REMARK H PARENT 8 19 15 21 17 23
REMARK Flexibility Score: inf
ROOT
ATOM      1  C   UNL     1       7.441 -55.891 -29.933  1.00  0.00     0.065 A 
ATOM      2  C   UNL     1       7.800 -56.439 -28.692  1.00  0.00     0.208 A 
ATOM      3  O   UNL     1       6.898 -56.597 -27.729  1.00  0.00    -0.459 OA
ATOM      4  C   UNL     1       5.622 -56.254 -27.874  1.00  0.00     0.183 A 
ATOM      5  C   UNL     1       5.170 -55.698 -29.092  1.00  0.00     0.069 A 
ATOM      6  C   UNL     1       6.098 -55.523 -30.134  1.00  0.00     0.200 A 
ATOM      7  O   UNL     1       5.724 -55.057 -31.246  1.00  0.00    -0.288 OA
ATOM      8  C   UNL     1       3.816 -55.345 -29.229  1.00  0.00     0.020 A 
ATOM      9  C   UNL     1       2.928 -55.539 -28.170  1.00  0.00     0.051 A 
ATOM     10  C   UNL     1       3.375 -56.089 -26.961  1.00  0.00     0.161 A 
ATOM     11  C   UNL     1       4.727 -56.447 -26.812  1.00  0.00     0.201 A 
ENDROOT
BRANCH   1  12
ATOM     12  C   UNL     1       8.469 -55.718 -30.990  1.00  0.00    -0.011 A 
ATOM     13  C   UNL     1       9.150 -54.496 -31.125  1.00  0.00     0.013 A 
ATOM     14  C   UNL     1      10.113 -54.328 -32.125  1.00  0.00     0.047 A 
ATOM     15  C   UNL     1      10.403 -55.374 -33.006  1.00  0.00     0.115 A 
ATOM     16  C   UNL     1       8.761 -56.765 -31.884  1.00  0.00     0.013 A 
ATOM     17  C   UNL     1       9.724 -56.594 -32.884  1.00  0.00     0.047 A 
BRANCH  15  18
ATOM     18  O   UNL     1      11.364 -55.193 -33.997  1.00  0.00    -0.508 OA
ATOM     19  H   UNL     1      11.296 -55.661 -34.894  1.00  0.00     0.293 HD
ENDBRANCH  15  18
ENDBRANCH   1  12
BRANCH  11  20
ATOM     20  O   UNL     1       5.194 -56.998 -25.618  1.00  0.00    -0.502 OA
ATOM     21  H   UNL     1       6.159 -56.907 -25.323  1.00  0.00     0.293 HD
ENDBRANCH  11  20
BRANCH  10  22
ATOM     22  O   UNL     1       2.483 -56.280 -25.907  1.00  0.00    -0.504 OA
ATOM     23  H   UNL     1       2.753 -56.778 -25.067  1.00  0.00     0.293 HD
ENDBRANCH  10  22
TORSDOF 4
ENDMDL
MODEL 2
REMARK VINA RESULT:    -8.088      1.607      6.860
REMARK INTER + INTRA:          -9.549
REMARK INTER:                  -9.808
REMARK INTRA:                   0.258
REMARK UNBOUND:                -0.280
REMARK SMILES O=c1c(-c2ccc(O)cc2)coc2c(O)c(O)ccc12
REMARK SMILES IDX 3 1 11 2 12 3 13 4 20 5 2 6 1 7 19 8 18 9 16 10 14 11 4 12
REMARK SMILES IDX 5 13 6 14 7 15 10 16 9 17 8 18 15 20 17 22
REMARK H PARENT 8 19 15 21 17 23
REMARK Flexibility Score: inf
ROOT
ATOM      1  C   UNL     1       5.854 -56.021 -28.373  1.00  0.00     0.065 A 
ATOM      2  C   UNL     1       7.221 -56.216 -28.125  1.00  0.00     0.208 A 
ATOM      3  O   UNL     1       8.120 -56.054 -29.090  1.00  0.00    -0.459 OA
ATOM      4  C   UNL     1       7.792 -55.703 -30.329  1.00  0.00     0.183 A 
ATOM      5  C   UNL     1       6.438 -55.480 -30.668  1.00  0.00     0.069 A 
ATOM      6  C   UNL     1       5.461 -55.637 -29.669  1.00  0.00     0.200 A 
ATOM      7  O   UNL     1       4.246 -55.418 -29.928  1.00  0.00    -0.288 OA
ATOM      8  C   UNL     1       6.109 -55.105 -31.983  1.00  0.00     0.020 A 
ATOM      9  C   UNL     1       7.111 -54.957 -32.943  1.00  0.00     0.051 A 
ATOM     10  C   UNL     1       8.454 -55.179 -32.608  1.00  0.00     0.161 A 
ATOM     11  C   UNL     1       8.795 -55.553 -31.296  1.00  0.00     0.201 A 
ENDROOT
BRANCH   1  12
ATOM     12  C   UNL     1       4.869 -56.215 -27.280  1.00  0.00    -0.011 A 
ATOM     13  C   UNL     1       3.754 -55.366 -27.170  1.00  0.00     0.013 A 
ATOM     14  C   UNL     1       2.828 -55.540 -26.136  1.00  0.00     0.047 A 
ATOM     15  C   UNL     1       3.008 -56.560 -25.196  1.00  0.00     0.115 A 
ATOM     16  C   UNL     1       5.047 -57.234 -26.326  1.00  0.00     0.013 A 
ATOM     17  C   UNL     1       4.120 -57.406 -25.293  1.00  0.00     0.047 A 
BRANCH  15  18
ATOM     18  O   UNL     1       2.079 -56.722 -24.172  1.00  0.00    -0.508 OA
ATOM     19  H   UNL     1       2.249 -56.361 -23.240  1.00  0.00     0.293 HD
ENDBRANCH  15  18
ENDBRANCH   1  12
BRANCH  11  20
ATOM     20  O   UNL     1      10.126 -55.778 -30.939  1.00  0.00    -0.502 OA
ATOM     21  H   UNL     1      10.534 -56.705 -30.936  1.00  0.00     0.293 HD
ENDBRANCH  11  20
BRANCH  10  22
ATOM     22  O   UNL     1       9.450 -55.029 -33.573  1.00  0.00    -0.504 OA
ATOM     23  H   UNL     1      10.252 -55.647 -33.606  1.00  0.00     0.293 HD
ENDBRANCH  10  22
TORSDOF 4
ENDMDL
MODEL 3
REMARK VINA RESULT:    -7.965      1.242      7.141
REMARK INTER + INTRA:          -9.409
REMARK INTER:                  -9.704
REMARK INTRA:                   0.295
REMARK UNBOUND:                -0.280
REMARK SMILES O=c1c(-c2ccc(O)cc2)coc2c(O)c(O)ccc12
REMARK SMILES IDX 3 1 11 2 12 3 13 4 20 5 2 6 1 7 19 8 18 9 16 10 14 11 4 12
REMARK SMILES IDX 5 13 6 14 7 15 10 16 9 17 8 18 15 20 17 22
REMARK H PARENT 8 19 15 21 17 23
REMARK Flexibility Score: inf
ROOT
ATOM      1  C   UNL     1       5.730 -55.666 -29.522  1.00  0.00     0.065 A 
ATOM      2  C   UNL     1       5.276 -55.499 -30.839  1.00  0.00     0.208 A 
ATOM      3  O   UNL     1       6.133 -55.358 -31.845  1.00  0.00    -0.459 OA
ATOM      4  C   UNL     1       7.451 -55.367 -31.674  1.00  0.00     0.183 A 
ATOM      5  C   UNL     1       7.999 -55.535 -30.382  1.00  0.00     0.069 A 
ATOM      6  C   UNL     1       7.119 -55.692 -29.296  1.00  0.00     0.200 A 
ATOM      7  O   UNL     1       7.572 -55.873 -28.132  1.00  0.00    -0.288 OA
ATOM      8  C   UNL     1       9.395 -55.546 -30.220  1.00  0.00     0.020 A 
ATOM      9  C   UNL     1      10.232 -55.389 -31.327  1.00  0.00     0.051 A 
ATOM     10  C   UNL     1       9.690 -55.222 -32.608  1.00  0.00     0.161 A 
ATOM     11  C   UNL     1       8.295 -55.211 -32.783  1.00  0.00     0.201 A 
ENDROOT
BRANCH   1  12
ATOM     12  C   UNL     1       4.752 -55.814 -28.416  1.00  0.00    -0.011 A 
ATOM     13  C   UNL     1       3.539 -55.103 -28.440  1.00  0.00     0.013 A 
ATOM     14  C   UNL     1       2.620 -55.234 -27.395  1.00  0.00     0.047 A 
ATOM     15  C   UNL     1       2.901 -56.070 -26.310  1.00  0.00     0.115 A 
ATOM     16  C   UNL     1       5.032 -56.649 -27.317  1.00  0.00     0.013 A 
ATOM     17  C   UNL     1       4.110 -56.776 -26.273  1.00  0.00     0.047 A 
BRANCH  15  18
ATOM     18  O   UNL     1       1.976 -56.190 -25.276  1.00  0.00    -0.508 OA
ATOM     19  H   UNL     1       2.258 -56.133 -24.304  1.00  0.00     0.293 HD
ENDBRANCH  15  18
ENDBRANCH   1  12
BRANCH  11  20
ATOM     20  O   UNL     1       7.733 -55.046 -34.050  1.00  0.00    -0.502 OA
ATOM     21  H   UNL     1       6.831 -55.437 -34.295  1.00  0.00     0.293 HD
ENDBRANCH  11  20
BRANCH  10  22
ATOM     22  O   UNL     1      10.532 -55.066 -33.709  1.00  0.00    -0.504 OA
ATOM     23  H   UNL     1      11.242 -54.344 -33.735  1.00  0.00     0.293 HD
ENDBRANCH  10  22
TORSDOF 4
ENDMDL
MODEL 4
REMARK VINA RESULT:    -7.819      1.656      7.368
REMARK INTER + INTRA:          -9.241
REMARK INTER:                  -9.709
REMARK INTRA:                   0.468
REMARK UNBOUND:                -0.280
REMARK SMILES O=c1c(-c2ccc(O)cc2)coc2c(O)c(O)ccc12
REMARK SMILES IDX 3 1 11 2 12 3 13 4 20 5 2 6 1 7 19 8 18 9 16 10 14 11 4 12
REMARK SMILES IDX 5 13 6 14 7 15 10 16 9 17 8 18 15 20 17 22
REMARK H PARENT 8 19 15 21 17 23
REMARK Flexibility Score: inf
ROOT
ATOM      1  C   UNL     1       4.449 -55.853 -28.239  1.00  0.00     0.065 A 
ATOM      2  C   UNL     1       3.799 -55.339 -29.371  1.00  0.00     0.208 A 
ATOM      3  O   UNL     1       4.467 -55.107 -30.496  1.00  0.00    -0.459 OA
ATOM      4  C   UNL     1       5.769 -55.342 -30.622  1.00  0.00     0.183 A 
ATOM      5  C   UNL     1       6.505 -55.865 -29.534  1.00  0.00     0.069 A 
ATOM      6  C   UNL     1       5.827 -56.127 -28.330  1.00  0.00     0.200 A 
ATOM      7  O   UNL     1       6.445 -56.621 -27.347  1.00  0.00    -0.288 OA
ATOM      8  C   UNL     1       7.881 -56.111 -29.685  1.00  0.00     0.020 A 
ATOM      9  C   UNL     1       8.513 -55.839 -30.900  1.00  0.00     0.051 A 
ATOM     10  C   UNL     1       7.786 -55.320 -31.979  1.00  0.00     0.161 A 
ATOM     11  C   UNL     1       6.408 -55.071 -31.839  1.00  0.00     0.201 A 
ENDROOT
BRANCH   1  12
ATOM     12  C   UNL     1       3.681 -56.097 -26.992  1.00  0.00    -0.011 A 
ATOM     13  C   UNL     1       2.454 -55.447 -26.776  1.00  0.00     0.013 A 
ATOM     14  C   UNL     1       1.732 -55.668 -25.599  1.00  0.00     0.047 A 
ATOM     15  C   UNL     1       2.230 -56.534 -24.621  1.00  0.00     0.115 A 
ATOM     16  C   UNL     1       4.179 -56.963 -26.001  1.00  0.00     0.013 A 
ATOM     17  C   UNL     1       3.456 -57.181 -24.824  1.00  0.00     0.047 A 
BRANCH  15  18
ATOM     18  O   UNL     1       1.501 -56.745 -23.453  1.00  0.00    -0.508 OA
ATOM     19  H   UNL     1       0.632 -56.253 -23.274  1.00  0.00     0.293 HD
ENDBRANCH  15  18
ENDBRANCH   1  12
BRANCH  11  20
ATOM     20  O   UNL     1       5.663 -54.555 -32.901  1.00  0.00    -0.502 OA
ATOM     21  H   UNL     1       5.241 -55.151 -33.603  1.00  0.00     0.293 HD
ENDBRANCH  11  20
BRANCH  10  22
ATOM     22  O   UNL     1       8.425 -55.050 -33.189  1.00  0.00    -0.504 OA
ATOM     23  H   UNL     1       9.061 -54.268 -33.289  1.00  0.00     0.293 HD
ENDBRANCH  10  22
TORSDOF 4
ENDMDL
MODEL 5
REMARK VINA RESULT:    -7.633      1.420      2.002
REMARK INTER + INTRA:          -9.029
REMARK INTER:                  -9.570
REMARK INTRA:                   0.541
REMARK UNBOUND:                -0.280
REMARK SMILES O=c1c(-c2ccc(O)cc2)coc2c(O)c(O)ccc12
REMARK SMILES IDX 3 1 11 2 12 3 13 4 20 5 2 6 1 7 19 8 18 9 16 10 14 11 4 12
REMARK SMILES IDX 5 13 6 14 7 15 10 16 9 17 8 18 15 20 17 22
REMARK H PARENT 8 19 15 21 17 23
REMARK Flexibility Score: inf
ROOT
ATOM      1  C   UNL     1       5.952 -55.928 -29.121  1.00  0.00     0.065 A 
ATOM      2  C   UNL     1       6.485 -56.642 -28.037  1.00  0.00     0.208 A 
ATOM      3  O   UNL     1       5.777 -56.831 -26.929  1.00  0.00    -0.459 OA
ATOM      4  C   UNL     1       4.541 -56.367 -26.776  1.00  0.00     0.183 A 
ATOM      5  C   UNL     1       3.922 -55.640 -27.817  1.00  0.00     0.069 A 
ATOM      6  C   UNL     1       4.642 -55.426 -29.007  1.00  0.00     0.200 A 
ATOM      7  O   UNL     1       4.110 -54.807 -29.969  1.00  0.00    -0.288 OA
ATOM      8  C   UNL     1       2.612 -55.160 -27.640  1.00  0.00     0.020 A 
ATOM      9  C   UNL     1       1.933 -55.397 -26.444  1.00  0.00     0.051 A 
ATOM     10  C   UNL     1       2.547 -56.117 -25.410  1.00  0.00     0.161 A 
ATOM     11  C   UNL     1       3.856 -56.604 -25.577  1.00  0.00     0.201 A 
ENDROOT
BRANCH   1  12
ATOM     12  C   UNL     1       6.766 -55.724 -30.345  1.00  0.00    -0.011 A 
ATOM     13  C   UNL     1       8.112 -56.129 -30.378  1.00  0.00     0.013 A 
ATOM     14  C   UNL     1       8.884 -55.930 -31.527  1.00  0.00     0.047 A 
ATOM     15  C   UNL     1       8.325 -55.320 -32.654  1.00  0.00     0.115 A 
ATOM     16  C   UNL     1       6.212 -55.105 -31.481  1.00  0.00     0.013 A 
ATOM     17  C   UNL     1       6.987 -54.907 -32.628  1.00  0.00     0.047 A 
BRANCH  15  18
ATOM     18  O   UNL     1       9.105 -55.129 -33.791  1.00  0.00    -0.508 OA
ATOM     19  H   UNL     1      10.117 -55.181 -33.754  1.00  0.00     0.293 HD
ENDBRANCH  15  18
ENDBRANCH   1  12
BRANCH  11  20
ATOM     20  O   UNL     1       4.486 -57.324 -24.561  1.00  0.00    -0.502 OA
ATOM     21  H   UNL     1       5.282 -57.924 -24.739  1.00  0.00     0.293 HD
ENDBRANCH  11  20
BRANCH  10  22
ATOM     22  O   UNL     1       1.862 -56.350 -24.218  1.00  0.00    -0.504 OA
ATOM     23  H   UNL     1       0.970 -56.831 -24.204  1.00  0.00     0.293 HD
ENDBRANCH  10  22
TORSDOF 4
ENDMDL
MODEL 6
REMARK VINA RESULT:    -7.526      1.168      2.199
REMARK INTER + INTRA:          -8.905
REMARK INTER:                  -8.643
REMARK INTRA:                  -0.262
REMARK UNBOUND:                -0.280
REMARK SMILES O=c1c(-c2ccc(O)cc2)coc2c(O)c(O)ccc12
REMARK SMILES IDX 3 1 11 2 12 3 13 4 20 5 2 6 1 7 19 8 18 9 16 10 14 11 4 12
REMARK SMILES IDX 5 13 6 14 7 15 10 16 9 17 8 18 15 20 17 22
REMARK H PARENT 8 19 15 21 17 23
REMARK Flexibility Score: inf
ROOT
ATOM      1  C   UNL     1       6.869 -55.759 -29.731  1.00  0.00     0.065 A 
ATOM      2  C   UNL     1       5.582 -55.277 -30.017  1.00  0.00     0.208 A 
ATOM      3  O   UNL     1       4.586 -55.436 -29.152  1.00  0.00    -0.459 OA
ATOM      4  C   UNL     1       4.737 -56.048 -27.982  1.00  0.00     0.183 A 
ATOM      5  C   UNL     1       6.000 -56.561 -27.608  1.00  0.00     0.069 A 
ATOM      6  C   UNL     1       7.078 -56.405 -28.497  1.00  0.00     0.200 A 
ATOM      7  O   UNL     1       8.226 -56.825 -28.184  1.00  0.00    -0.288 OA
ATOM      8  C   UNL     1       6.143 -57.202 -26.365  1.00  0.00     0.020 A 
ATOM      9  C   UNL     1       5.047 -57.332 -25.511  1.00  0.00     0.051 A 
ATOM     10  C   UNL     1       3.794 -56.825 -25.881  1.00  0.00     0.161 A 
ATOM     11  C   UNL     1       3.639 -56.180 -27.122  1.00  0.00     0.201 A 
ENDROOT
BRANCH   1  12
ATOM     12  C   UNL     1       7.963 -55.575 -30.716  1.00  0.00    -0.011 A 
ATOM     13  C   UNL     1       8.637 -54.345 -30.807  1.00  0.00     0.013 A 
ATOM     14  C   UNL     1       9.663 -54.166 -31.740  1.00  0.00     0.047 A 
ATOM     15  C   UNL     1      10.025 -55.210 -32.597  1.00  0.00     0.115 A 
ATOM     16  C   UNL     1       8.328 -56.620 -31.586  1.00  0.00     0.013 A 
ATOM     17  C   UNL     1       9.354 -56.438 -32.519  1.00  0.00     0.047 A 
BRANCH  15  18
ATOM     18  O   UNL     1      11.048 -55.018 -33.522  1.00  0.00    -0.508 OA
ATOM     19  H   UNL     1      10.853 -54.750 -34.480  1.00  0.00     0.293 HD
ENDBRANCH  15  18
ENDBRANCH   1  12
BRANCH  11  20
ATOM     20  O   UNL     1       2.401 -55.666 -27.511  1.00  0.00    -0.502 OA
ATOM     21  H   UNL     1       2.225 -55.338 -28.453  1.00  0.00     0.293 HD
ENDBRANCH  11  20
BRANCH  10  22
ATOM     22  O   UNL     1       2.703 -56.959 -25.023  1.00  0.00    -0.504 OA
ATOM     23  H   UNL     1       2.348 -56.173 -24.491  1.00  0.00     0.293 HD
ENDBRANCH  10  22
TORSDOF 4
ENDMDL
MODEL 7
REMARK VINA RESULT:    -7.472      1.740      3.287
REMARK INTER + INTRA:          -8.844
REMARK INTER:                  -9.269
REMARK INTRA:                   0.425
REMARK UNBOUND:                -0.280
REMARK SMILES O=c1c(-c2ccc(O)cc2)coc2c(O)c(O)ccc12
REMARK SMILES IDX 3 1 11 2 12 3 13 4 20 5 2 6 1 7 19 8 18 9 16 10 14 11 4 12
REMARK SMILES IDX 5 13 6 14 7 15 10 16 9 17 8 18 15 20 17 22
REMARK H PARENT 8 19 15 21 17 23
REMARK Flexibility Score: inf
ROOT
ATOM      1  C   UNL     1       5.013 -55.596 -28.989  1.00  0.00     0.065 A 
ATOM      2  C   UNL     1       3.735 -55.019 -29.040  1.00  0.00     0.208 A 
ATOM      3  O   UNL     1       2.882 -55.159 -28.032  1.00  0.00    -0.459 OA
ATOM      4  C   UNL     1       3.175 -55.840 -26.929  1.00  0.00     0.183 A 
ATOM      5  C   UNL     1       4.441 -56.451 -26.788  1.00  0.00     0.069 A 
ATOM      6  C   UNL     1       5.371 -56.318 -27.835  1.00  0.00     0.200 A 
ATOM      7  O   UNL     1       6.522 -56.825 -27.732  1.00  0.00    -0.288 OA
ATOM      8  C   UNL     1       4.737 -57.165 -25.613  1.00  0.00     0.020 A 
ATOM      9  C   UNL     1       3.785 -57.270 -24.597  1.00  0.00     0.051 A 
ATOM     10  C   UNL     1       2.528 -56.665 -24.736  1.00  0.00     0.161 A 
ATOM     11  C   UNL     1       2.222 -55.948 -25.906  1.00  0.00     0.201 A 
ENDROOT
BRANCH   1  12
ATOM     12  C   UNL     1       5.946 -55.431 -30.132  1.00  0.00    -0.011 A 
ATOM     13  C   UNL     1       7.335 -55.522 -29.934  1.00  0.00     0.013 A 
ATOM     14  C   UNL     1       8.216 -55.359 -31.007  1.00  0.00     0.047 A 
ATOM     15  C   UNL     1       7.723 -55.095 -32.288  1.00  0.00     0.115 A 
ATOM     16  C   UNL     1       5.457 -55.159 -31.423  1.00  0.00     0.013 A 
ATOM     17  C   UNL     1       6.341 -54.994 -32.494  1.00  0.00     0.047 A 
BRANCH  15  18
ATOM     18  O   UNL     1       8.613 -54.934 -33.348  1.00  0.00    -0.508 OA
ATOM     19  H   UNL     1       9.497 -55.429 -33.377  1.00  0.00     0.293 HD
ENDBRANCH  15  18
ENDBRANCH   1  12
BRANCH  11  20
ATOM     20  O   UNL     1       0.978 -55.337 -26.066  1.00  0.00    -0.502 OA
ATOM     21  H   UNL     1       0.285 -55.687 -26.717  1.00  0.00     0.293 HD
ENDBRANCH  11  20
BRANCH  10  22
ATOM     22  O   UNL     1       1.583 -56.774 -23.717  1.00  0.00    -0.504 OA
ATOM     23  H   UNL     1       0.605 -56.565 -23.877  1.00  0.00     0.293 HD
ENDBRANCH  10  22
TORSDOF 4
ENDMDL
MODEL 8
REMARK VINA RESULT:    -6.995      2.176      3.812
REMARK INTER + INTRA:          -8.297
REMARK INTER:                  -8.486
REMARK INTRA:                   0.189
REMARK UNBOUND:                -0.280
REMARK SMILES O=c1c(-c2ccc(O)cc2)coc2c(O)c(O)ccc12
REMARK SMILES IDX 3 1 11 2 12 3 13 4 20 5 2 6 1 7 19 8 18 9 16 10 14 11 4 12
REMARK SMILES IDX 5 13 6 14 7 15 10 16 9 17 8 18 15 20 17 22
REMARK H PARENT 8 19 15 21 17 23
REMARK Flexibility Score: inf
ROOT
ATOM      1  C   UNL     1       4.647 -56.236 -27.533  1.00  0.00     0.065 A 
ATOM      2  C   UNL     1       4.740 -57.177 -26.496  1.00  0.00     0.208 A 
ATOM      3  O   UNL     1       3.776 -57.292 -25.589  1.00  0.00    -0.459 OA
ATOM      4  C   UNL     1       2.680 -56.540 -25.603  1.00  0.00     0.183 A 
ATOM      5  C   UNL     1       2.498 -55.569 -26.614  1.00  0.00     0.069 A 
ATOM      6  C   UNL     1       3.498 -55.424 -27.593  1.00  0.00     0.200 A 
ATOM      7  O   UNL     1       3.357 -54.588 -28.527  1.00  0.00    -0.288 OA
ATOM      8  C   UNL     1       1.331 -54.785 -26.617  1.00  0.00     0.020 A 
ATOM      9  C   UNL     1       0.363 -54.963 -25.627  1.00  0.00     0.051 A 
ATOM     10  C   UNL     1       0.542 -55.925 -24.623  1.00  0.00     0.161 A 
ATOM     11  C   UNL     1       1.705 -56.716 -24.612  1.00  0.00     0.201 A 
ENDROOT
BRANCH   1  12
ATOM     12  C   UNL     1       5.741 -56.122 -28.529  1.00  0.00    -0.011 A 
ATOM     13  C   UNL     1       5.445 -55.984 -29.896  1.00  0.00     0.013 A 
ATOM     14  C   UNL     1       6.473 -55.885 -30.838  1.00  0.00     0.047 A 
ATOM     15  C   UNL     1       7.809 -55.929 -30.428  1.00  0.00     0.115 A 
ATOM     16  C   UNL     1       7.088 -56.173 -28.124  1.00  0.00     0.013 A 
ATOM     17  C   UNL     1       8.115 -56.075 -29.069  1.00  0.00     0.047 A 
BRANCH  15  18
ATOM     18  O   UNL     1       8.824 -55.830 -31.377  1.00  0.00    -0.508 OA
ATOM     19  H   UNL     1       9.074 -54.940 -31.794  1.00  0.00     0.293 HD
ENDBRANCH  15  18
ENDBRANCH   1  12
BRANCH  11  20
ATOM     20  O   UNL     1       1.904 -57.681 -23.623  1.00  0.00    -0.502 OA
ATOM     21  H   UNL     1       1.867 -58.673 -23.822  1.00  0.00     0.293 HD
ENDBRANCH  11  20
BRANCH  10  22
ATOM     22  O   UNL     1      -0.429 -56.098 -23.638  1.00  0.00    -0.504 OA
ATOM     23  H   UNL     1      -0.625 -55.376 -22.955  1.00  0.00     0.293 HD
ENDBRANCH  10  22
TORSDOF 4
ENDMDL
MODEL 9
REMARK VINA RESULT:    -6.870      3.070      8.586
REMARK INTER + INTRA:          -8.153
REMARK INTER:                  -7.951
REMARK INTRA:                  -0.202
REMARK UNBOUND:                -0.280
REMARK SMILES O=c1c(-c2ccc(O)cc2)coc2c(O)c(O)ccc12
REMARK SMILES IDX 3 1 11 2 12 3 13 4 20 5 2 6 1 7 19 8 18 9 16 10 14 11 4 12
REMARK SMILES IDX 5 13 6 14 7 15 10 16 9 17 8 18 15 20 17 22
REMARK H PARENT 8 19 15 21 17 23
REMARK Flexibility Score: inf
ROOT
ATOM      1  C   UNL     1       2.619 -55.826 -25.500  1.00  0.00     0.065 A 
ATOM      2  C   UNL     1       3.762 -56.507 -25.053  1.00  0.00     0.208 A 
ATOM      3  O   UNL     1       4.792 -56.719 -25.866  1.00  0.00    -0.459 OA
ATOM      4  C   UNL     1       4.809 -56.309 -27.130  1.00  0.00     0.183 A 
ATOM      5  C   UNL     1       3.703 -55.611 -27.665  1.00  0.00     0.069 A 
ATOM      6  C   UNL     1       2.598 -55.364 -26.830  1.00  0.00     0.200 A 
ATOM      7  O   UNL     1       1.604 -54.719 -27.265  1.00  0.00    -0.288 OA
ATOM      8  C   UNL     1       3.739 -55.180 -29.003  1.00  0.00     0.020 A 
ATOM      9  C   UNL     1       4.858 -55.444 -29.795  1.00  0.00     0.051 A 
ATOM     10  C   UNL     1       5.955 -56.137 -29.266  1.00  0.00     0.161 A 
ATOM     11  C   UNL     1       5.931 -56.571 -27.929  1.00  0.00     0.201 A 
ENDROOT
BRANCH   1  12
ATOM     12  C   UNL     1       1.479 -55.608 -24.576  1.00  0.00    -0.011 A 
ATOM     13  C   UNL     1       0.288 -56.337 -24.733  1.00  0.00     0.013 A 
ATOM     14  C   UNL     1      -0.792 -56.128 -23.869  1.00  0.00     0.047 A 
ATOM     15  C   UNL     1      -0.697 -55.185 -22.841  1.00  0.00     0.115 A 
ATOM     16  C   UNL     1       1.565 -54.656 -23.543  1.00  0.00     0.013 A 
ATOM     17  C   UNL     1       0.484 -54.448 -22.681  1.00  0.00     0.047 A 
BRANCH  15  18
ATOM     18  O   UNL     1      -1.779 -54.987 -21.988  1.00  0.00    -0.508 OA
ATOM     19  H   UNL     1      -2.712 -54.811 -22.346  1.00  0.00     0.293 HD
ENDBRANCH  15  18
ENDBRANCH   1  12
BRANCH  11  20
ATOM     20  O   UNL     1       7.013 -57.262 -27.381  1.00  0.00    -0.502 OA
ATOM     21  H   UNL     1       7.971 -56.968 -27.528  1.00  0.00     0.293 HD
ENDBRANCH  11  20
BRANCH  10  22
ATOM     22  O   UNL     1       7.069 -56.396 -30.064  1.00  0.00    -0.504 OA
ATOM     23  H   UNL     1       8.007 -56.393 -29.681  1.00  0.00     0.293 HD
ENDBRANCH  10  22
TORSDOF 4
ENDMDL
