MODEL 1
REMARK VINA RESULT:    -6.201      0.000      0.000
REMARK INTER + INTRA:          -6.969
REMARK INTER:                  -6.926
REMARK INTRA:                  -0.044
REMARK UNBOUND:                -0.044
REMARK SMILES O=C([O-])c1ccc(O)c(O)c1
REMARK SMILES IDX 4 1 11 2 5 3 9 4 6 5 7 6 2 7 1 8 3 9 10 10 8 12
REMARK H PARENT 10 11 8 13
REMARK Flexibility Score: inf
ROOT
ATOM      1  C   UNL     1      17.566  -1.299  27.208  1.00  0.00     0.001 A 
ATOM      2  C   UNL     1      16.791  -0.791  28.265  1.00  0.00     0.060 A 
ATOM      3  C   UNL     1      17.310  -0.853  25.899  1.00  0.00     0.014 A 
ATOM      4  C   UNL     1      15.778   0.147  28.020  1.00  0.00     0.158 A 
ATOM      5  C   UNL     1      16.301   0.082  25.655  1.00  0.00     0.051 A 
ATOM      6  C   UNL     1      15.533   0.584  26.713  1.00  0.00     0.157 A 
ENDROOT
BRANCH   1   7
ATOM      7  C   UNL     1      18.634  -2.290  27.472  1.00  0.00     0.072 C 
ATOM      8  O   UNL     1      19.504  -2.541  26.597  1.00  0.00    -0.545 OA
ATOM      9  O   UNL     1      18.690  -2.956  28.691  1.00  0.00    -0.545 OA
ENDBRANCH   1   7
BRANCH   4  10
ATOM     10  O   UNL     1      15.011   0.650  29.071  1.00  0.00    -0.504 OA
ATOM     11  H   UNL     1      15.209   0.407  30.034  1.00  0.00     0.293 HD
ENDBRANCH   4  10
BRANCH   6  12
ATOM     12  O   UNL     1      14.524   1.517  26.473  1.00  0.00    -0.504 OA
ATOM     13  H   UNL     1      14.733   2.445  26.124  1.00  0.00     0.293 HD
ENDBRANCH   6  12
TORSDOF 3
ENDMDL
MODEL 2
REMARK VINA RESULT:    -6.183     12.611     13.176
REMARK INTER + INTRA:          -6.950
REMARK INTER:                  -6.914
REMARK INTRA:                  -0.036
REMARK UNBOUND:                -0.044
REMARK SMILES O=C([O-])c1ccc(O)c(O)c1
REMARK SMILES IDX 4 1 11 2 5 3 9 4 6 5 7 6 2 7 1 8 3 9 10 10 8 12
REMARK H PARENT 10 11 8 13
REMARK Flexibility Score: inf
ROOT
ATOM      1  C   UNL     1      13.517 -13.709  28.099  1.00  0.00     0.001 A 
ATOM      2  C   UNL     1      13.443 -12.937  29.271  1.00  0.00     0.060 A 
ATOM      3  C   UNL     1      12.432 -13.695  27.204  1.00  0.00     0.014 A 
ATOM      4  C   UNL     1      12.306 -12.164  29.547  1.00  0.00     0.158 A 
ATOM      5  C   UNL     1      11.298 -12.926  27.478  1.00  0.00     0.051 A 
ATOM      6  C   UNL     1      11.231 -12.159  28.649  1.00  0.00     0.157 A 
ENDROOT
BRANCH   1   7
ATOM      7  C   UNL     1      14.719 -14.522  27.813  1.00  0.00     0.072 C 
ATOM      8  O   UNL     1      15.583 -14.121  26.989  1.00  0.00    -0.545 OA
ATOM      9  O   UNL     1      14.912 -15.742  28.452  1.00  0.00    -0.545 OA
ENDBRANCH   1   7
BRANCH   4  10
ATOM     10  O   UNL     1      12.235 -11.400  30.711  1.00  0.00    -0.504 OA
ATOM     11  H   UNL     1      12.936 -10.702  30.929  1.00  0.00     0.293 HD
ENDBRANCH   4  10
BRANCH   6  12
ATOM     12  O   UNL     1      10.102 -11.390  28.926  1.00  0.00    -0.504 OA
ATOM     13  H   UNL     1       9.997 -10.900  29.807  1.00  0.00     0.293 HD
ENDBRANCH   6  12
TORSDOF 3
ENDMDL
MODEL 3
REMARK VINA RESULT:    -6.144      1.422      4.193
REMARK INTER + INTRA:          -6.906
REMARK INTER:                  -6.870
REMARK INTRA:                  -0.036
REMARK UNBOUND:                -0.044
REMARK SMILES O=C([O-])c1ccc(O)c(O)c1
REMARK SMILES IDX 4 1 11 2 5 3 9 4 6 5 7 6 2 7 1 8 3 9 10 10 8 12
REMARK H PARENT 10 11 8 13
REMARK Flexibility Score: inf
ROOT
ATOM      1  C   UNL     1      16.900  -0.521  26.174  1.00  0.00     0.001 A 
ATOM      2  C   UNL     1      16.925  -0.958  27.509  1.00  0.00     0.060 A 
ATOM      3  C   UNL     1      18.027  -0.746  25.361  1.00  0.00     0.014 A 
ATOM      4  C   UNL     1      18.054  -1.610  28.026  1.00  0.00     0.158 A 
ATOM      5  C   UNL     1      19.152  -1.396  25.876  1.00  0.00     0.051 A 
ATOM      6  C   UNL     1      19.169  -1.829  27.208  1.00  0.00     0.157 A 
ENDROOT
BRANCH   1   7
ATOM      7  C   UNL     1      15.707   0.167  25.633  1.00  0.00     0.072 C 
ATOM      8  O   UNL     1      14.889  -0.450  24.901  1.00  0.00    -0.545 OA
ATOM      9  O   UNL     1      15.473   1.506  25.927  1.00  0.00    -0.545 OA
ENDBRANCH   1   7
BRANCH   4  10
ATOM     10  O   UNL     1      18.075  -2.043  29.351  1.00  0.00    -0.504 OA
ATOM     11  H   UNL     1      18.926  -2.379  29.785  1.00  0.00     0.293 HD
ENDBRANCH   4  10
BRANCH   6  12
ATOM     12  O   UNL     1      20.290  -2.477  27.726  1.00  0.00    -0.504 OA
ATOM     13  H   UNL     1      20.905  -2.023  28.391  1.00  0.00     0.293 HD
ENDBRANCH   6  12
TORSDOF 3
ENDMDL
MODEL 4
REMARK VINA RESULT:    -6.124     11.626     12.589
REMARK INTER + INTRA:          -6.884
REMARK INTER:                  -6.843
REMARK INTRA:                  -0.041
REMARK UNBOUND:                -0.044
REMARK SMILES O=C([O-])c1ccc(O)c(O)c1
REMARK SMILES IDX 4 1 11 2 5 3 9 4 6 5 7 6 2 7 1 8 3 9 10 10 8 12
REMARK H PARENT 10 11 8 13
REMARK Flexibility Score: inf
ROOT
ATOM      1  C   UNL     1      13.326 -12.935  28.647  1.00  0.00     0.001 A 
ATOM      2  C   UNL     1      12.022 -12.491  28.923  1.00  0.00     0.060 A 
ATOM      3  C   UNL     1      14.410 -12.312  29.293  1.00  0.00     0.014 A 
ATOM      4  C   UNL     1      11.801 -11.444  29.829  1.00  0.00     0.158 A 
ATOM      5  C   UNL     1      14.190 -11.268  30.195  1.00  0.00     0.051 A 
ATOM      6  C   UNL     1      12.887 -10.831  30.466  1.00  0.00     0.157 A 
ENDROOT
BRANCH   1   7
ATOM      7  C   UNL     1      13.554 -14.041  27.691  1.00  0.00     0.072 C 
ATOM      8  O   UNL     1      12.816 -14.175  26.679  1.00  0.00    -0.545 OA
ATOM      9  O   UNL     1      14.588 -14.948  27.896  1.00  0.00    -0.545 OA
ENDBRANCH   1   7
BRANCH   4  10
ATOM     10  O   UNL     1      10.506 -11.006  30.101  1.00  0.00    -0.504 OA
ATOM     11  H   UNL     1      10.292 -10.465  30.931  1.00  0.00     0.293 HD
ENDBRANCH   4  10
BRANCH   6  12
ATOM     12  O   UNL     1      12.664  -9.789  31.365  1.00  0.00    -0.504 OA
ATOM     13  H   UNL     1      11.926  -9.110  31.218  1.00  0.00     0.293 HD
ENDBRANCH   6  12
TORSDOF 3
ENDMDL
MODEL 5
REMARK VINA RESULT:    -6.116     12.271     13.184
REMARK INTER + INTRA:          -6.875
REMARK INTER:                  -6.840
REMARK INTRA:                  -0.036
REMARK UNBOUND:                -0.044
REMARK SMILES O=C([O-])c1ccc(O)c(O)c1
REMARK SMILES IDX 4 1 11 2 5 3 9 4 6 5 7 6 2 7 1 8 3 9 10 10 8 12
REMARK H PARENT 10 11 8 13
REMARK Flexibility Score: inf
ROOT
ATOM      1  C   UNL     1      13.797 -13.410  28.062  1.00  0.00     0.001 A 
ATOM      2  C   UNL     1      12.536 -13.778  27.561  1.00  0.00     0.060 A 
ATOM      3  C   UNL     1      13.885 -12.331  28.961  1.00  0.00     0.014 A 
ATOM      4  C   UNL     1      11.382 -13.082  27.951  1.00  0.00     0.158 A 
ATOM      5  C   UNL     1      12.736 -11.638  29.350  1.00  0.00     0.051 A 
ATOM      6  C   UNL     1      11.482 -12.011  28.847  1.00  0.00     0.157 A 
ENDROOT
BRANCH   1   7
ATOM      7  C   UNL     1      15.011 -14.147  27.647  1.00  0.00     0.072 C 
ATOM      8  O   UNL     1      15.770 -13.681  26.756  1.00  0.00    -0.545 OA
ATOM      9  O   UNL     1      15.331 -15.364  28.237  1.00  0.00    -0.545 OA
ENDBRANCH   1   7
BRANCH   4  10
ATOM     10  O   UNL     1      10.133 -13.450  27.453  1.00  0.00    -0.504 OA
ATOM     11  H   UNL     1       9.987 -13.625  26.465  1.00  0.00     0.293 HD
ENDBRANCH   4  10
BRANCH   6  12
ATOM     12  O   UNL     1      10.333 -11.321  29.232  1.00  0.00    -0.504 OA
ATOM     13  H   UNL     1       9.510 -11.808  29.566  1.00  0.00     0.293 HD
ENDBRANCH   6  12
TORSDOF 3
ENDMDL
MODEL 6
REMARK VINA RESULT:    -5.853      1.176      4.531
REMARK INTER + INTRA:          -6.581
REMARK INTER:                  -6.543
REMARK INTRA:                  -0.038
REMARK UNBOUND:                -0.044
REMARK SMILES O=C([O-])c1ccc(O)c(O)c1
REMARK SMILES IDX 4 1 11 2 5 3 9 4 6 5 7 6 2 7 1 8 3 9 10 10 8 12
REMARK H PARENT 10 11 8 13
REMARK Flexibility Score: inf
ROOT
ATOM      1  C   UNL     1      16.256  -0.309  26.761  1.00  0.00     0.001 A 
ATOM      2  C   UNL     1      17.282  -1.058  26.159  1.00  0.00     0.060 A 
ATOM      3  C   UNL     1      16.034  -0.444  28.143  1.00  0.00     0.014 A 
ATOM      4  C   UNL     1      18.074  -1.926  26.923  1.00  0.00     0.158 A 
ATOM      5  C   UNL     1      16.824  -1.309  28.905  1.00  0.00     0.051 A 
ATOM      6  C   UNL     1      17.845  -2.052  28.298  1.00  0.00     0.157 A 
ENDROOT
BRANCH   1   7
ATOM      7  C   UNL     1      15.422   0.605  25.950  1.00  0.00     0.072 C 
ATOM      8  O   UNL     1      14.795   0.179  24.944  1.00  0.00    -0.545 OA
ATOM      9  O   UNL     1      15.318   1.950  26.288  1.00  0.00    -0.545 OA
ENDBRANCH   1   7
BRANCH   4  10
ATOM     10  O   UNL     1      19.092  -2.667  26.323  1.00  0.00    -0.504 OA
ATOM     11  H   UNL     1      18.970  -3.648  26.097  1.00  0.00     0.293 HD
ENDBRANCH   4  10
BRANCH   6  12
ATOM     12  O   UNL     1      18.634  -2.917  29.055  1.00  0.00    -0.504 OA
ATOM     13  H   UNL     1      19.429  -3.400  28.651  1.00  0.00     0.293 HD
ENDBRANCH   6  12
TORSDOF 3
ENDMDL
MODEL 7
REMARK VINA RESULT:    -5.796      1.496      2.298
REMARK INTER + INTRA:          -6.518
REMARK INTER:                  -6.475
REMARK INTRA:                  -0.043
REMARK UNBOUND:                -0.044
REMARK SMILES O=C([O-])c1ccc(O)c(O)c1
REMARK SMILES IDX 4 1 11 2 5 3 9 4 6 5 7 6 2 7 1 8 3 9 10 10 8 12
REMARK H PARENT 10 11 8 13
REMARK Flexibility Score: inf
ROOT
ATOM      1  C   UNL     1      16.435  -1.549  27.548  1.00  0.00     0.001 A 
ATOM      2  C   UNL     1      15.799  -1.350  26.310  1.00  0.00     0.060 A 
ATOM      3  C   UNL     1      16.405  -0.516  28.504  1.00  0.00     0.014 A 
ATOM      4  C   UNL     1      15.144  -0.142  26.030  1.00  0.00     0.158 A 
ATOM      5  C   UNL     1      15.752   0.687  28.225  1.00  0.00     0.051 A 
ATOM      6  C   UNL     1      15.121   0.878  26.989  1.00  0.00     0.157 A 
ENDROOT
BRANCH   1   7
ATOM      7  C   UNL     1      17.125  -2.825  27.839  1.00  0.00     0.072 C 
ATOM      8  O   UNL     1      16.793  -3.883  27.242  1.00  0.00    -0.545 OA
ATOM      9  O   UNL     1      18.153  -2.872  28.775  1.00  0.00    -0.545 OA
ENDBRANCH   1   7
BRANCH   4  10
ATOM     10  O   UNL     1      14.514   0.052  24.802  1.00  0.00    -0.504 OA
ATOM     11  H   UNL     1      14.849   0.739  24.137  1.00  0.00     0.293 HD
ENDBRANCH   4  10
BRANCH   6  12
ATOM     12  O   UNL     1      14.469   2.078  26.707  1.00  0.00    -0.504 OA
ATOM     13  H   UNL     1      14.980   2.905  26.422  1.00  0.00     0.293 HD
ENDBRANCH   6  12
TORSDOF 3
ENDMDL
MODEL 8
REMARK VINA RESULT:    -5.723     11.879     13.366
REMARK INTER + INTRA:          -6.436
REMARK INTER:                  -6.393
REMARK INTRA:                  -0.044
REMARK UNBOUND:                -0.044
REMARK SMILES O=C([O-])c1ccc(O)c(O)c1
REMARK SMILES IDX 4 1 11 2 5 3 9 4 6 5 7 6 2 7 1 8 3 9 10 10 8 12
REMARK H PARENT 10 11 8 13
REMARK Flexibility Score: inf
ROOT
ATOM      1  C   UNL     1      12.857 -11.929  29.514  1.00  0.00     0.001 A 
ATOM      2  C   UNL     1      12.285 -12.504  28.366  1.00  0.00     0.060 A 
ATOM      3  C   UNL     1      14.009 -12.516  30.069  1.00  0.00     0.014 A 
ATOM      4  C   UNL     1      12.852 -13.645  27.781  1.00  0.00     0.158 A 
ATOM      5  C   UNL     1      14.574 -13.654  29.486  1.00  0.00     0.051 A 
ATOM      6  C   UNL     1      13.998 -14.221  28.342  1.00  0.00     0.157 A 
ENDROOT
BRANCH   1   7
ATOM      7  C   UNL     1      12.255 -10.725  30.128  1.00  0.00     0.072 C 
ATOM      8  O   UNL     1      12.918 -10.015  30.929  1.00  0.00    -0.545 OA
ATOM      9  O   UNL     1      10.947 -10.360  29.827  1.00  0.00    -0.545 OA
ENDBRANCH   1   7
BRANCH   4  10
ATOM     10  O   UNL     1      12.282 -14.212  26.642  1.00  0.00    -0.504 OA
ATOM     11  H   UNL     1      11.959 -13.641  25.870  1.00  0.00     0.293 HD
ENDBRANCH   4  10
BRANCH   6  12
ATOM     12  O   UNL     1      14.559 -15.356  27.758  1.00  0.00    -0.504 OA
ATOM     13  H   UNL     1      14.513 -16.262  28.209  1.00  0.00     0.293 HD
ENDBRANCH   6  12
TORSDOF 3
ENDMDL
MODEL 9
REMARK VINA RESULT:    -5.682     12.061     13.444
REMARK INTER + INTRA:          -6.390
REMARK INTER:                  -6.347
REMARK INTRA:                  -0.043
REMARK UNBOUND:                -0.044
REMARK SMILES O=C([O-])c1ccc(O)c(O)c1
REMARK SMILES IDX 4 1 11 2 5 3 9 4 6 5 7 6 2 7 1 8 3 9 10 10 8 12
REMARK H PARENT 10 11 8 13
REMARK Flexibility Score: inf
ROOT
ATOM      1  C   UNL     1      11.900 -11.987  28.914  1.00  0.00     0.001 A 
ATOM      2  C   UNL     1      13.061 -12.337  29.625  1.00  0.00     0.060 A 
ATOM      3  C   UNL     1      11.575 -12.698  27.745  1.00  0.00     0.014 A 
ATOM      4  C   UNL     1      13.884 -13.381  29.177  1.00  0.00     0.158 A 
ATOM      5  C   UNL     1      12.395 -13.738  27.299  1.00  0.00     0.051 A 
ATOM      6  C   UNL     1      13.551 -14.082  28.012  1.00  0.00     0.157 A 
ENDROOT
BRANCH   1   7
ATOM      7  C   UNL     1      11.035 -10.885  29.390  1.00  0.00     0.072 C 
ATOM      8  O   UNL     1      11.488 -10.007  30.171  1.00  0.00    -0.545 OA
ATOM      9  O   UNL     1       9.709 -10.803  28.981  1.00  0.00    -0.545 OA
ENDBRANCH   1   7
BRANCH   4  10
ATOM     10  O   UNL     1      15.035 -13.726  29.885  1.00  0.00    -0.504 OA
ATOM     11  H   UNL     1      15.068 -13.684  30.896  1.00  0.00     0.293 HD
ENDBRANCH   4  10
BRANCH   6  12
ATOM     12  O   UNL     1      14.372 -15.118  27.570  1.00  0.00    -0.504 OA
ATOM     13  H   UNL     1      14.387 -16.019  28.035  1.00  0.00     0.293 HD
ENDBRANCH   6  12
TORSDOF 3
ENDMDL
