MODEL 1
REMARK VINA RESULT:    -4.756      0.000      0.000
REMARK INTER + INTRA:          -9.340
REMARK INTER:                  -8.371
REMARK INTRA:                  -0.969
REMARK UNBOUND:                -0.969
REMARK SMILES CCCCCCCCCCCCCCC(=O)[O-]
REMARK SMILES IDX 9 1 10 2 11 3 12 4 13 5 14 6 15 7 16 8 17 9 8 10 7 11 6 12
REMARK SMILES IDX 5 13 4 14 3 15 2 16 1 17
REMARK H PARENT
REMARK Flexibility Score: inf
ROOT
ATOM      1  C   UNL     1      -7.260  -8.055  -6.409  1.00  0.00     0.000 C 
ENDROOT
BRANCH   1   2
ATOM      2  C   UNL     1      -7.353  -6.594  -5.940  1.00  0.00     0.000 C 
BRANCH   2   3
ATOM      3  C   UNL     1      -8.063  -6.450  -4.582  1.00  0.00     0.000 C 
BRANCH   3   4
ATOM      4  C   UNL     1      -9.123  -7.551  -4.360  1.00  0.00     0.000 C 
BRANCH   4   5
ATOM      5  C   UNL     1      -8.862  -8.414  -3.114  1.00  0.00     0.006 C 
BRANCH   5   6
ATOM      6  C   UNL     1      -7.404  -8.361  -2.645  1.00  0.00     0.053 C 
BRANCH   6   7
ATOM      7  C   UNL     1      -7.235  -9.130  -1.373  1.00  0.00     0.041 C 
ATOM      8  O   UNL     1      -6.085  -9.352  -0.914  1.00  0.00    -0.550 OA
ATOM      9  O   UNL     1      -8.352  -9.559  -0.667  1.00  0.00    -0.550 OA
ENDBRANCH   6   7
ENDBRANCH   5   6
ENDBRANCH   4   5
ENDBRANCH   3   4
ENDBRANCH   2   3
ENDBRANCH   1   2
BRANCH   1  10
ATOM     10  C   UNL     1      -6.471  -8.207  -7.718  1.00  0.00     0.000 C 
BRANCH  10  11
ATOM     11  C   UNL     1      -5.860  -6.868  -8.149  1.00  0.00    -0.000 C 
BRANCH  11  12
ATOM     12  C   UNL     1      -6.218  -6.543  -9.606  1.00  0.00    -0.000 C 
BRANCH  12  13
ATOM     13  C   UNL     1      -6.705  -5.095  -9.796  1.00  0.00    -0.000 C 
BRANCH  13  14
ATOM     14  C   UNL     1      -6.462  -4.164  -8.593  1.00  0.00    -0.000 C 
BRANCH  14  15
ATOM     15  C   UNL     1      -6.924  -2.708  -8.791  1.00  0.00    -0.000 C 
BRANCH  15  16
ATOM     16  C   UNL     1      -6.146  -1.685  -7.937  1.00  0.00    -0.003 C 
ATOM     17  C   UNL     1      -4.835  -1.247  -8.589  1.00  0.00     0.004 C 
ENDBRANCH  15  16
ENDBRANCH  14  15
ENDBRANCH  13  14
ENDBRANCH  12  13
ENDBRANCH  11  12
ENDBRANCH  10  11
ENDBRANCH   1  10
TORSDOF 13
ENDMDL
MODEL 2
REMARK VINA RESULT:    -4.509     16.012     17.954
REMARK INTER + INTRA:          -8.904
REMARK INTER:                  -7.483
REMARK INTRA:                  -1.421
REMARK UNBOUND:                -0.969
REMARK SMILES CCCCCCCCCCCCCCC(=O)[O-]
REMARK SMILES IDX 9 1 10 2 11 3 12 4 13 5 14 6 15 7 16 8 17 9 8 10 7 11 6 12
REMARK SMILES IDX 5 13 4 14 3 15 2 16 1 17
REMARK H PARENT
REMARK Flexibility Score: inf
ROOT
ATOM      1  C   UNL     1      -2.154   0.496   7.464  1.00  0.00     0.000 C 
ENDROOT
BRANCH   1   2
ATOM      2  C   UNL     1      -1.577  -0.746   8.161  1.00  0.00     0.000 C 
BRANCH   2   3
ATOM      3  C   UNL     1      -0.446  -1.408   7.353  1.00  0.00     0.000 C 
BRANCH   3   4
ATOM      4  C   UNL     1       0.623  -0.388   6.906  1.00  0.00     0.000 C 
BRANCH   4   5
ATOM      5  C   UNL     1       0.730  -0.238   5.378  1.00  0.00     0.006 C 
BRANCH   5   6
ATOM      6  C   UNL     1       1.340   1.102   4.951  1.00  0.00     0.053 C 
BRANCH   6   7
ATOM      7  C   UNL     1       0.312   1.952   4.273  1.00  0.00     0.041 C 
ATOM      8  O   UNL     1       0.624   2.645   3.271  1.00  0.00    -0.550 OA
ATOM      9  O   UNL     1      -1.004   1.940   4.719  1.00  0.00    -0.550 OA
ENDBRANCH   6   7
ENDBRANCH   5   6
ENDBRANCH   4   5
ENDBRANCH   3   4
ENDBRANCH   2   3
ENDBRANCH   1   2
BRANCH   1  10
ATOM     10  C   UNL     1      -2.342   1.679   8.426  1.00  0.00     0.000 C 
BRANCH  10  11
ATOM     11  C   UNL     1      -1.210   1.731   9.459  1.00  0.00    -0.000 C 
BRANCH  11  12
ATOM     12  C   UNL     1      -0.812   3.182   9.767  1.00  0.00    -0.000 C 
BRANCH  12  13
ATOM     13  C   UNL     1       0.661   3.484   9.435  1.00  0.00    -0.000 C 
BRANCH  13  14
ATOM     14  C   UNL     1       1.066   3.218   7.972  1.00  0.00    -0.000 C 
BRANCH  14  15
ATOM     15  C   UNL     1       2.197   4.115   7.435  1.00  0.00    -0.000 C 
BRANCH  15  16
ATOM     16  C   UNL     1       2.648   5.209   8.423  1.00  0.00    -0.003 C 
ATOM     17  C   UNL     1       2.589   6.612   7.819  1.00  0.00     0.004 C 
ENDBRANCH  15  16
ENDBRANCH  14  15
ENDBRANCH  13  14
ENDBRANCH  12  13
ENDBRANCH  11  12
ENDBRANCH  10  11
ENDBRANCH   1  10
TORSDOF 13
ENDMDL
MODEL 3
REMARK VINA RESULT:    -4.391     16.145     17.663
REMARK INTER + INTRA:          -8.697
REMARK INTER:                  -7.485
REMARK INTRA:                  -1.212
REMARK UNBOUND:                -0.969
REMARK SMILES CCCCCCCCCCCCCCC(=O)[O-]
REMARK SMILES IDX 9 1 10 2 11 3 12 4 13 5 14 6 15 7 16 8 17 9 8 10 7 11 6 12
REMARK SMILES IDX 5 13 4 14 3 15 2 16 1 17
REMARK H PARENT
REMARK Flexibility Score: inf
ROOT
ATOM      1  C   UNL     1      -0.568   1.538   4.641  1.00  0.00     0.000 C 
ENDROOT
BRANCH   1   2
ATOM      2  C   UNL     1      -1.677   0.690   5.283  1.00  0.00     0.000 C 
BRANCH   2   3
ATOM      3  C   UNL     1      -2.444   1.448   6.382  1.00  0.00     0.000 C 
BRANCH   3   4
ATOM      4  C   UNL     1      -2.197   0.849   7.783  1.00  0.00     0.000 C 
BRANCH   4   5
ATOM      5  C   UNL     1      -1.866  -0.653   7.760  1.00  0.00     0.006 C 
BRANCH   5   6
ATOM      6  C   UNL     1      -0.879  -1.064   8.857  1.00  0.00     0.053 C 
BRANCH   6   7
ATOM      7  C   UNL     1       0.449  -1.413   8.263  1.00  0.00     0.041 C 
ATOM      8  O   UNL     1       0.602  -1.423   7.014  1.00  0.00    -0.550 OA
ATOM      9  O   UNL     1       1.533  -1.680   9.090  1.00  0.00    -0.550 OA
ENDBRANCH   6   7
ENDBRANCH   5   6
ENDBRANCH   4   5
ENDBRANCH   3   4
ENDBRANCH   2   3
ENDBRANCH   1   2
BRANCH   1  10
ATOM     10  C   UNL     1       0.831   1.176   5.163  1.00  0.00     0.000 C 
BRANCH  10  11
ATOM     11  C   UNL     1       1.430   2.332   5.973  1.00  0.00    -0.000 C 
BRANCH  11  12
ATOM     12  C   UNL     1       0.893   2.332   7.412  1.00  0.00    -0.000 C 
BRANCH  12  13
ATOM     13  C   UNL     1       1.345   3.561   8.222  1.00  0.00    -0.000 C 
BRANCH  13  14
ATOM     14  C   UNL     1       2.420   4.430   7.540  1.00  0.00    -0.000 C 
BRANCH  14  15
ATOM     15  C   UNL     1       2.395   5.921   7.926  1.00  0.00    -0.000 C 
BRANCH  15  16
ATOM     16  C   UNL     1       3.567   6.349   8.834  1.00  0.00    -0.003 C 
ATOM     17  C   UNL     1       4.673   5.298   8.905  1.00  0.00     0.004 C 
ENDBRANCH  15  16
ENDBRANCH  14  15
ENDBRANCH  13  14
ENDBRANCH  12  13
ENDBRANCH  11  12
ENDBRANCH  10  11
ENDBRANCH   1  10
TORSDOF 13
ENDMDL
MODEL 4
REMARK VINA RESULT:    -4.374     14.813     16.578
REMARK INTER + INTRA:          -8.668
REMARK INTER:                  -6.909
REMARK INTRA:                  -1.758
REMARK UNBOUND:                -0.969
REMARK SMILES CCCCCCCCCCCCCCC(=O)[O-]
REMARK SMILES IDX 9 1 10 2 11 3 12 4 13 5 14 6 15 7 16 8 17 9 8 10 7 11 6 12
REMARK SMILES IDX 5 13 4 14 3 15 2 16 1 17
REMARK H PARENT
REMARK Flexibility Score: inf
ROOT
ATOM      1  C   UNL     1       0.104   0.348   4.871  1.00  0.00     0.000 C 
ENDROOT
BRANCH   1   2
ATOM      2  C   UNL     1       0.941  -0.128   6.069  1.00  0.00     0.000 C 
BRANCH   2   3
ATOM      3  C   UNL     1       0.290  -1.305   6.818  1.00  0.00     0.000 C 
BRANCH   3   4
ATOM      4  C   UNL     1       0.486  -1.202   8.346  1.00  0.00     0.000 C 
BRANCH   4   5
ATOM      5  C   UNL     1      -0.325  -2.239   9.142  1.00  0.00     0.006 C 
BRANCH   5   6
ATOM      6  C   UNL     1      -1.753  -2.413   8.614  1.00  0.00     0.053 C 
BRANCH   6   7
ATOM      7  C   UNL     1      -2.268  -3.779   8.940  1.00  0.00     0.041 C 
ATOM      8  O   UNL     1      -3.499  -4.028   8.863  1.00  0.00    -0.550 OA
ATOM      9  O   UNL     1      -1.382  -4.794   9.280  1.00  0.00    -0.550 OA
ENDBRANCH   6   7
ENDBRANCH   5   6
ENDBRANCH   4   5
ENDBRANCH   3   4
ENDBRANCH   2   3
ENDBRANCH   1   2
BRANCH   1  10
ATOM     10  C   UNL     1      -0.833   1.511   5.230  1.00  0.00     0.000 C 
BRANCH  10  11
ATOM     11  C   UNL     1      -2.227   0.994   5.609  1.00  0.00    -0.000 C 
BRANCH  11  12
ATOM     12  C   UNL     1      -2.391   0.925   7.134  1.00  0.00    -0.000 C 
BRANCH  12  13
ATOM     13  C   UNL     1      -1.949   2.217   7.845  1.00  0.00    -0.000 C 
BRANCH  13  14
ATOM     14  C   UNL     1      -0.882   2.026   8.940  1.00  0.00    -0.000 C 
BRANCH  14  15
ATOM     15  C   UNL     1       0.260   3.058   8.926  1.00  0.00    -0.000 C 
BRANCH  15  16
ATOM     16  C   UNL     1       1.181   2.951   7.693  1.00  0.00    -0.003 C 
ATOM     17  C   UNL     1       2.113   4.154   7.546  1.00  0.00     0.004 C 
ENDBRANCH  15  16
ENDBRANCH  14  15
ENDBRANCH  13  14
ENDBRANCH  12  13
ENDBRANCH  11  12
ENDBRANCH  10  11
ENDBRANCH   1  10
TORSDOF 13
ENDMDL
MODEL 5
REMARK VINA RESULT:    -4.332     15.208     17.752
REMARK INTER + INTRA:          -8.593
REMARK INTER:                  -7.252
REMARK INTRA:                  -1.342
REMARK UNBOUND:                -0.969
REMARK SMILES CCCCCCCCCCCCCCC(=O)[O-]
REMARK SMILES IDX 9 1 10 2 11 3 12 4 13 5 14 6 15 7 16 8 17 9 8 10 7 11 6 12
REMARK SMILES IDX 5 13 4 14 3 15 2 16 1 17
REMARK H PARENT
REMARK Flexibility Score: inf
ROOT
ATOM      1  C   UNL     1      -2.418   0.506   6.677  1.00  0.00     0.000 C 
ENDROOT
BRANCH   1   2
ATOM      2  C   UNL     1      -2.199   0.858   5.197  1.00  0.00     0.000 C 
BRANCH   2   3
ATOM      3  C   UNL     1      -0.712   1.040   4.844  1.00  0.00     0.000 C 
BRANCH   3   4
ATOM      4  C   UNL     1       0.207   0.174   5.732  1.00  0.00     0.000 C 
BRANCH   4   5
ATOM      5  C   UNL     1       0.924   0.970   6.836  1.00  0.00     0.006 C 
BRANCH   5   6
ATOM      6  C   UNL     1       1.306   2.388   6.397  1.00  0.00     0.053 C 
BRANCH   6   7
ATOM      7  C   UNL     1       1.464   3.280   7.587  1.00  0.00     0.041 C 
ATOM      8  O   UNL     1       2.150   4.332   7.505  1.00  0.00    -0.550 OA
ATOM      9  O   UNL     1       0.813   2.975   8.776  1.00  0.00    -0.550 OA
ENDBRANCH   6   7
ENDBRANCH   5   6
ENDBRANCH   4   5
ENDBRANCH   3   4
ENDBRANCH   2   3
ENDBRANCH   1   2
BRANCH   1  10
ATOM     10  C   UNL     1      -2.364   1.739   7.592  1.00  0.00     0.000 C 
BRANCH  10  11
ATOM     11  C   UNL     1      -2.189   1.325   9.059  1.00  0.00    -0.000 C 
BRANCH  11  12
ATOM     12  C   UNL     1      -2.366  -0.192   9.227  1.00  0.00    -0.000 C 
BRANCH  12  13
ATOM     13  C   UNL     1      -1.112  -0.883   9.792  1.00  0.00    -0.000 C 
BRANCH  13  14
ATOM     14  C   UNL     1      -0.674  -2.153   9.038  1.00  0.00    -0.000 C 
BRANCH  14  15
ATOM     15  C   UNL     1      -1.216  -3.474   9.613  1.00  0.00    -0.000 C 
BRANCH  15  16
ATOM     16  C   UNL     1      -2.226  -4.188   8.691  1.00  0.00    -0.003 C 
ATOM     17  C   UNL     1      -3.664  -4.087   9.198  1.00  0.00     0.004 C 
ENDBRANCH  15  16
ENDBRANCH  14  15
ENDBRANCH  13  14
ENDBRANCH  12  13
ENDBRANCH  11  12
ENDBRANCH  10  11
ENDBRANCH   1  10
TORSDOF 13
ENDMDL
MODEL 6
REMARK VINA RESULT:    -4.325     16.424     18.580
REMARK INTER + INTRA:          -8.582
REMARK INTER:                  -6.816
REMARK INTRA:                  -1.766
REMARK UNBOUND:                -0.969
REMARK SMILES CCCCCCCCCCCCCCC(=O)[O-]
REMARK SMILES IDX 9 1 10 2 11 3 12 4 13 5 14 6 15 7 16 8 17 9 8 10 7 11 6 12
REMARK SMILES IDX 5 13 4 14 3 15 2 16 1 17
REMARK H PARENT
REMARK Flexibility Score: inf
ROOT
ATOM      1  C   UNL     1      -1.664   0.501   9.770  1.00  0.00     0.000 C 
ENDROOT
BRANCH   1   2
ATOM      2  C   UNL     1      -1.918   1.946   9.310  1.00  0.00     0.000 C 
BRANCH   2   3
ATOM      3  C   UNL     1      -0.783   2.905   9.712  1.00  0.00     0.000 C 
BRANCH   3   4
ATOM      4  C   UNL     1       0.326   2.975   8.640  1.00  0.00     0.000 C 
BRANCH   4   5
ATOM      5  C   UNL     1       1.425   4.004   8.957  1.00  0.00     0.006 C 
BRANCH   5   6
ATOM      6  C   UNL     1       2.273   4.368   7.734  1.00  0.00     0.053 C 
BRANCH   6   7
ATOM      7  C   UNL     1       2.865   5.732   7.895  1.00  0.00     0.041 C 
ATOM      8  O   UNL     1       4.086   5.865   8.167  1.00  0.00    -0.550 OA
ATOM      9  O   UNL     1       2.078   6.860   7.695  1.00  0.00    -0.550 OA
ENDBRANCH   6   7
ENDBRANCH   5   6
ENDBRANCH   4   5
ENDBRANCH   3   4
ENDBRANCH   2   3
ENDBRANCH   1   2
BRANCH   1  10
ATOM     10  C   UNL     1      -2.665  -0.496   9.169  1.00  0.00     0.000 C 
BRANCH  10  11
ATOM     11  C   UNL     1      -1.937  -1.683   8.525  1.00  0.00    -0.000 C 
BRANCH  11  12
ATOM     12  C   UNL     1      -0.416  -1.470   8.542  1.00  0.00    -0.000 C 
BRANCH  12  13
ATOM     13  C   UNL     1       0.184  -1.316   7.133  1.00  0.00    -0.000 C 
BRANCH  13  14
ATOM     14  C   UNL     1       0.598   0.119   6.755  1.00  0.00    -0.000 C 
BRANCH  14  15
ATOM     15  C   UNL     1       0.074   0.612   5.393  1.00  0.00    -0.000 C 
BRANCH  15  16
ATOM     16  C   UNL     1      -1.148   1.548   5.497  1.00  0.00    -0.003 C 
ATOM     17  C   UNL     1      -2.465   0.786   5.640  1.00  0.00     0.004 C 
ENDBRANCH  15  16
ENDBRANCH  14  15
ENDBRANCH  13  14
ENDBRANCH  12  13
ENDBRANCH  11  12
ENDBRANCH  10  11
ENDBRANCH   1  10
TORSDOF 13
ENDMDL
MODEL 7
REMARK VINA RESULT:    -4.283     15.651     17.294
REMARK INTER + INTRA:          -8.508
REMARK INTER:                  -7.190
REMARK INTRA:                  -1.317
REMARK UNBOUND:                -0.969
REMARK SMILES CCCCCCCCCCCCCCC(=O)[O-]
REMARK SMILES IDX 9 1 10 2 11 3 12 4 13 5 14 6 15 7 16 8 17 9 8 10 7 11 6 12
REMARK SMILES IDX 5 13 4 14 3 15 2 16 1 17
REMARK H PARENT
REMARK Flexibility Score: inf
ROOT
ATOM      1  C   UNL     1      -2.073   0.519   6.018  1.00  0.00     0.000 C 
ENDROOT
BRANCH   1   2
ATOM      2  C   UNL     1      -2.368   1.549   7.119  1.00  0.00     0.000 C 
BRANCH   2   3
ATOM      3  C   UNL     1      -2.091   1.004   8.532  1.00  0.00     0.000 C 
BRANCH   3   4
ATOM      4  C   UNL     1      -2.033  -0.539   8.559  1.00  0.00     0.000 C 
BRANCH   4   5
ATOM      5  C   UNL     1      -0.968  -1.098   9.519  1.00  0.00     0.006 C 
BRANCH   5   6
ATOM      6  C   UNL     1       0.173  -1.817   8.791  1.00  0.00     0.053 C 
BRANCH   6   7
ATOM      7  C   UNL     1       0.680  -2.959   9.614  1.00  0.00     0.041 C 
ATOM      8  O   UNL     1      -0.124  -3.793  10.106  1.00  0.00    -0.550 OA
ATOM      9  O   UNL     1       2.046  -3.131   9.797  1.00  0.00    -0.550 OA
ENDBRANCH   6   7
ENDBRANCH   5   6
ENDBRANCH   4   5
ENDBRANCH   3   4
ENDBRANCH   2   3
ENDBRANCH   1   2
BRANCH   1  10
ATOM     10  C   UNL     1      -1.296   1.120   4.838  1.00  0.00     0.000 C 
BRANCH  10  11
ATOM     11  C   UNL     1       0.183   0.716   4.891  1.00  0.00    -0.000 C 
BRANCH  11  12
ATOM     12  C   UNL     1       1.032   1.820   5.537  1.00  0.00    -0.000 C 
BRANCH  12  13
ATOM     13  C   UNL     1       1.110   1.699   7.070  1.00  0.00    -0.000 C 
BRANCH  13  14
ATOM     14  C   UNL     1       1.055   3.037   7.832  1.00  0.00    -0.000 C 
BRANCH  14  15
ATOM     15  C   UNL     1       2.194   4.021   7.507  1.00  0.00    -0.000 C 
BRANCH  15  16
ATOM     16  C   UNL     1       2.483   5.036   8.632  1.00  0.00    -0.003 C 
ATOM     17  C   UNL     1       1.574   4.845   9.846  1.00  0.00     0.004 C 
ENDBRANCH  15  16
ENDBRANCH  14  15
ENDBRANCH  13  14
ENDBRANCH  12  13
ENDBRANCH  11  12
ENDBRANCH  10  11
ENDBRANCH   1  10
TORSDOF 13
ENDMDL
MODEL 8
REMARK VINA RESULT:    -4.256      4.178      7.230
REMARK INTER + INTRA:          -8.459
REMARK INTER:                  -7.126
REMARK INTRA:                  -1.333
REMARK UNBOUND:                -0.969
REMARK SMILES CCCCCCCCCCCCCCC(=O)[O-]
REMARK SMILES IDX 9 1 10 2 11 3 12 4 13 5 14 6 15 7 16 8 17 9 8 10 7 11 6 12
REMARK SMILES IDX 5 13 4 14 3 15 2 16 1 17
REMARK H PARENT
REMARK Flexibility Score: inf
ROOT
ATOM      1  C   UNL     1      -5.737  -6.819  -7.196  1.00  0.00     0.000 C 
ENDROOT
BRANCH   1   2
ATOM      2  C   UNL     1      -6.657  -5.653  -7.589  1.00  0.00     0.000 C 
BRANCH   2   3
ATOM      3  C   UNL     1      -6.138  -4.872  -8.811  1.00  0.00     0.000 C 
BRANCH   3   4
ATOM      4  C   UNL     1      -7.269  -4.122  -9.546  1.00  0.00     0.000 C 
BRANCH   4   5
ATOM      5  C   UNL     1      -7.015  -2.612  -9.688  1.00  0.00     0.006 C 
BRANCH   5   6
ATOM      6  C   UNL     1      -6.373  -1.995  -8.441  1.00  0.00     0.053 C 
BRANCH   6   7
ATOM      7  C   UNL     1      -5.081  -1.329  -8.793  1.00  0.00     0.041 C 
ATOM      8  O   UNL     1      -4.974  -0.677  -9.864  1.00  0.00    -0.550 OA
ATOM      9  O   UNL     1      -4.007  -1.387  -7.913  1.00  0.00    -0.550 OA
ENDBRANCH   6   7
ENDBRANCH   5   6
ENDBRANCH   4   5
ENDBRANCH   3   4
ENDBRANCH   2   3
ENDBRANCH   1   2
BRANCH   1  10
ATOM     10  C   UNL     1      -5.479  -7.787  -8.359  1.00  0.00     0.000 C 
BRANCH  10  11
ATOM     11  C   UNL     1      -6.037  -9.181  -8.046  1.00  0.00    -0.000 C 
BRANCH  11  12
ATOM     12  C   UNL     1      -7.568  -9.201  -8.167  1.00  0.00    -0.000 C 
BRANCH  12  13
ATOM     13  C   UNL     1      -8.264  -9.726  -6.898  1.00  0.00    -0.000 C 
BRANCH  13  14
ATOM     14  C   UNL     1      -8.541  -8.660  -5.820  1.00  0.00    -0.000 C 
BRANCH  14  15
ATOM     15  C   UNL     1      -7.561  -8.664  -4.632  1.00  0.00    -0.000 C 
BRANCH  15  16
ATOM     16  C   UNL     1      -7.712  -7.448  -3.695  1.00  0.00    -0.003 C 
ATOM     17  C   UNL     1      -8.265  -6.216  -4.411  1.00  0.00     0.004 C 
ENDBRANCH  15  16
ENDBRANCH  14  15
ENDBRANCH  13  14
ENDBRANCH  12  13
ENDBRANCH  11  12
ENDBRANCH  10  11
ENDBRANCH   1  10
TORSDOF 13
ENDMDL
