MODEL 1
REMARK VINA RESULT:    -4.412      0.000      0.000
REMARK INTER + INTRA:          -5.134
REMARK INTER:                  -5.444
REMARK INTRA:                   0.310
REMARK UNBOUND:                 0.310
REMARK SMILES COc1cc(-c2oc3cc(O)cc(O)c3c(=O)c2O)ccc1O
REMARK SMILES IDX 6 1 18 2 16 3 17 4 15 5 13 6 12 7 10 8 9 9 8 10 7 11 5 12
REMARK SMILES IDX 3 13 22 14 4 15 21 16 20 17 2 18 1 19 23 20 19 22 14 24
REMARK SMILES IDX 11 26
REMARK H PARENT 23 21 19 23 14 25 11 27
REMARK Flexibility Score: inf
ROOT
ATOM      1  C   UNL     1      24.712  -7.834  10.020  1.00  0.00     0.180 A 
ATOM      2  C   UNL     1      24.308  -9.121  10.410  1.00  0.00     0.208 A 
ATOM      3  C   UNL     1      22.956  -9.345  10.722  1.00  0.00     0.238 A 
ATOM      4  O   UNL     1      22.610 -10.486  11.125  1.00  0.00    -0.285 OA
ATOM      5  C   UNL     1      22.025  -8.284  10.623  1.00  0.00     0.111 A 
ATOM      6  C   UNL     1      20.627  -8.407  10.875  1.00  0.00     0.134 A 
ATOM      7  C   UNL     1      19.821  -7.262  10.873  1.00  0.00     0.093 A 
ATOM      8  C   UNL     1      20.352  -6.007  10.563  1.00  0.00     0.123 A 
ATOM      9  C   UNL     1      21.706  -5.886  10.257  1.00  0.00     0.094 A 
ATOM     10  C   UNL     1      22.542  -7.005  10.286  1.00  0.00     0.146 A 
ATOM     11  O   UNL     1      23.828  -6.843   9.999  1.00  0.00    -0.452 OA
ENDROOT
BRANCH   1  12
ATOM     12  C   UNL     1      26.113  -7.525   9.652  1.00  0.00     0.025 A 
ATOM     13  C   UNL     1      28.249  -8.259   8.714  1.00  0.00     0.161 A 
ATOM     14  C   UNL     1      28.797  -7.000   8.993  1.00  0.00     0.157 A 
ATOM     15  C   UNL     1      26.907  -8.518   9.052  1.00  0.00     0.062 A 
ATOM     16  C   UNL     1      28.016  -6.014   9.609  1.00  0.00     0.051 A 
ATOM     17  C   UNL     1      26.686  -6.276   9.942  1.00  0.00     0.016 A 
BRANCH  13  18
ATOM     18  O   UNL     1      29.066  -9.223   8.103  1.00  0.00    -0.493 OA
ATOM     19  C   UNL     1      29.360  -9.265   6.711  1.00  0.00     0.278 C 
ENDBRANCH  13  18
BRANCH  14  20
ATOM     20  O   UNL     1      30.125  -6.736   8.658  1.00  0.00    -0.504 OA
ATOM     21  H   UNL     1      30.622  -7.298   7.978  1.00  0.00     0.293 HD
ENDBRANCH  14  20
ENDBRANCH   1  12
BRANCH   2  22
ATOM     22  O   UNL     1      25.248 -10.149  10.524  1.00  0.00    -0.502 OA
ATOM     23  H   UNL     1      26.166 -10.097  10.097  1.00  0.00     0.293 HD
ENDBRANCH   2  22
BRANCH   6  24
ATOM     24  O   UNL     1      19.979  -9.624  11.105  1.00  0.00    -0.507 OA
ATOM     25  H   UNL     1      20.362 -10.387  11.643  1.00  0.00     0.293 HD
ENDBRANCH   6  24
BRANCH   8  26
ATOM     26  O   UNL     1      19.540  -4.875  10.547  1.00  0.00    -0.508 OA
ATOM     27  H   UNL     1      19.692  -4.124   9.885  1.00  0.00     0.293 HD
ENDBRANCH   8  26
TORSDOF 6
ENDMDL
MODEL 2
REMARK VINA RESULT:    -3.397      1.526      3.013
REMARK INTER + INTRA:          -3.882
REMARK INTER:                  -4.108
REMARK INTRA:                   0.227
REMARK UNBOUND:                 0.310
REMARK SMILES COc1cc(-c2oc3cc(O)cc(O)c3c(=O)c2O)ccc1O
REMARK SMILES IDX 6 1 18 2 16 3 17 4 15 5 13 6 12 7 10 8 9 9 8 10 7 11 5 12
REMARK SMILES IDX 3 13 22 14 4 15 21 16 20 17 2 18 1 19 23 20 19 22 14 24
REMARK SMILES IDX 11 26
REMARK H PARENT 23 21 19 23 14 25 11 27
REMARK Flexibility Score: inf
ROOT
ATOM      1  C   UNL     1      24.767  -7.611   9.564  1.00  0.00     0.180 A 
ATOM      2  C   UNL     1      24.497  -6.401   8.905  1.00  0.00     0.208 A 
ATOM      3  C   UNL     1      23.173  -5.936   8.849  1.00  0.00     0.238 A 
ATOM      4  O   UNL     1      22.930  -4.879   8.209  1.00  0.00    -0.285 OA
ATOM      5  C   UNL     1      22.139  -6.678   9.468  1.00  0.00     0.111 A 
ATOM      6  C   UNL     1      20.769  -6.281   9.508  1.00  0.00     0.134 A 
ATOM      7  C   UNL     1      19.812  -7.156  10.035  1.00  0.00     0.093 A 
ATOM      8  C   UNL     1      20.184  -8.387  10.581  1.00  0.00     0.123 A 
ATOM      9  C   UNL     1      21.526  -8.758  10.600  1.00  0.00     0.094 A 
ATOM     10  C   UNL     1      22.501  -7.921  10.050  1.00  0.00     0.146 A 
ATOM     11  O   UNL     1      23.767  -8.318  10.079  1.00  0.00    -0.452 OA
ENDROOT
BRANCH   1  12
ATOM     12  C   UNL     1      26.139  -8.154   9.686  1.00  0.00     0.025 A 
ATOM     13  C   UNL     1      28.368  -8.464   8.729  1.00  0.00     0.161 A 
ATOM     14  C   UNL     1      28.738  -9.220   9.850  1.00  0.00     0.157 A 
ATOM     15  C   UNL     1      27.063  -7.940   8.650  1.00  0.00     0.062 A 
ATOM     16  C   UNL     1      27.814  -9.453  10.877  1.00  0.00     0.051 A 
ATOM     17  C   UNL     1      26.522  -8.930  10.793  1.00  0.00     0.016 A 
BRANCH  13  18
ATOM     18  O   UNL     1      29.320  -8.259   7.718  1.00  0.00    -0.493 OA
ATOM     19  C   UNL     1      29.982  -7.023   7.473  1.00  0.00     0.278 C 
ENDBRANCH  13  18
BRANCH  14  20
ATOM     20  O   UNL     1      30.029  -9.740   9.936  1.00  0.00    -0.504 OA
ATOM     21  H   UNL     1      30.652  -9.747   9.138  1.00  0.00     0.293 HD
ENDBRANCH  14  20
ENDBRANCH   1  12
BRANCH   2  22
ATOM     22  O   UNL     1      25.530  -5.695   8.281  1.00  0.00    -0.502 OA
ATOM     23  H   UNL     1      25.384  -4.796   7.837  1.00  0.00     0.293 HD
ENDBRANCH   2  22
BRANCH   6  24
ATOM     24  O   UNL     1      20.304  -5.037   9.073  1.00  0.00    -0.507 OA
ATOM     25  H   UNL     1      20.796  -4.164   9.196  1.00  0.00     0.293 HD
ENDBRANCH   6  24
BRANCH   8  26
ATOM     26  O   UNL     1      19.226  -9.245  11.118  1.00  0.00    -0.508 OA
ATOM     27  H   UNL     1      18.556  -8.926  11.808  1.00  0.00     0.293 HD
ENDBRANCH   8  26
TORSDOF 6
ENDMDL
MODEL 3
REMARK VINA RESULT:    -3.378      1.722      6.936
REMARK INTER + INTRA:          -3.858
REMARK INTER:                  -4.016
REMARK INTRA:                   0.159
REMARK UNBOUND:                 0.310
REMARK SMILES COc1cc(-c2oc3cc(O)cc(O)c3c(=O)c2O)ccc1O
REMARK SMILES IDX 6 1 18 2 16 3 17 4 15 5 13 6 12 7 10 8 9 9 8 10 7 11 5 12
REMARK SMILES IDX 3 13 22 14 4 15 21 16 20 17 2 18 1 19 23 20 19 22 14 24
REMARK SMILES IDX 11 26
REMARK H PARENT 23 21 19 23 14 25 11 27
REMARK Flexibility Score: inf
ROOT
ATOM      1  C   UNL     1      24.503  -7.236  10.100  1.00  0.00     0.180 A 
ATOM      2  C   UNL     1      24.730  -8.611  10.279  1.00  0.00     0.208 A 
ATOM      3  C   UNL     1      26.046  -9.065  10.466  1.00  0.00     0.238 A 
ATOM      4  O   UNL     1      26.250 -10.302  10.570  1.00  0.00    -0.285 OA
ATOM      5  C   UNL     1      27.115  -8.137  10.489  1.00  0.00     0.111 A 
ATOM      6  C   UNL     1      28.482  -8.481  10.712  1.00  0.00     0.134 A 
ATOM      7  C   UNL     1      29.471  -7.498  10.584  1.00  0.00     0.093 A 
ATOM      8  C   UNL     1      29.136  -6.170  10.306  1.00  0.00     0.123 A 
ATOM      9  C   UNL     1      27.799  -5.813  10.145  1.00  0.00     0.094 A 
ATOM     10  C   UNL     1      26.792  -6.778  10.232  1.00  0.00     0.146 A 
ATOM     11  O   UNL     1      25.532  -6.398  10.061  1.00  0.00    -0.452 OA
ENDROOT
BRANCH   1  12
ATOM     12  C   UNL     1      23.143  -6.679   9.921  1.00  0.00     0.025 A 
ATOM     13  C   UNL     1      20.755  -6.759  10.442  1.00  0.00     0.161 A 
ATOM     14  C   UNL     1      20.534  -5.689   9.563  1.00  0.00     0.157 A 
ATOM     15  C   UNL     1      22.062  -7.254  10.611  1.00  0.00     0.062 A 
ATOM     16  C   UNL     1      21.605  -5.126   8.858  1.00  0.00     0.051 A 
ATOM     17  C   UNL     1      22.899  -5.621   9.030  1.00  0.00     0.016 A 
BRANCH  13  18
ATOM     18  O   UNL     1      19.655  -7.301  11.125  1.00  0.00    -0.493 OA
ATOM     19  C   UNL     1      19.284  -8.675  11.092  1.00  0.00     0.278 C 
ENDBRANCH  13  18
BRANCH  14  20
ATOM     20  O   UNL     1      19.242  -5.192   9.393  1.00  0.00    -0.504 OA
ATOM     21  H   UNL     1      18.746  -4.732  10.148  1.00  0.00     0.293 HD
ENDBRANCH  14  20
ENDBRANCH   1  12
BRANCH   2  22
ATOM     22  O   UNL     1      23.663  -9.512  10.229  1.00  0.00    -0.502 OA
ATOM     23  H   UNL     1      22.903  -9.420   9.565  1.00  0.00     0.293 HD
ENDBRANCH   2  22
BRANCH   6  24
ATOM     24  O   UNL     1      28.915  -9.756  11.085  1.00  0.00    -0.507 OA
ATOM     25  H   UNL     1      28.509 -10.307  11.827  1.00  0.00     0.293 HD
ENDBRANCH   6  24
BRANCH   8  26
ATOM     26  O   UNL     1      30.125  -5.195  10.197  1.00  0.00    -0.508 OA
ATOM     27  H   UNL     1      30.518  -4.746  11.015  1.00  0.00     0.293 HD
ENDBRANCH   8  26
TORSDOF 6
ENDMDL
