MODEL 1
REMARK VINA RESULT:    -7.090      0.000      0.000
REMARK INTER + INTRA:          -8.578
REMARK INTER:                  -8.334
REMARK INTRA:                  -0.244
REMARK UNBOUND:                -0.244
REMARK SMILES O=c1c(O)c(-c2ccc(O)cc2)oc2cc(O)cc(O)c12
REMARK SMILES IDX 5 1 3 2 2 3 1 4 21 5 19 6 18 7 16 8 15 9 14 10 13 11 6 12
REMARK SMILES IDX 7 13 8 14 9 15 12 16 11 17 10 18 4 20 20 22 17 24
REMARK H PARENT 10 19 4 21 20 23 17 25
REMARK Flexibility Score: inf
ROOT
ATOM      1  C   UNL     1     -15.952 -46.387  -1.618  1.00  0.00     0.180 A 
ATOM      2  C   UNL     1     -17.056 -45.608  -2.006  1.00  0.00     0.208 A 
ATOM      3  C   UNL     1     -17.858 -45.022  -1.013  1.00  0.00     0.238 A 
ATOM      4  O   UNL     1     -18.876 -44.370  -1.364  1.00  0.00    -0.285 OA
ATOM      5  C   UNL     1     -17.536 -45.207   0.353  1.00  0.00     0.111 A 
ATOM      6  C   UNL     1     -18.254 -44.627   1.441  1.00  0.00     0.134 A 
ATOM      7  C   UNL     1     -17.925 -44.984   2.755  1.00  0.00     0.093 A 
ATOM      8  C   UNL     1     -16.864 -45.849   3.022  1.00  0.00     0.123 A 
ATOM      9  C   UNL     1     -16.117 -46.376   1.967  1.00  0.00     0.094 A 
ATOM     10  C   UNL     1     -16.444 -46.065   0.645  1.00  0.00     0.146 A 
ATOM     11  O   UNL     1     -15.714 -46.596  -0.329  1.00  0.00    -0.452 OA
ENDROOT
BRANCH   1  12
ATOM     12  C   UNL     1     -15.047 -47.016  -2.607  1.00  0.00     0.021 A 
ATOM     13  C   UNL     1     -15.160 -48.379  -2.941  1.00  0.00     0.016 A 
ATOM     14  C   UNL     1     -14.309 -48.944  -3.896  1.00  0.00     0.047 A 
ATOM     15  C   UNL     1     -13.348 -48.158  -4.538  1.00  0.00     0.115 A 
ATOM     16  C   UNL     1     -14.093 -46.228  -3.271  1.00  0.00     0.016 A 
ATOM     17  C   UNL     1     -13.243 -46.797  -4.225  1.00  0.00     0.047 A 
BRANCH  15  18
ATOM     18  O   UNL     1     -12.507 -48.736  -5.487  1.00  0.00    -0.508 OA
ATOM     19  H   UNL     1     -12.877 -49.209  -6.303  1.00  0.00     0.293 HD
ENDBRANCH  15  18
ENDBRANCH   1  12
BRANCH   2  20
ATOM     20  O   UNL     1     -17.369 -45.456  -3.359  1.00  0.00    -0.502 OA
ATOM     21  H   UNL     1     -18.292 -45.184  -3.677  1.00  0.00     0.293 HD
ENDBRANCH   2  20
BRANCH   6  22
ATOM     22  O   UNL     1     -19.271 -43.680   1.288  1.00  0.00    -0.507 OA
ATOM     23  H   UNL     1     -20.236 -43.828   1.541  1.00  0.00     0.293 HD
ENDBRANCH   6  22
BRANCH   8  24
ATOM     24  O   UNL     1     -16.555 -46.170   4.341  1.00  0.00    -0.508 OA
ATOM     25  H   UNL     1     -15.886 -45.630   4.876  1.00  0.00     0.293 HD
ENDBRANCH   8  24
TORSDOF 5
ENDMDL
MODEL 2
REMARK VINA RESULT:    -7.007      6.363     10.052
REMARK INTER + INTRA:          -8.480
REMARK INTER:                  -8.217
REMARK INTRA:                  -0.263
REMARK UNBOUND:                -0.244
REMARK SMILES O=c1c(O)c(-c2ccc(O)cc2)oc2cc(O)cc(O)c12
REMARK SMILES IDX 5 1 3 2 2 3 1 4 21 5 19 6 18 7 16 8 15 9 14 10 13 11 6 12
REMARK SMILES IDX 7 13 8 14 9 15 12 16 11 17 10 18 4 20 20 22 17 24
REMARK H PARENT 10 19 4 21 20 23 17 25
REMARK Flexibility Score: inf
ROOT
ATOM      1  C   UNL     1     -11.255 -42.884  -5.705  1.00  0.00     0.180 A 
ATOM      2  C   UNL     1     -10.804 -43.817  -6.656  1.00  0.00     0.208 A 
ATOM      3  C   UNL     1     -11.030 -43.564  -8.019  1.00  0.00     0.238 A 
ATOM      4  O   UNL     1     -10.672 -44.427  -8.862  1.00  0.00    -0.285 OA
ATOM      5  C   UNL     1     -11.689 -42.375  -8.415  1.00  0.00     0.111 A 
ATOM      6  C   UNL     1     -11.935 -41.997  -9.768  1.00  0.00     0.134 A 
ATOM      7  C   UNL     1     -12.710 -40.862 -10.039  1.00  0.00     0.093 A 
ATOM      8  C   UNL     1     -13.193 -40.057  -9.008  1.00  0.00     0.123 A 
ATOM      9  C   UNL     1     -12.908 -40.385  -7.682  1.00  0.00     0.094 A 
ATOM     10  C   UNL     1     -12.167 -41.530  -7.380  1.00  0.00     0.146 A 
ATOM     11  O   UNL     1     -11.927 -41.811  -6.104  1.00  0.00    -0.452 OA
ENDROOT
BRANCH   1  12
ATOM     12  C   UNL     1     -11.032 -43.069  -4.254  1.00  0.00     0.021 A 
ATOM     13  C   UNL     1     -12.031 -43.608  -3.421  1.00  0.00     0.016 A 
ATOM     14  C   UNL     1     -11.787 -43.796  -2.057  1.00  0.00     0.047 A 
ATOM     15  C   UNL     1     -10.544 -43.464  -1.510  1.00  0.00     0.115 A 
ATOM     16  C   UNL     1      -9.778 -42.758  -3.701  1.00  0.00     0.016 A 
ATOM     17  C   UNL     1      -9.539 -42.946  -2.336  1.00  0.00     0.047 A 
BRANCH  15  18
ATOM     18  O   UNL     1     -10.317 -43.656  -0.149  1.00  0.00    -0.508 OA
ATOM     19  H   UNL     1     -11.051 -43.515   0.535  1.00  0.00     0.293 HD
ENDBRANCH  15  18
ENDBRANCH   1  12
BRANCH   2  20
ATOM     20  O   UNL     1     -10.175 -44.994  -6.242  1.00  0.00    -0.502 OA
ATOM     21  H   UNL     1      -9.190 -45.170  -6.402  1.00  0.00     0.293 HD
ENDBRANCH   2  20
BRANCH   6  22
ATOM     22  O   UNL     1     -11.420 -42.680 -10.875  1.00  0.00    -0.507 OA
ATOM     23  H   UNL     1     -11.939 -42.885 -11.715  1.00  0.00     0.293 HD
ENDBRANCH   6  22
BRANCH   8  24
ATOM     24  O   UNL     1     -13.948 -38.928  -9.314  1.00  0.00    -0.508 OA
ATOM     25  H   UNL     1     -13.532 -38.005  -9.347  1.00  0.00     0.293 HD
ENDBRANCH   8  24
TORSDOF 5
ENDMDL
MODEL 3
REMARK VINA RESULT:    -6.981      7.325      9.773
REMARK INTER + INTRA:          -8.450
REMARK INTER:                  -8.152
REMARK INTRA:                  -0.298
REMARK UNBOUND:                -0.244
REMARK SMILES O=c1c(O)c(-c2ccc(O)cc2)oc2cc(O)cc(O)c12
REMARK SMILES IDX 5 1 3 2 2 3 1 4 21 5 19 6 18 7 16 8 15 9 14 10 13 11 6 12
REMARK SMILES IDX 7 13 8 14 9 15 12 16 11 17 10 18 4 20 20 22 17 24
REMARK H PARENT 10 19 4 21 20 23 17 25
REMARK Flexibility Score: inf
ROOT
ATOM      1  C   UNL     1     -11.850 -43.207  -7.043  1.00  0.00     0.180 A 
ATOM      2  C   UNL     1     -11.204 -43.181  -8.291  1.00  0.00     0.208 A 
ATOM      3  C   UNL     1     -11.919 -42.742  -9.418  1.00  0.00     0.238 A 
ATOM      4  O   UNL     1     -11.354 -42.772 -10.542  1.00  0.00    -0.285 OA
ATOM      5  C   UNL     1     -13.263 -42.320  -9.280  1.00  0.00     0.111 A 
ATOM      6  C   UNL     1     -14.069 -41.820 -10.345  1.00  0.00     0.134 A 
ATOM      7  C   UNL     1     -15.426 -41.555 -10.120  1.00  0.00     0.093 A 
ATOM      8  C   UNL     1     -15.989 -41.710  -8.853  1.00  0.00     0.123 A 
ATOM      9  C   UNL     1     -15.196 -42.143  -7.790  1.00  0.00     0.094 A 
ATOM     10  C   UNL     1     -13.848 -42.449  -7.993  1.00  0.00     0.146 A 
ATOM     11  O   UNL     1     -13.130 -42.867  -6.957  1.00  0.00    -0.452 OA
ENDROOT
BRANCH   1  12
ATOM     12  C   UNL     1     -11.155 -43.632  -5.807  1.00  0.00     0.021 A 
ATOM     13  C   UNL     1     -10.412 -42.722  -5.032  1.00  0.00     0.016 A 
ATOM     14  C   UNL     1      -9.785 -43.143  -3.855  1.00  0.00     0.047 A 
ATOM     15  C   UNL     1      -9.902 -44.469  -3.430  1.00  0.00     0.115 A 
ATOM     16  C   UNL     1     -11.286 -44.958  -5.361  1.00  0.00     0.016 A 
ATOM     17  C   UNL     1     -10.656 -45.376  -4.184  1.00  0.00     0.047 A 
BRANCH  15  18
ATOM     18  O   UNL     1      -9.271 -44.873  -2.255  1.00  0.00    -0.508 OA
ATOM     19  H   UNL     1      -9.351 -45.824  -1.912  1.00  0.00     0.293 HD
ENDBRANCH  15  18
ENDBRANCH   1  12
BRANCH   2  20
ATOM     20  O   UNL     1      -9.884 -43.622  -8.410  1.00  0.00    -0.502 OA
ATOM     21  H   UNL     1      -9.648 -44.561  -8.708  1.00  0.00     0.293 HD
ENDBRANCH   2  20
BRANCH   6  22
ATOM     22  O   UNL     1     -13.584 -41.540 -11.626  1.00  0.00    -0.507 OA
ATOM     23  H   UNL     1     -13.956 -40.832 -12.239  1.00  0.00     0.293 HD
ENDBRANCH   6  22
BRANCH   8  24
ATOM     24  O   UNL     1     -17.338 -41.423  -8.661  1.00  0.00    -0.508 OA
ATOM     25  H   UNL     1     -18.022 -41.576  -9.393  1.00  0.00     0.293 HD
ENDBRANCH   8  24
TORSDOF 5
ENDMDL
MODEL 4
REMARK VINA RESULT:    -6.956      6.881      9.575
REMARK INTER + INTRA:          -8.420
REMARK INTER:                  -8.131
REMARK INTRA:                  -0.289
REMARK UNBOUND:                -0.244
REMARK SMILES O=c1c(O)c(-c2ccc(O)cc2)oc2cc(O)cc(O)c12
REMARK SMILES IDX 5 1 3 2 2 3 1 4 21 5 19 6 18 7 16 8 15 9 14 10 13 11 6 12
REMARK SMILES IDX 7 13 8 14 9 15 12 16 11 17 10 18 4 20 20 22 17 24
REMARK H PARENT 10 19 4 21 20 23 17 25
REMARK Flexibility Score: inf
ROOT
ATOM      1  C   UNL     1     -12.634 -42.775  -6.388  1.00  0.00     0.180 A 
ATOM      2  C   UNL     1     -13.987 -43.157  -6.417  1.00  0.00     0.208 A 
ATOM      3  C   UNL     1     -14.797 -42.712  -7.475  1.00  0.00     0.238 A 
ATOM      4  O   UNL     1     -16.019 -43.011  -7.468  1.00  0.00    -0.285 OA
ATOM      5  C   UNL     1     -14.241 -41.906  -8.498  1.00  0.00     0.111 A 
ATOM      6  C   UNL     1     -14.958 -41.432  -9.636  1.00  0.00     0.134 A 
ATOM      7  C   UNL     1     -14.342 -40.534 -10.517  1.00  0.00     0.093 A 
ATOM      8  C   UNL     1     -13.015 -40.143 -10.336  1.00  0.00     0.123 A 
ATOM      9  C   UNL     1     -12.286 -40.647  -9.258  1.00  0.00     0.094 A 
ATOM     10  C   UNL     1     -12.885 -41.517  -8.343  1.00  0.00     0.146 A 
ATOM     11  O   UNL     1     -12.159 -41.965  -7.326  1.00  0.00    -0.452 OA
ENDROOT
BRANCH   1  12
ATOM     12  C   UNL     1     -11.713 -43.224  -5.320  1.00  0.00     0.021 A 
ATOM     13  C   UNL     1     -11.558 -42.492  -4.128  1.00  0.00     0.016 A 
ATOM     14  C   UNL     1     -10.700 -42.950  -3.123  1.00  0.00     0.047 A 
ATOM     15  C   UNL     1      -9.999 -44.148  -3.288  1.00  0.00     0.115 A 
ATOM     16  C   UNL     1     -11.021 -44.438  -5.469  1.00  0.00     0.016 A 
ATOM     17  C   UNL     1     -10.163 -44.892  -4.462  1.00  0.00     0.047 A 
BRANCH  15  18
ATOM     18  O   UNL     1      -9.147 -44.591  -2.278  1.00  0.00    -0.508 OA
ATOM     19  H   UNL     1      -8.514 -45.369  -2.423  1.00  0.00     0.293 HD
ENDBRANCH  15  18
ENDBRANCH   1  12
BRANCH   2  20
ATOM     20  O   UNL     1     -14.521 -43.935  -5.387  1.00  0.00    -0.502 OA
ATOM     21  H   UNL     1     -14.658 -43.577  -4.449  1.00  0.00     0.293 HD
ENDBRANCH   2  20
BRANCH   6  22
ATOM     22  O   UNL     1     -16.258 -41.832  -9.962  1.00  0.00    -0.507 OA
ATOM     23  H   UNL     1     -17.066 -41.688  -9.378  1.00  0.00     0.293 HD
ENDBRANCH   6  22
BRANCH   8  24
ATOM     24  O   UNL     1     -12.430 -39.260 -11.239  1.00  0.00    -0.508 OA
ATOM     25  H   UNL     1     -11.835 -39.588 -11.991  1.00  0.00     0.293 HD
ENDBRANCH   8  24
TORSDOF 5
ENDMDL
MODEL 5
REMARK VINA RESULT:    -6.944     11.049     13.127
REMARK INTER + INTRA:          -8.407
REMARK INTER:                  -8.114
REMARK INTRA:                  -0.293
REMARK UNBOUND:                -0.244
REMARK SMILES O=c1c(O)c(-c2ccc(O)cc2)oc2cc(O)cc(O)c12
REMARK SMILES IDX 5 1 3 2 2 3 1 4 21 5 19 6 18 7 16 8 15 9 14 10 13 11 6 12
REMARK SMILES IDX 7 13 8 14 9 15 12 16 11 17 10 18 4 20 20 22 17 24
REMARK H PARENT 10 19 4 21 20 23 17 25
REMARK Flexibility Score: inf
ROOT
ATOM      1  C   UNL     1     -16.622 -34.742  -0.014  1.00  0.00     0.180 A 
ATOM      2  C   UNL     1     -17.111 -34.350  -1.273  1.00  0.00     0.208 A 
ATOM      3  C   UNL     1     -16.196 -34.053  -2.296  1.00  0.00     0.238 A 
ATOM      4  O   UNL     1     -16.637 -33.650  -3.404  1.00  0.00    -0.285 OA
ATOM      5  C   UNL     1     -14.806 -34.166  -2.053  1.00  0.00     0.111 A 
ATOM      6  C   UNL     1     -13.791 -33.928  -3.028  1.00  0.00     0.134 A 
ATOM      7  C   UNL     1     -12.445 -33.944  -2.641  1.00  0.00     0.093 A 
ATOM      8  C   UNL     1     -12.075 -34.251  -1.332  1.00  0.00     0.123 A 
ATOM      9  C   UNL     1     -13.057 -34.544  -0.385  1.00  0.00     0.094 A 
ATOM     10  C   UNL     1     -14.409 -34.501  -0.732  1.00  0.00     0.146 A 
ATOM     11  O   UNL     1     -15.312 -34.776   0.201  1.00  0.00    -0.452 OA
ENDROOT
BRANCH   1  12
ATOM     12  C   UNL     1     -17.524 -35.096   1.105  1.00  0.00     0.021 A 
ATOM     13  C   UNL     1     -18.061 -36.391   1.234  1.00  0.00     0.016 A 
ATOM     14  C   UNL     1     -18.891 -36.707   2.314  1.00  0.00     0.047 A 
ATOM     15  C   UNL     1     -19.184 -35.744   3.283  1.00  0.00     0.115 A 
ATOM     16  C   UNL     1     -17.806 -34.139   2.095  1.00  0.00     0.016 A 
ATOM     17  C   UNL     1     -18.638 -34.459   3.172  1.00  0.00     0.047 A 
BRANCH  15  18
ATOM     18  O   UNL     1     -20.014 -36.074   4.353  1.00  0.00    -0.508 OA
ATOM     19  H   UNL     1     -21.006 -36.232   4.223  1.00  0.00     0.293 HD
ENDBRANCH  15  18
ENDBRANCH   1  12
BRANCH   2  20
ATOM     20  O   UNL     1     -18.486 -34.224  -1.485  1.00  0.00    -0.502 OA
ATOM     21  H   UNL     1     -19.130 -33.971  -0.744  1.00  0.00     0.293 HD
ENDBRANCH   2  20
BRANCH   6  22
ATOM     22  O   UNL     1     -14.048 -33.703  -4.383  1.00  0.00    -0.507 OA
ATOM     23  H   UNL     1     -14.681 -33.004  -4.739  1.00  0.00     0.293 HD
ENDBRANCH   6  22
BRANCH   8  24
ATOM     24  O   UNL     1     -10.726 -34.273  -0.986  1.00  0.00    -0.508 OA
ATOM     25  H   UNL     1     -10.421 -34.532  -0.056  1.00  0.00     0.293 HD
ENDBRANCH   8  24
TORSDOF 5
ENDMDL
MODEL 6
REMARK VINA RESULT:    -6.889      1.791      6.652
REMARK INTER + INTRA:          -8.342
REMARK INTER:                  -8.201
REMARK INTRA:                  -0.140
REMARK UNBOUND:                -0.244
REMARK SMILES O=c1c(O)c(-c2ccc(O)cc2)oc2cc(O)cc(O)c12
REMARK SMILES IDX 5 1 3 2 2 3 1 4 21 5 19 6 18 7 16 8 15 9 14 10 13 11 6 12
REMARK SMILES IDX 7 13 8 14 9 15 12 16 11 17 10 18 4 20 20 22 17 24
REMARK H PARENT 10 19 4 21 20 23 17 25
REMARK Flexibility Score: inf
ROOT
ATOM      1  C   UNL     1     -17.208 -44.818  -1.298  1.00  0.00     0.180 A 
ATOM      2  C   UNL     1     -17.510 -43.889  -2.309  1.00  0.00     0.208 A 
ATOM      3  C   UNL     1     -17.004 -44.101  -3.602  1.00  0.00     0.238 A 
ATOM      4  O   UNL     1     -17.232 -43.239  -4.490  1.00  0.00    -0.285 OA
ATOM      5  C   UNL     1     -16.215 -45.246  -3.871  1.00  0.00     0.111 A 
ATOM      6  C   UNL     1     -15.684 -45.580  -5.152  1.00  0.00     0.134 A 
ATOM      7  C   UNL     1     -14.809 -46.668  -5.274  1.00  0.00     0.093 A 
ATOM      8  C   UNL     1     -14.499 -47.469  -4.176  1.00  0.00     0.123 A 
ATOM      9  C   UNL     1     -15.060 -47.186  -2.930  1.00  0.00     0.094 A 
ATOM     10  C   UNL     1     -15.908 -46.087  -2.770  1.00  0.00     0.146 A 
ATOM     11  O   UNL     1     -16.412 -45.846  -1.566  1.00  0.00    -0.452 OA
ENDROOT
BRANCH   1  12
ATOM     12  C   UNL     1     -17.726 -44.676   0.081  1.00  0.00     0.021 A 
ATOM     13  C   UNL     1     -19.107 -44.707   0.353  1.00  0.00     0.016 A 
ATOM     14  C   UNL     1     -19.570 -44.596   1.668  1.00  0.00     0.047 A 
ATOM     15  C   UNL     1     -18.666 -44.466   2.726  1.00  0.00     0.115 A 
ATOM     16  C   UNL     1     -16.823 -44.566   1.152  1.00  0.00     0.016 A 
ATOM     17  C   UNL     1     -17.290 -44.453   2.465  1.00  0.00     0.047 A 
BRANCH  15  18
ATOM     18  O   UNL     1     -19.143 -44.355   4.030  1.00  0.00    -0.508 OA
ATOM     19  H   UNL     1     -20.130 -44.228   4.223  1.00  0.00     0.293 HD
ENDBRANCH  15  18
ENDBRANCH   1  12
BRANCH   2  20
ATOM     20  O   UNL     1     -18.272 -42.755  -2.017  1.00  0.00    -0.502 OA
ATOM     21  H   UNL     1     -17.893 -41.957  -1.521  1.00  0.00     0.293 HD
ENDBRANCH   2  20
BRANCH   6  22
ATOM     22  O   UNL     1     -16.003 -44.901  -6.332  1.00  0.00    -0.507 OA
ATOM     23  H   UNL     1     -15.820 -43.924  -6.500  1.00  0.00     0.293 HD
ENDBRANCH   6  22
BRANCH   8  24
ATOM     24  O   UNL     1     -13.637 -48.552  -4.337  1.00  0.00    -0.508 OA
ATOM     25  H   UNL     1     -12.692 -48.535  -3.975  1.00  0.00     0.293 HD
ENDBRANCH   8  24
TORSDOF 5
ENDMDL
MODEL 7
REMARK VINA RESULT:    -6.815      6.353      8.630
REMARK INTER + INTRA:          -8.255
REMARK INTER:                  -7.967
REMARK INTRA:                  -0.288
REMARK UNBOUND:                -0.244
REMARK SMILES O=c1c(O)c(-c2ccc(O)cc2)oc2cc(O)cc(O)c12
REMARK SMILES IDX 5 1 3 2 2 3 1 4 21 5 19 6 18 7 16 8 15 9 14 10 13 11 6 12
REMARK SMILES IDX 7 13 8 14 9 15 12 16 11 17 10 18 4 20 20 22 17 24
REMARK H PARENT 10 19 4 21 20 23 17 25
REMARK Flexibility Score: inf
ROOT
ATOM      1  C   UNL     1     -11.655 -43.200  -6.964  1.00  0.00     0.180 A 
ATOM      2  C   UNL     1     -12.035 -44.535  -7.188  1.00  0.00     0.208 A 
ATOM      3  C   UNL     1     -11.950 -45.454  -6.130  1.00  0.00     0.238 A 
ATOM      4  O   UNL     1     -12.240 -46.659  -6.350  1.00  0.00    -0.285 OA
ATOM      5  C   UNL     1     -11.501 -45.024  -4.858  1.00  0.00     0.111 A 
ATOM      6  C   UNL     1     -11.413 -45.860  -3.705  1.00  0.00     0.134 A 
ATOM      7  C   UNL     1     -10.832 -45.360  -2.532  1.00  0.00     0.093 A 
ATOM      8  C   UNL     1     -10.395 -44.038  -2.452  1.00  0.00     0.123 A 
ATOM      9  C   UNL     1     -10.531 -43.195  -3.555  1.00  0.00     0.094 A 
ATOM     10  C   UNL     1     -11.074 -43.675  -4.749  1.00  0.00     0.146 A 
ATOM     11  O   UNL     1     -11.177 -42.842  -5.779  1.00  0.00    -0.452 OA
ENDROOT
BRANCH   1  12
ATOM     12  C   UNL     1     -11.742 -42.169  -8.023  1.00  0.00     0.021 A 
ATOM     13  C   UNL     1     -10.679 -41.947  -8.919  1.00  0.00     0.016 A 
ATOM     14  C   UNL     1     -10.794 -40.984  -9.927  1.00  0.00     0.047 A 
ATOM     15  C   UNL     1     -11.971 -40.242 -10.061  1.00  0.00     0.115 A 
ATOM     16  C   UNL     1     -12.929 -41.434  -8.178  1.00  0.00     0.016 A 
ATOM     17  C   UNL     1     -13.040 -40.471  -9.186  1.00  0.00     0.047 A 
BRANCH  15  18
ATOM     18  O   UNL     1     -12.071 -39.285 -11.069  1.00  0.00    -0.508 OA
ATOM     19  H   UNL     1     -11.707 -39.457 -12.000  1.00  0.00     0.293 HD
ENDBRANCH  15  18
ENDBRANCH   1  12
BRANCH   2  20
ATOM     20  O   UNL     1     -12.455 -44.943  -8.457  1.00  0.00    -0.502 OA
ATOM     21  H   UNL     1     -13.407 -45.232  -8.649  1.00  0.00     0.293 HD
ENDBRANCH   2  20
BRANCH   6  22
ATOM     22  O   UNL     1     -11.903 -47.168  -3.650  1.00  0.00    -0.507 OA
ATOM     23  H   UNL     1     -11.747 -47.870  -4.356  1.00  0.00     0.293 HD
ENDBRANCH   6  22
BRANCH   8  24
ATOM     24  O   UNL     1      -9.836 -43.570  -1.265  1.00  0.00    -0.508 OA
ATOM     25  H   UNL     1      -8.956 -43.070  -1.255  1.00  0.00     0.293 HD
ENDBRANCH   8  24
TORSDOF 5
ENDMDL
MODEL 8
REMARK VINA RESULT:    -6.812      3.286      4.381
REMARK INTER + INTRA:          -8.251
REMARK INTER:                  -7.962
REMARK INTRA:                  -0.289
REMARK UNBOUND:                -0.244
REMARK SMILES O=c1c(O)c(-c2ccc(O)cc2)oc2cc(O)cc(O)c12
REMARK SMILES IDX 5 1 3 2 2 3 1 4 21 5 19 6 18 7 16 8 15 9 14 10 13 11 6 12
REMARK SMILES IDX 7 13 8 14 9 15 12 16 11 17 10 18 4 20 20 22 17 24
REMARK H PARENT 10 19 4 21 20 23 17 25
REMARK Flexibility Score: inf
ROOT
ATOM      1  C   UNL     1     -15.219 -44.453  -0.444  1.00  0.00     0.180 A 
ATOM      2  C   UNL     1     -16.114 -44.925   0.531  1.00  0.00     0.208 A 
ATOM      3  C   UNL     1     -15.784 -44.776   1.888  1.00  0.00     0.238 A 
ATOM      4  O   UNL     1     -16.563 -45.248   2.756  1.00  0.00    -0.285 OA
ATOM      5  C   UNL     1     -14.571 -44.142   2.252  1.00  0.00     0.111 A 
ATOM      6  C   UNL     1     -14.154 -43.901   3.595  1.00  0.00     0.134 A 
ATOM      7  C   UNL     1     -12.876 -43.383   3.839  1.00  0.00     0.093 A 
ATOM      8  C   UNL     1     -12.026 -43.039   2.789  1.00  0.00     0.123 A 
ATOM      9  C   UNL     1     -12.447 -43.215   1.470  1.00  0.00     0.094 A 
ATOM     10  C   UNL     1     -13.703 -43.762   1.196  1.00  0.00     0.146 A 
ATOM     11  O   UNL     1     -14.061 -43.923  -0.073  1.00  0.00    -0.452 OA
ENDROOT
BRANCH   1  12
ATOM     12  C   UNL     1     -15.510 -44.553  -1.893  1.00  0.00     0.021 A 
ATOM     13  C   UNL     1     -16.117 -43.494  -2.594  1.00  0.00     0.016 A 
ATOM     14  C   UNL     1     -16.358 -43.603  -3.967  1.00  0.00     0.047 A 
ATOM     15  C   UNL     1     -15.986 -44.759  -4.658  1.00  0.00     0.115 A 
ATOM     16  C   UNL     1     -15.120 -45.703  -2.599  1.00  0.00     0.016 A 
ATOM     17  C   UNL     1     -15.364 -45.809  -3.972  1.00  0.00     0.047 A 
BRANCH  15  18
ATOM     18  O   UNL     1     -16.235 -44.853  -6.026  1.00  0.00    -0.508 OA
ATOM     19  H   UNL     1     -15.794 -45.566  -6.596  1.00  0.00     0.293 HD
ENDBRANCH  15  18
ENDBRANCH   1  12
BRANCH   2  20
ATOM     20  O   UNL     1     -17.296 -45.567   0.150  1.00  0.00    -0.502 OA
ATOM     21  H   UNL     1     -17.571 -46.468   0.524  1.00  0.00     0.293 HD
ENDBRANCH   2  20
BRANCH   6  22
ATOM     22  O   UNL     1     -14.961 -44.123   4.715  1.00  0.00    -0.507 OA
ATOM     23  H   UNL     1     -14.986 -43.532   5.531  1.00  0.00     0.293 HD
ENDBRANCH   6  22
BRANCH   8  24
ATOM     24  O   UNL     1     -10.767 -42.513   3.068  1.00  0.00    -0.508 OA
ATOM     25  H   UNL     1     -10.607 -41.920   3.873  1.00  0.00     0.293 HD
ENDBRANCH   8  24
TORSDOF 5
ENDMDL
MODEL 9
REMARK VINA RESULT:    -6.770      4.747      6.537
REMARK INTER + INTRA:          -8.202
REMARK INTER:                  -7.905
REMARK INTRA:                  -0.297
REMARK UNBOUND:                -0.244
REMARK SMILES O=c1c(O)c(-c2ccc(O)cc2)oc2cc(O)cc(O)c12
REMARK SMILES IDX 5 1 3 2 2 3 1 4 21 5 19 6 18 7 16 8 15 9 14 10 13 11 6 12
REMARK SMILES IDX 7 13 8 14 9 15 12 16 11 17 10 18 4 20 20 22 17 24
REMARK H PARENT 10 19 4 21 20 23 17 25
REMARK Flexibility Score: inf
ROOT
ATOM      1  C   UNL     1     -15.067 -43.149  -5.772  1.00  0.00     0.180 A 
ATOM      2  C   UNL     1     -14.366 -44.366  -5.710  1.00  0.00     0.208 A 
ATOM      3  C   UNL     1     -14.732 -45.314  -4.741  1.00  0.00     0.238 A 
ATOM      4  O   UNL     1     -14.067 -46.379  -4.655  1.00  0.00    -0.285 OA
ATOM      5  C   UNL     1     -15.804 -45.041  -3.858  1.00  0.00     0.111 A 
ATOM      6  C   UNL     1     -16.286 -45.945  -2.865  1.00  0.00     0.134 A 
ATOM      7  C   UNL     1     -17.267 -45.518  -1.960  1.00  0.00     0.093 A 
ATOM      8  C   UNL     1     -17.827 -44.245  -2.052  1.00  0.00     0.123 A 
ATOM      9  C   UNL     1     -17.405 -43.373  -3.058  1.00  0.00     0.094 A 
ATOM     10  C   UNL     1     -16.404 -43.758  -3.952  1.00  0.00     0.146 A 
ATOM     11  O   UNL     1     -16.024 -42.895  -4.887  1.00  0.00    -0.452 OA
ENDROOT
BRANCH   1  12
ATOM     12  C   UNL     1     -14.755 -42.112  -6.781  1.00  0.00     0.021 A 
ATOM     13  C   UNL     1     -15.333 -42.140  -8.065  1.00  0.00     0.016 A 
ATOM     14  C   UNL     1     -15.042 -41.135  -8.992  1.00  0.00     0.047 A 
ATOM     15  C   UNL     1     -14.185 -40.085  -8.649  1.00  0.00     0.115 A 
ATOM     16  C   UNL     1     -13.912 -41.042  -6.436  1.00  0.00     0.016 A 
ATOM     17  C   UNL     1     -13.622 -40.040  -7.367  1.00  0.00     0.047 A 
BRANCH  15  18
ATOM     18  O   UNL     1     -13.904 -39.092  -9.584  1.00  0.00    -0.508 OA
ATOM     19  H   UNL     1     -14.638 -38.658 -10.133  1.00  0.00     0.293 HD
ENDBRANCH  15  18
ENDBRANCH   1  12
BRANCH   2  20
ATOM     20  O   UNL     1     -13.297 -44.607  -6.578  1.00  0.00    -0.502 OA
ATOM     21  H   UNL     1     -12.839 -45.508  -6.640  1.00  0.00     0.293 HD
ENDBRANCH   2  20
BRANCH   6  22
ATOM     22  O   UNL     1     -15.860 -47.271  -2.743  1.00  0.00    -0.507 OA
ATOM     23  H   UNL     1     -16.193 -47.919  -2.047  1.00  0.00     0.293 HD
ENDBRANCH   6  22
BRANCH   8  24
ATOM     24  O   UNL     1     -18.811 -43.859  -1.145  1.00  0.00    -0.508 OA
ATOM     25  H   UNL     1     -19.754 -43.645  -1.446  1.00  0.00     0.293 HD
ENDBRANCH   8  24
TORSDOF 5
ENDMDL
