MODEL 1
REMARK VINA RESULT:    -2.664      0.000      0.000
REMARK INTER + INTRA:          -3.640
REMARK INTER:                  -3.287
REMARK INTRA:                  -0.353
REMARK UNBOUND:                -0.353
REMARK SMILES CCCCC(=O)CC
REMARK SMILES IDX 4 1 3 2 2 3 1 4 5 5 6 6 7 7 8 8
REMARK H PARENT
REMARK Flexibility Score: inf
ROOT
ATOM      1  C   UNL     1     166.201 169.790 168.950  1.00  0.00     0.075 C 
ENDROOT
BRANCH   1   2
ATOM      2  C   UNL     1     165.614 168.712 168.028  1.00  0.00     0.008 C 
BRANCH   2   3
ATOM      3  C   UNL     1     165.403 167.375 168.750  1.00  0.00    -0.003 C 
ATOM      4  C   UNL     1     166.208 167.317 170.046  1.00  0.00     0.004 C 
ENDBRANCH   2   3
ENDBRANCH   1   2
BRANCH   1   5
ATOM      5  C   UNL     1     167.372 170.508 168.325  1.00  0.00     0.132 C 
ATOM      6  O   UNL     1     167.345 171.726 168.223  1.00  0.00    -0.300 OA
BRANCH   5   7
ATOM      7  C   UNL     1     168.599 169.758 167.875  1.00  0.00     0.072 C 
ATOM      8  C   UNL     1     169.339 169.145 169.060  1.00  0.00     0.012 C 
ENDBRANCH   5   7
ENDBRANCH   1   5
TORSDOF 4
ENDMDL
MODEL 2
REMARK VINA RESULT:    -2.660      3.772      5.464
REMARK INTER + INTRA:          -3.636
REMARK INTER:                  -3.484
REMARK INTRA:                  -0.152
REMARK UNBOUND:                -0.353
REMARK SMILES CCCCC(=O)CC
REMARK SMILES IDX 4 1 3 2 2 3 1 4 5 5 6 6 7 7 8 8
REMARK H PARENT
REMARK Flexibility Score: inf
ROOT
ATOM      1  C   UNL     1     170.920 168.771 169.725  1.00  0.00     0.075 C 
ENDROOT
BRANCH   1   2
ATOM      2  C   UNL     1     172.161 169.566 170.156  1.00  0.00     0.008 C 
BRANCH   2   3
ATOM      3  C   UNL     1     172.361 169.557 171.677  1.00  0.00    -0.003 C 
ATOM      4  C   UNL     1     171.208 168.846 172.380  1.00  0.00     0.004 C 
ENDBRANCH   2   3
ENDBRANCH   1   2
BRANCH   1   5
ATOM      5  C   UNL     1     171.150 167.988 168.454  1.00  0.00     0.132 C 
ATOM      6  O   UNL     1     172.222 168.084 167.875  1.00  0.00    -0.300 OA
BRANCH   5   7
ATOM      7  C   UNL     1     170.103 167.048 167.917  1.00  0.00     0.072 C 
ATOM      8  C   UNL     1     168.880 167.001 168.828  1.00  0.00     0.012 C 
ENDBRANCH   5   7
ENDBRANCH   1   5
TORSDOF 4
ENDMDL
MODEL 3
REMARK VINA RESULT:    -2.604      3.778      5.369
REMARK INTER + INTRA:          -3.566
REMARK INTER:                  -3.314
REMARK INTRA:                  -0.252
REMARK UNBOUND:                -0.353
REMARK SMILES CCCCC(=O)CC
REMARK SMILES IDX 4 1 3 2 2 3 1 4 5 5 6 6 7 7 8 8
REMARK H PARENT
REMARK Flexibility Score: inf
ROOT
ATOM      1  C   UNL     1     169.099 165.447 168.908  1.00  0.00     0.075 C 
ENDROOT
BRANCH   1   2
ATOM      2  C   UNL     1     169.770 166.400 167.908  1.00  0.00     0.008 C 
BRANCH   2   3
ATOM      3  C   UNL     1     169.512 167.875 168.243  1.00  0.00    -0.003 C 
ATOM      4  C   UNL     1     170.566 168.414 169.205  1.00  0.00     0.004 C 
ENDBRANCH   2   3
ENDBRANCH   1   2
BRANCH   1   5
ATOM      5  C   UNL     1     167.923 164.715 168.308  1.00  0.00     0.132 C 
ATOM      6  O   UNL     1     168.044 163.540 167.994  1.00  0.00    -0.300 OA
BRANCH   5   7
ATOM      7  C   UNL     1     166.587 165.390 168.139  1.00  0.00     0.072 C 
ATOM      8  C   UNL     1     166.257 166.274 169.338  1.00  0.00     0.012 C 
ENDBRANCH   5   7
ENDBRANCH   1   5
TORSDOF 4
ENDMDL
MODEL 4
REMARK VINA RESULT:    -2.598      2.687      3.745
REMARK INTER + INTRA:          -3.558
REMARK INTER:                  -3.276
REMARK INTRA:                  -0.282
REMARK UNBOUND:                -0.353
REMARK SMILES CCCCC(=O)CC
REMARK SMILES IDX 4 1 3 2 2 3 1 4 5 5 6 6 7 7 8 8
REMARK H PARENT
REMARK Flexibility Score: inf
ROOT
ATOM      1  C   UNL     1     169.686 168.920 168.906  1.00  0.00     0.075 C 
ENDROOT
BRANCH   1   2
ATOM      2  C   UNL     1     168.740 169.738 168.016  1.00  0.00     0.008 C 
BRANCH   2   3
ATOM      3  C   UNL     1     167.509 170.244 168.780  1.00  0.00    -0.003 C 
ATOM      4  C   UNL     1     166.651 169.082 169.274  1.00  0.00     0.004 C 
ENDBRANCH   2   3
ENDBRANCH   1   2
BRANCH   1   5
ATOM      5  C   UNL     1     170.285 167.740 168.181  1.00  0.00     0.132 C 
ATOM      6  O   UNL     1     171.469 167.760 167.875  1.00  0.00    -0.300 OA
BRANCH   5   7
ATOM      7  C   UNL     1     169.466 166.513 167.875  1.00  0.00     0.072 C 
ATOM      8  C   UNL     1     169.113 165.751 169.149  1.00  0.00     0.012 C 
ENDBRANCH   5   7
ENDBRANCH   1   5
TORSDOF 4
ENDMDL
MODEL 5
REMARK VINA RESULT:    -2.583      3.159      3.975
REMARK INTER + INTRA:          -3.540
REMARK INTER:                  -3.192
REMARK INTRA:                  -0.347
REMARK UNBOUND:                -0.353
REMARK SMILES CCCCC(=O)CC
REMARK SMILES IDX 4 1 3 2 2 3 1 4 5 5 6 6 7 7 8 8
REMARK H PARENT
REMARK Flexibility Score: inf
ROOT
ATOM      1  C   UNL     1     166.449 166.345 169.627  1.00  0.00     0.075 C 
ENDROOT
BRANCH   1   2
ATOM      2  C   UNL     1     164.938 166.421 169.362  1.00  0.00     0.008 C 
BRANCH   2   3
ATOM      3  C   UNL     1     164.590 167.410 168.241  1.00  0.00    -0.003 C 
ATOM      4  C   UNL     1     165.375 168.710 168.392  1.00  0.00     0.004 C 
ENDBRANCH   2   3
ENDBRANCH   1   2
BRANCH   1   5
ATOM      5  C   UNL     1     167.159 165.430 168.660  1.00  0.00     0.132 C 
ATOM      6  O   UNL     1     166.586 164.432 168.246  1.00  0.00    -0.300 OA
BRANCH   5   7
ATOM      7  C   UNL     1     168.540 165.751 168.151  1.00  0.00     0.072 C 
ATOM      8  C   UNL     1     168.881 167.223 168.364  1.00  0.00     0.012 C 
ENDBRANCH   5   7
ENDBRANCH   1   5
TORSDOF 4
ENDMDL
MODEL 6
REMARK VINA RESULT:    -2.572      2.006      3.624
REMARK INTER + INTRA:          -3.526
REMARK INTER:                  -3.165
REMARK INTRA:                  -0.361
REMARK UNBOUND:                -0.353
REMARK SMILES CCCCC(=O)CC
REMARK SMILES IDX 4 1 3 2 2 3 1 4 5 5 6 6 7 7 8 8
REMARK H PARENT
REMARK Flexibility Score: inf
ROOT
ATOM      1  C   UNL     1     166.180 169.123 167.905  1.00  0.00     0.075 C 
ENDROOT
BRANCH   1   2
ATOM      2  C   UNL     1     167.262 169.515 168.921  1.00  0.00     0.008 C 
BRANCH   2   3
ATOM      3  C   UNL     1     168.680 169.353 168.357  1.00  0.00    -0.003 C 
ATOM      4  C   UNL     1     169.475 168.323 169.155  1.00  0.00     0.004 C 
ENDBRANCH   2   3
ENDBRANCH   1   2
BRANCH   1   5
ATOM      5  C   UNL     1     165.294 168.008 168.408  1.00  0.00     0.132 C 
ATOM      6  O   UNL     1     164.108 168.005 168.112  1.00  0.00    -0.300 OA
BRANCH   5   7
ATOM      7  C   UNL     1     165.855 166.870 169.220  1.00  0.00     0.072 C 
ATOM      8  C   UNL     1     166.522 165.828 168.327  1.00  0.00     0.012 C 
ENDBRANCH   5   7
ENDBRANCH   1   5
TORSDOF 4
ENDMDL
MODEL 7
REMARK VINA RESULT:    -2.536      1.751      2.761
REMARK INTER + INTRA:          -3.482
REMARK INTER:                  -3.180
REMARK INTRA:                  -0.302
REMARK UNBOUND:                -0.353
REMARK SMILES CCCCC(=O)CC
REMARK SMILES IDX 4 1 3 2 2 3 1 4 5 5 6 6 7 7 8 8
REMARK H PARENT
REMARK Flexibility Score: inf
ROOT
ATOM      1  C   UNL     1     167.617 169.375 168.016  1.00  0.00     0.075 C 
ENDROOT
BRANCH   1   2
ATOM      2  C   UNL     1     169.140 169.251 167.875  1.00  0.00     0.008 C 
BRANCH   2   3
ATOM      3  C   UNL     1     169.667 167.902 168.381  1.00  0.00    -0.003 C 
ATOM      4  C   UNL     1     168.526 166.913 168.602  1.00  0.00     0.004 C 
ENDBRANCH   2   3
ENDBRANCH   1   2
BRANCH   1   5
ATOM      5  C   UNL     1     167.199 170.685 168.640  1.00  0.00     0.132 C 
ATOM      6  O   UNL     1     167.379 171.726 168.026  1.00  0.00    -0.300 OA
BRANCH   5   7
ATOM      7  C   UNL     1     166.514 170.728 169.981  1.00  0.00     0.072 C 
ATOM      8  C   UNL     1     166.996 169.598 170.886  1.00  0.00     0.012 C 
ENDBRANCH   5   7
ENDBRANCH   1   5
TORSDOF 4
ENDMDL
MODEL 8
REMARK VINA RESULT:    -2.506      2.979      3.642
REMARK INTER + INTRA:          -3.446
REMARK INTER:                  -3.072
REMARK INTRA:                  -0.374
REMARK UNBOUND:                -0.353
REMARK SMILES CCCCC(=O)CC
REMARK SMILES IDX 4 1 3 2 2 3 1 4 5 5 6 6 7 7 8 8
REMARK H PARENT
REMARK Flexibility Score: inf
ROOT
ATOM      1  C   UNL     1     168.860 166.293 169.403  1.00  0.00     0.075 C 
ENDROOT
BRANCH   1   2
ATOM      2  C   UNL     1     168.016 165.191 168.748  1.00  0.00     0.008 C 
BRANCH   2   3
ATOM      3  C   UNL     1     166.883 165.758 167.883  1.00  0.00    -0.003 C 
ATOM      4  C   UNL     1     165.785 166.372 168.747  1.00  0.00     0.004 C 
ENDBRANCH   2   3
ENDBRANCH   1   2
BRANCH   1   5
ATOM      5  C   UNL     1     169.711 167.039 168.404  1.00  0.00     0.132 C 
ATOM      6  O   UNL     1     170.655 166.470 167.875  1.00  0.00    -0.300 OA
BRANCH   5   7
ATOM      7  C   UNL     1     169.386 168.455 168.004  1.00  0.00     0.072 C 
ATOM      8  C   UNL     1     168.324 169.059 168.919  1.00  0.00     0.012 C 
ENDBRANCH   5   7
ENDBRANCH   1   5
TORSDOF 4
ENDMDL
