MODEL 1
REMARK VINA RESULT:    -5.222      0.000      0.000
REMARK INTER + INTRA:          -5.623
REMARK INTER:                  -5.528
REMARK INTRA:                  -0.095
REMARK UNBOUND:                -0.095
REMARK SMILES C=C(C)[C@@H]1CC=C(C)C(=O)C1
REMARK SMILES IDX 8 1 7 2 6 3 5 4 4 5 11 6 9 7 10 8 2 9 1 10 3 11
REMARK H PARENT
REMARK Flexibility Score: inf
ROOT
ATOM      1  C   UNL     1     -26.796  10.896 -27.532  1.00  0.00     0.048 C 
ATOM      2  C   UNL     1     -27.529  11.907 -28.369  1.00  0.00    -0.012 C 
ATOM      3  C   UNL     1     -28.865  12.023 -28.273  1.00  0.00    -0.019 C 
ATOM      4  C   UNL     1     -29.633  13.074 -29.032  1.00  0.00     0.036 C 
ATOM      5  C   UNL     1     -28.941  13.416 -30.365  1.00  0.00     0.025 C 
ATOM      6  C   UNL     1     -27.477  13.827 -30.116  1.00  0.00     0.089 C 
ATOM      7  C   UNL     1     -26.769  12.794 -29.284  1.00  0.00     0.158 C 
ATOM      8  O   UNL     1     -25.511  12.718 -29.338  1.00  0.00    -0.295 OA
ENDROOT
BRANCH   5   9
ATOM      9  C   UNL     1     -29.701  14.487 -31.135  1.00  0.00    -0.077 C 
ATOM     10  C   UNL     1     -31.043  14.562 -31.088  1.00  0.00     0.008 C 
ATOM     11  C   UNL     1     -28.953  15.490 -31.974  1.00  0.00     0.039 C 
ENDBRANCH   5   9
TORSDOF 1
ENDMDL
MODEL 2
REMARK VINA RESULT:    -5.104      1.647      4.370
REMARK INTER + INTRA:          -5.498
REMARK INTER:                  -5.401
REMARK INTRA:                  -0.097
REMARK UNBOUND:                -0.095
REMARK SMILES C=C(C)[C@@H]1CC=C(C)C(=O)C1
REMARK SMILES IDX 8 1 7 2 6 3 5 4 4 5 11 6 9 7 10 8 2 9 1 10 3 11
REMARK H PARENT
REMARK Flexibility Score: inf
ROOT
ATOM      1  C   UNL     1     -31.124  14.781 -31.193  1.00  0.00     0.048 C 
ATOM      2  C   UNL     1     -29.983  13.979 -30.632  1.00  0.00    -0.012 C 
ATOM      3  C   UNL     1     -30.222  12.837 -29.965  1.00  0.00    -0.019 C 
ATOM      4  C   UNL     1     -29.108  11.960 -29.454  1.00  0.00     0.036 C 
ATOM      5  C   UNL     1     -27.862  12.793 -29.100  1.00  0.00     0.025 C 
ATOM      6  C   UNL     1     -27.428  13.646 -30.307  1.00  0.00     0.089 C 
ATOM      7  C   UNL     1     -28.588  14.442 -30.840  1.00  0.00     0.158 C 
ATOM      8  O   UNL     1     -28.361  15.487 -31.508  1.00  0.00    -0.295 OA
ENDROOT
BRANCH   5   9
ATOM      9  C   UNL     1     -26.724  11.916 -28.594  1.00  0.00    -0.077 C 
ATOM     10  C   UNL     1     -25.479  12.034 -29.087  1.00  0.00     0.008 C 
ATOM     11  C   UNL     1     -26.981  10.888 -27.523  1.00  0.00     0.039 C 
ENDBRANCH   5   9
TORSDOF 1
ENDMDL
MODEL 3
REMARK VINA RESULT:    -4.844      6.299      8.069
REMARK INTER + INTRA:          -5.223
REMARK INTER:                  -5.127
REMARK INTRA:                  -0.095
REMARK UNBOUND:                -0.095
REMARK SMILES C=C(C)[C@@H]1CC=C(C)C(=O)C1
REMARK SMILES IDX 8 1 7 2 6 3 5 4 4 5 11 6 9 7 10 8 2 9 1 10 3 11
REMARK H PARENT
REMARK Flexibility Score: inf
ROOT
ATOM      1  C   UNL     1     -29.789  19.221 -33.317  1.00  0.00     0.048 C 
ATOM      2  C   UNL     1     -28.329  19.089 -32.983  1.00  0.00    -0.012 C 
ATOM      3  C   UNL     1     -27.924  18.197 -32.063  1.00  0.00    -0.019 C 
ATOM      4  C   UNL     1     -26.467  17.973 -31.753  1.00  0.00     0.036 C 
ATOM      5  C   UNL     1     -25.648  19.261 -31.964  1.00  0.00     0.025 C 
ATOM      6  C   UNL     1     -25.866  19.804 -33.390  1.00  0.00     0.089 C 
ATOM      7  C   UNL     1     -27.334  19.933 -33.691  1.00  0.00     0.158 C 
ATOM      8  O   UNL     1     -27.709  20.735 -34.588  1.00  0.00    -0.295 OA
ENDROOT
BRANCH   5   9
ATOM      9  C   UNL     1     -24.171  19.045 -31.666  1.00  0.00    -0.077 C 
ATOM     10  C   UNL     1     -23.647  17.809 -31.587  1.00  0.00     0.008 C 
ATOM     11  C   UNL     1     -23.263  20.227 -31.448  1.00  0.00     0.039 C 
ENDBRANCH   5   9
TORSDOF 1
ENDMDL
MODEL 4
REMARK VINA RESULT:    -4.809      1.915      4.474
REMARK INTER + INTRA:          -5.185
REMARK INTER:                  -5.089
REMARK INTRA:                  -0.096
REMARK UNBOUND:                -0.095
REMARK SMILES C=C(C)[C@@H]1CC=C(C)C(=O)C1
REMARK SMILES IDX 8 1 7 2 6 3 5 4 4 5 11 6 9 7 10 8 2 9 1 10 3 11
REMARK H PARENT
REMARK Flexibility Score: inf
ROOT
ATOM      1  C   UNL     1     -31.117  14.075 -30.992  1.00  0.00     0.048 C 
ATOM      2  C   UNL     1     -29.704  13.875 -30.517  1.00  0.00    -0.012 C 
ATOM      3  C   UNL     1     -28.715  14.654 -30.990  1.00  0.00    -0.019 C 
ATOM      4  C   UNL     1     -27.300  14.544 -30.486  1.00  0.00     0.036 C 
ATOM      5  C   UNL     1     -26.978  13.105 -30.039  1.00  0.00     0.025 C 
ATOM      6  C   UNL     1     -28.008  12.626 -28.998  1.00  0.00     0.089 C 
ATOM      7  C   UNL     1     -29.409  12.831 -29.504  1.00  0.00     0.158 C 
ATOM      8  O   UNL     1     -30.344  12.134 -29.025  1.00  0.00    -0.295 OA
ENDROOT
BRANCH   5   9
ATOM      9  C   UNL     1     -25.553  12.985 -29.515  1.00  0.00    -0.077 C 
ATOM     10  C   UNL     1     -24.628  13.922 -29.783  1.00  0.00     0.008 C 
ATOM     11  C   UNL     1     -25.153  11.796 -28.680  1.00  0.00     0.039 C 
ENDBRANCH   5   9
TORSDOF 1
ENDMDL
MODEL 5
REMARK VINA RESULT:    -4.793      1.961      4.656
REMARK INTER + INTRA:          -5.169
REMARK INTER:                  -5.071
REMARK INTRA:                  -0.097
REMARK UNBOUND:                -0.095
REMARK SMILES C=C(C)[C@@H]1CC=C(C)C(=O)C1
REMARK SMILES IDX 8 1 7 2 6 3 5 4 4 5 11 6 9 7 10 8 2 9 1 10 3 11
REMARK H PARENT
REMARK Flexibility Score: inf
ROOT
ATOM      1  C   UNL     1     -29.553  15.376 -32.065  1.00  0.00     0.048 C 
ATOM      2  C   UNL     1     -28.951  14.491 -31.010  1.00  0.00    -0.012 C 
ATOM      3  C   UNL     1     -27.652  14.611 -30.686  1.00  0.00    -0.019 C 
ATOM      4  C   UNL     1     -27.024  13.801 -29.581  1.00  0.00     0.036 C 
ATOM      5  C   UNL     1     -27.714  12.432 -29.433  1.00  0.00     0.025 C 
ATOM      6  C   UNL     1     -29.231  12.616 -29.234  1.00  0.00     0.089 C 
ATOM      7  C   UNL     1     -29.804  13.499 -30.308  1.00  0.00     0.158 C 
ATOM      8  O   UNL     1     -31.033  13.420 -30.578  1.00  0.00    -0.295 OA
ENDROOT
BRANCH   5   9
ATOM      9  C   UNL     1     -27.097  11.609 -28.311  1.00  0.00    -0.077 C 
ATOM     10  C   UNL     1     -27.859  10.877 -27.480  1.00  0.00     0.008 C 
ATOM     11  C   UNL     1     -25.604  11.605 -28.109  1.00  0.00     0.039 C 
ENDBRANCH   5   9
TORSDOF 1
ENDMDL
MODEL 6
REMARK VINA RESULT:    -4.753      1.657      2.651
REMARK INTER + INTRA:          -5.126
REMARK INTER:                  -5.031
REMARK INTRA:                  -0.094
REMARK UNBOUND:                -0.095
REMARK SMILES C=C(C)[C@@H]1CC=C(C)C(=O)C1
REMARK SMILES IDX 8 1 7 2 6 3 5 4 4 5 11 6 9 7 10 8 2 9 1 10 3 11
REMARK H PARENT
REMARK Flexibility Score: inf
ROOT
ATOM      1  C   UNL     1     -29.426  11.654 -29.353  1.00  0.00     0.048 C 
ATOM      2  C   UNL     1     -29.552  12.935 -30.129  1.00  0.00    -0.012 C 
ATOM      3  C   UNL     1     -30.764  13.399 -30.476  1.00  0.00    -0.019 C 
ATOM      4  C   UNL     1     -30.945  14.717 -31.184  1.00  0.00     0.036 C 
ATOM      5  C   UNL     1     -29.731  15.040 -32.076  1.00  0.00     0.025 C 
ATOM      6  C   UNL     1     -28.432  14.993 -31.249  1.00  0.00     0.089 C 
ATOM      7  C   UNL     1     -28.331  13.698 -30.491  1.00  0.00     0.158 C 
ATOM      8  O   UNL     1     -27.197  13.288 -30.123  1.00  0.00    -0.295 OA
ENDROOT
BRANCH   5   9
ATOM      9  C   UNL     1     -29.895  16.376 -32.788  1.00  0.00    -0.077 C 
ATOM     10  C   UNL     1     -31.030  16.687 -33.438  1.00  0.00     0.008 C 
ATOM     11  C   UNL     1     -28.773  17.382 -32.776  1.00  0.00     0.039 C 
ENDBRANCH   5   9
TORSDOF 1
ENDMDL
MODEL 7
REMARK VINA RESULT:    -4.750      1.382      2.050
REMARK INTER + INTRA:          -5.122
REMARK INTER:                  -5.025
REMARK INTRA:                  -0.098
REMARK UNBOUND:                -0.095
REMARK SMILES C=C(C)[C@@H]1CC=C(C)C(=O)C1
REMARK SMILES IDX 8 1 7 2 6 3 5 4 4 5 11 6 9 7 10 8 2 9 1 10 3 11
REMARK H PARENT
REMARK Flexibility Score: inf
ROOT
ATOM      1  C   UNL     1     -25.460  11.337 -27.743  1.00  0.00     0.048 C 
ATOM      2  C   UNL     1     -26.475  12.003 -28.630  1.00  0.00    -0.012 C 
ATOM      3  C   UNL     1     -26.078  12.848 -29.597  1.00  0.00    -0.019 C 
ATOM      4  C   UNL     1     -27.052  13.477 -30.560  1.00  0.00     0.036 C 
ATOM      5  C   UNL     1     -28.432  13.676 -29.905  1.00  0.00     0.025 C 
ATOM      6  C   UNL     1     -28.951  12.342 -29.336  1.00  0.00     0.089 C 
ATOM      7  C   UNL     1     -27.918  11.705 -28.449  1.00  0.00     0.158 C 
ATOM      8  O   UNL     1     -28.286  10.875 -27.574  1.00  0.00    -0.295 OA
ENDROOT
BRANCH   5   9
ATOM      9  C   UNL     1     -29.429  14.299 -30.873  1.00  0.00    -0.077 C 
ATOM     10  C   UNL     1     -30.731  13.967 -30.845  1.00  0.00     0.008 C 
ATOM     11  C   UNL     1     -28.965  15.309 -31.891  1.00  0.00     0.039 C 
ENDBRANCH   5   9
TORSDOF 1
ENDMDL
MODEL 8
REMARK VINA RESULT:    -4.741      6.333      8.253
REMARK INTER + INTRA:          -5.113
REMARK INTER:                  -5.019
REMARK INTRA:                  -0.094
REMARK UNBOUND:                -0.095
REMARK SMILES C=C(C)[C@@H]1CC=C(C)C(=O)C1
REMARK SMILES IDX 8 1 7 2 6 3 5 4 4 5 11 6 9 7 10 8 2 9 1 10 3 11
REMARK H PARENT
REMARK Flexibility Score: inf
ROOT
ATOM      1  C   UNL     1     -30.507  19.474 -33.851  1.00  0.00     0.048 C 
ATOM      2  C   UNL     1     -29.066  19.559 -33.429  1.00  0.00    -0.012 C 
ATOM      3  C   UNL     1     -28.378  20.701 -33.599  1.00  0.00    -0.019 C 
ATOM      4  C   UNL     1     -26.958  20.859 -33.120  1.00  0.00     0.036 C 
ATOM      5  C   UNL     1     -26.206  19.514 -33.154  1.00  0.00     0.025 C 
ATOM      6  C   UNL     1     -26.979  18.450 -32.352  1.00  0.00     0.089 C 
ATOM      7  C   UNL     1     -28.413  18.383 -32.801  1.00  0.00     0.158 C 
ATOM      8  O   UNL     1     -29.072  17.328 -32.598  1.00  0.00    -0.295 OA
ENDROOT
BRANCH   5   9
ATOM      9  C   UNL     1     -24.773  19.658 -32.660  1.00  0.00    -0.077 C 
ATOM     10  C   UNL     1     -23.973  20.639 -33.112  1.00  0.00     0.008 C 
ATOM     11  C   UNL     1     -24.222  18.689 -31.646  1.00  0.00     0.039 C 
ENDBRANCH   5   9
TORSDOF 1
ENDMDL
MODEL 9
REMARK VINA RESULT:    -4.637      1.571      3.064
REMARK INTER + INTRA:          -5.004
REMARK INTER:                  -4.908
REMARK INTRA:                  -0.096
REMARK UNBOUND:                -0.095
REMARK SMILES C=C(C)[C@@H]1CC=C(C)C(=O)C1
REMARK SMILES IDX 8 1 7 2 6 3 5 4 4 5 11 6 9 7 10 8 2 9 1 10 3 11
REMARK H PARENT
REMARK Flexibility Score: inf
ROOT
ATOM      1  C   UNL     1     -24.027  14.754 -30.130  1.00  0.00     0.048 C 
ATOM      2  C   UNL     1     -25.439  14.236 -30.089  1.00  0.00    -0.012 C 
ATOM      3  C   UNL     1     -26.461  15.031 -30.447  1.00  0.00    -0.019 C 
ATOM      4  C   UNL     1     -27.882  14.534 -30.499  1.00  0.00     0.036 C 
ATOM      5  C   UNL     1     -28.121  13.421 -29.460  1.00  0.00     0.025 C 
ATOM      6  C   UNL     1     -27.096  12.286 -29.648  1.00  0.00     0.089 C 
ATOM      7  C   UNL     1     -25.695  12.833 -29.676  1.00  0.00     0.158 C 
ATOM      8  O   UNL     1     -24.732  12.073 -29.388  1.00  0.00    -0.295 OA
ENDROOT
BRANCH   5   9
ATOM      9  C   UNL     1     -29.551  12.900 -29.511  1.00  0.00    -0.077 C 
ATOM     10  C   UNL     1     -29.982  11.957 -28.656  1.00  0.00     0.008 C 
ATOM     11  C   UNL     1     -30.515  13.440 -30.535  1.00  0.00     0.039 C 
ENDBRANCH   5   9
TORSDOF 1
ENDMDL
