MODEL 1
REMARK VINA RESULT:    75.354      0.000      0.000
REMARK INTER + INTRA:         108.742
REMARK INTER:                 108.393
REMARK INTRA:                   0.350
REMARK UNBOUND:                 0.350
REMARK SMILES O=c1cc(-c2ccc(O)c(O)c2)oc2cc(O[C@H]3O[C@@H](CO)[C@@H](O)[C@H](O)[C@@H]3O)cc(O)c12
REMARK SMILES IDX 17 1 16 2 4 3 3 4 13 5 2 6 14 7 1 8 32 9 15 10 30 11 29 12
REMARK SMILES IDX 5 13 6 14 7 15 8 16 12 17 10 18 9 19 11 21 31 23 18 25 27 26
REMARK SMILES IDX 19 27 25 28 20 29 23 30 28 31 26 33 21 35 22 36 24 38
REMARK H PARENT 9 20 11 22 31 24 28 32 26 34 22 37 24 39
REMARK Flexibility Score: inf
ROOT
ATOM      1  O   UNL     1     -35.394  29.149 -17.451  1.00  0.00    -0.462 OA
ENDROOT
BRANCH   1   2
ATOM      2  C   UNL     1     -35.817  29.079 -18.788  1.00  0.00     0.130 A 
ATOM      3  C   UNL     1     -39.756  29.498 -21.337  1.00  0.00     0.138 A 
ATOM      4  C   UNL     1     -39.553  28.242 -21.921  1.00  0.00     0.100 A 
ATOM      5  O   UNL     1     -38.811  30.039 -20.567  1.00  0.00    -0.456 OA
ATOM      6  C   UNL     1     -38.383  27.551 -21.655  1.00  0.00     0.197 A 
ATOM      7  C   UNL     1     -37.665  29.419 -20.307  1.00  0.00     0.146 A 
ATOM      8  O   UNL     1     -38.349  26.320 -21.892  1.00  0.00    -0.289 OA
ATOM      9  C   UNL     1     -37.357  28.189 -20.936  1.00  0.00     0.107 A 
ATOM     10  C   UNL     1     -36.869  29.875 -19.241  1.00  0.00     0.094 A 
ATOM     11  C   UNL     1     -36.121  27.566 -20.659  1.00  0.00     0.134 A 
ATOM     12  C   UNL     1     -35.335  28.047 -19.608  1.00  0.00     0.093 A 
BRANCH   3  13
ATOM     13  C   UNL     1     -41.054  30.180 -21.477  1.00  0.00     0.021 A 
ATOM     14  C   UNL     1     -41.467  31.140 -20.541  1.00  0.00     0.016 A 
ATOM     15  C   UNL     1     -42.709  31.771 -20.692  1.00  0.00     0.051 A 
ATOM     16  C   UNL     1     -43.515  31.490 -21.805  1.00  0.00     0.157 A 
ATOM     17  C   UNL     1     -41.858  29.904 -22.590  1.00  0.00     0.062 A 
ATOM     18  C   UNL     1     -43.095  30.532 -22.746  1.00  0.00     0.158 A 
BRANCH  16  19
ATOM     19  O   UNL     1     -44.734  32.146 -21.973  1.00  0.00    -0.504 OA
ATOM     20  H   UNL     1     -45.312  31.999 -22.799  1.00  0.00     0.293 HD
ENDBRANCH  16  19
BRANCH  18  21
ATOM     21  O   UNL     1     -43.924  30.144 -23.809  1.00  0.00    -0.504 OA
ATOM     22  H   UNL     1     -44.813  29.663 -23.642  1.00  0.00     0.293 HD
ENDBRANCH  18  21
ENDBRANCH   3  13
BRANCH  11  23
ATOM     23  O   UNL     1     -35.716  26.441 -21.378  1.00  0.00    -0.507 OA
ATOM     24  H   UNL     1     -34.888  26.453 -21.970  1.00  0.00     0.293 HD
ENDBRANCH  11  23
ENDBRANCH   1   2
BRANCH   1  25
ATOM     25  C   UNL     1     -34.226  29.928 -17.106  1.00  0.00     0.339 C 
ATOM     26  C   UNL     1     -33.377  30.239 -18.383  1.00  0.00     0.214 C 
ATOM     27  O   UNL     1     -33.512  29.229 -16.090  1.00  0.00    -0.332 OA
ATOM     28  C   UNL     1     -32.386  29.083 -18.572  1.00  0.00     0.180 C 
ATOM     29  C   UNL     1     -32.129  29.512 -16.039  1.00  0.00     0.179 C 
ATOM     30  C   UNL     1     -31.436  29.010 -17.347  1.00  0.00     0.177 C 
BRANCH  26  31
ATOM     31  O   UNL     1     -32.637  31.423 -18.218  1.00  0.00    -0.384 OA
ATOM     32  H   UNL     1     -31.759  31.324 -18.677  1.00  0.00     0.211 HD
ENDBRANCH  26  31
BRANCH  28  33
ATOM     33  O   UNL     1     -31.659  29.247 -19.756  1.00  0.00    -0.387 OA
ATOM     34  H   UNL     1     -30.873  29.819 -19.518  1.00  0.00     0.211 HD
ENDBRANCH  28  33
BRANCH  29  35
ATOM     35  C   UNL     1     -31.518  28.928 -14.731  1.00  0.00     0.191 C 
BRANCH  35  36
ATOM     36  O   UNL     1     -31.008  27.640 -14.960  1.00  0.00    -0.394 OA
ATOM     37  H   UNL     1     -31.726  27.127 -15.430  1.00  0.00     0.210 HD
ENDBRANCH  35  36
ENDBRANCH  29  35
BRANCH  30  38
ATOM     38  O   UNL     1     -30.995  27.685 -17.226  1.00  0.00    -0.387 OA
ATOM     39  H   UNL     1     -30.044  27.717 -16.915  1.00  0.00     0.211 HD
ENDBRANCH  30  38
ENDBRANCH   1  25
TORSDOF 11
ENDMDL
MODEL 2
REMARK VINA RESULT:    76.156     10.393     11.808
REMARK INTER + INTRA:         109.897
REMARK INTER:                 110.486
REMARK INTRA:                  -0.589
REMARK UNBOUND:                 0.350
REMARK SMILES O=c1cc(-c2ccc(O)c(O)c2)oc2cc(O[C@H]3O[C@@H](CO)[C@@H](O)[C@H](O)[C@@H]3O)cc(O)c12
REMARK SMILES IDX 17 1 16 2 4 3 3 4 13 5 2 6 14 7 1 8 32 9 15 10 30 11 29 12
REMARK SMILES IDX 5 13 6 14 7 15 8 16 12 17 10 18 9 19 11 21 31 23 18 25 27 26
REMARK SMILES IDX 19 27 25 28 20 29 23 30 28 31 26 33 21 35 22 36 24 38
REMARK H PARENT 9 20 11 22 31 24 28 32 26 34 22 37 24 39
REMARK Flexibility Score: inf
ROOT
ATOM      1  O   UNL     1     -39.297  27.350  -8.493  1.00  0.00    -0.462 OA
ENDROOT
BRANCH   1   2
ATOM      2  C   UNL     1     -40.180  26.305  -8.814  1.00  0.00     0.130 A 
ATOM      3  C   UNL     1     -42.223  24.357 -12.584  1.00  0.00     0.138 A 
ATOM      4  C   UNL     1     -43.493  24.505 -12.014  1.00  0.00     0.100 A 
ATOM      5  O   UNL     1     -41.132  24.619 -11.864  1.00  0.00    -0.456 OA
ATOM      6  C   UNL     1     -43.605  24.968 -10.715  1.00  0.00     0.197 A 
ATOM      7  C   UNL     1     -41.196  25.043 -10.606  1.00  0.00     0.146 A 
ATOM      8  O   UNL     1     -44.714  25.414 -10.333  1.00  0.00    -0.289 OA
ATOM      9  C   UNL     1     -42.442  25.128  -9.941  1.00  0.00     0.107 A 
ATOM     10  C   UNL     1     -40.053  25.616 -10.019  1.00  0.00     0.094 A 
ATOM     11  C   UNL     1     -42.476  25.558  -8.597  1.00  0.00     0.134 A 
ATOM     12  C   UNL     1     -41.324  26.107  -8.026  1.00  0.00     0.093 A 
BRANCH   3  13
ATOM     13  C   UNL     1     -42.085  24.017 -14.010  1.00  0.00     0.021 A 
ATOM     14  C   UNL     1     -41.133  24.662 -14.814  1.00  0.00     0.016 A 
ATOM     15  C   UNL     1     -41.024  24.327 -16.170  1.00  0.00     0.051 A 
ATOM     16  C   UNL     1     -41.821  23.310 -16.714  1.00  0.00     0.157 A 
ATOM     17  C   UNL     1     -42.876  22.999 -14.554  1.00  0.00     0.062 A 
ATOM     18  C   UNL     1     -42.769  22.659 -15.904  1.00  0.00     0.158 A 
BRANCH  16  19
ATOM     19  O   UNL     1     -41.685  22.952 -18.056  1.00  0.00    -0.504 OA
ATOM     20  H   UNL     1     -42.405  22.422 -18.543  1.00  0.00     0.293 HD
ENDBRANCH  16  19
BRANCH  18  21
ATOM     21  O   UNL     1     -43.660  21.717 -16.440  1.00  0.00    -0.504 OA
ATOM     22  H   UNL     1     -44.589  21.992 -16.772  1.00  0.00     0.293 HD
ENDBRANCH  18  21
ENDBRANCH   3  13
BRANCH  11  23
ATOM     23  O   UNL     1     -43.662  25.503  -7.863  1.00  0.00    -0.507 OA
ATOM     24  H   UNL     1     -43.688  25.132  -6.915  1.00  0.00     0.293 HD
ENDBRANCH  11  23
ENDBRANCH   1   2
BRANCH   1  25
ATOM     25  C   UNL     1     -38.490  27.269  -7.297  1.00  0.00     0.339 C 
ATOM     26  C   UNL     1     -39.309  27.740  -6.049  1.00  0.00     0.214 C 
ATOM     27  O   UNL     1     -37.294  28.010  -7.519  1.00  0.00    -0.332 OA
ATOM     28  C   UNL     1     -39.117  29.256  -5.916  1.00  0.00     0.180 C 
ATOM     29  C   UNL     1     -36.683  28.511  -6.349  1.00  0.00     0.179 C 
ATOM     30  C   UNL     1     -37.617  29.569  -5.675  1.00  0.00     0.177 C 
BRANCH  26  31
ATOM     31  O   UNL     1     -38.827  27.136  -4.875  1.00  0.00    -0.384 OA
ATOM     32  H   UNL     1     -39.546  26.571  -4.481  1.00  0.00     0.211 HD
ENDBRANCH  26  31
BRANCH  28  33
ATOM     33  O   UNL     1     -39.904  29.762  -4.876  1.00  0.00    -0.387 OA
ATOM     34  H   UNL     1     -39.941  29.040  -4.184  1.00  0.00     0.211 HD
ENDBRANCH  28  33
BRANCH  29  35
ATOM     35  C   UNL     1     -35.257  29.042  -6.683  1.00  0.00     0.191 C 
BRANCH  35  36
ATOM     36  O   UNL     1     -35.324  30.047  -7.660  1.00  0.00    -0.394 OA
ATOM     37  H   UNL     1     -34.428  30.078  -8.101  1.00  0.00     0.210 HD
ENDBRANCH  35  36
ENDBRANCH  29  35
BRANCH  30  38
ATOM     38  O   UNL     1     -37.367  30.863  -6.154  1.00  0.00    -0.387 OA
ATOM     39  H   UNL     1     -37.757  30.919  -7.074  1.00  0.00     0.211 HD
ENDBRANCH  30  38
ENDBRANCH   1  25
TORSDOF 11
ENDMDL
MODEL 3
REMARK VINA RESULT:    77.443      3.477      6.897
REMARK INTER + INTRA:         111.748
REMARK INTER:                 111.783
REMARK INTRA:                  -0.035
REMARK UNBOUND:                 0.350
REMARK SMILES O=c1cc(-c2ccc(O)c(O)c2)oc2cc(O[C@H]3O[C@@H](CO)[C@@H](O)[C@H](O)[C@@H]3O)cc(O)c12
REMARK SMILES IDX 17 1 16 2 4 3 3 4 13 5 2 6 14 7 1 8 32 9 15 10 30 11 29 12
REMARK SMILES IDX 5 13 6 14 7 15 8 16 12 17 10 18 9 19 11 21 31 23 18 25 27 26
REMARK SMILES IDX 19 27 25 28 20 29 23 30 28 31 26 33 21 35 22 36 24 38
REMARK H PARENT 9 20 11 22 31 24 28 32 26 34 22 37 24 39
REMARK Flexibility Score: inf
ROOT
ATOM      1  O   UNL     1     -31.088  26.914 -14.209  1.00  0.00    -0.462 OA
ENDROOT
BRANCH   1   2
ATOM      2  C   UNL     1     -31.064  28.063 -15.016  1.00  0.00     0.130 A 
ATOM      3  C   UNL     1     -33.699  30.230 -18.264  1.00  0.00     0.138 A 
ATOM      4  C   UNL     1     -32.628  30.257 -19.164  1.00  0.00     0.100 A 
ATOM      5  O   UNL     1     -33.506  29.832 -17.006  1.00  0.00    -0.456 OA
ATOM      6  C   UNL     1     -31.381  29.825 -18.748  1.00  0.00     0.197 A 
ATOM      7  C   UNL     1     -32.320  29.432 -16.561  1.00  0.00     0.146 A 
ATOM      8  O   UNL     1     -30.527  29.534 -19.621  1.00  0.00    -0.289 OA
ATOM      9  C   UNL     1     -31.176  29.520 -17.391  1.00  0.00     0.107 A 
ATOM     10  C   UNL     1     -32.249  28.718 -15.351  1.00  0.00     0.094 A 
ATOM     11  C   UNL     1     -29.925  29.111 -16.882  1.00  0.00     0.134 A 
ATOM     12  C   UNL     1     -29.874  28.420 -15.669  1.00  0.00     0.093 A 
BRANCH   3  13
ATOM     13  C   UNL     1     -35.064  30.534 -18.725  1.00  0.00     0.021 A 
ATOM     14  C   UNL     1     -35.964  29.504 -19.039  1.00  0.00     0.016 A 
ATOM     15  C   UNL     1     -37.255  29.818 -19.482  1.00  0.00     0.051 A 
ATOM     16  C   UNL     1     -37.672  31.155 -19.559  1.00  0.00     0.157 A 
ATOM     17  C   UNL     1     -35.483  31.868 -18.798  1.00  0.00     0.062 A 
ATOM     18  C   UNL     1     -36.770  32.186 -19.237  1.00  0.00     0.158 A 
BRANCH  16  19
ATOM     19  O   UNL     1     -38.970  31.464 -19.966  1.00  0.00    -0.504 OA
ATOM     20  H   UNL     1     -39.248  32.419 -20.186  1.00  0.00     0.293 HD
ENDBRANCH  16  19
BRANCH  18  21
ATOM     21  O   UNL     1     -37.115  33.535 -19.409  1.00  0.00    -0.504 OA
ATOM     22  H   UNL     1     -38.052  33.809 -19.716  1.00  0.00     0.293 HD
ENDBRANCH  18  21
ENDBRANCH   3  13
BRANCH  11  23
ATOM     23  O   UNL     1     -28.756  29.330 -17.612  1.00  0.00    -0.507 OA
ATOM     24  H   UNL     1     -28.764  29.831 -18.498  1.00  0.00     0.293 HD
ENDBRANCH  11  23
ENDBRANCH   1   2
BRANCH   1  25
ATOM     25  C   UNL     1     -30.383  25.724 -14.630  1.00  0.00     0.339 C 
ATOM     26  C   UNL     1     -29.185  25.426 -13.669  1.00  0.00     0.214 C 
ATOM     27  O   UNL     1     -30.005  25.893 -15.994  1.00  0.00    -0.332 OA
ATOM     28  C   UNL     1     -27.962  26.180 -14.206  1.00  0.00     0.180 C 
ATOM     29  C   UNL     1     -28.874  25.147 -16.390  1.00  0.00     0.179 C 
ATOM     30  C   UNL     1     -27.609  25.652 -15.622  1.00  0.00     0.177 C 
BRANCH  26  31
ATOM     31  O   UNL     1     -28.879  24.055 -13.658  1.00  0.00    -0.384 OA
ATOM     32  H   UNL     1     -28.951  23.698 -14.585  1.00  0.00     0.211 HD
ENDBRANCH  26  31
BRANCH  28  33
ATOM     33  O   UNL     1     -26.875  26.039 -13.337  1.00  0.00    -0.387 OA
ATOM     34  H   UNL     1     -26.070  26.332 -13.855  1.00  0.00     0.211 HD
ENDBRANCH  28  33
BRANCH  29  35
ATOM     35  C   UNL     1     -28.733  25.184 -17.941  1.00  0.00     0.191 C 
BRANCH  35  36
ATOM     36  O   UNL     1     -27.562  24.522 -18.343  1.00  0.00    -0.394 OA
ATOM     37  H   UNL     1     -27.757  24.108 -19.231  1.00  0.00     0.210 HD
ENDBRANCH  35  36
ENDBRANCH  29  35
BRANCH  30  38
ATOM     38  O   UNL     1     -26.957  26.683 -16.314  1.00  0.00    -0.387 OA
ATOM     39  H   UNL     1     -26.555  26.279 -17.137  1.00  0.00     0.211 HD
ENDBRANCH  30  38
ENDBRANCH   1  25
TORSDOF 11
ENDMDL
MODEL 4
REMARK VINA RESULT:    77.573      7.158      9.697
REMARK INTER + INTRA:         111.935
REMARK INTER:                 111.928
REMARK INTRA:                   0.008
REMARK UNBOUND:                 0.350
REMARK SMILES O=c1cc(-c2ccc(O)c(O)c2)oc2cc(O[C@H]3O[C@@H](CO)[C@@H](O)[C@H](O)[C@@H]3O)cc(O)c12
REMARK SMILES IDX 17 1 16 2 4 3 3 4 13 5 2 6 14 7 1 8 32 9 15 10 30 11 29 12
REMARK SMILES IDX 5 13 6 14 7 15 8 16 12 17 10 18 9 19 11 21 31 23 18 25 27 26
REMARK SMILES IDX 19 27 25 28 20 29 23 30 28 31 26 33 21 35 22 36 24 38
REMARK H PARENT 9 20 11 22 31 24 28 32 26 34 22 37 24 39
REMARK Flexibility Score: inf
ROOT
ATOM      1  O   UNL     1     -31.675  34.233 -17.208  1.00  0.00    -0.462 OA
ENDROOT
BRANCH   1   2
ATOM      2  C   UNL     1     -31.987  32.963 -17.722  1.00  0.00     0.130 A 
ATOM      3  C   UNL     1     -30.834  28.442 -17.080  1.00  0.00     0.138 A 
ATOM      4  C   UNL     1     -30.515  28.296 -18.435  1.00  0.00     0.100 A 
ATOM      5  O   UNL     1     -31.408  29.564 -16.645  1.00  0.00    -0.456 OA
ATOM      6  C   UNL     1     -30.760  29.341 -19.307  1.00  0.00     0.197 A 
ATOM      7  C   UNL     1     -31.683  30.582 -17.454  1.00  0.00     0.146 A 
ATOM      8  O   UNL     1     -30.179  29.342 -20.419  1.00  0.00    -0.289 OA
ATOM      9  C   UNL     1     -31.470  30.466 -18.849  1.00  0.00     0.107 A 
ATOM     10  C   UNL     1     -31.969  31.841 -16.896  1.00  0.00     0.094 A 
ATOM     11  C   UNL     1     -31.794  31.555 -19.686  1.00  0.00     0.134 A 
ATOM     12  C   UNL     1     -32.095  32.792 -19.111  1.00  0.00     0.093 A 
BRANCH   3  13
ATOM     13  C   UNL     1     -30.438  27.408 -16.109  1.00  0.00     0.021 A 
ATOM     14  C   UNL     1     -30.877  27.466 -14.777  1.00  0.00     0.016 A 
ATOM     15  C   UNL     1     -30.483  26.474 -13.870  1.00  0.00     0.051 A 
ATOM     16  C   UNL     1     -29.700  25.393 -14.299  1.00  0.00     0.157 A 
ATOM     17  C   UNL     1     -29.660  26.325 -16.536  1.00  0.00     0.062 A 
ATOM     18  C   UNL     1     -29.267  25.333 -15.637  1.00  0.00     0.158 A 
BRANCH  16  19
ATOM     19  O   UNL     1     -29.339  24.387 -13.402  1.00  0.00    -0.504 OA
ATOM     20  H   UNL     1     -29.140  24.588 -12.424  1.00  0.00     0.293 HD
ENDBRANCH  16  19
BRANCH  18  21
ATOM     21  O   UNL     1     -28.391  24.328 -16.074  1.00  0.00    -0.504 OA
ATOM     22  H   UNL     1     -27.658  24.524 -16.762  1.00  0.00     0.293 HD
ENDBRANCH  18  21
ENDBRANCH   3  13
BRANCH  11  23
ATOM     23  O   UNL     1     -31.748  31.422 -21.075  1.00  0.00    -0.507 OA
ATOM     24  H   UNL     1     -31.069  31.929 -21.639  1.00  0.00     0.293 HD
ENDBRANCH  11  23
ENDBRANCH   1   2
BRANCH   1  25
ATOM     25  C   UNL     1     -30.854  34.347 -16.024  1.00  0.00     0.339 C 
ATOM     26  C   UNL     1     -29.359  34.600 -16.415  1.00  0.00     0.214 C 
ATOM     27  O   UNL     1     -31.057  33.182 -15.230  1.00  0.00    -0.332 OA
ATOM     28  C   UNL     1     -28.688  33.230 -16.586  1.00  0.00     0.180 C 
ATOM     29  C   UNL     1     -29.978  32.850 -14.381  1.00  0.00     0.179 C 
ATOM     30  C   UNL     1     -28.729  32.463 -15.238  1.00  0.00     0.177 C 
BRANCH  26  31
ATOM     31  O   UNL     1     -28.683  35.290 -15.394  1.00  0.00    -0.384 OA
ATOM     32  H   UNL     1     -29.186  36.121 -15.175  1.00  0.00     0.211 HD
ENDBRANCH  26  31
BRANCH  28  33
ATOM     33  O   UNL     1     -27.372  33.380 -17.034  1.00  0.00    -0.387 OA
ATOM     34  H   UNL     1     -27.144  32.527 -17.504  1.00  0.00     0.211 HD
ENDBRANCH  28  33
BRANCH  29  35
ATOM     35  C   UNL     1     -30.420  31.751 -13.369  1.00  0.00     0.191 C 
BRANCH  35  36
ATOM     36  O   UNL     1     -31.550  32.173 -12.651  1.00  0.00    -0.394 OA
ATOM     37  H   UNL     1     -31.568  31.640 -11.806  1.00  0.00     0.210 HD
ENDBRANCH  35  36
ENDBRANCH  29  35
BRANCH  30  38
ATOM     38  O   UNL     1     -28.701  31.090 -15.526  1.00  0.00    -0.387 OA
ATOM     39  H   UNL     1     -27.747  30.845 -15.705  1.00  0.00     0.211 HD
ENDBRANCH  30  38
ENDBRANCH   1  25
TORSDOF 11
ENDMDL
