MODEL 1
REMARK VINA RESULT:    -4.444      0.000      0.000
REMARK INTER + INTRA:          -4.574
REMARK INTER:                  -4.574
REMARK INTRA:                   0.000
REMARK UNBOUND:                 0.000
REMARK SMILES Nc1ncnc2nc[nH]c12
REMARK SMILES IDX 8 1 7 2 6 3 5 4 4 5 3 6 2 7 10 8 9 9 1 11
REMARK H PARENT 9 10 1 12 1 13
REMARK Flexibility Score: inf
ROOT
ATOM      1  C   UNL     1      11.319  -2.978  31.327  1.00  0.00     0.199 A 
ATOM      2  N   UNL     1      12.411  -2.227  31.015  1.00  0.00    -0.217 NA
ATOM      3  C   UNL     1      12.157  -1.867  29.747  1.00  0.00     0.182 A 
ATOM      4  N   UNL     1      12.943  -1.100  28.953  1.00  0.00    -0.215 NA
ATOM      5  C   UNL     1      12.513  -0.839  27.680  1.00  0.00     0.226 A 
ATOM      6  N   UNL     1      11.321  -1.345  27.230  1.00  0.00    -0.217 NA
ATOM      7  C   UNL     1      10.528  -2.118  28.030  1.00  0.00     0.152 A 
ATOM      8  C   UNL     1      10.977  -2.375  29.322  1.00  0.00     0.127 A 
ATOM      9  N   UNL     1      10.425  -3.087  30.312  1.00  0.00    -0.340 N 
ATOM     10  H   UNL     1       9.519  -3.607  30.315  1.00  0.00     0.168 HD
ENDROOT
BRANCH   7  11
ATOM     11  N   UNL     1       9.289  -2.633  27.540  1.00  0.00    -0.382 N 
ATOM     12  H   UNL     1       8.377  -2.335  27.948  1.00  0.00     0.158 HD
ATOM     13  H   UNL     1       9.284  -3.324  26.757  1.00  0.00     0.158 HD
ENDBRANCH   7  11
TORSDOF 1
ENDMDL
MODEL 2
REMARK VINA RESULT:    -4.442      0.633      2.851
REMARK INTER + INTRA:          -4.572
REMARK INTER:                  -4.572
REMARK INTRA:                   0.000
REMARK UNBOUND:                 0.000
REMARK SMILES Nc1ncnc2nc[nH]c12
REMARK SMILES IDX 8 1 7 2 6 3 5 4 4 5 3 6 2 7 10 8 9 9 1 11
REMARK H PARENT 9 10 1 12 1 13
REMARK Flexibility Score: inf
ROOT
ATOM      1  C   UNL     1      12.449  -0.781  27.416  1.00  0.00     0.199 A 
ATOM      2  N   UNL     1      13.006  -0.909  28.652  1.00  0.00    -0.217 NA
ATOM      3  C   UNL     1      12.179  -1.782  29.249  1.00  0.00     0.182 A 
ATOM      4  N   UNL     1      12.282  -2.258  30.513  1.00  0.00    -0.215 NA
ATOM      5  C   UNL     1      11.337  -3.146  30.947  1.00  0.00     0.226 A 
ATOM      6  N   UNL     1      10.316  -3.537  30.119  1.00  0.00    -0.217 NA
ATOM      7  C   UNL     1      10.211  -3.058  28.844  1.00  0.00     0.152 A 
ATOM      8  C   UNL     1      11.180  -2.156  28.416  1.00  0.00     0.127 A 
ATOM      9  N   UNL     1      11.331  -1.530  27.242  1.00  0.00    -0.340 N 
ATOM     10  H   UNL     1      10.737  -1.596  26.386  1.00  0.00     0.168 HD
ENDROOT
BRANCH   7  11
ATOM     11  N   UNL     1       9.140  -3.480  27.999  1.00  0.00    -0.382 N 
ATOM     12  H   UNL     1       8.153  -3.499  28.339  1.00  0.00     0.158 HD
ATOM     13  H   UNL     1       9.334  -3.779  27.018  1.00  0.00     0.158 HD
ENDBRANCH   7  11
TORSDOF 1
ENDMDL
MODEL 3
REMARK VINA RESULT:    -4.411     12.764     14.494
REMARK INTER + INTRA:          -4.540
REMARK INTER:                  -4.540
REMARK INTRA:                   0.000
REMARK UNBOUND:                 0.000
REMARK SMILES Nc1ncnc2nc[nH]c12
REMARK SMILES IDX 8 1 7 2 6 3 5 4 4 5 3 6 2 7 10 8 9 9 1 11
REMARK H PARENT 9 10 1 12 1 13
REMARK Flexibility Score: inf
ROOT
ATOM      1  C   UNL     1       5.792   8.852  18.213  1.00  0.00     0.199 A 
ATOM      2  N   UNL     1       7.024   8.698  17.657  1.00  0.00    -0.217 NA
ATOM      3  C   UNL     1       7.623   7.858  18.517  1.00  0.00     0.182 A 
ATOM      4  N   UNL     1       8.886   7.375  18.427  1.00  0.00    -0.215 NA
ATOM      5  C   UNL     1       9.321   6.525  19.407  1.00  0.00     0.226 A 
ATOM      6  N   UNL     1       8.497   6.178  20.446  1.00  0.00    -0.217 NA
ATOM      7  C   UNL     1       7.223   6.664  20.538  1.00  0.00     0.152 A 
ATOM      8  C   UNL     1       6.793   7.528  19.534  1.00  0.00     0.127 A 
ATOM      9  N   UNL     1       5.621   8.150  19.362  1.00  0.00    -0.340 N 
ATOM     10  H   UNL     1       4.767   8.111  19.962  1.00  0.00     0.168 HD
ENDROOT
BRANCH   7  11
ATOM     11  N   UNL     1       6.382   6.289  21.629  1.00  0.00    -0.382 N 
ATOM     12  H   UNL     1       6.695   5.596  22.344  1.00  0.00     0.158 HD
ATOM     13  H   UNL     1       5.431   6.708  21.724  1.00  0.00     0.158 HD
ENDBRANCH   7  11
TORSDOF 1
ENDMDL
MODEL 4
REMARK VINA RESULT:    -4.319     13.375     15.024
REMARK INTER + INTRA:          -4.445
REMARK INTER:                  -4.445
REMARK INTRA:                   0.000
REMARK UNBOUND:                 0.000
REMARK SMILES Nc1ncnc2nc[nH]c12
REMARK SMILES IDX 8 1 7 2 6 3 5 4 4 5 3 6 2 7 10 8 9 9 1 11
REMARK H PARENT 9 10 1 12 1 13
REMARK Flexibility Score: inf
ROOT
ATOM      1  C   UNL     1       9.353   4.189  17.642  1.00  0.00     0.199 A 
ATOM      2  N   UNL     1       9.844   5.066  16.724  1.00  0.00    -0.217 NA
ATOM      3  C   UNL     1       9.723   4.377  15.577  1.00  0.00     0.182 A 
ATOM      4  N   UNL     1      10.073   4.802  14.339  1.00  0.00    -0.215 NA
ATOM      5  C   UNL     1       9.872   3.952  13.286  1.00  0.00     0.226 A 
ATOM      6  N   UNL     1       9.331   2.708  13.487  1.00  0.00    -0.217 NA
ATOM      7  C   UNL     1       8.976   2.279  14.735  1.00  0.00     0.152 A 
ATOM      8  C   UNL     1       9.186   3.154  15.797  1.00  0.00     0.127 A 
ATOM      9  N   UNL     1       8.943   3.012  17.106  1.00  0.00    -0.340 N 
ATOM     10  H   UNL     1       8.533   2.193  17.608  1.00  0.00     0.168 HD
ENDROOT
BRANCH   7  11
ATOM     11  N   UNL     1       8.414   0.980  14.921  1.00  0.00    -0.382 N 
ATOM     12  H   UNL     1       7.658   0.809  15.620  1.00  0.00     0.158 HD
ATOM     13  H   UNL     1       8.758   0.175  14.353  1.00  0.00     0.158 HD
ENDBRANCH   7  11
TORSDOF 1
ENDMDL
MODEL 5
REMARK VINA RESULT:    -4.257     11.996     13.873
REMARK INTER + INTRA:          -4.382
REMARK INTER:                  -4.382
REMARK INTRA:                   0.000
REMARK UNBOUND:                 0.000
REMARK SMILES Nc1ncnc2nc[nH]c12
REMARK SMILES IDX 8 1 7 2 6 3 5 4 4 5 3 6 2 7 10 8 9 9 1 11
REMARK H PARENT 9 10 1 12 1 13
REMARK Flexibility Score: inf
ROOT
ATOM      1  C   UNL     1       8.970   7.344  17.441  1.00  0.00     0.199 A 
ATOM      2  N   UNL     1       9.092   6.036  17.795  1.00  0.00    -0.217 NA
ATOM      3  C   UNL     1       8.422   5.991  18.958  1.00  0.00     0.182 A 
ATOM      4  N   UNL     1       8.237   4.901  19.742  1.00  0.00    -0.215 NA
ATOM      5  C   UNL     1       7.521   5.053  20.898  1.00  0.00     0.226 A 
ATOM      6  N   UNL     1       7.011   6.277  21.245  1.00  0.00    -0.217 NA
ATOM      7  C   UNL     1       7.196   7.377  20.456  1.00  0.00     0.152 A 
ATOM      8  C   UNL     1       7.926   7.207  19.282  1.00  0.00     0.127 A 
ATOM      9  N   UNL     1       8.263   8.086  18.331  1.00  0.00    -0.340 N 
ATOM     10  H   UNL     1       8.039   9.104  18.274  1.00  0.00     0.168 HD
ENDROOT
BRANCH   7  11
ATOM     11  N   UNL     1       6.655   8.641  20.838  1.00  0.00    -0.382 N 
ATOM     12  H   UNL     1       7.241   9.364  21.311  1.00  0.00     0.158 HD
ATOM     13  H   UNL     1       5.652   8.860  20.646  1.00  0.00     0.158 HD
ENDBRANCH   7  11
TORSDOF 1
ENDMDL
MODEL 6
REMARK VINA RESULT:    -4.246     13.494     15.429
REMARK INTER + INTRA:          -4.370
REMARK INTER:                  -4.370
REMARK INTRA:                   0.000
REMARK UNBOUND:                 0.000
REMARK SMILES Nc1ncnc2nc[nH]c12
REMARK SMILES IDX 8 1 7 2 6 3 5 4 4 5 3 6 2 7 10 8 9 9 1 11
REMARK H PARENT 9 10 1 12 1 13
REMARK Flexibility Score: inf
ROOT
ATOM      1  C   UNL     1      10.426   4.738  13.252  1.00  0.00     0.199 A 
ATOM      2  N   UNL     1      10.540   5.456  14.402  1.00  0.00    -0.217 NA
ATOM      3  C   UNL     1       9.994   4.631  15.310  1.00  0.00     0.182 A 
ATOM      4  N   UNL     1       9.855   4.867  16.637  1.00  0.00    -0.215 NA
ATOM      5  C   UNL     1       9.269   3.900  17.406  1.00  0.00     0.226 A 
ATOM      6  N   UNL     1       8.837   2.727  16.841  1.00  0.00    -0.217 NA
ATOM      7  C   UNL     1       8.977   2.487  15.503  1.00  0.00     0.152 A 
ATOM      8  C   UNL     1       9.575   3.480  14.733  1.00  0.00     0.127 A 
ATOM      9  N   UNL     1       9.840   3.526  13.422  1.00  0.00    -0.340 N 
ATOM     10  H   UNL     1       9.647   2.804  12.691  1.00  0.00     0.168 HD
ENDROOT
BRANCH   7  11
ATOM     11  N   UNL     1       8.521   1.258  14.937  1.00  0.00    -0.382 N 
ATOM     12  H   UNL     1       7.503   1.034  14.870  1.00  0.00     0.158 HD
ATOM     13  H   UNL     1       9.209   0.560  14.580  1.00  0.00     0.158 HD
ENDBRANCH   7  11
TORSDOF 1
ENDMDL
MODEL 7
REMARK VINA RESULT:    -4.237     12.241     13.746
REMARK INTER + INTRA:          -4.361
REMARK INTER:                  -4.361
REMARK INTRA:                   0.000
REMARK UNBOUND:                 0.000
REMARK SMILES Nc1ncnc2nc[nH]c12
REMARK SMILES IDX 8 1 7 2 6 3 5 4 4 5 3 6 2 7 10 8 9 9 1 11
REMARK H PARENT 9 10 1 12 1 13
REMARK Flexibility Score: inf
ROOT
ATOM      1  C   UNL     1       7.440   5.257  21.274  1.00  0.00     0.199 A 
ATOM      2  N   UNL     1       8.443   5.100  20.368  1.00  0.00    -0.217 NA
ATOM      3  C   UNL     1       8.230   6.124  19.526  1.00  0.00     0.182 A 
ATOM      4  N   UNL     1       8.960   6.431  18.426  1.00  0.00    -0.215 NA
ATOM      5  C   UNL     1       8.586   7.520  17.688  1.00  0.00     0.226 A 
ATOM      6  N   UNL     1       7.501   8.274  18.057  1.00  0.00    -0.217 NA
ATOM      7  C   UNL     1       6.765   7.966  19.166  1.00  0.00     0.152 A 
ATOM      8  C   UNL     1       7.157   6.855  19.908  1.00  0.00     0.127 A 
ATOM      9  N   UNL     1       6.637   6.321  21.020  1.00  0.00    -0.340 N 
ATOM     10  H   UNL     1       5.809   6.639  21.571  1.00  0.00     0.168 HD
ENDROOT
BRANCH   7  11
ATOM     11  N   UNL     1       5.639   8.765  19.532  1.00  0.00    -0.382 N 
ATOM     12  H   UNL     1       5.170   8.652  20.458  1.00  0.00     0.158 HD
ATOM     13  H   UNL     1       5.268   9.479  18.869  1.00  0.00     0.158 HD
ENDBRANCH   7  11
TORSDOF 1
ENDMDL
MODEL 8
REMARK VINA RESULT:    -4.171     16.997     18.224
REMARK INTER + INTRA:          -4.293
REMARK INTER:                  -4.293
REMARK INTRA:                   0.000
REMARK UNBOUND:                 0.000
REMARK SMILES Nc1ncnc2nc[nH]c12
REMARK SMILES IDX 8 1 7 2 6 3 5 4 4 5 3 6 2 7 10 8 9 9 1 11
REMARK H PARENT 9 10 1 12 1 13
REMARK Flexibility Score: inf
ROOT
ATOM      1  C   UNL     1       6.147   9.571  14.299  1.00  0.00     0.199 A 
ATOM      2  N   UNL     1       6.609  10.343  15.320  1.00  0.00    -0.217 NA
ATOM      3  C   UNL     1       5.914   9.874  16.370  1.00  0.00     0.182 A 
ATOM      4  N   UNL     1       5.996  10.306  17.651  1.00  0.00    -0.215 NA
ATOM      5  C   UNL     1       5.203   9.701  18.587  1.00  0.00     0.226 A 
ATOM      6  N   UNL     1       4.352   8.687  18.229  1.00  0.00    -0.217 NA
ATOM      7  C   UNL     1       4.268   8.250  16.938  1.00  0.00     0.152 A 
ATOM      8  C   UNL     1       5.081   8.874  15.996  1.00  0.00     0.127 A 
ATOM      9  N   UNL     1       5.212   8.664  14.681  1.00  0.00    -0.340 N 
ATOM     10  H   UNL     1       4.718   7.968  14.078  1.00  0.00     0.168 HD
ENDROOT
BRANCH   7  11
ATOM     11  N   UNL     1       3.375   7.192  16.588  1.00  0.00    -0.382 N 
ATOM     12  H   UNL     1       2.957   7.126  15.634  1.00  0.00     0.158 HD
ATOM     13  H   UNL     1       3.126   6.464  17.293  1.00  0.00     0.158 HD
ENDBRANCH   7  11
TORSDOF 1
ENDMDL
MODEL 9
REMARK VINA RESULT:    -4.062     12.572     14.453
REMARK INTER + INTRA:          -4.180
REMARK INTER:                  -4.180
REMARK INTRA:                   0.000
REMARK UNBOUND:                 0.000
REMARK SMILES Nc1ncnc2nc[nH]c12
REMARK SMILES IDX 8 1 7 2 6 3 5 4 4 5 3 6 2 7 10 8 9 9 1 11
REMARK H PARENT 9 10 1 12 1 13
REMARK Flexibility Score: inf
ROOT
ATOM      1  C   UNL     1       6.044   8.470  17.878  1.00  0.00     0.199 A 
ATOM      2  N   UNL     1       5.375   7.500  18.559  1.00  0.00    -0.217 NA
ATOM      3  C   UNL     1       6.361   6.900  19.244  1.00  0.00     0.182 A 
ATOM      4  N   UNL     1       6.234   5.851  20.092  1.00  0.00    -0.215 NA
ATOM      5  C   UNL     1       7.362   5.373  20.701  1.00  0.00     0.226 A 
ATOM      6  N   UNL     1       8.583   5.945  20.453  1.00  0.00    -0.217 NA
ATOM      7  C   UNL     1       8.713   7.003  19.598  1.00  0.00     0.152 A 
ATOM      8  C   UNL     1       7.557   7.479  18.987  1.00  0.00     0.127 A 
ATOM      9  N   UNL     1       7.379   8.482  18.118  1.00  0.00    -0.340 N 
ATOM     10  H   UNL     1       8.092   9.130  17.715  1.00  0.00     0.168 HD
ENDROOT
BRANCH   7  11
ATOM     11  N   UNL     1       9.995   7.584  19.356  1.00  0.00    -0.382 N 
ATOM     12  H   UNL     1      10.559   7.326  18.517  1.00  0.00     0.158 HD
ATOM     13  H   UNL     1      10.387   8.283  20.025  1.00  0.00     0.158 HD
ENDBRANCH   7  11
TORSDOF 1
ENDMDL
