MODEL 1
REMARK VINA RESULT:    -4.676      0.000      0.000
REMARK INTER + INTRA:         -12.117
REMARK INTER:                  -9.051
REMARK INTRA:                  -3.066
REMARK UNBOUND:                -3.066
REMARK SMILES CCCCCC=CCC=CCCCCCCCCOC(C)=O
REMARK SMILES IDX 12 1 11 2 10 3 9 4 8 5 7 6 6 7 5 8 4 9 3 10 2 11 1 12 13 13
REMARK SMILES IDX 14 14 15 15 16 16 17 17 18 18 19 19 20 20 22 21 21 22
REMARK H PARENT
REMARK Flexibility Score: inf
ROOT
ATOM      1  C   UNL     1     -21.725  -6.069  -9.721  1.00  0.00     0.004 C 
ENDROOT
BRANCH   1   2
ATOM      2  C   UNL     1     -21.616  -5.084 -10.898  1.00  0.00     0.027 C 
BRANCH   2   3
ATOM      3  C   UNL     1     -22.346  -3.788 -10.625  1.00  0.00    -0.031 C 
ATOM      4  C   UNL     1     -21.778  -2.566 -10.616  1.00  0.00    -0.027 C 
BRANCH   4   5
ATOM      5  C   UNL     1     -20.327  -2.290 -10.920  1.00  0.00     0.054 C 
BRANCH   5   6
ATOM      6  C   UNL     1     -19.654  -1.572  -9.776  1.00  0.00    -0.027 C 
ATOM      7  C   UNL     1     -19.021  -2.202  -8.768  1.00  0.00    -0.031 C 
BRANCH   7   8
ATOM      8  C   UNL     1     -18.885  -3.699  -8.651  1.00  0.00     0.027 C 
BRANCH   8   9
ATOM      9  C   UNL     1     -19.544  -4.216  -7.365  1.00  0.00     0.004 C 
BRANCH   9  10
ATOM     10  C   UNL     1     -20.926  -3.588  -7.108  1.00  0.00     0.000 C 
BRANCH  10  11
ATOM     11  C   UNL     1     -21.918  -4.497  -6.359  1.00  0.00    -0.003 C 
ATOM     12  C   UNL     1     -23.326  -4.460  -6.954  1.00  0.00     0.004 C 
ENDBRANCH  10  11
ENDBRANCH   9  10
ENDBRANCH   8   9
ENDBRANCH   7   8
ENDBRANCH   5   6
ENDBRANCH   4   5
ENDBRANCH   2   3
ENDBRANCH   1   2
BRANCH   1  13
ATOM     13  C   UNL     1     -20.828  -7.316  -9.835  1.00  0.00     0.000 C 
BRANCH  13  14
ATOM     14  C   UNL     1     -19.647  -7.298  -8.852  1.00  0.00     0.000 C 
BRANCH  14  15
ATOM     15  C   UNL     1     -19.839  -8.341  -7.742  1.00  0.00     0.000 C 
BRANCH  15  16
ATOM     16  C   UNL     1     -21.139  -8.129  -6.948  1.00  0.00     0.003 C 
BRANCH  16  17
ATOM     17  C   UNL     1     -21.412  -9.259  -5.943  1.00  0.00     0.042 C 
BRANCH  17  18
ATOM     18  C   UNL     1     -22.860  -9.235  -5.443  1.00  0.00     0.233 C 
BRANCH  18  19
ATOM     19  O   UNL     1     -23.417  -7.923  -5.530  1.00  0.00    -0.466 OA
BRANCH  19  20
ATOM     20  C   UNL     1     -23.762  -7.156  -4.412  1.00  0.00     0.302 C 
ATOM     21  O   UNL     1     -24.876  -6.568  -4.351  1.00  0.00    -0.253 OA
ATOM     22  C   UNL     1     -22.780  -7.000  -3.301  1.00  0.00     0.139 C 
ENDBRANCH  19  20
ENDBRANCH  18  19
ENDBRANCH  17  18
ENDBRANCH  16  17
ENDBRANCH  15  16
ENDBRANCH  14  15
ENDBRANCH  13  14
ENDBRANCH   1  13
TORSDOF 16
ENDMDL
MODEL 2
REMARK VINA RESULT:    -4.548      1.346      2.166
REMARK INTER + INTRA:         -11.867
REMARK INTER:                  -8.578
REMARK INTRA:                  -3.289
REMARK UNBOUND:                -3.066
REMARK SMILES CCCCCC=CCC=CCCCCCCCCOC(C)=O
REMARK SMILES IDX 12 1 11 2 10 3 9 4 8 5 7 6 6 7 5 8 4 9 3 10 2 11 1 12 13 13
REMARK SMILES IDX 14 14 15 15 16 16 17 17 18 18 19 19 20 20 22 21 21 22
REMARK H PARENT
REMARK Flexibility Score: inf
ROOT
ATOM      1  C   UNL     1     -21.626  -6.114  -9.598  1.00  0.00     0.004 C 
ENDROOT
BRANCH   1   2
ATOM      2  C   UNL     1     -21.615  -5.202 -10.837  1.00  0.00     0.027 C 
BRANCH   2   3
ATOM      3  C   UNL     1     -22.368  -3.911 -10.601  1.00  0.00    -0.031 C 
ATOM      4  C   UNL     1     -21.826  -2.678 -10.649  1.00  0.00    -0.027 C 
BRANCH   4   5
ATOM      5  C   UNL     1     -20.387  -2.384 -10.990  1.00  0.00     0.054 C 
BRANCH   5   6
ATOM      6  C   UNL     1     -19.703  -1.630  -9.876  1.00  0.00    -0.027 C 
ATOM      7  C   UNL     1     -19.127  -2.225  -8.815  1.00  0.00    -0.031 C 
BRANCH   7   8
ATOM      8  C   UNL     1     -19.072  -3.717  -8.600  1.00  0.00     0.027 C 
BRANCH   8   9
ATOM      9  C   UNL     1     -19.804  -4.118  -7.311  1.00  0.00     0.004 C 
BRANCH   9  10
ATOM     10  C   UNL     1     -21.101  -3.320  -7.088  1.00  0.00     0.000 C 
BRANCH  10  11
ATOM     11  C   UNL     1     -22.137  -4.013  -6.185  1.00  0.00    -0.003 C 
ATOM     12  C   UNL     1     -23.392  -4.448  -6.940  1.00  0.00     0.004 C 
ENDBRANCH  10  11
ENDBRANCH   9  10
ENDBRANCH   8   9
ENDBRANCH   7   8
ENDBRANCH   5   6
ENDBRANCH   4   5
ENDBRANCH   2   3
ENDBRANCH   1   2
BRANCH   1  13
ATOM     13  C   UNL     1     -20.728  -7.360  -9.703  1.00  0.00     0.000 C 
BRANCH  13  14
ATOM     14  C   UNL     1     -20.323  -7.925  -8.333  1.00  0.00     0.000 C 
BRANCH  14  15
ATOM     15  C   UNL     1     -21.340  -7.530  -7.253  1.00  0.00     0.000 C 
BRANCH  15  16
ATOM     16  C   UNL     1     -20.682  -7.262  -5.889  1.00  0.00     0.003 C 
BRANCH  16  17
ATOM     17  C   UNL     1     -21.561  -7.704  -4.708  1.00  0.00     0.042 C 
BRANCH  17  18
ATOM     18  C   UNL     1     -22.783  -8.500  -5.180  1.00  0.00     0.233 C 
BRANCH  18  19
ATOM     19  O   UNL     1     -22.704  -9.865  -4.769  1.00  0.00    -0.466 OA
BRANCH  19  20
ATOM     20  C   UNL     1     -21.904 -10.817  -5.410  1.00  0.00     0.302 C 
ATOM     21  O   UNL     1     -20.932 -11.353  -4.811  1.00  0.00    -0.253 OA
ATOM     22  C   UNL     1     -22.179 -11.166  -6.833  1.00  0.00     0.139 C 
ENDBRANCH  19  20
ENDBRANCH  18  19
ENDBRANCH  17  18
ENDBRANCH  16  17
ENDBRANCH  15  16
ENDBRANCH  14  15
ENDBRANCH  13  14
ENDBRANCH   1  13
TORSDOF 16
ENDMDL
MODEL 3
REMARK VINA RESULT:    -4.427      1.611      4.218
REMARK INTER + INTRA:         -11.634
REMARK INTER:                  -8.143
REMARK INTRA:                  -3.491
REMARK UNBOUND:                -3.066
REMARK SMILES CCCCCC=CCC=CCCCCCCCCOC(C)=O
REMARK SMILES IDX 12 1 11 2 10 3 9 4 8 5 7 6 6 7 5 8 4 9 3 10 2 11 1 12 13 13
REMARK SMILES IDX 14 14 15 15 16 16 17 17 18 18 19 19 20 20 22 21 21 22
REMARK H PARENT
REMARK Flexibility Score: inf
ROOT
ATOM      1  C   UNL     1     -22.341  -3.563  -6.302  1.00  0.00     0.004 C 
ENDROOT
BRANCH   1   2
ATOM      2  C   UNL     1     -20.922  -3.557  -6.895  1.00  0.00     0.027 C 
BRANCH   2   3
ATOM      3  C   UNL     1     -20.104  -4.742  -6.429  1.00  0.00    -0.031 C 
ATOM      4  C   UNL     1     -19.610  -5.705  -7.230  1.00  0.00    -0.027 C 
BRANCH   4   5
ATOM      5  C   UNL     1     -19.757  -5.736  -8.731  1.00  0.00     0.054 C 
BRANCH   5   6
ATOM      6  C   UNL     1     -21.040  -6.414  -9.143  1.00  0.00    -0.027 C 
ATOM      7  C   UNL     1     -21.839  -5.964 -10.128  1.00  0.00    -0.031 C 
BRANCH   7   8
ATOM      8  C   UNL     1     -21.559  -4.739 -10.960  1.00  0.00     0.027 C 
BRANCH   8   9
ATOM      9  C   UNL     1     -22.405  -3.547 -10.492  1.00  0.00     0.004 C 
BRANCH   9  10
ATOM     10  C   UNL     1     -21.565  -2.285 -10.228  1.00  0.00     0.000 C 
BRANCH  10  11
ATOM     11  C   UNL     1     -20.081  -2.404 -10.621  1.00  0.00    -0.003 C 
ATOM     12  C   UNL     1     -19.131  -1.927  -9.523  1.00  0.00     0.004 C 
ENDBRANCH  10  11
ENDBRANCH   9  10
ENDBRANCH   8   9
ENDBRANCH   7   8
ENDBRANCH   5   6
ENDBRANCH   4   5
ENDBRANCH   2   3
ENDBRANCH   1   2
BRANCH   1  13
ATOM     13  C   UNL     1     -23.364  -4.413  -7.077  1.00  0.00     0.000 C 
BRANCH  13  14
ATOM     14  C   UNL     1     -23.730  -5.718  -6.354  1.00  0.00     0.000 C 
BRANCH  14  15
ATOM     15  C   UNL     1     -23.239  -5.697  -4.899  1.00  0.00     0.000 C 
BRANCH  15  16
ATOM     16  C   UNL     1     -22.433  -6.952  -4.528  1.00  0.00     0.003 C 
BRANCH  16  17
ATOM     17  C   UNL     1     -22.267  -7.922  -5.709  1.00  0.00     0.042 C 
BRANCH  17  18
ATOM     18  C   UNL     1     -22.541  -9.372  -5.293  1.00  0.00     0.233 C 
BRANCH  18  19
ATOM     19  O   UNL     1     -22.345  -9.556  -3.891  1.00  0.00    -0.466 OA
BRANCH  19  20
ATOM     20  C   UNL     1     -23.305 -10.125  -3.047  1.00  0.00     0.302 C 
ATOM     21  O   UNL     1     -23.593 -11.350  -3.128  1.00  0.00    -0.253 OA
ATOM     22  C   UNL     1     -24.027  -9.259  -2.072  1.00  0.00     0.139 C 
ENDBRANCH  19  20
ENDBRANCH  18  19
ENDBRANCH  17  18
ENDBRANCH  16  17
ENDBRANCH  15  16
ENDBRANCH  14  15
ENDBRANCH  13  14
ENDBRANCH   1  13
TORSDOF 16
ENDMDL
MODEL 4
REMARK VINA RESULT:    -4.415      2.669      3.558
REMARK INTER + INTRA:         -11.611
REMARK INTER:                  -8.913
REMARK INTRA:                  -2.698
REMARK UNBOUND:                -3.066
REMARK SMILES CCCCCC=CCC=CCCCCCCCCOC(C)=O
REMARK SMILES IDX 12 1 11 2 10 3 9 4 8 5 7 6 6 7 5 8 4 9 3 10 2 11 1 12 13 13
REMARK SMILES IDX 14 14 15 15 16 16 17 17 18 18 19 19 20 20 22 21 21 22
REMARK H PARENT
REMARK Flexibility Score: inf
ROOT
ATOM      1  C   UNL     1     -21.120  -7.355  -8.840  1.00  0.00     0.004 C 
ENDROOT
BRANCH   1   2
ATOM      2  C   UNL     1     -21.074  -6.551 -10.151  1.00  0.00     0.027 C 
BRANCH   2   3
ATOM      3  C   UNL     1     -22.165  -5.505 -10.217  1.00  0.00    -0.031 C 
ATOM      4  C   UNL     1     -21.961  -4.184 -10.387  1.00  0.00    -0.027 C 
BRANCH   4   5
ATOM      5  C   UNL     1     -20.612  -3.540 -10.583  1.00  0.00     0.054 C 
BRANCH   5   6
ATOM      6  C   UNL     1     -20.360  -2.469  -9.550  1.00  0.00    -0.027 C 
ATOM      7  C   UNL     1     -19.910  -2.722  -8.307  1.00  0.00    -0.031 C 
BRANCH   7   8
ATOM      8  C   UNL     1     -19.582  -4.097  -7.783  1.00  0.00     0.027 C 
BRANCH   8   9
ATOM      9  C   UNL     1     -20.597  -4.541  -6.720  1.00  0.00     0.004 C 
BRANCH   9  10
ATOM     10  C   UNL     1     -21.702  -3.497  -6.477  1.00  0.00     0.000 C 
BRANCH  10  11
ATOM     11  C   UNL     1     -23.123  -3.966  -6.838  1.00  0.00    -0.003 C 
ATOM     12  C   UNL     1     -23.338  -5.460  -6.599  1.00  0.00     0.004 C 
ENDBRANCH  10  11
ENDBRANCH   9  10
ENDBRANCH   8   9
ENDBRANCH   7   8
ENDBRANCH   5   6
ENDBRANCH   4   5
ENDBRANCH   2   3
ENDBRANCH   1   2
BRANCH   1  13
ATOM     13  C   UNL     1     -19.764  -7.921  -8.380  1.00  0.00     0.000 C 
BRANCH  13  14
ATOM     14  C   UNL     1     -19.838  -8.618  -7.013  1.00  0.00     0.000 C 
BRANCH  14  15
ATOM     15  C   UNL     1     -21.295  -8.779  -6.556  1.00  0.00     0.000 C 
BRANCH  15  16
ATOM     16  C   UNL     1     -21.749 -10.248  -6.528  1.00  0.00     0.003 C 
BRANCH  16  17
ATOM     17  C   UNL     1     -20.810 -11.143  -5.704  1.00  0.00     0.042 C 
BRANCH  17  18
ATOM     18  C   UNL     1     -20.956 -12.620  -6.088  1.00  0.00     0.233 C 
BRANCH  18  19
ATOM     19  O   UNL     1     -21.991 -12.806  -7.053  1.00  0.00    -0.466 OA
BRANCH  19  20
ATOM     20  C   UNL     1     -22.908 -13.862  -7.006  1.00  0.00     0.302 C 
ATOM     21  O   UNL     1     -23.229 -14.486  -8.054  1.00  0.00    -0.253 OA
ATOM     22  C   UNL     1     -23.544 -14.221  -5.707  1.00  0.00     0.139 C 
ENDBRANCH  19  20
ENDBRANCH  18  19
ENDBRANCH  17  18
ENDBRANCH  16  17
ENDBRANCH  15  16
ENDBRANCH  14  15
ENDBRANCH  13  14
ENDBRANCH   1  13
TORSDOF 16
ENDMDL
MODEL 5
REMARK VINA RESULT:    -4.405      1.120      1.530
REMARK INTER + INTRA:         -11.592
REMARK INTER:                  -8.670
REMARK INTRA:                  -2.921
REMARK UNBOUND:                -3.066
REMARK SMILES CCCCCC=CCC=CCCCCCCCCOC(C)=O
REMARK SMILES IDX 12 1 11 2 10 3 9 4 8 5 7 6 6 7 5 8 4 9 3 10 2 11 1 12 13 13
REMARK SMILES IDX 14 14 15 15 16 16 17 17 18 18 19 19 20 20 22 21 21 22
REMARK H PARENT
REMARK Flexibility Score: inf
ROOT
ATOM      1  C   UNL     1     -20.915  -7.287  -9.064  1.00  0.00     0.004 C 
ENDROOT
BRANCH   1   2
ATOM      2  C   UNL     1     -21.158  -6.597 -10.418  1.00  0.00     0.027 C 
BRANCH   2   3
ATOM      3  C   UNL     1     -22.266  -5.569 -10.343  1.00  0.00    -0.031 C 
ATOM      4  C   UNL     1     -22.089  -4.235 -10.411  1.00  0.00    -0.027 C 
BRANCH   4   5
ATOM      5  C   UNL     1     -20.761  -3.552 -10.617  1.00  0.00     0.054 C 
BRANCH   5   6
ATOM      6  C   UNL     1     -20.527  -2.483  -9.579  1.00  0.00    -0.027 C 
ATOM      7  C   UNL     1     -20.054  -2.732  -8.344  1.00  0.00    -0.031 C 
BRANCH   7   8
ATOM      8  C   UNL     1     -19.681  -4.101  -7.834  1.00  0.00     0.027 C 
BRANCH   8   9
ATOM      9  C   UNL     1     -20.578  -4.518  -6.660  1.00  0.00     0.004 C 
BRANCH   9  10
ATOM     10  C   UNL     1     -21.663  -3.475  -6.338  1.00  0.00     0.000 C 
BRANCH  10  11
ATOM     11  C   UNL     1     -23.047  -3.777  -6.942  1.00  0.00    -0.003 C 
ATOM     12  C   UNL     1     -23.429  -5.254  -6.853  1.00  0.00     0.004 C 
ENDBRANCH  10  11
ENDBRANCH   9  10
ENDBRANCH   8   9
ENDBRANCH   7   8
ENDBRANCH   5   6
ENDBRANCH   4   5
ENDBRANCH   2   3
ENDBRANCH   1   2
BRANCH   1  13
ATOM     13  C   UNL     1     -19.454  -7.693  -8.798  1.00  0.00     0.000 C 
BRANCH  13  14
ATOM     14  C   UNL     1     -19.250  -8.325  -7.413  1.00  0.00     0.000 C 
BRANCH  14  15
ATOM     15  C   UNL     1     -20.585  -8.452  -6.664  1.00  0.00     0.000 C 
BRANCH  15  16
ATOM     16  C   UNL     1     -20.992  -9.915  -6.423  1.00  0.00     0.003 C 
BRANCH  16  17
ATOM     17  C   UNL     1     -22.245 -10.045  -5.541  1.00  0.00     0.042 C 
BRANCH  17  18
ATOM     18  C   UNL     1     -22.990  -8.711  -5.417  1.00  0.00     0.233 C 
BRANCH  18  19
ATOM     19  O   UNL     1     -23.025  -8.261  -4.063  1.00  0.00    -0.466 OA
BRANCH  19  20
ATOM     20  C   UNL     1     -23.222  -6.924  -3.700  1.00  0.00     0.302 C 
ATOM     21  O   UNL     1     -22.247  -6.130  -3.606  1.00  0.00    -0.253 OA
ATOM     22  C   UNL     1     -24.597  -6.449  -3.378  1.00  0.00     0.139 C 
ENDBRANCH  19  20
ENDBRANCH  18  19
ENDBRANCH  17  18
ENDBRANCH  16  17
ENDBRANCH  15  16
ENDBRANCH  14  15
ENDBRANCH  13  14
ENDBRANCH   1  13
TORSDOF 16
ENDMDL
MODEL 6
REMARK VINA RESULT:    -4.356      1.487      2.828
REMARK INTER + INTRA:         -11.496
REMARK INTER:                  -8.148
REMARK INTRA:                  -3.347
REMARK UNBOUND:                -3.066
REMARK SMILES CCCCCC=CCC=CCCCCCCCCOC(C)=O
REMARK SMILES IDX 12 1 11 2 10 3 9 4 8 5 7 6 6 7 5 8 4 9 3 10 2 11 1 12 13 13
REMARK SMILES IDX 14 14 15 15 16 16 17 17 18 18 19 19 20 20 22 21 21 22
REMARK H PARENT
REMARK Flexibility Score: inf
ROOT
ATOM      1  C   UNL     1     -23.290  -4.725  -6.670  1.00  0.00     0.004 C 
ENDROOT
BRANCH   1   2
ATOM      2  C   UNL     1     -23.012  -3.712  -7.794  1.00  0.00     0.027 C 
BRANCH   2   3
ATOM      3  C   UNL     1     -22.868  -4.381  -9.143  1.00  0.00    -0.031 C 
ATOM      4  C   UNL     1     -22.281  -3.829 -10.223  1.00  0.00    -0.027 C 
BRANCH   4   5
ATOM      5  C   UNL     1     -21.634  -2.468 -10.248  1.00  0.00     0.054 C 
BRANCH   5   6
ATOM      6  C   UNL     1     -20.150  -2.570 -10.503  1.00  0.00    -0.027 C 
ATOM      7  C   UNL     1     -19.245  -2.841  -9.545  1.00  0.00    -0.031 C 
BRANCH   7   8
ATOM      8  C   UNL     1     -19.585  -3.094  -8.098  1.00  0.00     0.027 C 
BRANCH   8   9
ATOM      9  C   UNL     1     -19.070  -4.466  -7.640  1.00  0.00     0.004 C 
BRANCH   9  10
ATOM     10  C   UNL     1     -19.017  -5.496  -8.782  1.00  0.00     0.000 C 
BRANCH  10  11
ATOM     11  C   UNL     1     -19.610  -6.874  -8.436  1.00  0.00    -0.003 C 
ATOM     12  C   UNL     1     -20.686  -7.327  -9.423  1.00  0.00     0.004 C 
ENDBRANCH  10  11
ENDBRANCH   9  10
ENDBRANCH   8   9
ENDBRANCH   7   8
ENDBRANCH   5   6
ENDBRANCH   4   5
ENDBRANCH   2   3
ENDBRANCH   1   2
BRANCH   1  13
ATOM     13  C   UNL     1     -22.206  -4.796  -5.579  1.00  0.00     0.000 C 
BRANCH  13  14
ATOM     14  C   UNL     1     -21.576  -6.191  -5.449  1.00  0.00     0.000 C 
BRANCH  14  15
ATOM     15  C   UNL     1     -22.428  -7.248  -6.167  1.00  0.00     0.000 C 
BRANCH  15  16
ATOM     16  C   UNL     1     -22.134  -8.676  -5.679  1.00  0.00     0.003 C 
BRANCH  16  17
ATOM     17  C   UNL     1     -21.910  -8.751  -4.160  1.00  0.00     0.042 C 
BRANCH  17  18
ATOM     18  C   UNL     1     -23.129  -9.333  -3.436  1.00  0.00     0.233 C 
BRANCH  18  19
ATOM     19  O   UNL     1     -23.589  -8.456  -2.408  1.00  0.00    -0.466 OA
BRANCH  19  20
ATOM     20  C   UNL     1     -23.774  -7.082  -2.593  1.00  0.00     0.302 C 
ATOM     21  O   UNL     1     -23.062  -6.245  -1.973  1.00  0.00    -0.253 OA
ATOM     22  C   UNL     1     -24.856  -6.604  -3.500  1.00  0.00     0.139 C 
ENDBRANCH  19  20
ENDBRANCH  18  19
ENDBRANCH  17  18
ENDBRANCH  16  17
ENDBRANCH  15  16
ENDBRANCH  14  15
ENDBRANCH  13  14
ENDBRANCH   1  13
TORSDOF 16
ENDMDL
MODEL 7
REMARK VINA RESULT:    -4.353      2.991      4.431
REMARK INTER + INTRA:         -11.490
REMARK INTER:                  -9.168
REMARK INTRA:                  -2.323
REMARK UNBOUND:                -3.066
REMARK SMILES CCCCCC=CCC=CCCCCCCCCOC(C)=O
REMARK SMILES IDX 12 1 11 2 10 3 9 4 8 5 7 6 6 7 5 8 4 9 3 10 2 11 1 12 13 13
REMARK SMILES IDX 14 14 15 15 16 16 17 17 18 18 19 19 20 20 22 21 21 22
REMARK H PARENT
REMARK Flexibility Score: inf
ROOT
ATOM      1  C   UNL     1     -20.607  -7.369  -9.094  1.00  0.00     0.004 C 
ENDROOT
BRANCH   1   2
ATOM      2  C   UNL     1     -20.762  -5.869  -9.401  1.00  0.00     0.027 C 
BRANCH   2   3
ATOM      3  C   UNL     1     -22.180  -5.509  -9.786  1.00  0.00    -0.031 C 
ATOM      4  C   UNL     1     -22.827  -4.392  -9.401  1.00  0.00    -0.027 C 
BRANCH   4   5
ATOM      5  C   UNL     1     -22.225  -3.296  -8.558  1.00  0.00     0.054 C 
BRANCH   5   6
ATOM      6  C   UNL     1     -22.981  -3.121  -7.264  1.00  0.00    -0.027 C 
ATOM      7  C   UNL     1     -22.644  -3.734  -6.114  1.00  0.00    -0.031 C 
BRANCH   7   8
ATOM      8  C   UNL     1     -21.465  -4.660  -5.955  1.00  0.00     0.027 C 
BRANCH   8   9
ATOM      9  C   UNL     1     -21.899  -6.013  -5.373  1.00  0.00     0.004 C 
BRANCH   9  10
ATOM     10  C   UNL     1     -23.065  -6.651  -6.149  1.00  0.00     0.000 C 
BRANCH  10  11
ATOM     11  C   UNL     1     -24.386  -6.747  -5.364  1.00  0.00    -0.003 C 
ATOM     12  C   UNL     1     -24.215  -6.471  -3.870  1.00  0.00     0.004 C 
ENDBRANCH  10  11
ENDBRANCH   9  10
ENDBRANCH   8   9
ENDBRANCH   7   8
ENDBRANCH   5   6
ENDBRANCH   4   5
ENDBRANCH   2   3
ENDBRANCH   1   2
BRANCH   1  13
ATOM     13  C   UNL     1     -19.231  -7.777  -8.535  1.00  0.00     0.000 C 
BRANCH  13  14
ATOM     14  C   UNL     1     -19.330  -8.615  -7.251  1.00  0.00     0.000 C 
BRANCH  14  15
ATOM     15  C   UNL     1     -20.769  -9.102  -7.022  1.00  0.00     0.000 C 
BRANCH  15  16
ATOM     16  C   UNL     1     -20.840 -10.312  -6.076  1.00  0.00     0.003 C 
BRANCH  16  17
ATOM     17  C   UNL     1     -21.946 -11.306  -6.468  1.00  0.00     0.042 C 
BRANCH  17  18
ATOM     18  C   UNL     1     -21.575 -12.744  -6.086  1.00  0.00     0.233 C 
BRANCH  18  19
ATOM     19  O   UNL     1     -21.864 -13.653  -7.148  1.00  0.00    -0.466 OA
BRANCH  19  20
ATOM     20  C   UNL     1     -23.056 -14.379  -7.238  1.00  0.00     0.302 C 
ATOM     21  O   UNL     1     -23.857 -14.430  -6.265  1.00  0.00    -0.253 OA
ATOM     22  C   UNL     1     -23.359 -15.137  -8.485  1.00  0.00     0.139 C 
ENDBRANCH  19  20
ENDBRANCH  18  19
ENDBRANCH  17  18
ENDBRANCH  16  17
ENDBRANCH  15  16
ENDBRANCH  14  15
ENDBRANCH  13  14
ENDBRANCH   1  13
TORSDOF 16
ENDMDL
MODEL 8
REMARK VINA RESULT:    -4.334      1.901      3.363
REMARK INTER + INTRA:         -11.455
REMARK INTER:                  -8.350
REMARK INTRA:                  -3.105
REMARK UNBOUND:                -3.066
REMARK SMILES CCCCCC=CCC=CCCCCCCCCOC(C)=O
REMARK SMILES IDX 12 1 11 2 10 3 9 4 8 5 7 6 6 7 5 8 4 9 3 10 2 11 1 12 13 13
REMARK SMILES IDX 14 14 15 15 16 16 17 17 18 18 19 19 20 20 22 21 21 22
REMARK H PARENT
REMARK Flexibility Score: inf
ROOT
ATOM      1  C   UNL     1     -22.243  -5.784  -9.445  1.00  0.00     0.004 C 
ENDROOT
BRANCH   1   2
ATOM      2  C   UNL     1     -22.317  -4.338  -9.965  1.00  0.00     0.027 C 
BRANCH   2   3
ATOM      3  C   UNL     1     -21.019  -3.894 -10.603  1.00  0.00    -0.031 C 
ATOM      4  C   UNL     1     -20.038  -3.219  -9.973  1.00  0.00    -0.027 C 
BRANCH   4   5
ATOM      5  C   UNL     1     -20.057  -2.836  -8.514  1.00  0.00     0.054 C 
BRANCH   5   6
ATOM      6  C   UNL     1     -19.560  -3.964  -7.644  1.00  0.00    -0.027 C 
ATOM      7  C   UNL     1     -20.266  -4.487  -6.624  1.00  0.00    -0.031 C 
BRANCH   7   8
ATOM      8  C   UNL     1     -21.647  -4.034  -6.223  1.00  0.00     0.027 C 
BRANCH   8   9
ATOM      9  C   UNL     1     -22.364  -5.110  -5.396  1.00  0.00     0.004 C 
BRANCH   9  10
ATOM     10  C   UNL     1     -23.552  -5.743  -6.142  1.00  0.00     0.000 C 
BRANCH  10  11
ATOM     11  C   UNL     1     -24.325  -6.806  -5.339  1.00  0.00    -0.003 C 
ATOM     12  C   UNL     1     -24.358  -6.515  -3.839  1.00  0.00     0.004 C 
ENDBRANCH  10  11
ENDBRANCH   9  10
ENDBRANCH   8   9
ENDBRANCH   7   8
ENDBRANCH   5   6
ENDBRANCH   4   5
ENDBRANCH   2   3
ENDBRANCH   1   2
BRANCH   1  13
ATOM     13  C   UNL     1     -21.170  -6.660 -10.119  1.00  0.00     0.000 C 
BRANCH  13  14
ATOM     14  C   UNL     1     -20.240  -7.351  -9.110  1.00  0.00     0.000 C 
BRANCH  14  15
ATOM     15  C   UNL     1     -21.048  -8.077  -8.024  1.00  0.00     0.000 C 
BRANCH  15  16
ATOM     16  C   UNL     1     -20.355  -8.049  -6.652  1.00  0.00     0.003 C 
BRANCH  16  17
ATOM     17  C   UNL     1     -21.112  -8.860  -5.588  1.00  0.00     0.042 C 
BRANCH  17  18
ATOM     18  C   UNL     1     -22.156  -9.787  -6.220  1.00  0.00     0.233 C 
BRANCH  18  19
ATOM     19  O   UNL     1     -22.186 -11.056  -5.566  1.00  0.00    -0.466 OA
BRANCH  19  20
ATOM     20  C   UNL     1     -21.803 -12.251  -6.184  1.00  0.00     0.302 C 
ATOM     21  O   UNL     1     -22.610 -12.890  -6.912  1.00  0.00    -0.253 OA
ATOM     22  C   UNL     1     -20.436 -12.795  -5.941  1.00  0.00     0.139 C 
ENDBRANCH  19  20
ENDBRANCH  18  19
ENDBRANCH  17  18
ENDBRANCH  16  17
ENDBRANCH  15  16
ENDBRANCH  14  15
ENDBRANCH  13  14
ENDBRANCH   1  13
TORSDOF 16
ENDMDL
MODEL 9
REMARK VINA RESULT:    -4.312      1.735      4.001
REMARK INTER + INTRA:         -11.411
REMARK INTER:                  -8.233
REMARK INTRA:                  -3.178
REMARK UNBOUND:                -3.066
REMARK SMILES CCCCCC=CCC=CCCCCCCCCOC(C)=O
REMARK SMILES IDX 12 1 11 2 10 3 9 4 8 5 7 6 6 7 5 8 4 9 3 10 2 11 1 12 13 13
REMARK SMILES IDX 14 14 15 15 16 16 17 17 18 18 19 19 20 20 22 21 21 22
REMARK H PARENT
REMARK Flexibility Score: inf
ROOT
ATOM      1  C   UNL     1     -21.176  -3.696  -6.855  1.00  0.00     0.004 C 
ENDROOT
BRANCH   1   2
ATOM      2  C   UNL     1     -20.506  -3.094  -8.102  1.00  0.00     0.027 C 
BRANCH   2   3
ATOM      3  C   UNL     1     -21.520  -2.628  -9.124  1.00  0.00    -0.031 C 
ATOM      4  C   UNL     1     -21.775  -3.241 -10.296  1.00  0.00    -0.027 C 
BRANCH   4   5
ATOM      5  C   UNL     1     -21.121  -4.518 -10.760  1.00  0.00     0.054 C 
BRANCH   5   6
ATOM      6  C   UNL     1     -21.877  -5.730 -10.274  1.00  0.00    -0.027 C 
ATOM      7  C   UNL     1     -21.336  -6.685  -9.494  1.00  0.00    -0.031 C 
BRANCH   7   8
ATOM      8  C   UNL     1     -19.915  -6.669  -8.990  1.00  0.00     0.027 C 
BRANCH   8   9
ATOM      9  C   UNL     1     -19.855  -7.022  -7.496  1.00  0.00     0.004 C 
BRANCH   9  10
ATOM     10  C   UNL     1     -19.869  -8.540  -7.241  1.00  0.00     0.000 C 
BRANCH  10  11
ATOM     11  C   UNL     1     -21.242  -9.115  -6.848  1.00  0.00    -0.003 C 
ATOM     12  C   UNL     1     -21.141 -10.446  -6.103  1.00  0.00     0.004 C 
ENDBRANCH  10  11
ENDBRANCH   9  10
ENDBRANCH   8   9
ENDBRANCH   7   8
ENDBRANCH   5   6
ENDBRANCH   4   5
ENDBRANCH   2   3
ENDBRANCH   1   2
BRANCH   1  13
ATOM     13  C   UNL     1     -22.702  -3.504  -6.782  1.00  0.00     0.000 C 
BRANCH  13  14
ATOM     14  C   UNL     1     -23.484  -4.788  -7.100  1.00  0.00     0.000 C 
BRANCH  14  15
ATOM     15  C   UNL     1     -22.991  -5.960  -6.238  1.00  0.00     0.000 C 
BRANCH  15  16
ATOM     16  C   UNL     1     -24.088  -6.522  -5.319  1.00  0.00     0.003 C 
BRANCH  16  17
ATOM     17  C   UNL     1     -23.570  -7.624  -4.381  1.00  0.00     0.042 C 
BRANCH  17  18
ATOM     18  C   UNL     1     -22.245  -7.228  -3.719  1.00  0.00     0.233 C 
BRANCH  18  19
ATOM     19  O   UNL     1     -22.466  -6.487  -2.520  1.00  0.00    -0.466 OA
BRANCH  19  20
ATOM     20  C   UNL     1     -21.818  -5.282  -2.228  1.00  0.00     0.302 C 
ATOM     21  O   UNL     1     -21.242  -5.110  -1.120  1.00  0.00    -0.253 OA
ATOM     22  C   UNL     1     -21.850  -4.174  -3.225  1.00  0.00     0.139 C 
ENDBRANCH  19  20
ENDBRANCH  18  19
ENDBRANCH  17  18
ENDBRANCH  16  17
ENDBRANCH  15  16
ENDBRANCH  14  15
ENDBRANCH  13  14
ENDBRANCH   1  13
TORSDOF 16
ENDMDL
