MODEL 1
REMARK VINA RESULT:    -6.685      0.000      0.000
REMARK INTER + INTRA:          -7.479
REMARK INTER:                  -7.271
REMARK INTRA:                  -0.208
REMARK UNBOUND:                -0.208
REMARK SMILES C=C1C[C@@]2(O)O[C@@]3(C[C@@H]2C(C)C)[C@@H](C)CC[C@@H]13
REMARK SMILES IDX 14 1 13 2 15 3 16 4 17 5 7 6 8 7 9 8 4 9 6 10 3 11 2 12 1 13
REMARK SMILES IDX 10 14 11 15 12 16 5 17
REMARK H PARENT 5 18
REMARK Flexibility Score: inf
ROOT
ATOM      1  C   UNL     1     -16.077  -7.457  -1.213  1.00  0.00     0.011 C 
ATOM      2  C   UNL     1     -16.641  -6.142  -1.776  1.00  0.00     0.019 C 
ATOM      3  C   UNL     1     -15.911  -4.914  -1.219  1.00  0.00     0.007 C 
ATOM      4  C   UNL     1     -15.758  -3.918  -2.370  1.00  0.00     0.011 C 
ATOM      5  C   UNL     1     -16.510  -4.500  -3.567  1.00  0.00     0.047 C 
ATOM      6  C   UNL     1     -16.549  -6.023  -3.306  1.00  0.00     0.081 C 
ATOM      7  C   UNL     1     -17.682  -6.724  -4.047  1.00  0.00     0.046 C 
ATOM      8  C   UNL     1     -17.094  -6.931  -5.440  1.00  0.00     0.054 C 
ATOM      9  C   UNL     1     -15.571  -6.646  -5.197  1.00  0.00     0.173 C 
ATOM     10  O   UNL     1     -15.372  -6.607  -3.803  1.00  0.00    -0.342 OA
ATOM     11  C   UNL     1     -15.190  -5.238  -5.736  1.00  0.00     0.096 C 
ATOM     12  C   UNL     1     -15.837  -4.153  -4.893  1.00  0.00    -0.066 C 
ATOM     13  C   UNL     1     -15.807  -2.882  -5.317  1.00  0.00     0.008 C 
ENDROOT
BRANCH   8  14
ATOM     14  C   UNL     1     -17.452  -8.313  -6.078  1.00  0.00    -0.009 C 
ATOM     15  C   UNL     1     -18.693  -8.952  -5.420  1.00  0.00     0.008 C 
ATOM     16  C   UNL     1     -17.743  -8.168  -7.584  1.00  0.00     0.008 C 
ENDBRANCH   8  14
BRANCH   9  17
ATOM     17  O   UNL     1     -14.745  -7.661  -5.723  1.00  0.00    -0.365 OA
ATOM     18  H   UNL     1     -14.041  -7.255  -6.293  1.00  0.00     0.214 HD
ENDBRANCH   9  17
TORSDOF 2
ENDMDL
MODEL 2
REMARK VINA RESULT:    -6.320      1.528      3.346
REMARK INTER + INTRA:          -7.082
REMARK INTER:                  -7.022
REMARK INTRA:                  -0.060
REMARK UNBOUND:                -0.208
REMARK SMILES C=C1C[C@@]2(O)O[C@@]3(C[C@@H]2C(C)C)[C@@H](C)CC[C@@H]13
REMARK SMILES IDX 14 1 13 2 15 3 16 4 17 5 7 6 8 7 9 8 4 9 6 10 3 11 2 12 1 13
REMARK SMILES IDX 10 14 11 15 12 16 5 17
REMARK H PARENT 5 18
REMARK Flexibility Score: inf
ROOT
ATOM      1  C   UNL     1     -15.934  -3.249  -4.769  1.00  0.00     0.011 C 
ATOM      2  C   UNL     1     -15.487  -4.325  -3.766  1.00  0.00     0.019 C 
ATOM      3  C   UNL     1     -15.719  -3.893  -2.313  1.00  0.00     0.007 C 
ATOM      4  C   UNL     1     -16.211  -5.122  -1.548  1.00  0.00     0.011 C 
ATOM      5  C   UNL     1     -16.144  -6.305  -2.515  1.00  0.00     0.047 C 
ATOM      6  C   UNL     1     -16.215  -5.670  -3.922  1.00  0.00     0.081 C 
ATOM      7  C   UNL     1     -15.628  -6.564  -5.007  1.00  0.00     0.046 C 
ATOM      8  C   UNL     1     -16.784  -7.509  -5.325  1.00  0.00     0.054 C 
ATOM      9  C   UNL     1     -17.994  -6.788  -4.634  1.00  0.00     0.173 C 
ATOM     10  O   UNL     1     -17.561  -5.494  -4.281  1.00  0.00    -0.342 OA
ATOM     11  C   UNL     1     -18.364  -7.505  -3.304  1.00  0.00     0.096 C 
ATOM     12  C   UNL     1     -17.267  -7.311  -2.272  1.00  0.00    -0.066 C 
ATOM     13  C   UNL     1     -17.294  -8.024  -1.137  1.00  0.00     0.008 C 
ENDROOT
BRANCH   8  14
ATOM     14  C   UNL     1     -16.941  -7.827  -6.848  1.00  0.00    -0.009 C 
ATOM     15  C   UNL     1     -15.577  -8.000  -7.548  1.00  0.00     0.008 C 
ATOM     16  C   UNL     1     -17.744  -9.124  -7.062  1.00  0.00     0.008 C 
ENDBRANCH   8  14
BRANCH   9  17
ATOM     17  O   UNL     1     -19.102  -6.654  -5.495  1.00  0.00    -0.365 OA
ATOM     18  H   UNL     1     -18.933  -5.920  -6.142  1.00  0.00     0.214 HD
ENDBRANCH   9  17
TORSDOF 2
ENDMDL
MODEL 3
REMARK VINA RESULT:    -5.727      1.706      4.554
REMARK INTER + INTRA:          -6.437
REMARK INTER:                  -6.209
REMARK INTRA:                  -0.228
REMARK UNBOUND:                -0.208
REMARK SMILES C=C1C[C@@]2(O)O[C@@]3(C[C@@H]2C(C)C)[C@@H](C)CC[C@@H]13
REMARK SMILES IDX 14 1 13 2 15 3 16 4 17 5 7 6 8 7 9 8 4 9 6 10 3 11 2 12 1 13
REMARK SMILES IDX 10 14 11 15 12 16 5 17
REMARK H PARENT 5 18
REMARK Flexibility Score: inf
ROOT
ATOM      1  C   UNL     1     -18.179  -7.458  -5.991  1.00  0.00     0.011 C 
ATOM      2  C   UNL     1     -16.717  -7.905  -5.833  1.00  0.00     0.019 C 
ATOM      3  C   UNL     1     -16.059  -8.220  -7.183  1.00  0.00     0.007 C 
ATOM      4  C   UNL     1     -14.625  -7.691  -7.122  1.00  0.00     0.011 C 
ATOM      5  C   UNL     1     -14.397  -7.183  -5.698  1.00  0.00     0.047 C 
ATOM      6  C   UNL     1     -15.810  -6.859  -5.162  1.00  0.00     0.081 C 
ATOM      7  C   UNL     1     -15.885  -6.868  -3.640  1.00  0.00     0.046 C 
ATOM      8  C   UNL     1     -15.376  -5.476  -3.272  1.00  0.00     0.054 C 
ATOM      9  C   UNL     1     -15.426  -4.735  -4.653  1.00  0.00     0.173 C 
ATOM     10  O   UNL     1     -16.158  -5.552  -5.538  1.00  0.00    -0.342 OA
ATOM     11  C   UNL     1     -13.997  -4.608  -5.253  1.00  0.00     0.096 C 
ATOM     12  C   UNL     1     -13.468  -5.972  -5.661  1.00  0.00    -0.066 C 
ATOM     13  C   UNL     1     -12.178  -6.106  -6.000  1.00  0.00     0.008 C 
ENDROOT
BRANCH   8  14
ATOM     14  C   UNL     1     -16.158  -4.809  -2.094  1.00  0.00    -0.009 C 
ATOM     15  C   UNL     1     -17.227  -5.750  -1.500  1.00  0.00     0.008 C 
ATOM     16  C   UNL     1     -15.203  -4.407  -0.954  1.00  0.00     0.008 C 
ENDBRANCH   8  14
BRANCH   9  17
ATOM     17  O   UNL     1     -16.083  -3.491  -4.571  1.00  0.00    -0.365 OA
ATOM     18  H   UNL     1     -16.194  -3.112  -5.482  1.00  0.00     0.214 HD
ENDBRANCH   9  17
TORSDOF 2
ENDMDL
MODEL 4
REMARK VINA RESULT:    -5.695      1.263      1.455
REMARK INTER + INTRA:          -6.402
REMARK INTER:                  -6.228
REMARK INTRA:                  -0.174
REMARK UNBOUND:                -0.208
REMARK SMILES C=C1C[C@@]2(O)O[C@@]3(C[C@@H]2C(C)C)[C@@H](C)CC[C@@H]13
REMARK SMILES IDX 14 1 13 2 15 3 16 4 17 5 7 6 8 7 9 8 4 9 6 10 3 11 2 12 1 13
REMARK SMILES IDX 10 14 11 15 12 16 5 17
REMARK H PARENT 5 18
REMARK Flexibility Score: inf
ROOT
ATOM      1  C   UNL     1     -17.404  -7.757  -2.132  1.00  0.00     0.011 C 
ATOM      2  C   UNL     1     -17.320  -6.433  -2.908  1.00  0.00     0.019 C 
ATOM      3  C   UNL     1     -16.679  -5.315  -2.076  1.00  0.00     0.007 C 
ATOM      4  C   UNL     1     -15.779  -4.510  -3.015  1.00  0.00     0.011 C 
ATOM      5  C   UNL     1     -15.989  -5.070  -4.422  1.00  0.00     0.047 C 
ATOM      6  C   UNL     1     -16.493  -6.515  -4.202  1.00  0.00     0.081 C 
ATOM      7  C   UNL     1     -17.270  -7.061  -5.393  1.00  0.00     0.046 C 
ATOM      8  C   UNL     1     -16.160  -7.541  -6.325  1.00  0.00     0.054 C 
ATOM      9  C   UNL     1     -14.911  -7.535  -5.376  1.00  0.00     0.173 C 
ATOM     10  O   UNL     1     -15.389  -7.372  -4.060  1.00  0.00    -0.342 OA
ATOM     11  C   UNL     1     -14.011  -6.302  -5.672  1.00  0.00     0.096 C 
ATOM     12  C   UNL     1     -14.712  -5.020  -5.258  1.00  0.00    -0.066 C 
ATOM     13  C   UNL     1     -14.197  -3.837  -5.624  1.00  0.00     0.008 C 
ENDROOT
BRANCH   8  14
ATOM     14  C   UNL     1     -16.480  -8.892  -7.046  1.00  0.00    -0.009 C 
ATOM     15  C   UNL     1     -17.997  -9.108  -7.227  1.00  0.00     0.008 C 
ATOM     16  C   UNL     1     -15.831  -8.940  -8.442  1.00  0.00     0.008 C 
ENDBRANCH   8  14
BRANCH   9  17
ATOM     17  O   UNL     1     -14.192  -8.746  -5.427  1.00  0.00    -0.365 OA
ATOM     18  H   UNL     1     -14.304  -9.161  -6.322  1.00  0.00     0.214 HD
ENDBRANCH   9  17
TORSDOF 2
ENDMDL
MODEL 5
REMARK VINA RESULT:    -5.693      1.863      3.501
REMARK INTER + INTRA:          -6.400
REMARK INTER:                  -6.186
REMARK INTRA:                  -0.214
REMARK UNBOUND:                -0.208
REMARK SMILES C=C1C[C@@]2(O)O[C@@]3(C[C@@H]2C(C)C)[C@@H](C)CC[C@@H]13
REMARK SMILES IDX 14 1 13 2 15 3 16 4 17 5 7 6 8 7 9 8 4 9 6 10 3 11 2 12 1 13
REMARK SMILES IDX 10 14 11 15 12 16 5 17
REMARK H PARENT 5 18
REMARK Flexibility Score: inf
ROOT
ATOM      1  C   UNL     1     -14.037  -8.868  -5.515  1.00  0.00     0.011 C 
ATOM      2  C   UNL     1     -13.850  -7.475  -4.891  1.00  0.00     0.019 C 
ATOM      3  C   UNL     1     -13.198  -6.487  -5.867  1.00  0.00     0.007 C 
ATOM      4  C   UNL     1     -13.891  -5.137  -5.674  1.00  0.00     0.011 C 
ATOM      5  C   UNL     1     -14.857  -5.295  -4.499  1.00  0.00     0.047 C 
ATOM      6  C   UNL     1     -15.159  -6.809  -4.437  1.00  0.00     0.081 C 
ATOM      7  C   UNL     1     -15.635  -7.264  -3.062  1.00  0.00     0.046 C 
ATOM      8  C   UNL     1     -17.122  -6.921  -3.091  1.00  0.00     0.054 C 
ATOM      9  C   UNL     1     -17.364  -6.652  -4.618  1.00  0.00     0.173 C 
ATOM     10  O   UNL     1     -16.221  -7.104  -5.307  1.00  0.00    -0.342 OA
ATOM     11  C   UNL     1     -17.466  -5.124  -4.889  1.00  0.00     0.096 C 
ATOM     12  C   UNL     1     -16.119  -4.455  -4.675  1.00  0.00    -0.066 C 
ATOM     13  C   UNL     1     -16.043  -3.117  -4.651  1.00  0.00     0.008 C 
ENDROOT
BRANCH   8  14
ATOM     14  C   UNL     1     -18.033  -8.001  -2.421  1.00  0.00    -0.009 C 
ATOM     15  C   UNL     1     -17.228  -8.964  -1.525  1.00  0.00     0.008 C 
ATOM     16  C   UNL     1     -19.116  -7.343  -1.545  1.00  0.00     0.008 C 
ENDBRANCH   8  14
BRANCH   9  17
ATOM     17  O   UNL     1     -18.477  -7.359  -5.117  1.00  0.00    -0.365 OA
ATOM     18  H   UNL     1     -19.300  -7.054  -4.652  1.00  0.00     0.214 HD
ENDBRANCH   9  17
TORSDOF 2
ENDMDL
MODEL 6
REMARK VINA RESULT:    -5.498      1.786      3.597
REMARK INTER + INTRA:          -6.188
REMARK INTER:                  -5.964
REMARK INTRA:                  -0.224
REMARK UNBOUND:                -0.208
REMARK SMILES C=C1C[C@@]2(O)O[C@@]3(C[C@@H]2C(C)C)[C@@H](C)CC[C@@H]13
REMARK SMILES IDX 14 1 13 2 15 3 16 4 17 5 7 6 8 7 9 8 4 9 6 10 3 11 2 12 1 13
REMARK SMILES IDX 10 14 11 15 12 16 5 17
REMARK H PARENT 5 18
REMARK Flexibility Score: inf
ROOT
ATOM      1  C   UNL     1     -16.130  -3.634  -4.217  1.00  0.00     0.011 C 
ATOM      2  C   UNL     1     -15.463  -4.523  -5.279  1.00  0.00     0.019 C 
ATOM      3  C   UNL     1     -13.973  -4.202  -5.449  1.00  0.00     0.007 C 
ATOM      4  C   UNL     1     -13.242  -5.532  -5.638  1.00  0.00     0.011 C 
ATOM      5  C   UNL     1     -14.312  -6.623  -5.709  1.00  0.00     0.047 C 
ATOM      6  C   UNL     1     -15.532  -6.028  -4.970  1.00  0.00     0.081 C 
ATOM      7  C   UNL     1     -16.848  -6.679  -5.378  1.00  0.00     0.046 C 
ATOM      8  C   UNL     1     -16.881  -7.938  -4.516  1.00  0.00     0.054 C 
ATOM      9  C   UNL     1     -15.753  -7.644  -3.467  1.00  0.00     0.173 C 
ATOM     10  O   UNL     1     -15.409  -6.283  -3.595  1.00  0.00    -0.342 OA
ATOM     11  C   UNL     1     -14.470  -8.455  -3.809  1.00  0.00     0.096 C 
ATOM     12  C   UNL     1     -13.837  -7.935  -5.087  1.00  0.00    -0.066 C 
ATOM     13  C   UNL     1     -12.849  -8.631  -5.666  1.00  0.00     0.008 C 
ENDROOT
BRANCH   8  14
ATOM     14  C   UNL     1     -18.297  -8.273  -3.940  1.00  0.00    -0.009 C 
ATOM     15  C   UNL     1     -19.115  -7.001  -3.636  1.00  0.00     0.008 C 
ATOM     16  C   UNL     1     -19.109  -9.125  -4.934  1.00  0.00     0.008 C 
ENDBRANCH   8  14
BRANCH   9  17
ATOM     17  O   UNL     1     -16.183  -7.858  -2.142  1.00  0.00    -0.365 OA
ATOM     18  H   UNL     1     -16.581  -7.022  -1.782  1.00  0.00     0.214 HD
ENDBRANCH   9  17
TORSDOF 2
ENDMDL
MODEL 7
REMARK VINA RESULT:    -5.260      1.247      4.647
REMARK INTER + INTRA:          -5.930
REMARK INTER:                  -6.289
REMARK INTRA:                   0.360
REMARK UNBOUND:                -0.208
REMARK SMILES C=C1C[C@@]2(O)O[C@@]3(C[C@@H]2C(C)C)[C@@H](C)CC[C@@H]13
REMARK SMILES IDX 14 1 13 2 15 3 16 4 17 5 7 6 8 7 9 8 4 9 6 10 3 11 2 12 1 13
REMARK SMILES IDX 10 14 11 15 12 16 5 17
REMARK H PARENT 5 18
REMARK Flexibility Score: inf
ROOT
ATOM      1  C   UNL     1     -16.785  -8.027  -7.175  1.00  0.00     0.011 C 
ATOM      2  C   UNL     1     -17.973  -7.669  -6.267  1.00  0.00     0.019 C 
ATOM      3  C   UNL     1     -18.728  -8.914  -5.784  1.00  0.00     0.007 C 
ATOM      4  C   UNL     1     -19.114  -8.672  -4.324  1.00  0.00     0.011 C 
ATOM      5  C   UNL     1     -18.703  -7.238  -3.986  1.00  0.00     0.047 C 
ATOM      6  C   UNL     1     -17.582  -6.900  -4.994  1.00  0.00     0.081 C 
ATOM      7  C   UNL     1     -17.409  -5.402  -5.211  1.00  0.00     0.046 C 
ATOM      8  C   UNL     1     -16.535  -4.991  -4.029  1.00  0.00     0.054 C 
ATOM      9  C   UNL     1     -16.026  -6.378  -3.502  1.00  0.00     0.173 C 
ATOM     10  O   UNL     1     -16.351  -7.340  -4.480  1.00  0.00    -0.342 OA
ATOM     11  C   UNL     1     -16.795  -6.784  -2.214  1.00  0.00     0.096 C 
ATOM     12  C   UNL     1     -18.246  -7.097  -2.537  1.00  0.00    -0.066 C 
ATOM     13  C   UNL     1     -19.125  -7.259  -1.538  1.00  0.00     0.008 C 
ENDROOT
BRANCH   8  14
ATOM     14  C   UNL     1     -15.436  -3.938  -4.392  1.00  0.00    -0.009 C 
ATOM     15  C   UNL     1     -14.364  -4.520  -5.336  1.00  0.00     0.008 C 
ATOM     16  C   UNL     1     -16.056  -2.711  -5.087  1.00  0.00     0.008 C 
ENDBRANCH   8  14
BRANCH   9  17
ATOM     17  O   UNL     1     -14.628  -6.403  -3.320  1.00  0.00    -0.365 OA
ATOM     18  H   UNL     1     -14.179  -6.114  -4.157  1.00  0.00     0.214 HD
ENDBRANCH   9  17
TORSDOF 2
ENDMDL
MODEL 8
REMARK VINA RESULT:    -5.216      1.628      4.054
REMARK INTER + INTRA:          -5.882
REMARK INTER:                  -5.712
REMARK INTRA:                  -0.170
REMARK UNBOUND:                -0.208
REMARK SMILES C=C1C[C@@]2(O)O[C@@]3(C[C@@H]2C(C)C)[C@@H](C)CC[C@@H]13
REMARK SMILES IDX 14 1 13 2 15 3 16 4 17 5 7 6 8 7 9 8 4 9 6 10 3 11 2 12 1 13
REMARK SMILES IDX 10 14 11 15 12 16 5 17
REMARK H PARENT 5 18
REMARK Flexibility Score: inf
ROOT
ATOM      1  C   UNL     1     -19.120  -6.911  -4.888  1.00  0.00     0.011 C 
ATOM      2  C   UNL     1     -18.584  -6.572  -3.488  1.00  0.00     0.019 C 
ATOM      3  C   UNL     1     -19.010  -7.607  -2.439  1.00  0.00     0.007 C 
ATOM      4  C   UNL     1     -17.817  -7.825  -1.507  1.00  0.00     0.011 C 
ATOM      5  C   UNL     1     -16.736  -6.828  -1.926  1.00  0.00     0.047 C 
ATOM      6  C   UNL     1     -17.050  -6.502  -3.403  1.00  0.00     0.081 C 
ATOM      7  C   UNL     1     -16.470  -5.167  -3.853  1.00  0.00     0.046 C 
ATOM      8  C   UNL     1     -15.025  -5.524  -4.191  1.00  0.00     0.054 C 
ATOM      9  C   UNL     1     -15.079  -7.092  -4.235  1.00  0.00     0.173 C 
ATOM     10  O   UNL     1     -16.439  -7.462  -4.228  1.00  0.00    -0.342 OA
ATOM     11  C   UNL     1     -14.454  -7.692  -2.945  1.00  0.00     0.096 C 
ATOM     12  C   UNL     1     -15.329  -7.394  -1.740  1.00  0.00    -0.066 C 
ATOM     13  C   UNL     1     -14.863  -7.639  -0.507  1.00  0.00     0.008 C 
ENDROOT
BRANCH   8  14
ATOM     14  C   UNL     1     -14.480  -4.810  -5.471  1.00  0.00    -0.009 C 
ATOM     15  C   UNL     1     -15.169  -3.451  -5.715  1.00  0.00     0.008 C 
ATOM     16  C   UNL     1     -12.965  -4.552  -5.356  1.00  0.00     0.008 C 
ENDBRANCH   8  14
BRANCH   9  17
ATOM     17  O   UNL     1     -14.496  -7.616  -5.406  1.00  0.00    -0.365 OA
ATOM     18  H   UNL     1     -13.723  -8.190  -5.164  1.00  0.00     0.214 HD
ENDBRANCH   9  17
TORSDOF 2
ENDMDL
