MODEL 1
REMARK VINA RESULT:    -3.564      0.000      0.000
REMARK INTER + INTRA:          -4.145
REMARK INTER:                  -4.085
REMARK INTRA:                  -0.059
REMARK UNBOUND:                -0.059
REMARK SMILES CC(C)[C@H]([NH3+])C(=O)[O-]
REMARK SMILES IDX 4 1 5 2 6 6 7 7 8 8 2 9 1 10 3 11
REMARK H PARENT 5 3 5 4 5 5
REMARK Flexibility Score: inf
ROOT
ATOM      1  C   UNL     1     110.703 108.777 122.693  1.00  0.00     0.230 C 
ENDROOT
BRANCH   1   2
ATOM      2  N   UNL     1     109.333 108.739 122.160  1.00  0.00    -0.350 N 
ATOM      3  H   UNL     1     108.632 108.827 122.932  1.00  0.00     0.345 HD
ATOM      4  H   UNL     1     109.192 109.510 121.468  1.00  0.00     0.345 HD
ATOM      5  H   UNL     1     109.168 107.837 121.653  1.00  0.00     0.345 HD
ENDBRANCH   1   2
BRANCH   1   6
ATOM      6  C   UNL     1     111.648 109.251 121.616  1.00  0.00     0.099 C 
ATOM      7  O   UNL     1     112.756 108.677 121.441  1.00  0.00    -0.544 OA
ATOM      8  O   UNL     1     111.302 110.331 120.814  1.00  0.00    -0.544 OA
ENDBRANCH   1   6
BRANCH   1   9
ATOM      9  C   UNL     1     111.148 107.391 123.252  1.00  0.00     0.047 C 
ATOM     10  C   UNL     1     110.389 106.232 122.583  1.00  0.00     0.014 C 
ATOM     11  C   UNL     1     110.944 107.313 124.775  1.00  0.00     0.014 C 
ENDBRANCH   1   9
TORSDOF 3
ENDMDL
MODEL 2
REMARK VINA RESULT:    -3.557      2.238      3.045
REMARK INTER + INTRA:          -4.136
REMARK INTER:                  -4.107
REMARK INTRA:                  -0.029
REMARK UNBOUND:                -0.059
REMARK SMILES CC(C)[C@H]([NH3+])C(=O)[O-]
REMARK SMILES IDX 4 1 5 2 6 6 7 7 8 8 2 9 1 10 3 11
REMARK H PARENT 5 3 5 4 5 5
REMARK Flexibility Score: inf
ROOT
ATOM      1  C   UNL     1     110.765 108.193 122.340  1.00  0.00     0.230 C 
ENDROOT
BRANCH   1   2
ATOM      2  N   UNL     1     109.434 108.812 122.259  1.00  0.00    -0.350 N 
ATOM      3  H   UNL     1     108.702 108.093 122.056  1.00  0.00     0.345 HD
ATOM      4  H   UNL     1     109.207 109.301 123.154  1.00  0.00     0.345 HD
ATOM      5  H   UNL     1     109.419 109.536 121.502  1.00  0.00     0.345 HD
ENDBRANCH   1   2
BRANCH   1   6
ATOM      6  C   UNL     1     110.615 106.699 122.497  1.00  0.00     0.099 C 
ATOM      7  O   UNL     1     109.997 106.220 123.485  1.00  0.00    -0.544 OA
ATOM      8  O   UNL     1     111.167 105.842 121.554  1.00  0.00    -0.544 OA
ENDBRANCH   1   6
BRANCH   1   9
ATOM      9  C   UNL     1     111.615 108.791 123.502  1.00  0.00     0.047 C 
ATOM     10  C   UNL     1     111.997 110.257 123.238  1.00  0.00     0.014 C 
ATOM     11  C   UNL     1     112.896 107.971 123.735  1.00  0.00     0.014 C 
ENDBRANCH   1   9
TORSDOF 3
ENDMDL
MODEL 3
REMARK VINA RESULT:    -3.532      2.474      2.896
REMARK INTER + INTRA:          -4.107
REMARK INTER:                  -4.029
REMARK INTRA:                  -0.078
REMARK UNBOUND:                -0.059
REMARK SMILES CC(C)[C@H]([NH3+])C(=O)[O-]
REMARK SMILES IDX 4 1 5 2 6 6 7 7 8 8 2 9 1 10 3 11
REMARK H PARENT 5 3 5 4 5 5
REMARK Flexibility Score: inf
ROOT
ATOM      1  C   UNL     1     110.754 106.813 122.844  1.00  0.00     0.230 C 
ENDROOT
BRANCH   1   2
ATOM      2  N   UNL     1     109.484 107.005 122.127  1.00  0.00    -0.350 N 
ATOM      3  H   UNL     1     109.304 106.209 121.472  1.00  0.00     0.345 HD
ATOM      4  H   UNL     1     108.694 107.085 122.807  1.00  0.00     0.345 HD
ATOM      5  H   UNL     1     109.510 107.897 121.580  1.00  0.00     0.345 HD
ENDBRANCH   1   2
BRANCH   1   6
ATOM      6  C   UNL     1     110.778 107.695 124.068  1.00  0.00     0.099 C 
ATOM      7  O   UNL     1     110.791 107.185 125.221  1.00  0.00    -0.544 OA
ATOM      8  O   UNL     1     110.778 109.077 123.930  1.00  0.00    -0.544 OA
ENDBRANCH   1   6
BRANCH   1   9
ATOM      9  C   UNL     1     111.985 107.098 121.930  1.00  0.00     0.047 C 
ATOM     10  C   UNL     1     111.934 106.281 120.628  1.00  0.00     0.014 C 
ATOM     11  C   UNL     1     113.304 106.795 122.662  1.00  0.00     0.014 C 
ENDBRANCH   1   9
TORSDOF 3
ENDMDL
MODEL 4
REMARK VINA RESULT:    -3.447      2.351      3.272
REMARK INTER + INTRA:          -4.010
REMARK INTER:                  -3.941
REMARK INTRA:                  -0.070
REMARK UNBOUND:                -0.059
REMARK SMILES CC(C)[C@H]([NH3+])C(=O)[O-]
REMARK SMILES IDX 4 1 5 2 6 6 7 7 8 8 2 9 1 10 3 11
REMARK H PARENT 5 3 5 4 5 5
REMARK Flexibility Score: inf
ROOT
ATOM      1  C   UNL     1     110.600 108.019 122.297  1.00  0.00     0.230 C 
ENDROOT
BRANCH   1   2
ATOM      2  N   UNL     1     109.332 108.758 122.205  1.00  0.00    -0.350 N 
ATOM      3  H   UNL     1     109.271 109.277 121.299  1.00  0.00     0.345 HD
ATOM      4  H   UNL     1     108.523 108.101 122.288  1.00  0.00     0.345 HD
ATOM      5  H   UNL     1     109.255 109.441 122.995  1.00  0.00     0.345 HD
ENDBRANCH   1   2
BRANCH   1   6
ATOM      6  C   UNL     1     110.570 107.121 123.510  1.00  0.00     0.099 C 
ATOM      7  O   UNL     1     110.299 105.896 123.390  1.00  0.00    -0.544 OA
ATOM      8  O   UNL     1     110.836 107.643 124.769  1.00  0.00    -0.544 OA
ENDBRANCH   1   6
BRANCH   1   9
ATOM      9  C   UNL     1     111.829 108.977 122.346  1.00  0.00     0.047 C 
ATOM     10  C   UNL     1     111.712 110.112 121.315  1.00  0.00     0.014 C 
ATOM     11  C   UNL     1     113.142 108.211 122.104  1.00  0.00     0.014 C 
ENDBRANCH   1   9
TORSDOF 3
ENDMDL
MODEL 5
REMARK VINA RESULT:    -3.239      3.325      3.722
REMARK INTER + INTRA:          -3.772
REMARK INTER:                  -3.714
REMARK INTRA:                  -0.057
REMARK UNBOUND:                -0.059
REMARK SMILES CC(C)[C@H]([NH3+])C(=O)[O-]
REMARK SMILES IDX 4 1 5 2 6 6 7 7 8 8 2 9 1 10 3 11
REMARK H PARENT 5 3 5 4 5 5
REMARK Flexibility Score: inf
ROOT
ATOM      1  C   UNL     1     112.785 106.991 123.288  1.00  0.00     0.230 C 
ENDROOT
BRANCH   1   2
ATOM      2  N   UNL     1     112.751 106.259 122.013  1.00  0.00    -0.350 N 
ATOM      3  H   UNL     1     112.432 106.882 121.236  1.00  0.00     0.345 HD
ATOM      4  H   UNL     1     113.698 105.877 121.790  1.00  0.00     0.345 HD
ATOM      5  H   UNL     1     112.100 105.442 122.084  1.00  0.00     0.345 HD
ENDBRANCH   1   2
BRANCH   1   6
ATOM      6  C   UNL     1     113.747 106.313 124.232  1.00  0.00     0.099 C 
ATOM      7  O   UNL     1     114.821 105.816 123.799  1.00  0.00    -0.544 OA
ATOM      8  O   UNL     1     113.448 106.226 125.585  1.00  0.00    -0.544 OA
ENDBRANCH   1   6
BRANCH   1   9
ATOM      9  C   UNL     1     111.368 107.108 123.928  1.00  0.00     0.047 C 
ATOM     10  C   UNL     1     110.303 106.365 123.103  1.00  0.00     0.014 C 
ATOM     11  C   UNL     1     110.946 108.580 124.085  1.00  0.00     0.014 C 
ENDBRANCH   1   9
TORSDOF 3
ENDMDL
MODEL 6
REMARK VINA RESULT:    -3.217      3.057      3.603
REMARK INTER + INTRA:          -3.746
REMARK INTER:                  -3.699
REMARK INTRA:                  -0.047
REMARK UNBOUND:                -0.059
REMARK SMILES CC(C)[C@H]([NH3+])C(=O)[O-]
REMARK SMILES IDX 4 1 5 2 6 6 7 7 8 8 2 9 1 10 3 11
REMARK H PARENT 5 3 5 4 5 5
REMARK Flexibility Score: inf
ROOT
ATOM      1  C   UNL     1     111.782 105.899 122.790  1.00  0.00     0.230 C 
ENDROOT
BRANCH   1   2
ATOM      2  N   UNL     1     111.530 105.517 121.393  1.00  0.00    -0.350 N 
ATOM      3  H   UNL     1     110.514 105.612 121.160  1.00  0.00     0.345 HD
ATOM      4  H   UNL     1     112.095 106.113 120.747  1.00  0.00     0.345 HD
ATOM      5  H   UNL     1     111.824 104.524 121.232  1.00  0.00     0.345 HD
ENDBRANCH   1   2
BRANCH   1   6
ATOM      6  C   UNL     1     110.633 106.737 123.297  1.00  0.00     0.099 C 
ATOM      7  O   UNL     1     109.657 107.002 122.545  1.00  0.00    -0.544 OA
ATOM      8  O   UNL     1     110.652 107.229 124.595  1.00  0.00    -0.544 OA
ENDBRANCH   1   6
BRANCH   1   9
ATOM      9  C   UNL     1     113.135 106.657 122.951  1.00  0.00     0.047 C 
ATOM     10  C   UNL     1     113.844 106.857 121.600  1.00  0.00     0.014 C 
ATOM     11  C   UNL     1     114.081 105.912 123.909  1.00  0.00     0.014 C 
ENDBRANCH   1   9
TORSDOF 3
ENDMDL
MODEL 7
REMARK VINA RESULT:    -3.208      3.309      3.980
REMARK INTER + INTRA:          -3.736
REMARK INTER:                  -3.705
REMARK INTRA:                  -0.031
REMARK UNBOUND:                -0.059
REMARK SMILES CC(C)[C@H]([NH3+])C(=O)[O-]
REMARK SMILES IDX 4 1 5 2 6 6 7 7 8 8 2 9 1 10 3 11
REMARK H PARENT 5 3 5 4 5 5
REMARK Flexibility Score: inf
ROOT
ATOM      1  C   UNL     1     112.456 107.076 124.304  1.00  0.00     0.230 C 
ENDROOT
BRANCH   1   2
ATOM      2  N   UNL     1     112.875 108.469 124.090  1.00  0.00    -0.350 N 
ATOM      3  H   UNL     1     113.907 108.571 124.226  1.00  0.00     0.345 HD
ATOM      4  H   UNL     1     112.615 108.781 123.127  1.00  0.00     0.345 HD
ATOM      5  H   UNL     1     112.380 109.102 124.762  1.00  0.00     0.345 HD
ENDBRANCH   1   2
BRANCH   1   6
ATOM      6  C   UNL     1     113.644 106.256 124.746  1.00  0.00     0.099 C 
ATOM      7  O   UNL     1     113.833 106.015 125.968  1.00  0.00    -0.544 OA
ATOM      8  O   UNL     1     114.541 105.769 123.804  1.00  0.00    -0.544 OA
ENDBRANCH   1   6
BRANCH   1   9
ATOM      9  C   UNL     1     111.802 106.463 123.028  1.00  0.00     0.047 C 
ATOM     10  C   UNL     1     112.156 107.262 121.762  1.00  0.00     0.014 C 
ATOM     11  C   UNL     1     110.271 106.391 123.166  1.00  0.00     0.014 C 
ENDBRANCH   1   9
TORSDOF 3
ENDMDL
MODEL 8
REMARK VINA RESULT:    -3.168      2.822      3.542
REMARK INTER + INTRA:          -3.690
REMARK INTER:                  -3.631
REMARK INTRA:                  -0.059
REMARK UNBOUND:                -0.059
REMARK SMILES CC(C)[C@H]([NH3+])C(=O)[O-]
REMARK SMILES IDX 4 1 5 2 6 6 7 7 8 8 2 9 1 10 3 11
REMARK H PARENT 5 3 5 4 5 5
REMARK Flexibility Score: inf
ROOT
ATOM      1  C   UNL     1     113.083 106.288 123.809  1.00  0.00     0.230 C 
ENDROOT
BRANCH   1   2
ATOM      2  N   UNL     1     113.432 106.645 125.192  1.00  0.00    -0.350 N 
ATOM      3  H   UNL     1     113.130 105.895 125.856  1.00  0.00     0.345 HD
ATOM      4  H   UNL     1     114.463 106.794 125.277  1.00  0.00     0.345 HD
ATOM      5  H   UNL     1     112.969 107.545 125.460  1.00  0.00     0.345 HD
ENDBRANCH   1   2
BRANCH   1   6
ATOM      6  C   UNL     1     114.178 106.749 122.879  1.00  0.00     0.099 C 
ATOM      7  O   UNL     1     115.307 106.190 122.896  1.00  0.00    -0.544 OA
ATOM      8  O   UNL     1     113.948 107.802 122.002  1.00  0.00    -0.544 OA
ENDBRANCH   1   6
BRANCH   1   9
ATOM      9  C   UNL     1     111.706 106.885 123.384  1.00  0.00     0.047 C 
ATOM     10  C   UNL     1     110.910 107.407 124.593  1.00  0.00     0.014 C 
ATOM     11  C   UNL     1     110.856 105.846 122.633  1.00  0.00     0.014 C 
ENDBRANCH   1   9
TORSDOF 3
ENDMDL
MODEL 9
REMARK VINA RESULT:    -3.131      3.301      3.940
REMARK INTER + INTRA:          -3.647
REMARK INTER:                  -3.593
REMARK INTRA:                  -0.055
REMARK UNBOUND:                -0.059
REMARK SMILES CC(C)[C@H]([NH3+])C(=O)[O-]
REMARK SMILES IDX 4 1 5 2 6 6 7 7 8 8 2 9 1 10 3 11
REMARK H PARENT 5 3 5 4 5 5
REMARK Flexibility Score: inf
ROOT
ATOM      1  C   UNL     1     112.663 107.303 123.430  1.00  0.00     0.230 C 
ENDROOT
BRANCH   1   2
ATOM      2  N   UNL     1     113.073 108.530 124.129  1.00  0.00    -0.350 N 
ATOM      3  H   UNL     1     113.870 108.338 124.778  1.00  0.00     0.345 HD
ATOM      4  H   UNL     1     113.352 109.264 123.440  1.00  0.00     0.345 HD
ATOM      5  H   UNL     1     112.271 108.916 124.681  1.00  0.00     0.345 HD
ENDBRANCH   1   2
BRANCH   1   6
ATOM      6  C   UNL     1     111.245 106.957 123.813  1.00  0.00     0.099 C 
ATOM      7  O   UNL     1     110.728 107.445 124.853  1.00  0.00    -0.544 OA
ATOM      8  O   UNL     1     110.504 106.088 123.022  1.00  0.00    -0.544 OA
ENDBRANCH   1   6
BRANCH   1   9
ATOM      9  C   UNL     1     113.626 106.114 123.729  1.00  0.00     0.047 C 
ATOM     10  C   UNL     1     114.018 106.053 125.216  1.00  0.00     0.014 C 
ATOM     11  C   UNL     1     114.903 106.203 122.876  1.00  0.00     0.014 C 
ENDBRANCH   1   9
TORSDOF 3
ENDMDL
