MODEL 1
REMARK VINA RESULT:    -3.295      0.000      0.000
REMARK INTER + INTRA:          -3.710
REMARK INTER:                  -3.584
REMARK INTRA:                  -0.127
REMARK UNBOUND:                -0.127
REMARK SMILES Cc1ccc(C(C)C)cc1O
REMARK SMILES IDX 1 1 2 2 10 3 9 4 5 5 4 6 3 7 11 8 6 10 7 11 8 12
REMARK H PARENT 11 9
REMARK Flexibility Score: inf
ROOT
ATOM      1  C   UNL     1     115.820 118.643 105.183  1.00  0.00     0.048 C 
ATOM      2  C   UNL     1     116.671 118.287 106.371  1.00  0.00    -0.009 A 
ATOM      3  C   UNL     1     118.080 118.246 106.277  1.00  0.00     0.118 A 
ATOM      4  C   UNL     1     118.842 117.911 107.402  1.00  0.00     0.050 A 
ATOM      5  C   UNL     1     118.229 117.613 108.629  1.00  0.00    -0.042 A 
ATOM      6  C   UNL     1     116.826 117.656 108.716  1.00  0.00     0.004 A 
ATOM      7  C   UNL     1     116.057 117.990 107.599  1.00  0.00     0.007 A 
ENDROOT
BRANCH   3   8
ATOM      8  O   UNL     1     118.749 118.531 105.086  1.00  0.00    -0.508 OA
ATOM      9  H   UNL     1     119.503 117.958 104.726  1.00  0.00     0.293 HD
ENDBRANCH   3   8
BRANCH   5  10
ATOM     10  C   UNL     1     119.076 117.253 109.836  1.00  0.00     0.013 C 
ATOM     11  C   UNL     1     118.245 116.524 110.898  1.00  0.00     0.012 C 
ATOM     12  C   UNL     1     120.297 116.421 109.424  1.00  0.00     0.012 C 
ENDBRANCH   5  10
TORSDOF 2
ENDMDL
MODEL 2
REMARK VINA RESULT:    -3.283     13.040     13.530
REMARK INTER + INTRA:          -3.698
REMARK INTER:                  -3.571
REMARK INTRA:                  -0.126
REMARK UNBOUND:                -0.127
REMARK SMILES Cc1ccc(C(C)C)cc1O
REMARK SMILES IDX 1 1 2 2 10 3 9 4 5 5 4 6 3 7 11 8 6 10 7 11 8 12
REMARK H PARENT 11 9
REMARK Flexibility Score: inf
ROOT
ATOM      1  C   UNL     1     130.385 115.806 105.232  1.00  0.00     0.048 C 
ATOM      2  C   UNL     1     130.725 116.674 106.411  1.00  0.00    -0.009 A 
ATOM      3  C   UNL     1     130.736 118.082 106.306  1.00  0.00     0.118 A 
ATOM      4  C   UNL     1     131.057 118.862 107.423  1.00  0.00     0.050 A 
ATOM      5  C   UNL     1     131.369 118.265 108.655  1.00  0.00    -0.042 A 
ATOM      6  C   UNL     1     131.355 116.863 108.754  1.00  0.00     0.004 A 
ATOM      7  C   UNL     1     131.036 116.077 107.644  1.00  0.00     0.007 A 
ENDROOT
BRANCH   3   8
ATOM      8  O   UNL     1     130.437 118.735 105.108  1.00  0.00    -0.508 OA
ATOM      9  H   UNL     1     130.970 119.523 104.761  1.00  0.00     0.293 HD
ENDBRANCH   3   8
BRANCH   5  10
ATOM     10  C   UNL     1     131.712 119.131 109.854  1.00  0.00     0.013 C 
ATOM     11  C   UNL     1     132.471 118.327 110.918  1.00  0.00     0.012 C 
ATOM     12  C   UNL     1     132.508 120.371 109.429  1.00  0.00     0.012 C 
ENDBRANCH   5  10
TORSDOF 2
ENDMDL
MODEL 3
REMARK VINA RESULT:    -3.280     13.072     13.632
REMARK INTER + INTRA:          -3.694
REMARK INTER:                  -3.568
REMARK INTRA:                  -0.126
REMARK UNBOUND:                -0.127
REMARK SMILES Cc1ccc(C(C)C)cc1O
REMARK SMILES IDX 1 1 2 2 10 3 9 4 5 5 4 6 3 7 11 8 6 10 7 11 8 12
REMARK H PARENT 11 9
REMARK Flexibility Score: inf
ROOT
ATOM      1  C   UNL     1     118.766 133.293 104.982  1.00  0.00     0.048 C 
ATOM      2  C   UNL     1     118.351 132.438 106.148  1.00  0.00    -0.009 A 
ATOM      3  C   UNL     1     118.325 131.029 106.050  1.00  0.00     0.118 A 
ATOM      4  C   UNL     1     117.933 130.262 107.154  1.00  0.00     0.050 A 
ATOM      5  C   UNL     1     117.564 130.872 108.363  1.00  0.00    -0.042 A 
ATOM      6  C   UNL     1     117.593 132.275 108.454  1.00  0.00     0.004 A 
ATOM      7  C   UNL     1     117.982 133.048 107.358  1.00  0.00     0.007 A 
ENDROOT
BRANCH   3   8
ATOM      8  O   UNL     1     118.679 130.364 104.875  1.00  0.00    -0.508 OA
ATOM      9  H   UNL     1     119.500 129.775 104.801  1.00  0.00     0.293 HD
ENDBRANCH   3   8
BRANCH   5  10
ATOM     10  C   UNL     1     117.143 130.020 109.547  1.00  0.00     0.013 C 
ATOM     11  C   UNL     1     116.178 130.783 110.463  1.00  0.00     0.012 C 
ATOM     12  C   UNL     1     116.530 128.694 109.082  1.00  0.00     0.012 C 
ENDBRANCH   5  10
TORSDOF 2
ENDMDL
MODEL 4
REMARK VINA RESULT:    -3.262      9.412     10.278
REMARK INTER + INTRA:          -3.675
REMARK INTER:                  -3.548
REMARK INTRA:                  -0.126
REMARK UNBOUND:                -0.127
REMARK SMILES Cc1ccc(C(C)C)cc1O
REMARK SMILES IDX 1 1 2 2 10 3 9 4 5 5 4 6 3 7 11 8 6 10 7 11 8 12
REMARK H PARENT 11 9
REMARK Flexibility Score: inf
ROOT
ATOM      1  C   UNL     1     121.348 123.552 106.827  1.00  0.00     0.048 C 
ATOM      2  C   UNL     1     122.687 124.228 106.932  1.00  0.00    -0.009 A 
ATOM      3  C   UNL     1     122.847 125.428 107.660  1.00  0.00     0.118 A 
ATOM      4  C   UNL     1     124.107 126.032 107.739  1.00  0.00     0.050 A 
ATOM      5  C   UNL     1     125.222 125.462 107.104  1.00  0.00    -0.042 A 
ATOM      6  C   UNL     1     125.057 124.268 106.381  1.00  0.00     0.004 A 
ATOM      7  C   UNL     1     123.803 123.658 106.297  1.00  0.00     0.007 A 
ENDROOT
BRANCH   3   8
ATOM      8  O   UNL     1     121.777 126.044 108.312  1.00  0.00    -0.508 OA
ATOM      9  H   UNL     1     121.779 126.247 109.304  1.00  0.00     0.293 HD
ENDBRANCH   3   8
BRANCH   5  10
ATOM     10  C   UNL     1     126.579 126.135 107.203  1.00  0.00     0.013 C 
ATOM     11  C   UNL     1     126.758 126.820 108.564  1.00  0.00     0.012 C 
ATOM     12  C   UNL     1     127.712 125.136 106.936  1.00  0.00     0.012 C 
ENDBRANCH   5  10
TORSDOF 2
ENDMDL
MODEL 5
REMARK VINA RESULT:    -3.261      9.484     10.327
REMARK INTER + INTRA:          -3.673
REMARK INTER:                  -3.547
REMARK INTRA:                  -0.126
REMARK UNBOUND:                -0.127
REMARK SMILES Cc1ccc(C(C)C)cc1O
REMARK SMILES IDX 1 1 2 2 10 3 9 4 5 5 4 6 3 7 11 8 6 10 7 11 8 12
REMARK H PARENT 11 9
REMARK Flexibility Score: inf
ROOT
ATOM      1  C   UNL     1     123.607 127.674 106.804  1.00  0.00     0.048 C 
ATOM      2  C   UNL     1     124.252 126.320 106.916  1.00  0.00    -0.009 A 
ATOM      3  C   UNL     1     125.445 126.135 107.648  1.00  0.00     0.118 A 
ATOM      4  C   UNL     1     126.019 124.861 107.732  1.00  0.00     0.050 A 
ATOM      5  C   UNL     1     125.427 123.757 107.099  1.00  0.00    -0.042 A 
ATOM      6  C   UNL     1     124.238 123.948 106.372  1.00  0.00     0.004 A 
ATOM      7  C   UNL     1     123.658 125.215 106.282  1.00  0.00     0.007 A 
ENDROOT
BRANCH   3   8
ATOM      8  O   UNL     1     126.084 127.192 108.299  1.00  0.00    -0.508 OA
ATOM      9  H   UNL     1     127.000 127.531 108.032  1.00  0.00     0.293 HD
ENDBRANCH   3   8
BRANCH   5  10
ATOM     10  C   UNL     1     126.068 122.385 107.205  1.00  0.00     0.013 C 
ATOM     11  C   UNL     1     126.783 122.212 108.550  1.00  0.00     0.012 C 
ATOM     12  C   UNL     1     125.035 121.274 106.982  1.00  0.00     0.012 C 
ENDBRANCH   5  10
TORSDOF 2
ENDMDL
MODEL 6
REMARK VINA RESULT:    -3.258      8.549      9.789
REMARK INTER + INTRA:          -3.671
REMARK INTER:                  -3.545
REMARK INTRA:                  -0.126
REMARK UNBOUND:                -0.127
REMARK SMILES Cc1ccc(C(C)C)cc1O
REMARK SMILES IDX 1 1 2 2 10 3 9 4 5 5 4 6 3 7 11 8 6 10 7 11 8 12
REMARK H PARENT 11 9
REMARK Flexibility Score: inf
ROOT
ATOM      1  C   UNL     1     125.426 121.343 106.839  1.00  0.00     0.048 C 
ATOM      2  C   UNL     1     124.770 122.694 106.933  1.00  0.00    -0.009 A 
ATOM      3  C   UNL     1     123.577 122.879 107.665  1.00  0.00     0.118 A 
ATOM      4  C   UNL     1     122.993 124.150 107.733  1.00  0.00     0.050 A 
ATOM      5  C   UNL     1     123.575 125.249 107.083  1.00  0.00    -0.042 A 
ATOM      6  C   UNL     1     124.763 125.057 106.356  1.00  0.00     0.004 A 
ATOM      7  C   UNL     1     125.354 123.794 106.282  1.00  0.00     0.007 A 
ENDROOT
BRANCH   3   8
ATOM      8  O   UNL     1     122.949 121.826 108.333  1.00  0.00    -0.508 OA
ATOM      9  H   UNL     1     122.888 121.772 109.342  1.00  0.00     0.293 HD
ENDBRANCH   3   8
BRANCH   5  10
ATOM     10  C   UNL     1     122.923 126.617 107.171  1.00  0.00     0.013 C 
ATOM     11  C   UNL     1     122.145 126.775 108.483  1.00  0.00     0.012 C 
ATOM     12  C   UNL     1     123.960 127.735 107.006  1.00  0.00     0.012 C 
ENDBRANCH   5  10
TORSDOF 2
ENDMDL
MODEL 7
REMARK VINA RESULT:    -3.236      8.565      9.734
REMARK INTER + INTRA:          -3.646
REMARK INTER:                  -3.522
REMARK INTRA:                  -0.124
REMARK UNBOUND:                -0.127
REMARK SMILES Cc1ccc(C(C)C)cc1O
REMARK SMILES IDX 1 1 2 2 10 3 9 4 5 5 4 6 3 7 11 8 6 10 7 11 8 12
REMARK H PARENT 11 9
REMARK Flexibility Score: inf
ROOT
ATOM      1  C   UNL     1     127.542 125.353 106.766  1.00  0.00     0.048 C 
ATOM      2  C   UNL     1     126.176 124.738 106.906  1.00  0.00    -0.009 A 
ATOM      3  C   UNL     1     125.976 123.563 107.663  1.00  0.00     0.118 A 
ATOM      4  C   UNL     1     124.692 123.017 107.774  1.00  0.00     0.050 A 
ATOM      5  C   UNL     1     123.593 123.620 107.142  1.00  0.00    -0.042 A 
ATOM      6  C   UNL     1     123.799 124.790 106.391  1.00  0.00     0.004 A 
ATOM      7  C   UNL     1     125.077 125.343 106.275  1.00  0.00     0.007 A 
ENDROOT
BRANCH   3   8
ATOM      8  O   UNL     1     127.028 122.915 108.314  1.00  0.00    -0.508 OA
ATOM      9  H   UNL     1     127.698 123.401 108.897  1.00  0.00     0.293 HD
ENDBRANCH   3   8
BRANCH   5  10
ATOM     10  C   UNL     1     122.210 123.010 107.276  1.00  0.00     0.013 C 
ATOM     11  C   UNL     1     122.149 122.033 108.458  1.00  0.00     0.012 C 
ATOM     12  C   UNL     1     121.136 124.097 107.403  1.00  0.00     0.012 C 
ENDBRANCH   5  10
TORSDOF 2
ENDMDL
MODEL 8
REMARK VINA RESULT:    -3.218      7.967      9.409
REMARK INTER + INTRA:          -3.626
REMARK INTER:                  -3.500
REMARK INTRA:                  -0.126
REMARK UNBOUND:                -0.127
REMARK SMILES Cc1ccc(C(C)C)cc1O
REMARK SMILES IDX 1 1 2 2 10 3 9 4 5 5 4 6 3 7 11 8 6 10 7 11 8 12
REMARK H PARENT 11 9
REMARK Flexibility Score: inf
ROOT
ATOM      1  C   UNL     1     124.756 119.746 109.441  1.00  0.00     0.048 C 
ATOM      2  C   UNL     1     124.749 120.984 108.588  1.00  0.00    -0.009 A 
ATOM      3  C   UNL     1     125.944 121.505 108.043  1.00  0.00     0.118 A 
ATOM      4  C   UNL     1     125.903 122.659 107.252  1.00  0.00     0.050 A 
ATOM      5  C   UNL     1     124.688 123.313 106.989  1.00  0.00    -0.042 A 
ATOM      6  C   UNL     1     123.503 122.789 107.534  1.00  0.00     0.004 A 
ATOM      7  C   UNL     1     123.534 121.638 108.324  1.00  0.00     0.007 A 
ENDROOT
BRANCH   3   8
ATOM      8  O   UNL     1     127.183 120.902 108.269  1.00  0.00    -0.508 OA
ATOM      9  H   UNL     1     127.399 120.385 109.112  1.00  0.00     0.293 HD
ENDBRANCH   3   8
BRANCH   5  10
ATOM     10  C   UNL     1     124.669 124.563 106.129  1.00  0.00     0.013 C 
ATOM     11  C   UNL     1     123.279 125.212 106.128  1.00  0.00     0.012 C 
ATOM     12  C   UNL     1     125.743 125.560 106.578  1.00  0.00     0.012 C 
ENDBRANCH   5  10
TORSDOF 2
ENDMDL
MODEL 9
REMARK VINA RESULT:    -3.173     18.357     19.284
REMARK INTER + INTRA:          -3.578
REMARK INTER:                  -3.452
REMARK INTRA:                  -0.126
REMARK UNBOUND:                -0.127
REMARK SMILES Cc1ccc(C(C)C)cc1O
REMARK SMILES IDX 1 1 2 2 10 3 9 4 5 5 4 6 3 7 11 8 6 10 7 11 8 12
REMARK H PARENT 11 9
REMARK Flexibility Score: inf
ROOT
ATOM      1  C   UNL     1     133.494 130.211 105.106  1.00  0.00     0.048 C 
ATOM      2  C   UNL     1     132.599 130.624 106.242  1.00  0.00    -0.009 A 
ATOM      3  C   UNL     1     131.196 130.678 106.086  1.00  0.00     0.118 A 
ATOM      4  C   UNL     1     130.391 131.066 107.163  1.00  0.00     0.050 A 
ATOM      5  C   UNL     1     130.956 131.405 108.403  1.00  0.00    -0.042 A 
ATOM      6  C   UNL     1     132.353 131.348 108.551  1.00  0.00     0.004 A 
ATOM      7  C   UNL     1     133.164 130.962 107.482  1.00  0.00     0.007 A 
ENDROOT
BRANCH   3   8
ATOM      8  O   UNL     1     130.574 130.355 104.878  1.00  0.00    -0.508 OA
ATOM      9  H   UNL     1     130.393 129.402 104.589  1.00  0.00     0.293 HD
ENDBRANCH   3   8
BRANCH   5  10
ATOM     10  C   UNL     1     130.062 131.823 109.557  1.00  0.00     0.013 C 
ATOM     11  C   UNL     1     130.801 132.766 110.514  1.00  0.00     0.012 C 
ATOM     12  C   UNL     1     128.764 132.459 109.048  1.00  0.00     0.012 C 
ENDBRANCH   5  10
TORSDOF 2
ENDMDL
