MODEL 1
REMARK VINA RESULT:    -2.883      0.000      0.000
REMARK INTER + INTRA:          -5.955
REMARK INTER:                  -4.568
REMARK INTRA:                  -1.387
REMARK UNBOUND:                -1.387
REMARK SMILES CCCCCCCCCCCC(=O)[O-]
REMARK SMILES IDX 7 1 8 2 9 3 10 4 11 5 12 6 13 7 14 8 6 9 5 10 4 11 3 12 2 13
REMARK SMILES IDX 1 14
REMARK H PARENT
REMARK Flexibility Score: inf
ROOT
ATOM      1  C   UNL     1     166.633 169.047 152.326  1.00  0.00     0.000 C 
ENDROOT
BRANCH   1   2
ATOM      2  C   UNL     1     168.104 168.912 151.909  1.00  0.00     0.000 C 
BRANCH   2   3
ATOM      3  C   UNL     1     168.812 170.270 151.762  1.00  0.00     0.000 C 
BRANCH   3   4
ATOM      4  C   UNL     1     169.971 170.257 150.743  1.00  0.00     0.006 C 
BRANCH   4   5
ATOM      5  C   UNL     1     170.452 168.834 150.429  1.00  0.00     0.053 C 
BRANCH   5   6
ATOM      6  C   UNL     1     171.609 168.868 149.483  1.00  0.00     0.041 C 
ATOM      7  O   UNL     1     171.458 168.523 148.282  1.00  0.00    -0.550 OA
ATOM      8  O   UNL     1     172.846 169.331 149.915  1.00  0.00    -0.550 OA
ENDBRANCH   5   6
ENDBRANCH   4   5
ENDBRANCH   3   4
ENDBRANCH   2   3
ENDBRANCH   1   2
BRANCH   1   9
ATOM      9  C   UNL     1     166.116 170.467 152.067  1.00  0.00     0.000 C 
BRANCH   9  10
ATOM     10  C   UNL     1     164.962 170.457 151.058  1.00  0.00    -0.000 C 
BRANCH  10  11
ATOM     11  C   UNL     1     165.487 170.544 149.620  1.00  0.00    -0.000 C 
BRANCH  11  12
ATOM     12  C   UNL     1     165.274 169.217 148.877  1.00  0.00    -0.000 C 
BRANCH  12  13
ATOM     13  C   UNL     1     166.596 168.564 148.443  1.00  0.00    -0.003 C 
ATOM     14  C   UNL     1     167.675 169.589 148.096  1.00  0.00     0.004 C 
ENDBRANCH  12  13
ENDBRANCH  11  12
ENDBRANCH  10  11
ENDBRANCH   9  10
ENDBRANCH   1   9
TORSDOF 10
ENDMDL
MODEL 2
REMARK VINA RESULT:    -2.818      3.851      5.145
REMARK INTER + INTRA:          -5.853
REMARK INTER:                  -4.356
REMARK INTRA:                  -1.496
REMARK UNBOUND:                -1.387
REMARK SMILES CCCCCCCCCCCC(=O)[O-]
REMARK SMILES IDX 7 1 8 2 9 3 10 4 11 5 12 6 13 7 14 8 6 9 5 10 4 11 3 12 2 13
REMARK SMILES IDX 1 14
REMARK H PARENT
REMARK Flexibility Score: inf
ROOT
ATOM      1  C   UNL     1     165.873 168.981 151.489  1.00  0.00     0.000 C 
ENDROOT
BRANCH   1   2
ATOM      2  C   UNL     1     165.679 170.463 151.839  1.00  0.00     0.000 C 
BRANCH   2   3
ATOM      3  C   UNL     1     166.738 170.989 152.823  1.00  0.00     0.000 C 
BRANCH   3   4
ATOM      4  C   UNL     1     167.625 169.880 153.430  1.00  0.00     0.006 C 
BRANCH   4   5
ATOM      5  C   UNL     1     167.658 169.938 154.963  1.00  0.00     0.053 C 
BRANCH   5   6
ATOM      6  C   UNL     1     166.274 169.845 155.521  1.00  0.00     0.041 C 
ATOM      7  O   UNL     1     165.830 170.753 156.271  1.00  0.00    -0.550 OA
ATOM      8  O   UNL     1     165.455 168.778 155.172  1.00  0.00    -0.550 OA
ENDBRANCH   5   6
ENDBRANCH   4   5
ENDBRANCH   3   4
ENDBRANCH   2   3
ENDBRANCH   1   2
BRANCH   1   9
ATOM      9  C   UNL     1     165.676 168.739 149.988  1.00  0.00     0.000 C 
BRANCH   9  10
ATOM     10  C   UNL     1     166.319 169.859 149.162  1.00  0.00    -0.000 C 
BRANCH  10  11
ATOM     11  C   UNL     1     167.819 169.609 148.968  1.00  0.00    -0.000 C 
BRANCH  11  12
ATOM     12  C   UNL     1     168.648 170.762 149.554  1.00  0.00    -0.000 C 
BRANCH  12  13
ATOM     13  C   UNL     1     169.929 170.274 150.251  1.00  0.00    -0.003 C 
ATOM     14  C   UNL     1     169.819 168.832 150.745  1.00  0.00     0.004 C 
ENDBRANCH  12  13
ENDBRANCH  11  12
ENDBRANCH  10  11
ENDBRANCH   9  10
ENDBRANCH   1   9
TORSDOF 10
ENDMDL
MODEL 3
REMARK VINA RESULT:    -2.806      4.514      6.380
REMARK INTER + INTRA:          -5.833
REMARK INTER:                  -4.331
REMARK INTRA:                  -1.502
REMARK UNBOUND:                -1.387
REMARK SMILES CCCCCCCCCCCC(=O)[O-]
REMARK SMILES IDX 7 1 8 2 9 3 10 4 11 5 12 6 13 7 14 8 6 9 5 10 4 11 3 12 2 13
REMARK SMILES IDX 1 14
REMARK H PARENT
REMARK Flexibility Score: inf
ROOT
ATOM      1  C   UNL     1     168.033 169.140 152.203  1.00  0.00     0.000 C 
ENDROOT
BRANCH   1   2
ATOM      2  C   UNL     1     166.625 169.121 151.591  1.00  0.00     0.000 C 
BRANCH   2   3
ATOM      3  C   UNL     1     165.823 167.864 151.973  1.00  0.00     0.000 C 
BRANCH   3   4
ATOM      4  C   UNL     1     166.426 167.082 153.160  1.00  0.00     0.006 C 
BRANCH   4   5
ATOM      5  C   UNL     1     166.018 165.602 153.146  1.00  0.00     0.053 C 
BRANCH   5   6
ATOM      6  C   UNL     1     165.543 165.178 154.499  1.00  0.00     0.041 C 
ATOM      7  O   UNL     1     166.152 164.275 155.130  1.00  0.00    -0.550 OA
ATOM      8  O   UNL     1     164.456 165.815 155.085  1.00  0.00    -0.550 OA
ENDBRANCH   5   6
ENDBRANCH   4   5
ENDBRANCH   3   4
ENDBRANCH   2   3
ENDBRANCH   1   2
BRANCH   1   9
ATOM      9  C   UNL     1     168.464 170.571 152.546  1.00  0.00     0.000 C 
BRANCH   9  10
ATOM     10  C   UNL     1     167.720 171.090 153.781  1.00  0.00    -0.000 C 
BRANCH  10  11
ATOM     11  C   UNL     1     167.853 170.112 154.955  1.00  0.00    -0.000 C 
BRANCH  11  12
ATOM     12  C   UNL     1     166.490 169.860 155.617  1.00  0.00    -0.000 C 
BRANCH  12  13
ATOM     13  C   UNL     1     165.331 170.522 154.855  1.00  0.00    -0.003 C 
ATOM     14  C   UNL     1     164.094 169.630 154.770  1.00  0.00     0.004 C 
ENDBRANCH  12  13
ENDBRANCH  11  12
ENDBRANCH  10  11
ENDBRANCH   9  10
ENDBRANCH   1   9
TORSDOF 10
ENDMDL
MODEL 4
REMARK VINA RESULT:    -2.772     15.896     17.054
REMARK INTER + INTRA:          -5.780
REMARK INTER:                  -4.413
REMARK INTRA:                  -1.367
REMARK UNBOUND:                -1.387
REMARK SMILES CCCCCCCCCCCC(=O)[O-]
REMARK SMILES IDX 7 1 8 2 9 3 10 4 11 5 12 6 13 7 14 8 6 9 5 10 4 11 3 12 2 13
REMARK SMILES IDX 1 14
REMARK H PARENT
REMARK Flexibility Score: inf
ROOT
ATOM      1  C   UNL     1     171.112 152.003 150.246  1.00  0.00     0.000 C 
ENDROOT
BRANCH   1   2
ATOM      2  C   UNL     1     171.580 151.702 151.677  1.00  0.00     0.000 C 
BRANCH   2   3
ATOM      3  C   UNL     1     172.931 152.357 152.014  1.00  0.00     0.000 C 
BRANCH   3   4
ATOM      4  C   UNL     1     173.075 152.749 153.501  1.00  0.00     0.006 C 
BRANCH   4   5
ATOM      5  C   UNL     1     171.724 152.770 154.228  1.00  0.00     0.053 C 
BRANCH   5   6
ATOM      6  C   UNL     1     171.810 152.014 155.515  1.00  0.00     0.041 C 
ATOM      7  O   UNL     1     171.283 150.875 155.619  1.00  0.00    -0.550 OA
ATOM      8  O   UNL     1     172.517 152.545 156.587  1.00  0.00    -0.550 OA
ENDBRANCH   5   6
ENDBRANCH   4   5
ENDBRANCH   3   4
ENDBRANCH   2   3
ENDBRANCH   1   2
BRANCH   1   9
ATOM      9  C   UNL     1     171.263 153.494 149.920  1.00  0.00     0.000 C 
BRANCH   9  10
ATOM     10  C   UNL     1     169.957 154.251 150.187  1.00  0.00    -0.000 C 
BRANCH  10  11
ATOM     11  C   UNL     1     170.094 155.171 151.406  1.00  0.00    -0.000 C 
BRANCH  11  12
ATOM     12  C   UNL     1     171.519 155.736 151.510  1.00  0.00    -0.000 C 
BRANCH  12  13
ATOM     13  C   UNL     1     171.625 156.888 152.522  1.00  0.00    -0.003 C 
ATOM     14  C   UNL     1     172.332 156.476 153.813  1.00  0.00     0.004 C 
ENDBRANCH  12  13
ENDBRANCH  11  12
ENDBRANCH  10  11
ENDBRANCH   9  10
ENDBRANCH   1   9
TORSDOF 10
ENDMDL
MODEL 5
REMARK VINA RESULT:    -2.757      3.235      5.102
REMARK INTER + INTRA:          -5.755
REMARK INTER:                  -4.648
REMARK INTRA:                  -1.107
REMARK UNBOUND:                -1.387
REMARK SMILES CCCCCCCCCCCC(=O)[O-]
REMARK SMILES IDX 7 1 8 2 9 3 10 4 11 5 12 6 13 7 14 8 6 9 5 10 4 11 3 12 2 13
REMARK SMILES IDX 1 14
REMARK H PARENT
REMARK Flexibility Score: inf
ROOT
ATOM      1  C   UNL     1     166.849 170.248 155.165  1.00  0.00     0.000 C 
ENDROOT
BRANCH   1   2
ATOM      2  C   UNL     1     165.638 170.813 154.409  1.00  0.00     0.000 C 
BRANCH   2   3
ATOM      3  C   UNL     1     164.482 169.804 154.292  1.00  0.00     0.000 C 
BRANCH   3   4
ATOM      4  C   UNL     1     163.947 169.639 152.853  1.00  0.00     0.006 C 
BRANCH   4   5
ATOM      5  C   UNL     1     164.451 170.746 151.917  1.00  0.00     0.053 C 
BRANCH   5   6
ATOM      6  C   UNL     1     164.801 170.179 150.578  1.00  0.00     0.041 C 
ATOM      7  O   UNL     1     164.968 168.939 150.437  1.00  0.00    -0.550 OA
ATOM      8  O   UNL     1     164.893 171.016 149.472  1.00  0.00    -0.550 OA
ENDBRANCH   5   6
ENDBRANCH   4   5
ENDBRANCH   3   4
ENDBRANCH   2   3
ENDBRANCH   1   2
BRANCH   1   9
ATOM      9  C   UNL     1     168.155 170.567 154.427  1.00  0.00     0.000 C 
BRANCH   9  10
ATOM     10  C   UNL     1     167.931 170.626 152.912  1.00  0.00    -0.000 C 
BRANCH  10  11
ATOM     11  C   UNL     1     168.181 169.259 152.264  1.00  0.00    -0.000 C 
BRANCH  11  12
ATOM     12  C   UNL     1     169.124 169.386 151.058  1.00  0.00    -0.000 C 
BRANCH  12  13
ATOM     13  C   UNL     1     168.373 169.687 149.751  1.00  0.00    -0.003 C 
ATOM     14  C   UNL     1     168.717 171.060 149.175  1.00  0.00     0.004 C 
ENDBRANCH  12  13
ENDBRANCH  11  12
ENDBRANCH  10  11
ENDBRANCH   9  10
ENDBRANCH   1   9
TORSDOF 10
ENDMDL
MODEL 6
REMARK VINA RESULT:    -2.696      3.853      5.955
REMARK INTER + INTRA:          -5.659
REMARK INTER:                  -4.417
REMARK INTRA:                  -1.242
REMARK UNBOUND:                -1.387
REMARK SMILES CCCCCCCCCCCC(=O)[O-]
REMARK SMILES IDX 7 1 8 2 9 3 10 4 11 5 12 6 13 7 14 8 6 9 5 10 4 11 3 12 2 13
REMARK SMILES IDX 1 14
REMARK H PARENT
REMARK Flexibility Score: inf
ROOT
ATOM      1  C   UNL     1     166.422 169.168 148.820  1.00  0.00     0.000 C 
ENDROOT
BRANCH   1   2
ATOM      2  C   UNL     1     165.028 169.407 149.418  1.00  0.00     0.000 C 
BRANCH   2   3
ATOM      3  C   UNL     1     164.825 170.853 149.904  1.00  0.00     0.000 C 
BRANCH   3   4
ATOM      4  C   UNL     1     164.561 170.965 151.421  1.00  0.00     0.006 C 
BRANCH   4   5
ATOM      5  C   UNL     1     164.537 169.594 152.109  1.00  0.00     0.053 C 
BRANCH   5   6
ATOM      6  C   UNL     1     164.151 169.735 153.546  1.00  0.00     0.041 C 
ATOM      7  O   UNL     1     164.965 170.216 154.378  1.00  0.00    -0.550 OA
ATOM      8  O   UNL     1     162.872 169.383 153.960  1.00  0.00    -0.550 OA
ENDBRANCH   5   6
ENDBRANCH   4   5
ENDBRANCH   3   4
ENDBRANCH   2   3
ENDBRANCH   1   2
BRANCH   1   9
ATOM      9  C   UNL     1     167.287 170.430 148.918  1.00  0.00     0.000 C 
BRANCH   9  10
ATOM     10  C   UNL     1     168.763 170.106 148.665  1.00  0.00    -0.000 C 
BRANCH  10  11
ATOM     11  C   UNL     1     169.214 168.901 149.498  1.00  0.00    -0.000 C 
BRANCH  11  12
ATOM     12  C   UNL     1     169.604 169.330 150.920  1.00  0.00    -0.000 C 
BRANCH  12  13
ATOM     13  C   UNL     1     168.464 169.131 151.932  1.00  0.00    -0.003 C 
ATOM     14  C   UNL     1     168.103 170.416 152.675  1.00  0.00     0.004 C 
ENDBRANCH  12  13
ENDBRANCH  11  12
ENDBRANCH  10  11
ENDBRANCH   9  10
ENDBRANCH   1   9
TORSDOF 10
ENDMDL
MODEL 7
REMARK VINA RESULT:    -2.694      1.431      3.471
REMARK INTER + INTRA:          -5.655
REMARK INTER:                  -4.330
REMARK INTRA:                  -1.325
REMARK UNBOUND:                -1.387
REMARK SMILES CCCCCCCCCCCC(=O)[O-]
REMARK SMILES IDX 7 1 8 2 9 3 10 4 11 5 12 6 13 7 14 8 6 9 5 10 4 11 3 12 2 13
REMARK SMILES IDX 1 14
REMARK H PARENT
REMARK Flexibility Score: inf
ROOT
ATOM      1  C   UNL     1     164.905 170.046 150.844  1.00  0.00     0.000 C 
ENDROOT
BRANCH   1   2
ATOM      2  C   UNL     1     165.328 169.399 149.517  1.00  0.00     0.000 C 
BRANCH   2   3
ATOM      3  C   UNL     1     166.589 170.042 148.914  1.00  0.00     0.000 C 
BRANCH   3   4
ATOM      4  C   UNL     1     167.409 169.082 148.025  1.00  0.00     0.006 C 
BRANCH   4   5
ATOM      5  C   UNL     1     168.623 169.773 147.390  1.00  0.00     0.053 C 
BRANCH   5   6
ATOM      6  C   UNL     1     169.690 168.774 147.077  1.00  0.00     0.041 C 
ATOM      7  O   UNL     1     169.526 167.939 146.150  1.00  0.00    -0.550 OA
ATOM      8  O   UNL     1     170.890 168.797 147.778  1.00  0.00    -0.550 OA
ENDBRANCH   5   6
ENDBRANCH   4   5
ENDBRANCH   3   4
ENDBRANCH   2   3
ENDBRANCH   1   2
BRANCH   1   9
ATOM      9  C   UNL     1     166.004 170.971 151.381  1.00  0.00     0.000 C 
BRANCH   9  10
ATOM     10  C   UNL     1     166.371 170.609 152.824  1.00  0.00    -0.000 C 
BRANCH  10  11
ATOM     11  C   UNL     1     167.833 170.158 152.925  1.00  0.00    -0.000 C 
BRANCH  11  12
ATOM     12  C   UNL     1     168.758 171.119 152.163  1.00  0.00    -0.000 C 
BRANCH  12  13
ATOM     13  C   UNL     1     169.526 170.424 151.028  1.00  0.00    -0.003 C 
ATOM     14  C   UNL     1     169.411 168.901 151.082  1.00  0.00     0.004 C 
ENDBRANCH  12  13
ENDBRANCH  11  12
ENDBRANCH  10  11
ENDBRANCH   9  10
ENDBRANCH   1   9
TORSDOF 10
ENDMDL
MODEL 8
REMARK VINA RESULT:    -2.691      4.342      5.764
REMARK INTER + INTRA:          -5.650
REMARK INTER:                  -4.024
REMARK INTRA:                  -1.627
REMARK UNBOUND:                -1.387
REMARK SMILES CCCCCCCCCCCC(=O)[O-]
REMARK SMILES IDX 7 1 8 2 9 3 10 4 11 5 12 6 13 7 14 8 6 9 5 10 4 11 3 12 2 13
REMARK SMILES IDX 1 14
REMARK H PARENT
REMARK Flexibility Score: inf
ROOT
ATOM      1  C   UNL     1     168.265 169.171 152.245  1.00  0.00     0.000 C 
ENDROOT
BRANCH   1   2
ATOM      2  C   UNL     1     167.525 169.370 153.575  1.00  0.00     0.000 C 
BRANCH   2   3
ATOM      3  C   UNL     1     166.913 170.775 153.715  1.00  0.00     0.000 C 
BRANCH   3   4
ATOM      4  C   UNL     1     165.393 170.763 153.984  1.00  0.00     0.006 C 
BRANCH   4   5
ATOM      5  C   UNL     1     164.812 169.343 153.972  1.00  0.00     0.053 C 
BRANCH   5   6
ATOM      6  C   UNL     1     163.318 169.388 154.017  1.00  0.00     0.041 C 
ATOM      7  O   UNL     1     162.667 169.858 153.047  1.00  0.00    -0.550 OA
ATOM      8  O   UNL     1     162.640 168.864 155.112  1.00  0.00    -0.550 OA
ENDBRANCH   5   6
ENDBRANCH   4   5
ENDBRANCH   3   4
ENDBRANCH   2   3
ENDBRANCH   1   2
BRANCH   1   9
ATOM      9  C   UNL     1     168.490 170.511 151.535  1.00  0.00     0.000 C 
BRANCH   9  10
ATOM     10  C   UNL     1     168.572 170.322 150.016  1.00  0.00    -0.000 C 
BRANCH  10  11
ATOM     11  C   UNL     1     167.182 170.081 149.415  1.00  0.00    -0.000 C 
BRANCH  11  12
ATOM     12  C   UNL     1     166.176 171.125 149.924  1.00  0.00    -0.000 C 
BRANCH  12  13
ATOM     13  C   UNL     1     164.846 170.495 150.369  1.00  0.00    -0.003 C 
ATOM     14  C   UNL     1     164.863 168.969 150.302  1.00  0.00     0.004 C 
ENDBRANCH  12  13
ENDBRANCH  11  12
ENDBRANCH  10  11
ENDBRANCH   9  10
ENDBRANCH   1   9
TORSDOF 10
ENDMDL
MODEL 9
REMARK VINA RESULT:    -2.683      1.425      1.923
REMARK INTER + INTRA:          -5.638
REMARK INTER:                  -4.491
REMARK INTRA:                  -1.147
REMARK UNBOUND:                -1.387
REMARK SMILES CCCCCCCCCCCC(=O)[O-]
REMARK SMILES IDX 7 1 8 2 9 3 10 4 11 5 12 6 13 7 14 8 6 9 5 10 4 11 3 12 2 13
REMARK SMILES IDX 1 14
REMARK H PARENT
REMARK Flexibility Score: inf
ROOT
ATOM      1  C   UNL     1     167.643 169.667 153.018  1.00  0.00     0.000 C 
ENDROOT
BRANCH   1   2
ATOM      2  C   UNL     1     168.520 170.915 152.847  1.00  0.00     0.000 C 
BRANCH   2   3
ATOM      3  C   UNL     1     169.261 170.946 151.499  1.00  0.00     0.000 C 
BRANCH   3   4
ATOM      4  C   UNL     1     169.087 169.658 150.667  1.00  0.00     0.006 C 
BRANCH   4   5
ATOM      5  C   UNL     1     170.433 169.041 150.263  1.00  0.00     0.053 C 
BRANCH   5   6
ATOM      6  C   UNL     1     171.232 170.011 149.453  1.00  0.00     0.041 C 
ATOM      7  O   UNL     1     170.813 170.395 148.330  1.00  0.00    -0.550 OA
ATOM      8  O   UNL     1     172.416 170.530 149.961  1.00  0.00    -0.550 OA
ENDBRANCH   5   6
ENDBRANCH   4   5
ENDBRANCH   3   4
ENDBRANCH   2   3
ENDBRANCH   1   2
BRANCH   1   9
ATOM      9  C   UNL     1     166.310 170.018 153.690  1.00  0.00     0.000 C 
BRANCH   9  10
ATOM     10  C   UNL     1     165.581 171.125 152.920  1.00  0.00    -0.000 C 
BRANCH  10  11
ATOM     11  C   UNL     1     165.199 170.656 151.511  1.00  0.00    -0.000 C 
BRANCH  11  12
ATOM     12  C   UNL     1     164.185 169.505 151.571  1.00  0.00    -0.000 C 
BRANCH  12  13
ATOM     13  C   UNL     1     164.590 168.314 150.687  1.00  0.00    -0.003 C 
ATOM     14  C   UNL     1     165.611 168.695 149.616  1.00  0.00     0.004 C 
ENDBRANCH  12  13
ENDBRANCH  11  12
ENDBRANCH  10  11
ENDBRANCH   9  10
ENDBRANCH   1   9
TORSDOF 10
ENDMDL
