MODEL 1
REMARK VINA RESULT:    -4.310      0.000      0.000
REMARK INTER + INTRA:          -6.311
REMARK INTER:                  -6.578
REMARK INTRA:                   0.268
REMARK UNBOUND:                 0.268
REMARK SMILES CC1=CCC[C@@H](C)C(=O)C[C@H](C(C)C)C(=O)C1
REMARK SMILES IDX 8 1 9 2 6 3 7 4 5 5 4 6 3 7 2 8 1 9 10 11 11 12 15 13 16 14
REMARK SMILES IDX 17 15 12 17 13 18 14 19
REMARK H PARENT
REMARK Flexibility Score: 70.00
ROOT
ATOM      1  C   UNL     1      19.661 206.911  12.897  1.00  0.00     0.136 C 
ATOM      2  O   UNL     1      19.137 206.990  11.797  1.00  0.00    -0.299 OA
ENDROOT
BRANCH   1   3
ATOM      3  C   UNL     1      20.806 207.862  13.210  1.00  0.00     0.053 C 
ATOM      4  C   UNL     1      20.760 209.041  12.231  1.00  0.00     0.016 C 
BRANCH   3   5
ATOM      5  C   UNL     1      22.216 207.225  13.212  1.00  0.00     0.015 C 
BRANCH   5   6
ATOM      6  C   UNL     1      23.128 207.712  14.361  1.00  0.00     0.028 C 
BRANCH   6   7
ATOM      7  C   UNL     1      22.348 208.564  15.336  1.00  0.00    -0.028 C 
ATOM      8  C   UNL     1      21.670 208.110  16.415  1.00  0.00    -0.070 CG0
ATOM      9  C   UNL     1      20.985 209.125  17.296  1.00  0.00     0.039 C 
ATOM     10  G   UNL     1      21.551 206.638  16.761  1.00  0.00     0.000 G0
ENDBRANCH   6   7
ENDBRANCH   5   6
ENDBRANCH   3   5
ENDBRANCH   1   3
BRANCH   1  11
ATOM     11  C   UNL     1      19.233 205.792  13.831  1.00  0.00     0.087 C 
BRANCH  11  12
ATOM     12  C   UNL     1      20.334 205.282  14.813  1.00  0.00     0.066 C 
BRANCH  12  13
ATOM     13  C   UNL     1      20.307 205.980  16.170  1.00  0.00     0.140 C 
ATOM     14  O   UNL     1      19.283 205.979  16.836  1.00  0.00    -0.299 OA
BRANCH  13  15
ATOM     15  C   UNL     1      21.536 206.629  16.756  1.00  0.00     0.106 CG0
ATOM     16  G   UNL     1      21.652 208.103  16.415  1.00  0.00     0.000 G0
ENDBRANCH  13  15
ENDBRANCH  12  13
BRANCH  12  17
ATOM     17  C   UNL     1      20.412 203.725  14.909  1.00  0.00    -0.006 C 
ATOM     18  C   UNL     1      19.215 203.059  14.211  1.00  0.00     0.008 C 
ATOM     19  C   UNL     1      21.729 203.115  14.400  1.00  0.00     0.008 C 
ENDBRANCH  12  17
ENDBRANCH  11  12
ENDBRANCH   1  11
TORSDOF 1
ENDMDL
MODEL 2
REMARK VINA RESULT:    -4.054      1.627      1.957
REMARK INTER + INTRA:          -5.920
REMARK INTER:                  -5.899
REMARK INTRA:                  -0.021
REMARK UNBOUND:                 0.268
REMARK SMILES CC1=CCC[C@@H](C)C(=O)C[C@H](C(C)C)C(=O)C1
REMARK SMILES IDX 8 1 9 2 6 3 7 4 5 5 4 6 3 7 2 8 1 9 10 11 11 12 15 13 16 14
REMARK SMILES IDX 17 15 12 17 13 18 14 19
REMARK H PARENT
REMARK Flexibility Score: 70.00
ROOT
ATOM      1  C   UNL     1      22.236 206.737  13.705  1.00  0.00     0.136 C 
ATOM      2  O   UNL     1      23.195 206.030  13.436  1.00  0.00    -0.299 OA
ENDROOT
BRANCH   1   3
ATOM      3  C   UNL     1      22.477 208.230  13.869  1.00  0.00     0.053 C 
ATOM      4  C   UNL     1      23.081 208.786  12.574  1.00  0.00     0.016 C 
BRANCH   3   5
ATOM      5  C   UNL     1      23.351 208.631  15.082  1.00  0.00     0.015 C 
BRANCH   5   6
ATOM      6  C   UNL     1      22.595 208.643  16.429  1.00  0.00     0.028 C 
BRANCH   6   7
ATOM      7  C   UNL     1      21.173 209.120  16.239  1.00  0.00    -0.028 C 
ATOM      8  C   UNL     1      20.059 208.458  16.627  1.00  0.00    -0.070 CG0
ATOM      9  C   UNL     1      18.725 209.119  16.385  1.00  0.00     0.039 C 
ATOM     10  G   UNL     1      20.092 207.083  17.268  1.00  0.00     0.000 G0
ENDBRANCH   6   7
ENDBRANCH   5   6
ENDBRANCH   3   5
ENDBRANCH   1   3
BRANCH   1  11
ATOM     11  C   UNL     1      20.899 206.075  13.989  1.00  0.00     0.087 C 
BRANCH  11  12
ATOM     12  C   UNL     1      20.789 205.352  15.368  1.00  0.00     0.066 C 
BRANCH  12  13
ATOM     13  C   UNL     1      19.755 205.977  16.300  1.00  0.00     0.140 C 
ATOM     14  O   UNL     1      18.610 205.550  16.315  1.00  0.00    -0.299 OA
BRANCH  13  15
ATOM     15  C   UNL     1      20.114 207.081  17.263  1.00  0.00     0.106 CG0
ATOM     16  G   UNL     1      20.071 208.460  16.633  1.00  0.00     0.000 G0
ENDBRANCH  13  15
ENDBRANCH  12  13
BRANCH  12  17
ATOM     17  C   UNL     1      20.672 203.799  15.250  1.00  0.00    -0.006 C 
ATOM     18  C   UNL     1      19.552 203.392  14.278  1.00  0.00     0.008 C 
ATOM     19  C   UNL     1      21.981 203.082  14.882  1.00  0.00     0.008 C 
ENDBRANCH  12  17
ENDBRANCH  11  12
ENDBRANCH   1  11
TORSDOF 1
ENDMDL
MODEL 3
REMARK VINA RESULT:    -3.939      1.735      3.733
REMARK INTER + INTRA:          -5.744
REMARK INTER:                  -6.376
REMARK INTRA:                   0.632
REMARK UNBOUND:                 0.268
REMARK SMILES CC1=CCC[C@@H](C)C(=O)C[C@H](C(C)C)C(=O)C1
REMARK SMILES IDX 8 1 9 2 6 3 7 4 5 5 4 6 3 7 2 8 1 9 10 11 11 12 15 13 16 14
REMARK SMILES IDX 17 15 12 17 13 18 14 19
REMARK H PARENT
REMARK Flexibility Score: 70.00
ROOT
ATOM      1  C   UNL     1      21.099 206.907  16.665  1.00  0.00     0.136 C 
ATOM      2  O   UNL     1      20.114 206.906  17.388  1.00  0.00    -0.299 OA
ENDROOT
BRANCH   1   3
ATOM      3  C   UNL     1      21.873 208.209  16.521  1.00  0.00     0.053 C 
ATOM      4  C   UNL     1      21.818 208.975  17.847  1.00  0.00     0.016 C 
BRANCH   3   5
ATOM      5  C   UNL     1      21.421 209.122  15.356  1.00  0.00     0.015 C 
BRANCH   5   6
ATOM      6  C   UNL     1      19.898 209.113  15.100  1.00  0.00     0.028 C 
BRANCH   6   7
ATOM      7  C   UNL     1      19.606 209.061  13.618  1.00  0.00    -0.028 C 
ATOM      8  C   UNL     1      19.926 208.043  12.785  1.00  0.00    -0.070 CG0
ATOM      9  C   UNL     1      19.512 208.158  11.339  1.00  0.00     0.039 C 
ATOM     10  G   UNL     1      20.695 206.815  13.234  1.00  0.00     0.000 G0
ENDBRANCH   6   7
ENDBRANCH   5   6
ENDBRANCH   3   5
ENDBRANCH   1   3
BRANCH   1  11
ATOM     11  C   UNL     1      21.414 205.660  15.858  1.00  0.00     0.087 C 
BRANCH  11  12
ATOM     12  C   UNL     1      20.197 205.014  15.122  1.00  0.00     0.066 C 
BRANCH  12  13
ATOM     13  C   UNL     1      19.809 205.743  13.839  1.00  0.00     0.140 C 
ATOM     14  O   UNL     1      18.737 205.505  13.302  1.00  0.00    -0.299 OA
BRANCH  13  15
ATOM     15  C   UNL     1      20.686 206.809  13.230  1.00  0.00     0.106 CG0
ATOM     16  G   UNL     1      19.912 208.036  12.785  1.00  0.00     0.000 G0
ENDBRANCH  13  15
ENDBRANCH  12  13
BRANCH  12  17
ATOM     17  C   UNL     1      20.320 203.466  14.954  1.00  0.00    -0.006 C 
ATOM     18  C   UNL     1      21.759 203.052  14.606  1.00  0.00     0.008 C 
ATOM     19  C   UNL     1      19.806 202.648  16.149  1.00  0.00     0.008 C 
ENDBRANCH  12  17
ENDBRANCH  11  12
ENDBRANCH   1  11
TORSDOF 1
ENDMDL
MODEL 4
REMARK VINA RESULT:    -3.873      2.199      3.575
REMARK INTER + INTRA:          -5.644
REMARK INTER:                  -5.754
REMARK INTRA:                   0.111
REMARK UNBOUND:                 0.268
REMARK SMILES CC1=CCC[C@@H](C)C(=O)C[C@H](C(C)C)C(=O)C1
REMARK SMILES IDX 8 1 9 2 6 3 7 4 5 5 4 6 3 7 2 8 1 9 10 11 11 12 15 13 16 14
REMARK SMILES IDX 17 15 12 17 13 18 14 19
REMARK H PARENT
REMARK Flexibility Score: 70.00
ROOT
ATOM      1  C   UNL     1      22.779 206.880  14.653  1.00  0.00     0.136 C 
ATOM      2  O   UNL     1      22.480 207.203  15.792  1.00  0.00    -0.299 OA
ENDROOT
BRANCH   1   3
ATOM      3  C   UNL     1      23.477 207.913  13.781  1.00  0.00     0.053 C 
ATOM      4  C   UNL     1      23.852 209.125  14.641  1.00  0.00     0.016 C 
BRANCH   3   5
ATOM      5  C   UNL     1      22.685 208.368  12.532  1.00  0.00     0.015 C 
BRANCH   5   6
ATOM      6  C   UNL     1      21.324 209.026  12.852  1.00  0.00     0.028 C 
BRANCH   6   7
ATOM      7  C   UNL     1      20.216 208.373  12.058  1.00  0.00    -0.028 C 
ATOM      8  C   UNL     1      19.336 207.461  12.532  1.00  0.00    -0.070 CG0
ATOM      9  C   UNL     1      18.271 206.952  11.593  1.00  0.00     0.039 C 
ATOM     10  G   UNL     1      19.388 206.916  13.948  1.00  0.00     0.000 G0
ENDBRANCH   6   7
ENDBRANCH   5   6
ENDBRANCH   3   5
ENDBRANCH   1   3
BRANCH   1  11
ATOM     11  C   UNL     1      22.324 205.527  14.135  1.00  0.00     0.087 C 
BRANCH  11  12
ATOM     12  C   UNL     1      21.008 204.975  14.769  1.00  0.00     0.066 C 
BRANCH  12  13
ATOM     13  C   UNL     1      19.746 205.451  14.057  1.00  0.00     0.140 C 
ATOM     14  O   UNL     1      18.973 204.636  13.575  1.00  0.00    -0.299 OA
BRANCH  13  15
ATOM     15  C   UNL     1      19.378 206.912  13.976  1.00  0.00     0.106 CG0
ATOM     16  G   UNL     1      19.331 207.438  12.554  1.00  0.00     0.000 G0
ENDBRANCH  13  15
ENDBRANCH  12  13
BRANCH  12  17
ATOM     17  C   UNL     1      21.040 203.436  15.032  1.00  0.00    -0.006 C 
ATOM     18  C   UNL     1      22.392 202.825  14.627  1.00  0.00     0.008 C 
ATOM     19  C   UNL     1      20.680 203.022  16.468  1.00  0.00     0.008 C 
ENDBRANCH  12  17
ENDBRANCH  11  12
ENDBRANCH   1  11
TORSDOF 1
ENDMDL
MODEL 5
REMARK VINA RESULT:    -3.871      1.712      3.573
REMARK INTER + INTRA:          -5.640
REMARK INTER:                  -5.733
REMARK INTRA:                   0.093
REMARK UNBOUND:                 0.268
REMARK SMILES CC1=CCC[C@@H](C)C(=O)C[C@H](C(C)C)C(=O)C1
REMARK SMILES IDX 8 1 9 2 6 3 7 4 5 5 4 6 3 7 2 8 1 9 10 11 11 12 15 13 16 14
REMARK SMILES IDX 17 15 12 17 13 18 14 19
REMARK H PARENT
REMARK Flexibility Score: 70.00
ROOT
ATOM      1  C   UNL     1      20.500 207.207  16.839  1.00  0.00     0.136 C 
ATOM      2  O   UNL     1      19.405 207.746  16.796  1.00  0.00    -0.299 OA
ENDROOT
BRANCH   1   3
ATOM      3  C   UNL     1      21.694 208.054  17.252  1.00  0.00     0.053 C 
ATOM      4  C   UNL     1      21.326 208.865  18.500  1.00  0.00     0.016 C 
BRANCH   3   5
ATOM      5  C   UNL     1      22.256 208.988  16.154  1.00  0.00     0.015 C 
BRANCH   5   6
ATOM      6  C   UNL     1      22.700 208.255  14.868  1.00  0.00     0.028 C 
BRANCH   6   7
ATOM      7  C   UNL     1      21.736 208.531  13.736  1.00  0.00    -0.028 C 
ATOM      8  C   UNL     1      20.958 207.612  13.119  1.00  0.00    -0.070 CG0
ATOM      9  C   UNL     1      20.026 208.089  12.034  1.00  0.00     0.039 C 
ATOM     10  G   UNL     1      20.999 206.132  13.454  1.00  0.00     0.000 G0
ENDBRANCH   6   7
ENDBRANCH   5   6
ENDBRANCH   3   5
ENDBRANCH   1   3
BRANCH   1  11
ATOM     11  C   UNL     1      20.627 205.773  16.354  1.00  0.00     0.087 C 
BRANCH  11  12
ATOM     12  C   UNL     1      19.468 205.272  15.436  1.00  0.00     0.066 C 
BRANCH  12  13
ATOM     13  C   UNL     1      19.697 205.566  13.956  1.00  0.00     0.140 C 
ATOM     14  O   UNL     1      18.792 205.395  13.153  1.00  0.00    -0.299 OA
BRANCH  13  15
ATOM     15  C   UNL     1      21.001 206.128  13.447  1.00  0.00     0.106 CG0
ATOM     16  G   UNL     1      20.932 207.612  13.140  1.00  0.00     0.000 G0
ENDBRANCH  13  15
ENDBRANCH  12  13
BRANCH  12  17
ATOM     17  C   UNL     1      19.036 203.799  15.725  1.00  0.00    -0.006 C 
ATOM     18  C   UNL     1      20.187 202.814  15.461  1.00  0.00     0.008 C 
ATOM     19  C   UNL     1      18.448 203.565  17.125  1.00  0.00     0.008 C 
ENDBRANCH  12  17
ENDBRANCH  11  12
ENDBRANCH   1  11
TORSDOF 1
ENDMDL
MODEL 6
REMARK VINA RESULT:    -3.857      1.520      2.267
REMARK INTER + INTRA:          -5.619
REMARK INTER:                  -5.363
REMARK INTRA:                  -0.256
REMARK UNBOUND:                 0.268
REMARK SMILES CC1=CCC[C@@H](C)C(=O)C[C@H](C(C)C)C(=O)C1
REMARK SMILES IDX 8 1 9 2 6 3 7 4 5 5 4 6 3 7 2 8 1 9 10 11 11 12 15 13 16 14
REMARK SMILES IDX 17 15 12 17 13 18 14 19
REMARK H PARENT
REMARK Flexibility Score: 70.00
ROOT
ATOM      1  C   UNL     1      18.921 205.539  13.433  1.00  0.00     0.136 C 
ATOM      2  O   UNL     1      18.884 204.411  12.967  1.00  0.00    -0.299 OA
ENDROOT
BRANCH   1   3
ATOM      3  C   UNL     1      18.693 206.708  12.486  1.00  0.00     0.053 C 
ATOM      4  C   UNL     1      18.122 206.179  11.165  1.00  0.00     0.016 C 
BRANCH   3   5
ATOM      5  C   UNL     1      19.933 207.593  12.216  1.00  0.00     0.015 C 
BRANCH   5   6
ATOM      6  C   UNL     1      20.026 208.843  13.120  1.00  0.00     0.028 C 
BRANCH   6   7
ATOM      7  C   UNL     1      21.449 209.067  13.577  1.00  0.00    -0.028 C 
ATOM      8  C   UNL     1      21.966 208.683  14.767  1.00  0.00    -0.070 CG0
ATOM      9  C   UNL     1      23.426 208.962  15.025  1.00  0.00     0.039 C 
ATOM     10  G   UNL     1      21.144 208.013  15.851  1.00  0.00     0.000 G0
ENDBRANCH   6   7
ENDBRANCH   5   6
ENDBRANCH   3   5
ENDBRANCH   1   3
BRANCH   1  11
ATOM     11  C   UNL     1      19.319 205.715  14.888  1.00  0.00     0.087 C 
BRANCH  11  12
ATOM     12  C   UNL     1      20.825 205.450  15.207  1.00  0.00     0.066 C 
BRANCH  12  13
ATOM     13  C   UNL     1      21.467 206.545  16.054  1.00  0.00     0.140 C 
ATOM     14  O   UNL     1      22.318 206.255  16.882  1.00  0.00    -0.299 OA
BRANCH  13  15
ATOM     15  C   UNL     1      21.128 208.002  15.863  1.00  0.00     0.106 CG0
ATOM     16  G   UNL     1      21.963 208.672  14.788  1.00  0.00     0.000 G0
ENDBRANCH  13  15
ENDBRANCH  12  13
BRANCH  12  17
ATOM     17  C   UNL     1      21.107 204.005  15.727  1.00  0.00    -0.006 C 
ATOM     18  C   UNL     1      19.815 203.314  16.195  1.00  0.00     0.008 C 
ATOM     19  C   UNL     1      21.863 203.102  14.738  1.00  0.00     0.008 C 
ENDBRANCH  12  17
ENDBRANCH  11  12
ENDBRANCH   1  11
TORSDOF 1
ENDMDL
MODEL 7
REMARK VINA RESULT:    -3.716      1.922      4.101
REMARK INTER + INTRA:          -5.403
REMARK INTER:                  -5.683
REMARK INTRA:                   0.279
REMARK UNBOUND:                 0.268
REMARK SMILES CC1=CCC[C@@H](C)C(=O)C[C@H](C(C)C)C(=O)C1
REMARK SMILES IDX 8 1 9 2 6 3 7 4 5 5 4 6 3 7 2 8 1 9 10 11 11 12 15 13 16 14
REMARK SMILES IDX 17 15 12 17 13 18 14 19
REMARK H PARENT
REMARK Flexibility Score: 70.00
ROOT
ATOM      1  C   UNL     1      20.792 205.744  14.275  1.00  0.00     0.136 C 
ATOM      2  O   UNL     1      21.914 205.913  14.727  1.00  0.00    -0.299 OA
ENDROOT
BRANCH   1   3
ATOM      3  C   UNL     1      19.961 204.603  14.840  1.00  0.00     0.053 C 
ATOM      4  C   UNL     1      18.707 204.419  13.978  1.00  0.00     0.016 C 
BRANCH   3   5
ATOM      5  C   UNL     1      19.569 204.743  16.331  1.00  0.00     0.015 C 
BRANCH   5   6
ATOM      6  C   UNL     1      19.075 206.154  16.724  1.00  0.00     0.028 C 
BRANCH   6   7
ATOM      7  C   UNL     1      20.188 206.949  17.368  1.00  0.00    -0.028 C 
ATOM      8  C   UNL     1      20.552 208.209  17.038  1.00  0.00    -0.070 CG0
ATOM      9  C   UNL     1      21.665 208.852  17.827  1.00  0.00     0.039 C 
ATOM     10  G   UNL     1      19.912 208.987  15.903  1.00  0.00     0.000 G0
ENDBRANCH   6   7
ENDBRANCH   5   6
ENDBRANCH   3   5
ENDBRANCH   1   3
BRANCH   1  11
ATOM     11  C   UNL     1      20.345 206.591  13.096  1.00  0.00     0.087 C 
BRANCH  11  12
ATOM     12  C   UNL     1      19.746 207.986  13.462  1.00  0.00     0.066 C 
BRANCH  12  13
ATOM     13  C   UNL     1      20.526 208.713  14.554  1.00  0.00     0.140 C 
ATOM     14  O   UNL     1      21.654 209.124  14.328  1.00  0.00    -0.299 OA
BRANCH  13  15
ATOM     15  C   UNL     1      19.923 209.001  15.907  1.00  0.00     0.106 CG0
ATOM     16  G   UNL     1      20.559 208.199  17.027  1.00  0.00     0.000 G0
ENDBRANCH  13  15
ENDBRANCH  12  13
BRANCH  12  17
ATOM     17  C   UNL     1      19.430 208.875  12.218  1.00  0.00    -0.006 C 
ATOM     18  C   UNL     1      20.658 209.021  11.305  1.00  0.00     0.008 C 
ATOM     19  C   UNL     1      18.210 208.422  11.399  1.00  0.00     0.008 C 
ENDBRANCH  12  17
ENDBRANCH  11  12
ENDBRANCH   1  11
TORSDOF 1
ENDMDL
MODEL 8
REMARK VINA RESULT:    -3.543      1.813      3.950
REMARK INTER + INTRA:          -5.140
REMARK INTER:                  -6.023
REMARK INTRA:                   0.883
REMARK UNBOUND:                 0.268
REMARK SMILES CC1=CCC[C@@H](C)C(=O)C[C@H](C(C)C)C(=O)C1
REMARK SMILES IDX 8 1 9 2 6 3 7 4 5 5 4 6 3 7 2 8 1 9 10 11 11 12 15 13 16 14
REMARK SMILES IDX 17 15 12 17 13 18 14 19
REMARK H PARENT
REMARK Flexibility Score: 70.00
ROOT
ATOM      1  C   UNL     1      22.054 208.871  13.308  1.00  0.00     0.136 C 
ATOM      2  O   UNL     1      22.526 209.097  12.204  1.00  0.00    -0.299 OA
ENDROOT
BRANCH   1   3
ATOM      3  C   UNL     1      23.020 208.637  14.460  1.00  0.00     0.053 C 
ATOM      4  C   UNL     1      24.415 209.125  14.052  1.00  0.00     0.016 C 
BRANCH   3   5
ATOM      5  C   UNL     1      23.093 207.181  14.978  1.00  0.00     0.015 C 
BRANCH   5   6
ATOM      6  C   UNL     1      22.261 206.923  16.255  1.00  0.00     0.028 C 
BRANCH   6   7
ATOM      7  C   UNL     1      21.569 205.581  16.178  1.00  0.00    -0.028 C 
ATOM      8  C   UNL     1      20.367 205.343  15.605  1.00  0.00    -0.070 CG0
ATOM      9  C   UNL     1      19.859 203.924  15.593  1.00  0.00     0.039 C 
ATOM     10  G   UNL     1      19.506 206.437  15.000  1.00  0.00     0.000 G0
ENDBRANCH   6   7
ENDBRANCH   5   6
ENDBRANCH   3   5
ENDBRANCH   1   3
BRANCH   1  11
ATOM     11  C   UNL     1      20.550 208.707  13.439  1.00  0.00     0.087 C 
BRANCH  11  12
ATOM     12  C   UNL     1      19.931 207.533  12.617  1.00  0.00     0.066 C 
BRANCH  12  13
ATOM     13  C   UNL     1      19.409 206.394  13.488  1.00  0.00     0.140 C 
ATOM     14  O   UNL     1      18.953 205.387  12.967  1.00  0.00    -0.299 OA
BRANCH  13  15
ATOM     15  C   UNL     1      19.491 206.439  14.994  1.00  0.00     0.106 CG0
ATOM     16  G   UNL     1      20.364 205.344  15.577  1.00  0.00     0.000 G0
ENDBRANCH  13  15
ENDBRANCH  12  13
BRANCH  12  17
ATOM     17  C   UNL     1      18.921 208.001  11.522  1.00  0.00    -0.006 C 
ATOM     18  C   UNL     1      19.649 208.542  10.281  1.00  0.00     0.008 C 
ATOM     19  C   UNL     1      17.884 206.944  11.110  1.00  0.00     0.008 C 
ENDBRANCH  12  17
ENDBRANCH  11  12
ENDBRANCH   1  11
TORSDOF 1
ENDMDL
MODEL 9
REMARK VINA RESULT:    -3.258      1.738      3.991
REMARK INTER + INTRA:          -4.705
REMARK INTER:                  -4.955
REMARK INTRA:                   0.250
REMARK UNBOUND:                 0.268
REMARK SMILES CC1=CCC[C@@H](C)C(=O)C[C@H](C(C)C)C(=O)C1
REMARK SMILES IDX 8 1 9 2 6 3 7 4 5 5 4 6 3 7 2 8 1 9 10 11 11 12 15 13 16 14
REMARK SMILES IDX 17 15 12 17 13 18 14 19
REMARK H PARENT
REMARK Flexibility Score: 70.00
ROOT
ATOM      1  C   UNL     1      20.254 205.325  14.009  1.00  0.00     0.136 C 
ATOM      2  O   UNL     1      19.369 205.889  13.383  1.00  0.00    -0.299 OA
ENDROOT
BRANCH   1   3
ATOM      3  C   UNL     1      19.893 204.053  14.761  1.00  0.00     0.053 C 
ATOM      4  C   UNL     1      19.415 202.995  13.760  1.00  0.00     0.016 C 
BRANCH   3   5
ATOM      5  C   UNL     1      18.853 204.226  15.894  1.00  0.00     0.015 C 
BRANCH   5   6
ATOM      6  C   UNL     1      19.342 205.096  17.074  1.00  0.00     0.028 C 
BRANCH   6   7
ATOM      7  C   UNL     1      18.938 206.539  16.876  1.00  0.00    -0.028 C 
ATOM      8  C   UNL     1      19.780 207.598  16.842  1.00  0.00    -0.070 CG0
ATOM      9  C   UNL     1      19.188 208.962  16.594  1.00  0.00     0.039 C 
ATOM     10  G   UNL     1      21.276 207.475  17.064  1.00  0.00     0.000 G0
ENDBRANCH   6   7
ENDBRANCH   5   6
ENDBRANCH   3   5
ENDBRANCH   1   3
BRANCH   1  11
ATOM     11  C   UNL     1      21.616 205.989  14.106  1.00  0.00     0.087 C 
BRANCH  11  12
ATOM     12  C   UNL     1      21.594 207.518  14.424  1.00  0.00     0.066 C 
BRANCH  12  13
ATOM     13  C   UNL     1      22.080 207.851  15.831  1.00  0.00     0.140 C 
ATOM     14  O   UNL     1      23.121 208.474  15.986  1.00  0.00    -0.299 OA
BRANCH  13  15
ATOM     15  C   UNL     1      21.281 207.488  17.058  1.00  0.00     0.106 CG0
ATOM     16  G   UNL     1      19.782 207.591  16.845  1.00  0.00     0.000 G0
ENDBRANCH  13  15
ENDBRANCH  12  13
BRANCH  12  17
ATOM     17  C   UNL     1      22.244 208.397  13.309  1.00  0.00    -0.006 C 
ATOM     18  C   UNL     1      23.479 207.711  12.702  1.00  0.00     0.008 C 
ATOM     19  C   UNL     1      21.281 208.837  12.195  1.00  0.00     0.008 C 
ENDBRANCH  12  17
ENDBRANCH  11  12
ENDBRANCH   1  11
TORSDOF 1
ENDMDL
