MODEL 1
REMARK VINA RESULT:    -3.757      0.000      0.000
REMARK INTER + INTRA:          -4.114
REMARK INTER:                  -4.086
REMARK INTRA:                  -0.028
REMARK UNBOUND:                -0.028
REMARK SMILES O=C([O-])c1ccc(O)cc1
REMARK SMILES IDX 4 1 5 2 10 3 6 4 9 5 7 6 2 7 1 8 3 9 8 10
REMARK H PARENT 8 11
REMARK Flexibility Score: inf
ROOT
ATOM      1  C   UNL     1      38.137  20.897  80.777  1.00  0.00    -0.003 A 
ATOM      2  C   UNL     1      39.332  20.509  80.143  1.00  0.00     0.014 A 
ATOM      3  C   UNL     1      37.083  19.969  80.869  1.00  0.00     0.014 A 
ATOM      4  C   UNL     1      39.469  19.222  79.614  1.00  0.00     0.047 A 
ATOM      5  C   UNL     1      37.224  18.682  80.339  1.00  0.00     0.047 A 
ATOM      6  C   UNL     1      38.415  18.305  79.711  1.00  0.00     0.115 A 
ENDROOT
BRANCH   1   7
ATOM      7  C   UNL     1      37.986  22.257  81.338  1.00  0.00     0.071 C 
ATOM      8  O   UNL     1      37.879  23.255  80.577  1.00  0.00    -0.545 OA
ATOM      9  O   UNL     1      37.961  22.453  82.713  1.00  0.00    -0.545 OA
ENDBRANCH   1   7
BRANCH   6  10
ATOM     10  O   UNL     1      38.540  17.020  79.188  1.00  0.00    -0.508 OA
ATOM     11  H   UNL     1      39.440  16.560  79.125  1.00  0.00     0.293 HD
ENDBRANCH   6  10
TORSDOF 2
ENDMDL
MODEL 2
REMARK VINA RESULT:    -3.726      0.198      1.544
REMARK INTER + INTRA:          -4.081
REMARK INTER:                  -4.051
REMARK INTRA:                  -0.030
REMARK UNBOUND:                -0.028
REMARK SMILES O=C([O-])c1ccc(O)cc1
REMARK SMILES IDX 4 1 5 2 10 3 6 4 9 5 7 6 2 7 1 8 3 9 8 10
REMARK H PARENT 8 11
REMARK Flexibility Score: inf
ROOT
ATOM      1  C   UNL     1      38.256  20.931  80.793  1.00  0.00    -0.003 A 
ATOM      2  C   UNL     1      37.166  20.045  80.877  1.00  0.00     0.014 A 
ATOM      3  C   UNL     1      39.433  20.506  80.151  1.00  0.00     0.014 A 
ATOM      4  C   UNL     1      37.254  18.761  80.328  1.00  0.00     0.047 A 
ATOM      5  C   UNL     1      39.516  19.221  79.604  1.00  0.00     0.047 A 
ATOM      6  C   UNL     1      38.430  18.346  79.690  1.00  0.00     0.115 A 
ENDROOT
BRANCH   1   7
ATOM      7  C   UNL     1      38.170  22.290  81.372  1.00  0.00     0.071 C 
ATOM      8  O   UNL     1      38.402  23.304  80.662  1.00  0.00    -0.545 OA
ATOM      9  O   UNL     1      37.831  22.467  82.708  1.00  0.00    -0.545 OA
ENDBRANCH   1   7
BRANCH   6  10
ATOM     10  O   UNL     1      38.528  17.070  79.141  1.00  0.00    -0.508 OA
ATOM     11  H   UNL     1      37.747  16.641  78.658  1.00  0.00     0.293 HD
ENDBRANCH   6  10
TORSDOF 2
ENDMDL
MODEL 3
REMARK VINA RESULT:    -3.625     14.567     16.830
REMARK INTER + INTRA:          -3.970
REMARK INTER:                  -3.941
REMARK INTRA:                  -0.029
REMARK UNBOUND:                -0.028
REMARK SMILES O=C([O-])c1ccc(O)cc1
REMARK SMILES IDX 4 1 5 2 10 3 6 4 9 5 7 6 2 7 1 8 3 9 8 10
REMARK H PARENT 8 11
REMARK Flexibility Score: inf
ROOT
ATOM      1  C   UNL     1      44.817  29.550  91.382  1.00  0.00    -0.003 A 
ATOM      2  C   UNL     1      45.548  30.601  90.798  1.00  0.00     0.014 A 
ATOM      3  C   UNL     1      44.023  29.817  92.512  1.00  0.00     0.014 A 
ATOM      4  C   UNL     1      45.484  31.891  91.334  1.00  0.00     0.047 A 
ATOM      5  C   UNL     1      43.962  31.110  93.044  1.00  0.00     0.047 A 
ATOM      6  C   UNL     1      44.691  32.149  92.459  1.00  0.00     0.115 A 
ENDROOT
BRANCH   1   7
ATOM      7  C   UNL     1      44.881  28.182  90.821  1.00  0.00     0.071 C 
ATOM      8  O   UNL     1      43.837  27.609  90.413  1.00  0.00    -0.545 OA
ATOM      9  O   UNL     1      46.095  27.512  90.737  1.00  0.00    -0.545 OA
ENDBRANCH   1   7
BRANCH   6  10
ATOM     10  O   UNL     1      44.620  33.430  93.000  1.00  0.00    -0.508 OA
ATOM     11  H   UNL     1      44.381  33.581  93.973  1.00  0.00     0.293 HD
ENDBRANCH   6  10
TORSDOF 2
ENDMDL
MODEL 4
REMARK VINA RESULT:    -3.563      8.964      9.612
REMARK INTER + INTRA:          -3.903
REMARK INTER:                  -3.876
REMARK INTRA:                  -0.027
REMARK UNBOUND:                -0.028
REMARK SMILES O=C([O-])c1ccc(O)cc1
REMARK SMILES IDX 4 1 5 2 10 3 6 4 9 5 7 6 2 7 1 8 3 9 8 10
REMARK H PARENT 8 11
REMARK Flexibility Score: inf
ROOT
ATOM      1  C   UNL     1      47.091  20.364  76.624  1.00  0.00    -0.003 A 
ATOM      2  C   UNL     1      46.639  19.703  75.467  1.00  0.00     0.014 A 
ATOM      3  C   UNL     1      46.920  19.743  77.875  1.00  0.00     0.014 A 
ATOM      4  C   UNL     1      46.030  18.448  75.561  1.00  0.00     0.047 A 
ATOM      5  C   UNL     1      46.310  18.487  77.963  1.00  0.00     0.047 A 
ATOM      6  C   UNL     1      45.864  17.837  76.810  1.00  0.00     0.115 A 
ENDROOT
BRANCH   1   7
ATOM      7  C   UNL     1      47.736  21.692  76.532  1.00  0.00     0.071 C 
ATOM      8  O   UNL     1      48.986  21.806  76.638  1.00  0.00    -0.545 OA
ATOM      9  O   UNL     1      46.971  22.834  76.327  1.00  0.00    -0.545 OA
ENDBRANCH   1   7
BRANCH   6  10
ATOM     10  O   UNL     1      45.258  16.586  76.915  1.00  0.00    -0.508 OA
ATOM     11  H   UNL     1      45.646  15.771  76.455  1.00  0.00     0.293 HD
ENDBRANCH   6  10
TORSDOF 2
ENDMDL
MODEL 5
REMARK VINA RESULT:    -3.520      2.492      3.686
REMARK INTER + INTRA:          -3.857
REMARK INTER:                  -3.827
REMARK INTRA:                  -0.030
REMARK UNBOUND:                -0.028
REMARK SMILES O=C([O-])c1ccc(O)cc1
REMARK SMILES IDX 4 1 5 2 10 3 6 4 9 5 7 6 2 7 1 8 3 9 8 10
REMARK H PARENT 8 11
REMARK Flexibility Score: inf
ROOT
ATOM      1  C   UNL     1      39.557  20.327  79.501  1.00  0.00    -0.003 A 
ATOM      2  C   UNL     1      39.079  19.080  79.942  1.00  0.00     0.014 A 
ATOM      3  C   UNL     1      38.786  21.478  79.745  1.00  0.00     0.014 A 
ATOM      4  C   UNL     1      37.857  18.987  80.614  1.00  0.00     0.047 A 
ATOM      5  C   UNL     1      37.564  21.381  80.418  1.00  0.00     0.047 A 
ATOM      6  C   UNL     1      37.095  20.138  80.854  1.00  0.00     0.115 A 
ENDROOT
BRANCH   1   7
ATOM      7  C   UNL     1      40.850  20.432  78.789  1.00  0.00     0.071 C 
ATOM      8  O   UNL     1      41.899  19.950  79.292  1.00  0.00    -0.545 OA
ATOM      9  O   UNL     1      40.924  21.065  77.554  1.00  0.00    -0.545 OA
ENDBRANCH   1   7
BRANCH   6  10
ATOM     10  O   UNL     1      35.876  20.057  81.522  1.00  0.00    -0.508 OA
ATOM     11  H   UNL     1      34.997  20.045  81.019  1.00  0.00     0.293 HD
ENDBRANCH   6  10
TORSDOF 2
ENDMDL
MODEL 6
REMARK VINA RESULT:    -3.378     16.319     17.039
REMARK INTER + INTRA:          -3.702
REMARK INTER:                  -3.675
REMARK INTRA:                  -0.027
REMARK UNBOUND:                -0.028
REMARK SMILES O=C([O-])c1ccc(O)cc1
REMARK SMILES IDX 4 1 5 2 10 3 6 4 9 5 7 6 2 7 1 8 3 9 8 10
REMARK H PARENT 8 11
REMARK Flexibility Score: inf
ROOT
ATOM      1  C   UNL     1      46.733  30.410  90.836  1.00  0.00    -0.003 A 
ATOM      2  C   UNL     1      45.924  31.561  90.858  1.00  0.00     0.014 A 
ATOM      3  C   UNL     1      46.268  29.237  91.459  1.00  0.00     0.014 A 
ATOM      4  C   UNL     1      44.676  31.537  91.489  1.00  0.00     0.047 A 
ATOM      5  C   UNL     1      45.019  29.219  92.089  1.00  0.00     0.047 A 
ATOM      6  C   UNL     1      44.221  30.366  92.106  1.00  0.00     0.115 A 
ENDROOT
BRANCH   1   7
ATOM      7  C   UNL     1      48.054  30.428  90.170  1.00  0.00     0.071 C 
ATOM      8  O   UNL     1      48.188  29.981  89.000  1.00  0.00    -0.545 OA
ATOM      9  O   UNL     1      49.167  30.938  90.827  1.00  0.00    -0.545 OA
ENDBRANCH   1   7
BRANCH   6  10
ATOM     10  O   UNL     1      42.979  30.332  92.738  1.00  0.00    -0.508 OA
ATOM     11  H   UNL     1      42.119  30.459  92.219  1.00  0.00     0.293 HD
ENDBRANCH   6  10
TORSDOF 2
ENDMDL
MODEL 7
REMARK VINA RESULT:    -3.361      9.102     10.506
REMARK INTER + INTRA:          -3.683
REMARK INTER:                  -3.650
REMARK INTRA:                  -0.033
REMARK UNBOUND:                -0.028
REMARK SMILES O=C([O-])c1ccc(O)cc1
REMARK SMILES IDX 4 1 5 2 10 3 6 4 9 5 7 6 2 7 1 8 3 9 8 10
REMARK H PARENT 8 11
REMARK Flexibility Score: inf
ROOT
ATOM      1  C   UNL     1      46.812  19.844  75.061  1.00  0.00    -0.003 A 
ATOM      2  C   UNL     1      47.753  20.670  75.703  1.00  0.00     0.014 A 
ATOM      3  C   UNL     1      46.023  18.978  75.839  1.00  0.00     0.014 A 
ATOM      4  C   UNL     1      47.899  20.631  77.093  1.00  0.00     0.047 A 
ATOM      5  C   UNL     1      46.172  18.942  77.229  1.00  0.00     0.047 A 
ATOM      6  C   UNL     1      47.108  19.766  77.860  1.00  0.00     0.115 A 
ENDROOT
BRANCH   1   7
ATOM      7  C   UNL     1      46.653  19.881  73.590  1.00  0.00     0.071 C 
ATOM      8  O   UNL     1      46.812  20.957  72.956  1.00  0.00    -0.545 OA
ATOM      9  O   UNL     1      46.326  18.727  72.888  1.00  0.00    -0.545 OA
ENDBRANCH   1   7
BRANCH   6  10
ATOM     10  O   UNL     1      47.245  19.719  79.245  1.00  0.00    -0.508 OA
ATOM     11  H   UNL     1      47.624  18.903  79.712  1.00  0.00     0.293 HD
ENDBRANCH   6  10
TORSDOF 2
ENDMDL
MODEL 8
REMARK VINA RESULT:    -3.338      2.653      3.484
REMARK INTER + INTRA:          -3.658
REMARK INTER:                  -3.624
REMARK INTRA:                  -0.034
REMARK UNBOUND:                -0.028
REMARK SMILES O=C([O-])c1ccc(O)cc1
REMARK SMILES IDX 4 1 5 2 10 3 6 4 9 5 7 6 2 7 1 8 3 9 8 10
REMARK H PARENT 8 11
REMARK Flexibility Score: inf
ROOT
ATOM      1  C   UNL     1      39.789  20.978  79.114  1.00  0.00    -0.003 A 
ATOM      2  C   UNL     1      38.714  21.745  79.601  1.00  0.00     0.014 A 
ATOM      3  C   UNL     1      39.910  19.637  79.522  1.00  0.00     0.014 A 
ATOM      4  C   UNL     1      37.780  21.180  80.475  1.00  0.00     0.047 A 
ATOM      5  C   UNL     1      38.974  19.077  80.397  1.00  0.00     0.047 A 
ATOM      6  C   UNL     1      37.908  19.845  80.876  1.00  0.00     0.115 A 
ENDROOT
BRANCH   1   7
ATOM      7  C   UNL     1      40.781  21.569  78.188  1.00  0.00     0.071 C 
ATOM      8  O   UNL     1      40.461  22.525  77.433  1.00  0.00    -0.545 OA
ATOM      9  O   UNL     1      42.080  21.078  78.141  1.00  0.00    -0.545 OA
ENDBRANCH   1   7
BRANCH   6  10
ATOM     10  O   UNL     1      36.984  19.272  81.747  1.00  0.00    -0.508 OA
ATOM     11  H   UNL     1      37.079  19.361  82.752  1.00  0.00     0.293 HD
ENDBRANCH   6  10
TORSDOF 2
ENDMDL
MODEL 9
REMARK VINA RESULT:    -3.327      2.236      3.782
REMARK INTER + INTRA:          -3.646
REMARK INTER:                  -3.617
REMARK INTRA:                  -0.029
REMARK UNBOUND:                -0.028
REMARK SMILES O=C([O-])c1ccc(O)cc1
REMARK SMILES IDX 4 1 5 2 10 3 6 4 9 5 7 6 2 7 1 8 3 9 8 10
REMARK H PARENT 8 11
REMARK Flexibility Score: inf
ROOT
ATOM      1  C   UNL     1      38.698  20.138  80.016  1.00  0.00    -0.003 A 
ATOM      2  C   UNL     1      38.359  21.470  79.714  1.00  0.00     0.014 A 
ATOM      3  C   UNL     1      39.932  19.631  79.569  1.00  0.00     0.014 A 
ATOM      4  C   UNL     1      39.238  22.276  78.983  1.00  0.00     0.047 A 
ATOM      5  C   UNL     1      40.807  20.441  78.838  1.00  0.00     0.047 A 
ATOM      6  C   UNL     1      40.464  21.763  78.543  1.00  0.00     0.115 A 
ENDROOT
BRANCH   1   7
ATOM      7  C   UNL     1      37.774  19.280  80.789  1.00  0.00     0.071 C 
ATOM      8  O   UNL     1      37.328  18.211  80.294  1.00  0.00    -0.545 OA
ATOM      9  O   UNL     1      37.383  19.643  82.072  1.00  0.00    -0.545 OA
ENDBRANCH   1   7
BRANCH   6  10
ATOM     10  O   UNL     1      41.346  22.557  77.813  1.00  0.00    -0.508 OA
ATOM     11  H   UNL     1      42.099  23.063  78.265  1.00  0.00     0.293 HD
ENDBRANCH   6  10
TORSDOF 2
ENDMDL
