MODEL 1
REMARK VINA RESULT:     8.479      0.000      0.000
REMARK INTER + INTRA:           8.479
REMARK INTER:                   8.479
REMARK INTRA:                   0.000
REMARK UNBOUND:                 0.000
REMARK SMILES C=C1CC[C@@H]2C[C@H]1C2(C)C
REMARK SMILES IDX 9 1 8 2 5 3 4 4 3 5 2 6 1 7 7 8 6 9 10 10
REMARK H PARENT
REMARK Flexibility Score: inf
ROOT
ATOM      1  C   UNL     1      -0.708   6.050 -12.387  1.00  0.00     0.012 C 
ATOM      2  C   UNL     1      -0.505   5.651 -10.905  1.00  0.00    -0.026 C 
ATOM      3  C   UNL     1       0.831   4.895 -10.685  1.00  0.00    -0.004 C 
ATOM      4  C   UNL     1       0.839   4.157  -9.310  1.00  0.00     0.008 C 
ATOM      5  C   UNL     1       0.444   5.102  -8.112  1.00  0.00     0.031 C 
ATOM      6  C   UNL     1      -0.021   6.485  -8.591  1.00  0.00    -0.074 C 
ATOM      7  C   UNL     1      -0.530   7.381  -7.738  1.00  0.00     0.008 C 
ATOM      8  C   UNL     1       0.129   6.794 -10.076  1.00  0.00     0.021 C 
ATOM      9  C   UNL     1       1.516   6.253 -10.457  1.00  0.00     0.012 C 
ATOM     10  C   UNL     1      -1.820   5.005 -10.387  1.00  0.00     0.012 C 
ENDROOT
TORSDOF 0
ENDMDL
MODEL 2
REMARK VINA RESULT:     9.397     10.267     11.566
REMARK INTER + INTRA:           9.397
REMARK INTER:                   9.397
REMARK INTRA:                   0.000
REMARK UNBOUND:                 0.000
REMARK SMILES C=C1CC[C@@H]2C[C@H]1C2(C)C
REMARK SMILES IDX 9 1 8 2 5 3 4 4 3 5 2 6 1 7 7 8 6 9 10 10
REMARK H PARENT
REMARK Flexibility Score: inf
ROOT
ATOM      1  C   UNL     1      12.526   8.623  -9.233  1.00  0.00     0.012 C 
ATOM      2  C   UNL     1      11.612   7.885  -8.225  1.00  0.00    -0.026 C 
ATOM      3  C   UNL     1      12.334   7.606  -6.882  1.00  0.00    -0.004 C 
ATOM      4  C   UNL     1      11.570   6.533  -6.044  1.00  0.00     0.008 C 
ATOM      5  C   UNL     1      10.039   6.870  -5.880  1.00  0.00     0.031 C 
ATOM      6  C   UNL     1       9.617   8.085  -6.720  1.00  0.00    -0.074 C 
ATOM      7  C   UNL     1       8.333   8.445  -6.825  1.00  0.00     0.008 C 
ATOM      8  C   UNL     1      10.723   8.864  -7.421  1.00  0.00     0.021 C 
ATOM      9  C   UNL     1      11.850   8.978  -6.382  1.00  0.00     0.012 C 
ATOM     10  C   UNL     1      10.925   6.701  -8.961  1.00  0.00     0.012 C 
ENDROOT
TORSDOF 0
ENDMDL
MODEL 3
REMARK VINA RESULT:     9.971      0.910      2.736
REMARK INTER + INTRA:           9.971
REMARK INTER:                   9.971
REMARK INTRA:                   0.000
REMARK UNBOUND:                 0.000
REMARK SMILES C=C1CC[C@@H]2C[C@H]1C2(C)C
REMARK SMILES IDX 9 1 8 2 5 3 4 4 3 5 2 6 1 7 7 8 6 9 10 10
REMARK H PARENT
REMARK Flexibility Score: inf
ROOT
ATOM      1  C   UNL     1      -1.080   6.091 -12.442  1.00  0.00     0.012 C 
ATOM      2  C   UNL     1      -0.143   6.019 -11.211  1.00  0.00    -0.026 C 
ATOM      3  C   UNL     1      -0.855   6.479  -9.913  1.00  0.00    -0.004 C 
ATOM      4  C   UNL     1       0.179   6.787  -8.784  1.00  0.00     0.008 C 
ATOM      5  C   UNL     1       1.201   5.608  -8.560  1.00  0.00     0.031 C 
ATOM      6  C   UNL     1       1.051   4.500  -9.614  1.00  0.00    -0.074 C 
ATOM      7  C   UNL     1       1.916   3.482  -9.679  1.00  0.00     0.008 C 
ATOM      8  C   UNL     1      -0.127   4.608 -10.575  1.00  0.00     0.021 C 
ATOM      9  C   UNL     1      -1.318   5.029  -9.699  1.00  0.00     0.012 C 
ATOM     10  C   UNL     1       1.214   6.673 -11.589  1.00  0.00     0.012 C 
ENDROOT
TORSDOF 0
ENDMDL
MODEL 4
REMARK VINA RESULT:    10.240      1.019      2.854
REMARK INTER + INTRA:          10.240
REMARK INTER:                  10.240
REMARK INTRA:                   0.000
REMARK UNBOUND:                 0.000
REMARK SMILES C=C1CC[C@@H]2C[C@H]1C2(C)C
REMARK SMILES IDX 9 1 8 2 5 3 4 4 3 5 2 6 1 7 7 8 6 9 10 10
REMARK H PARENT
REMARK Flexibility Score: inf
ROOT
ATOM      1  C   UNL     1       2.550   3.636  -9.842  1.00  0.00     0.012 C 
ATOM      2  C   UNL     1       1.204   4.360  -9.593  1.00  0.00    -0.026 C 
ATOM      3  C   UNL     1       1.388   5.658  -8.765  1.00  0.00    -0.004 C 
ATOM      4  C   UNL     1       0.025   6.151  -8.184  1.00  0.00     0.008 C 
ATOM      5  C   UNL     1      -1.100   6.257  -9.283  1.00  0.00     0.031 C 
ATOM      6  C   UNL     1      -0.646   5.691 -10.637  1.00  0.00    -0.074 C 
ATOM      7  C   UNL     1      -1.501   5.562 -11.658  1.00  0.00     0.008 C 
ATOM      8  C   UNL     1       0.819   5.291 -10.768  1.00  0.00     0.021 C 
ATOM      9  C   UNL     1       1.603   6.421 -10.082  1.00  0.00     0.012 C 
ATOM     10  C   UNL     1       0.164   3.311  -9.112  1.00  0.00     0.012 C 
ENDROOT
TORSDOF 0
ENDMDL
MODEL 5
REMARK VINA RESULT:    10.271      0.962      3.114
REMARK INTER + INTRA:          10.271
REMARK INTER:                  10.271
REMARK INTRA:                   0.000
REMARK UNBOUND:                 0.000
REMARK SMILES C=C1CC[C@@H]2C[C@H]1C2(C)C
REMARK SMILES IDX 9 1 8 2 5 3 4 4 3 5 2 6 1 7 7 8 6 9 10 10
REMARK H PARENT
REMARK Flexibility Score: inf
ROOT
ATOM      1  C   UNL     1       0.265   7.278  -7.502  1.00  0.00     0.012 C 
ATOM      2  C   UNL     1       0.041   6.247  -8.636  1.00  0.00    -0.026 C 
ATOM      3  C   UNL     1       0.262   6.870 -10.038  1.00  0.00    -0.004 C 
ATOM      4  C   UNL     1      -0.347   5.966 -11.156  1.00  0.00     0.008 C 
ATOM      5  C   UNL     1       0.128   4.467 -11.049  1.00  0.00     0.031 C 
ATOM      6  C   UNL     1       0.943   4.204  -9.774  1.00  0.00    -0.074 C 
ATOM      7  C   UNL     1       1.317   2.966  -9.431  1.00  0.00     0.008 C 
ATOM      8  C   UNL     1       1.313   5.414  -8.923  1.00  0.00     0.021 C 
ATOM      9  C   UNL     1       1.748   6.491  -9.929  1.00  0.00     0.012 C 
ATOM     10  C   UNL     1      -1.288   5.493  -8.357  1.00  0.00     0.012 C 
ENDROOT
TORSDOF 0
ENDMDL
MODEL 6
REMARK VINA RESULT:    10.395      0.984      3.089
REMARK INTER + INTRA:          10.395
REMARK INTER:                  10.395
REMARK INTRA:                   0.000
REMARK UNBOUND:                 0.000
REMARK SMILES C=C1CC[C@@H]2C[C@H]1C2(C)C
REMARK SMILES IDX 9 1 8 2 5 3 4 4 3 5 2 6 1 7 7 8 6 9 10 10
REMARK H PARENT
REMARK Flexibility Score: inf
ROOT
ATOM      1  C   UNL     1       2.631   5.254  -9.191  1.00  0.00     0.012 C 
ATOM      2  C   UNL     1       1.117   5.182  -9.508  1.00  0.00    -0.026 C 
ATOM      3  C   UNL     1       0.287   6.121  -8.596  1.00  0.00    -0.004 C 
ATOM      4  C   UNL     1      -1.229   5.750  -8.638  1.00  0.00     0.008 C 
ATOM      5  C   UNL     1      -1.786   5.645 -10.109  1.00  0.00     0.031 C 
ATOM      6  C   UNL     1      -0.674   5.765 -11.163  1.00  0.00    -0.074 C 
ATOM      7  C   UNL     1      -0.922   5.562 -12.461  1.00  0.00     0.008 C 
ATOM      8  C   UNL     1       0.720   6.130 -10.665  1.00  0.00     0.021 C 
ATOM      9  C   UNL     1       0.493   7.242  -9.628  1.00  0.00     0.012 C 
ATOM     10  C   UNL     1       0.708   3.686  -9.607  1.00  0.00     0.012 C 
ENDROOT
TORSDOF 0
ENDMDL
MODEL 7
REMARK VINA RESULT:    10.645      0.970      3.253
REMARK INTER + INTRA:          10.645
REMARK INTER:                  10.645
REMARK INTRA:                   0.000
REMARK UNBOUND:                 0.000
REMARK SMILES C=C1CC[C@@H]2C[C@H]1C2(C)C
REMARK SMILES IDX 9 1 8 2 5 3 4 4 3 5 2 6 1 7 7 8 6 9 10 10
REMARK H PARENT
REMARK Flexibility Score: inf
ROOT
ATOM      1  C   UNL     1       0.314   5.593  -7.453  1.00  0.00     0.012 C 
ATOM      2  C   UNL     1       0.186   6.039  -8.931  1.00  0.00    -0.026 C 
ATOM      3  C   UNL     1       1.509   5.838  -9.714  1.00  0.00    -0.004 C 
ATOM      4  C   UNL     1       1.498   6.646 -11.050  1.00  0.00     0.008 C 
ATOM      5  C   UNL     1       0.207   6.374 -11.912  1.00  0.00     0.031 C 
ATOM      6  C   UNL     1      -0.821   5.510 -11.165  1.00  0.00    -0.074 C 
ATOM      7  C   UNL     1      -2.039   5.286 -11.671  1.00  0.00     0.008 C 
ATOM      8  C   UNL     1      -0.391   4.918  -9.828  1.00  0.00     0.021 C 
ATOM      9  C   UNL     1       1.043   4.414 -10.059  1.00  0.00     0.012 C 
ATOM     10  C   UNL     1      -0.496   7.435  -8.964  1.00  0.00     0.012 C 
ENDROOT
TORSDOF 0
ENDMDL
