MODEL 1
REMARK VINA RESULT:    -3.891      0.000      0.000
REMARK INTER + INTRA:          -5.703
REMARK INTER:                  -5.255
REMARK INTRA:                  -0.447
REMARK UNBOUND:                -0.447
REMARK SMILES CCCCCCCC(=O)[O-]
REMARK SMILES IDX 5 1 6 2 7 3 8 4 9 5 10 6 4 7 3 8 2 9 1 10
REMARK H PARENT
REMARK Flexibility Score: inf
ROOT
ATOM      1  C   UNL     1      40.702 -11.283  26.774  1.00  0.00     0.000 C 
ENDROOT
BRANCH   1   2
ATOM      2  C   UNL     1      39.299 -10.740  27.102  1.00  0.00     0.006 C 
BRANCH   2   3
ATOM      3  C   UNL     1      38.373 -11.808  27.698  1.00  0.00     0.053 C 
BRANCH   3   4
ATOM      4  C   UNL     1      36.977 -11.284  27.812  1.00  0.00     0.041 C 
ATOM      5  O   UNL     1      36.320 -11.001  26.775  1.00  0.00    -0.550 OA
ATOM      6  O   UNL     1      36.382 -11.154  29.060  1.00  0.00    -0.550 OA
ENDBRANCH   3   4
ENDBRANCH   2   3
ENDBRANCH   1   2
BRANCH   1   7
ATOM      7  C   UNL     1      40.961 -12.733  27.226  1.00  0.00     0.000 C 
BRANCH   7   8
ATOM      8  C   UNL     1      42.090 -12.905  28.263  1.00  0.00    -0.000 C 
BRANCH   8   9
ATOM      9  C   UNL     1      41.611 -13.125  29.708  1.00  0.00    -0.003 C 
ATOM     10  C   UNL     1      41.148 -11.836  30.385  1.00  0.00     0.004 C 
ENDBRANCH   8   9
ENDBRANCH   7   8
ENDBRANCH   1   7
TORSDOF 6
ENDMDL
MODEL 2
REMARK VINA RESULT:    -3.889      3.137      4.303
REMARK INTER + INTRA:          -5.701
REMARK INTER:                  -5.314
REMARK INTRA:                  -0.387
REMARK UNBOUND:                -0.447
REMARK SMILES CCCCCCCC(=O)[O-]
REMARK SMILES IDX 5 1 6 2 7 3 8 4 9 5 10 6 4 7 3 8 2 9 1 10
REMARK H PARENT
REMARK Flexibility Score: inf
ROOT
ATOM      1  C   UNL     1      36.639  -9.322  24.669  1.00  0.00     0.000 C 
ENDROOT
BRANCH   1   2
ATOM      2  C   UNL     1      36.268  -9.632  26.131  1.00  0.00     0.006 C 
BRANCH   2   3
ATOM      3  C   UNL     1      36.272 -11.134  26.440  1.00  0.00     0.053 C 
BRANCH   3   4
ATOM      4  C   UNL     1      36.998 -11.402  27.719  1.00  0.00     0.041 C 
ATOM      5  O   UNL     1      36.443 -11.166  28.825  1.00  0.00    -0.550 OA
ATOM      6  O   UNL     1      38.270 -11.959  27.694  1.00  0.00    -0.550 OA
ENDBRANCH   3   4
ENDBRANCH   2   3
ENDBRANCH   1   2
BRANCH   1   7
ATOM      7  C   UNL     1      38.096  -8.870  24.449  1.00  0.00     0.000 C 
BRANCH   7   8
ATOM      8  C   UNL     1      38.949  -8.762  25.728  1.00  0.00    -0.000 C 
BRANCH   8   9
ATOM      9  C   UNL     1      40.162  -9.708  25.778  1.00  0.00    -0.003 C 
ATOM     10  C   UNL     1      41.143  -9.480  24.628  1.00  0.00     0.004 C 
ENDBRANCH   8   9
ENDBRANCH   7   8
ENDBRANCH   1   7
TORSDOF 6
ENDMDL
MODEL 3
REMARK VINA RESULT:    -3.885      1.291      2.147
REMARK INTER + INTRA:          -5.695
REMARK INTER:                  -5.468
REMARK INTRA:                  -0.227
REMARK UNBOUND:                -0.447
REMARK SMILES CCCCCCCC(=O)[O-]
REMARK SMILES IDX 5 1 6 2 7 3 8 4 9 5 10 6 4 7 3 8 2 9 1 10
REMARK H PARENT
REMARK Flexibility Score: inf
ROOT
ATOM      1  C   UNL     1      40.690 -11.454  26.870  1.00  0.00     0.000 C 
ENDROOT
BRANCH   1   2
ATOM      2  C   UNL     1      39.303 -10.867  27.192  1.00  0.00     0.006 C 
BRANCH   2   3
ATOM      3  C   UNL     1      38.323 -11.917  27.729  1.00  0.00     0.053 C 
BRANCH   3   4
ATOM      4  C   UNL     1      36.940 -11.351  27.803  1.00  0.00     0.041 C 
ATOM      5  O   UNL     1      36.309 -11.081  26.747  1.00  0.00    -0.550 OA
ATOM      6  O   UNL     1      36.329 -11.166  29.036  1.00  0.00    -0.550 OA
ENDBRANCH   3   4
ENDBRANCH   2   3
ENDBRANCH   1   2
BRANCH   1   7
ATOM      7  C   UNL     1      40.864 -12.943  27.227  1.00  0.00     0.000 C 
BRANCH   7   8
ATOM      8  C   UNL     1      42.290 -13.355  27.645  1.00  0.00    -0.000 C 
BRANCH   8   9
ATOM      9  C   UNL     1      43.413 -12.776  26.765  1.00  0.00    -0.003 C 
ATOM     10  C   UNL     1      43.753 -13.668  25.572  1.00  0.00     0.004 C 
ENDBRANCH   8   9
ENDBRANCH   7   8
ENDBRANCH   1   7
TORSDOF 6
ENDMDL
MODEL 4
REMARK VINA RESULT:    -3.821     12.734     14.211
REMARK INTER + INTRA:          -5.609
REMARK INTER:                  -5.431
REMARK INTRA:                  -0.178
REMARK UNBOUND:                -0.447
REMARK SMILES CCCCCCCC(=O)[O-]
REMARK SMILES IDX 5 1 6 2 7 3 8 4 9 5 10 6 4 7 3 8 2 9 1 10
REMARK H PARENT
REMARK Flexibility Score: inf
ROOT
ATOM      1  C   UNL     1      42.431   0.046  21.430  1.00  0.00     0.000 C 
ENDROOT
BRANCH   1   2
ATOM      2  C   UNL     1      43.449  -0.564  22.411  1.00  0.00     0.006 C 
BRANCH   2   3
ATOM      3  C   UNL     1      42.990  -0.479  23.872  1.00  0.00     0.053 C 
BRANCH   3   4
ATOM      4  C   UNL     1      43.906  -1.268  24.753  1.00  0.00     0.041 C 
ATOM      5  O   UNL     1      45.059  -0.836  25.017  1.00  0.00    -0.550 OA
ATOM      6  O   UNL     1      43.470  -2.457  25.323  1.00  0.00    -0.550 OA
ENDBRANCH   3   4
ENDBRANCH   2   3
ENDBRANCH   1   2
BRANCH   1   7
ATOM      7  C   UNL     1      41.656  -0.978  20.576  1.00  0.00     0.000 C 
BRANCH   7   8
ATOM      8  C   UNL     1      41.551  -0.636  19.077  1.00  0.00    -0.000 C 
BRANCH   8   9
ATOM      9  C   UNL     1      42.152   0.724  18.681  1.00  0.00    -0.003 C 
ATOM     10  C   UNL     1      41.397   1.397  17.534  1.00  0.00     0.004 C 
ENDBRANCH   8   9
ENDBRANCH   7   8
ENDBRANCH   1   7
TORSDOF 6
ENDMDL
MODEL 5
REMARK VINA RESULT:    -3.763     12.224     13.671
REMARK INTER + INTRA:          -5.530
REMARK INTER:                  -5.238
REMARK INTRA:                  -0.291
REMARK UNBOUND:                -0.447
REMARK SMILES CCCCCCCC(=O)[O-]
REMARK SMILES IDX 5 1 6 2 7 3 8 4 9 5 10 6 4 7 3 8 2 9 1 10
REMARK H PARENT
REMARK Flexibility Score: inf
ROOT
ATOM      1  C   UNL     1      43.707  -0.523  22.076  1.00  0.00     0.000 C 
ENDROOT
BRANCH   1   2
ATOM      2  C   UNL     1      44.462   0.351  23.094  1.00  0.00     0.006 C 
BRANCH   2   3
ATOM      3  C   UNL     1      44.915  -0.434  24.331  1.00  0.00     0.053 C 
BRANCH   3   4
ATOM      4  C   UNL     1      43.736  -1.036  25.028  1.00  0.00     0.041 C 
ATOM      5  O   UNL     1      43.699  -2.274  25.254  1.00  0.00    -0.550 OA
ATOM      6  O   UNL     1      42.701  -0.225  25.472  1.00  0.00    -0.550 OA
ENDBRANCH   3   4
ENDBRANCH   2   3
ENDBRANCH   1   2
BRANCH   1   7
ATOM      7  C   UNL     1      42.319   0.009  21.664  1.00  0.00     0.000 C 
BRANCH   7   8
ATOM      8  C   UNL     1      42.176   0.383  20.176  1.00  0.00    -0.000 C 
BRANCH   8   9
ATOM      9  C   UNL     1      41.593  -0.727  19.284  1.00  0.00    -0.003 C 
ATOM     10  C   UNL     1      40.699  -1.700  20.052  1.00  0.00     0.004 C 
ENDBRANCH   8   9
ENDBRANCH   7   8
ENDBRANCH   1   7
TORSDOF 6
ENDMDL
MODEL 6
REMARK VINA RESULT:    -3.710     12.617     14.039
REMARK INTER + INTRA:          -5.458
REMARK INTER:                  -5.039
REMARK INTRA:                  -0.419
REMARK UNBOUND:                -0.447
REMARK SMILES CCCCCCCC(=O)[O-]
REMARK SMILES IDX 5 1 6 2 7 3 8 4 9 5 10 6 4 7 3 8 2 9 1 10
REMARK H PARENT
REMARK Flexibility Score: inf
ROOT
ATOM      1  C   UNL     1      43.653   1.051  21.735  1.00  0.00     0.000 C 
ENDROOT
BRANCH   1   2
ATOM      2  C   UNL     1      44.109  -0.276  22.368  1.00  0.00     0.006 C 
BRANCH   2   3
ATOM      3  C   UNL     1      43.145  -0.783  23.447  1.00  0.00     0.053 C 
BRANCH   3   4
ATOM      4  C   UNL     1      43.906  -1.299  24.627  1.00  0.00     0.041 C 
ATOM      5  O   UNL     1      44.976  -0.739  24.984  1.00  0.00    -0.550 OA
ATOM      6  O   UNL     1      43.410  -2.368  25.362  1.00  0.00    -0.550 OA
ENDBRANCH   3   4
ENDBRANCH   2   3
ENDBRANCH   1   2
BRANCH   1   7
ATOM      7  C   UNL     1      42.244   1.022  21.108  1.00  0.00     0.000 C 
BRANCH   7   8
ATOM      8  C   UNL     1      42.212   0.906  19.572  1.00  0.00    -0.000 C 
BRANCH   8   9
ATOM      9  C   UNL     1      41.648  -0.422  19.036  1.00  0.00    -0.003 C 
ATOM     10  C   UNL     1      41.072  -1.311  20.137  1.00  0.00     0.004 C 
ENDBRANCH   8   9
ENDBRANCH   7   8
ENDBRANCH   1   7
TORSDOF 6
ENDMDL
MODEL 7
REMARK VINA RESULT:    -3.661      2.138      4.168
REMARK INTER + INTRA:          -5.393
REMARK INTER:                  -5.113
REMARK INTRA:                  -0.280
REMARK UNBOUND:                -0.447
REMARK SMILES CCCCCCCC(=O)[O-]
REMARK SMILES IDX 5 1 6 2 7 3 8 4 9 5 10 6 4 7 3 8 2 9 1 10
REMARK H PARENT
REMARK Flexibility Score: inf
ROOT
ATOM      1  C   UNL     1      40.123 -10.876  26.944  1.00  0.00     0.000 C 
ENDROOT
BRANCH   1   2
ATOM      2  C   UNL     1      38.720 -11.212  27.481  1.00  0.00     0.006 C 
BRANCH   2   3
ATOM      3  C   UNL     1      38.722 -12.402  28.448  1.00  0.00     0.053 C 
BRANCH   3   4
ATOM      4  C   UNL     1      37.613 -12.268  29.443  1.00  0.00     0.041 C 
ATOM      5  O   UNL     1      36.624 -11.530  29.194  1.00  0.00    -0.550 OA
ATOM      6  O   UNL     1      37.647 -12.997  30.625  1.00  0.00    -0.550 OA
ENDBRANCH   3   4
ENDBRANCH   2   3
ENDBRANCH   1   2
BRANCH   1   7
ATOM      7  C   UNL     1      40.154  -9.824  25.816  1.00  0.00     0.000 C 
BRANCH   7   8
ATOM      8  C   UNL     1      39.005  -8.797  25.846  1.00  0.00    -0.000 C 
BRANCH   8   9
ATOM      9  C   UNL     1      38.002  -8.915  24.685  1.00  0.00    -0.003 C 
ATOM     10  C   UNL     1      36.603  -9.323  25.145  1.00  0.00     0.004 C 
ENDBRANCH   8   9
ENDBRANCH   7   8
ENDBRANCH   1   7
TORSDOF 6
ENDMDL
MODEL 8
REMARK VINA RESULT:    -3.625     17.631     18.851
REMARK INTER + INTRA:          -5.344
REMARK INTER:                  -4.746
REMARK INTRA:                  -0.598
REMARK UNBOUND:                -0.447
REMARK SMILES CCCCCCCC(=O)[O-]
REMARK SMILES IDX 5 1 6 2 7 3 8 4 9 5 10 6 4 7 3 8 2 9 1 10
REMARK H PARENT
REMARK Flexibility Score: inf
ROOT
ATOM      1  C   UNL     1      50.367  -0.612  21.402  1.00  0.00     0.000 C 
ENDROOT
BRANCH   1   2
ATOM      2  C   UNL     1      49.062   0.006  20.870  1.00  0.00     0.006 C 
BRANCH   2   3
ATOM      3  C   UNL     1      49.307   1.137  19.863  1.00  0.00     0.053 C 
BRANCH   3   4
ATOM      4  C   UNL     1      50.050   2.261  20.511  1.00  0.00     0.041 C 
ATOM      5  O   UNL     1      49.559   2.854  21.507  1.00  0.00    -0.550 OA
ATOM      6  O   UNL     1      51.308   2.623  20.047  1.00  0.00    -0.550 OA
ENDBRANCH   3   4
ENDBRANCH   2   3
ENDBRANCH   1   2
BRANCH   1   7
ATOM      7  C   UNL     1      51.236  -1.313  20.339  1.00  0.00     0.000 C 
BRANCH   7   8
ATOM      8  C   UNL     1      52.623  -0.683  20.106  1.00  0.00    -0.000 C 
BRANCH   8   9
ATOM      9  C   UNL     1      52.920  -0.295  18.647  1.00  0.00    -0.003 C 
ATOM     10  C   UNL     1      51.994  -0.986  17.647  1.00  0.00     0.004 C 
ENDBRANCH   8   9
ENDBRANCH   7   8
ENDBRANCH   1   7
TORSDOF 6
ENDMDL
MODEL 9
REMARK VINA RESULT:    -3.526     12.626     13.703
REMARK INTER + INTRA:          -5.210
REMARK INTER:                  -4.817
REMARK INTRA:                  -0.393
REMARK UNBOUND:                -0.447
REMARK SMILES CCCCCCCC(=O)[O-]
REMARK SMILES IDX 5 1 6 2 7 3 8 4 9 5 10 6 4 7 3 8 2 9 1 10
REMARK H PARENT
REMARK Flexibility Score: inf
ROOT
ATOM      1  C   UNL     1      43.794   1.305  21.994  1.00  0.00     0.000 C 
ENDROOT
BRANCH   1   2
ATOM      2  C   UNL     1      42.355   0.862  21.672  1.00  0.00     0.006 C 
BRANCH   2   3
ATOM      3  C   UNL     1      42.254  -0.631  21.336  1.00  0.00     0.053 C 
BRANCH   3   4
ATOM      4  C   UNL     1      41.383  -0.839  20.138  1.00  0.00     0.041 C 
ATOM      5  O   UNL     1      40.521  -1.758  20.133  1.00  0.00    -0.550 OA
ATOM      6  O   UNL     1      41.488   0.011  19.045  1.00  0.00    -0.550 OA
ENDBRANCH   3   4
ENDBRANCH   2   3
ENDBRANCH   1   2
BRANCH   1   7
ATOM      7  C   UNL     1      44.697   0.205  22.586  1.00  0.00     0.000 C 
BRANCH   7   8
ATOM      8  C   UNL     1      45.249   0.498  23.995  1.00  0.00    -0.000 C 
BRANCH   8   9
ATOM      9  C   UNL     1      45.109  -0.661  24.998  1.00  0.00    -0.003 C 
ATOM     10  C   UNL     1      43.724  -1.307  24.971  1.00  0.00     0.004 C 
ENDBRANCH   8   9
ENDBRANCH   7   8
ENDBRANCH   1   7
TORSDOF 6
ENDMDL
