MODEL 1
REMARK VINA RESULT:    -2.498      0.000      0.000
REMARK INTER + INTRA:          -2.498
REMARK INTER:                  -2.498
REMARK INTRA:                   0.000
REMARK UNBOUND:                 0.000
REMARK SMILES c1cc[nH]c1
REMARK SMILES IDX 1 1 5 2 4 3 3 4 2 5
REMARK H PARENT 4 6
REMARK Flexibility Score: inf
ROOT
ATOM      1  C   UNL     1     128.548  29.016 -17.367  1.00  0.00     0.019 A 
ATOM      2  C   UNL     1     128.144  29.914 -18.334  1.00  0.00     0.082 A 
ATOM      3  N   UNL     1     128.450  31.167 -17.954  1.00  0.00    -0.368 N 
ATOM      4  C   UNL     1     129.048  31.081 -16.752  1.00  0.00     0.082 A 
ATOM      5  C   UNL     1     129.125  29.761 -16.358  1.00  0.00     0.019 A 
ATOM      6  H   UNL     1     128.260  32.042 -18.490  1.00  0.00     0.165 HD
ENDROOT
TORSDOF 0
ENDMDL
MODEL 2
REMARK VINA RESULT:    -2.420      0.137      1.625
REMARK INTER + INTRA:          -2.420
REMARK INTER:                  -2.420
REMARK INTRA:                   0.000
REMARK UNBOUND:                 0.000
REMARK SMILES c1cc[nH]c1
REMARK SMILES IDX 1 1 5 2 4 3 3 4 2 5
REMARK H PARENT 4 6
REMARK Flexibility Score: inf
ROOT
ATOM      1  C   UNL     1     129.125  29.644 -16.475  1.00  0.00     0.019 A 
ATOM      2  C   UNL     1     129.106  30.977 -16.834  1.00  0.00     0.082 A 
ATOM      3  N   UNL     1     128.430  31.133 -17.985  1.00  0.00    -0.368 N 
ATOM      4  C   UNL     1     128.015  29.913 -18.368  1.00  0.00     0.082 A 
ATOM      5  C   UNL     1     128.429  28.965 -17.455  1.00  0.00     0.019 A 
ATOM      6  H   UNL     1     128.260  32.032 -18.487  1.00  0.00     0.165 HD
ENDROOT
TORSDOF 0
ENDMDL
MODEL 3
REMARK VINA RESULT:    -2.325      1.260      1.648
REMARK INTER + INTRA:          -2.325
REMARK INTER:                  -2.325
REMARK INTRA:                   0.000
REMARK UNBOUND:                 0.000
REMARK SMILES c1cc[nH]c1
REMARK SMILES IDX 1 1 5 2 4 3 3 4 2 5
REMARK H PARENT 4 6
REMARK Flexibility Score: inf
ROOT
ATOM      1  C   UNL     1     128.567  30.112 -18.465  1.00  0.00     0.019 A 
ATOM      2  C   UNL     1     128.144  28.982 -17.794  1.00  0.00     0.082 A 
ATOM      3  N   UNL     1     128.421  29.097 -16.483  1.00  0.00    -0.368 N 
ATOM      4  C   UNL     1     129.017  30.290 -16.308  1.00  0.00     0.082 A 
ATOM      5  C   UNL     1     129.125  30.946 -17.517  1.00  0.00     0.019 A 
ATOM      6  H   UNL     1     128.213  28.393 -15.741  1.00  0.00     0.165 HD
ENDROOT
TORSDOF 0
ENDMDL
MODEL 4
REMARK VINA RESULT:    -0.973      1.380      1.869
REMARK INTER + INTRA:          -0.973
REMARK INTER:                  -0.973
REMARK INTRA:                   0.000
REMARK UNBOUND:                 0.000
REMARK SMILES c1cc[nH]c1
REMARK SMILES IDX 1 1 5 2 4 3 3 4 2 5
REMARK H PARENT 4 6
REMARK Flexibility Score: inf
ROOT
ATOM      1  C   UNL     1     128.685  29.084 -17.039  1.00  0.00     0.019 A 
ATOM      2  C   UNL     1     128.181  28.249 -18.016  1.00  0.00     0.082 A 
ATOM      3  N   UNL     1     127.893  28.958 -19.122  1.00  0.00    -0.368 N 
ATOM      4  C   UNL     1     128.209  30.239 -18.864  1.00  0.00     0.082 A 
ATOM      5  C   UNL     1     128.702  30.354 -17.581  1.00  0.00     0.019 A 
ATOM      6  H   UNL     1     127.500  28.583 -20.014  1.00  0.00     0.165 HD
ENDROOT
TORSDOF 0
ENDMDL
