MODEL 1
REMARK VINA RESULT:     2.540      0.000      0.000
REMARK INTER + INTRA:           5.041
REMARK INTER:                   5.511
REMARK INTRA:                  -0.470
REMARK UNBOUND:                -0.470
REMARK SMILES CCCCCCCCCCCCCCCCCCCCCC(=O)[O-]
REMARK SMILES IDX 12 1 11 2 10 3 9 4 8 5 7 6 6 7 5 8 4 9 3 10 2 11 1 12 13 13
REMARK SMILES IDX 14 14 15 15 16 16 17 17 18 18 19 19 20 20 21 21 22 22 23 23
REMARK SMILES IDX 24 24
REMARK H PARENT
REMARK Flexibility Score: inf
ROOT
ATOM      1  C   UNL     1      -4.226  34.614  22.350  1.00  0.00     0.000 C 
ENDROOT
BRANCH   1   2
ATOM      2  C   UNL     1      -5.694  34.625  22.799  1.00  0.00     0.000 C 
BRANCH   2   3
ATOM      3  C   UNL     1      -5.983  35.676  23.885  1.00  0.00     0.000 C 
BRANCH   3   4
ATOM      4  C   UNL     1      -5.081  35.594  25.131  1.00  0.00    -0.000 C 
BRANCH   4   5
ATOM      5  C   UNL     1      -5.493  36.584  26.234  1.00  0.00    -0.000 C 
BRANCH   5   6
ATOM      6  C   UNL     1      -5.198  38.045  25.851  1.00  0.00    -0.000 C 
BRANCH   6   7
ATOM      7  C   UNL     1      -5.166  38.255  24.327  1.00  0.00    -0.000 C 
BRANCH   7   8
ATOM      8  C   UNL     1      -5.562  39.684  23.911  1.00  0.00    -0.000 C 
BRANCH   8   9
ATOM      9  C   UNL     1      -6.021  39.839  22.450  1.00  0.00    -0.000 C 
BRANCH   9  10
ATOM     10  C   UNL     1      -5.986  38.516  21.667  1.00  0.00    -0.000 C 
BRANCH  10  11
ATOM     11  C   UNL     1      -6.034  38.731  20.146  1.00  0.00    -0.003 C 
ATOM     12  C   UNL     1      -6.124  40.207  19.758  1.00  0.00     0.004 C 
ENDBRANCH  10  11
ENDBRANCH   9  10
ENDBRANCH   8   9
ENDBRANCH   7   8
ENDBRANCH   6   7
ENDBRANCH   5   6
ENDBRANCH   4   5
ENDBRANCH   3   4
ENDBRANCH   2   3
ENDBRANCH   1   2
BRANCH   1  13
ATOM     13  C   UNL     1      -4.116  34.739  20.825  1.00  0.00     0.000 C 
BRANCH  13  14
ATOM     14  C   UNL     1      -5.126  35.761  20.283  1.00  0.00     0.000 C 
BRANCH  14  15
ATOM     15  C   UNL     1      -6.045  35.170  19.202  1.00  0.00     0.000 C 
BRANCH  15  16
ATOM     16  C   UNL     1      -5.270  34.407  18.118  1.00  0.00     0.000 C 
BRANCH  16  17
ATOM     17  C   UNL     1      -4.229  35.313  17.446  1.00  0.00     0.000 C 
BRANCH  17  18
ATOM     18  C   UNL     1      -3.167  34.481  16.713  1.00  0.00     0.000 C 
BRANCH  18  19
ATOM     19  C   UNL     1      -2.349  35.309  15.704  1.00  0.00     0.000 C 
BRANCH  19  20
ATOM     20  C   UNL     1      -3.163  35.906  14.538  1.00  0.00     0.006 C 
BRANCH  20  21
ATOM     21  C   UNL     1      -3.086  37.436  14.425  1.00  0.00     0.053 C 
BRANCH  21  22
ATOM     22  C   UNL     1      -4.439  38.055  14.247  1.00  0.00     0.041 C 
ATOM     23  O   UNL     1      -4.593  39.295  14.402  1.00  0.00    -0.550 OA
ATOM     24  O   UNL     1      -5.521  37.268  13.875  1.00  0.00    -0.550 OA
ENDBRANCH  21  22
ENDBRANCH  20  21
ENDBRANCH  19  20
ENDBRANCH  18  19
ENDBRANCH  17  18
ENDBRANCH  16  17
ENDBRANCH  15  16
ENDBRANCH  14  15
ENDBRANCH  13  14
ENDBRANCH   1  13
TORSDOF 20
ENDMDL
MODEL 2
REMARK VINA RESULT:     2.894      1.876      7.226
REMARK INTER + INTRA:           5.808
REMARK INTER:                   7.275
REMARK INTRA:                  -1.466
REMARK UNBOUND:                -0.470
REMARK SMILES CCCCCCCCCCCCCCCCCCCCCC(=O)[O-]
REMARK SMILES IDX 12 1 11 2 10 3 9 4 8 5 7 6 6 7 5 8 4 9 3 10 2 11 1 12 13 13
REMARK SMILES IDX 14 14 15 15 16 16 17 17 18 18 19 19 20 20 21 21 22 22 23 23
REMARK SMILES IDX 24 24
REMARK H PARENT
REMARK Flexibility Score: inf
ROOT
ATOM      1  C   UNL     1      -4.484  34.698  22.679  1.00  0.00     0.000 C 
ENDROOT
BRANCH   1   2
ATOM      2  C   UNL     1      -4.429  34.648  21.144  1.00  0.00     0.000 C 
BRANCH   2   3
ATOM      3  C   UNL     1      -5.597  35.393  20.476  1.00  0.00     0.000 C 
BRANCH   3   4
ATOM      4  C   UNL     1      -5.907  34.962  19.031  1.00  0.00    -0.000 C 
BRANCH   4   5
ATOM      5  C   UNL     1      -5.012  33.807  18.547  1.00  0.00    -0.000 C 
BRANCH   5   6
ATOM      6  C   UNL     1      -4.491  34.029  17.117  1.00  0.00    -0.000 C 
BRANCH   6   7
ATOM      7  C   UNL     1      -4.168  35.506  16.834  1.00  0.00    -0.000 C 
BRANCH   7   8
ATOM      8  C   UNL     1      -2.790  35.703  16.176  1.00  0.00    -0.000 C 
BRANCH   8   9
ATOM      9  C   UNL     1      -2.812  35.880  14.646  1.00  0.00    -0.000 C 
BRANCH   9  10
ATOM     10  C   UNL     1      -3.995  36.732  14.158  1.00  0.00    -0.000 C 
BRANCH  10  11
ATOM     11  C   UNL     1      -4.093  38.079  14.893  1.00  0.00    -0.003 C 
ATOM     12  C   UNL     1      -4.654  39.195  14.014  1.00  0.00     0.004 C 
ENDBRANCH  10  11
ENDBRANCH   9  10
ENDBRANCH   8   9
ENDBRANCH   7   8
ENDBRANCH   6   7
ENDBRANCH   5   6
ENDBRANCH   4   5
ENDBRANCH   3   4
ENDBRANCH   2   3
ENDBRANCH   1   2
BRANCH   1  13
ATOM     13  C   UNL     1      -5.935  34.698  23.177  1.00  0.00     0.000 C 
BRANCH  13  14
ATOM     14  C   UNL     1      -5.999  34.987  24.684  1.00  0.00     0.000 C 
BRANCH  14  15
ATOM     15  C   UNL     1      -6.122  36.488  24.994  1.00  0.00     0.000 C 
BRANCH  15  16
ATOM     16  C   UNL     1      -5.265  36.916  26.195  1.00  0.00     0.000 C 
BRANCH  16  17
ATOM     17  C   UNL     1      -4.039  37.717  25.737  1.00  0.00     0.000 C 
BRANCH  17  18
ATOM     18  C   UNL     1      -4.225  38.236  24.304  1.00  0.00     0.000 C 
BRANCH  18  19
ATOM     19  C   UNL     1      -4.994  39.569  24.244  1.00  0.00     0.000 C 
BRANCH  19  20
ATOM     20  C   UNL     1      -6.010  39.686  23.090  1.00  0.00     0.006 C 
BRANCH  20  21
ATOM     21  C   UNL     1      -5.924  38.560  22.049  1.00  0.00     0.053 C 
BRANCH  21  22
ATOM     22  C   UNL     1      -5.867  39.093  20.650  1.00  0.00     0.041 C 
ATOM     23  O   UNL     1      -5.764  38.302  19.675  1.00  0.00    -0.550 OA
ATOM     24  O   UNL     1      -5.966  40.459  20.420  1.00  0.00    -0.550 OA
ENDBRANCH  21  22
ENDBRANCH  20  21
ENDBRANCH  19  20
ENDBRANCH  18  19
ENDBRANCH  17  18
ENDBRANCH  16  17
ENDBRANCH  15  16
ENDBRANCH  14  15
ENDBRANCH  13  14
ENDBRANCH   1  13
TORSDOF 20
ENDMDL
MODEL 3
REMARK VINA RESULT:     3.188      0.932      1.294
REMARK INTER + INTRA:           6.447
REMARK INTER:                   5.608
REMARK INTRA:                   0.838
REMARK UNBOUND:                -0.470
REMARK SMILES CCCCCCCCCCCCCCCCCCCCCC(=O)[O-]
REMARK SMILES IDX 12 1 11 2 10 3 9 4 8 5 7 6 6 7 5 8 4 9 3 10 2 11 1 12 13 13
REMARK SMILES IDX 14 14 15 15 16 16 17 17 18 18 19 19 20 20 21 21 22 22 23 23
REMARK SMILES IDX 24 24
REMARK H PARENT
REMARK Flexibility Score: inf
ROOT
ATOM      1  C   UNL     1      -4.876  35.152  22.660  1.00  0.00     0.000 C 
ENDROOT
BRANCH   1   2
ATOM      2  C   UNL     1      -6.006  34.141  22.904  1.00  0.00     0.000 C 
BRANCH   2   3
ATOM      3  C   UNL     1      -6.006  33.573  24.334  1.00  0.00     0.000 C 
BRANCH   3   4
ATOM      4  C   UNL     1      -6.124  34.623  25.454  1.00  0.00    -0.000 C 
BRANCH   4   5
ATOM      5  C   UNL     1      -5.974  36.065  24.940  1.00  0.00    -0.000 C 
BRANCH   5   6
ATOM      6  C   UNL     1      -4.570  36.636  25.201  1.00  0.00    -0.000 C 
BRANCH   6   7
ATOM      7  C   UNL     1      -4.612  37.956  25.991  1.00  0.00    -0.000 C 
BRANCH   7   8
ATOM      8  C   UNL     1      -5.241  39.112  25.194  1.00  0.00    -0.000 C 
BRANCH   8   9
ATOM      9  C   UNL     1      -5.844  38.720  23.832  1.00  0.00    -0.000 C 
BRANCH   9  10
ATOM     10  C   UNL     1      -5.422  39.665  22.695  1.00  0.00    -0.000 C 
BRANCH  10  11
ATOM     11  C   UNL     1      -5.203  38.925  21.366  1.00  0.00    -0.003 C 
ATOM     12  C   UNL     1      -6.118  39.427  20.250  1.00  0.00     0.004 C 
ENDBRANCH  10  11
ENDBRANCH   9  10
ENDBRANCH   8   9
ENDBRANCH   7   8
ENDBRANCH   6   7
ENDBRANCH   5   6
ENDBRANCH   4   5
ENDBRANCH   3   4
ENDBRANCH   2   3
ENDBRANCH   1   2
BRANCH   1  13
ATOM     13  C   UNL     1      -3.750  34.527  21.826  1.00  0.00     0.000 C 
BRANCH  13  14
ATOM     14  C   UNL     1      -4.109  34.522  20.333  1.00  0.00     0.000 C 
BRANCH  14  15
ATOM     15  C   UNL     1      -5.047  35.677  19.945  1.00  0.00     0.000 C 
BRANCH  15  16
ATOM     16  C   UNL     1      -5.293  35.757  18.431  1.00  0.00     0.000 C 
BRANCH  16  17
ATOM     17  C   UNL     1      -4.921  34.437  17.743  1.00  0.00     0.000 C 
BRANCH  17  18
ATOM     18  C   UNL     1      -3.650  34.597  16.896  1.00  0.00     0.000 C 
BRANCH  18  19
ATOM     19  C   UNL     1      -3.634  35.904  16.082  1.00  0.00     0.000 C 
BRANCH  19  20
ATOM     20  C   UNL     1      -2.595  35.952  14.943  1.00  0.00     0.006 C 
BRANCH  20  21
ATOM     21  C   UNL     1      -2.809  37.088  13.931  1.00  0.00     0.053 C 
BRANCH  21  22
ATOM     22  C   UNL     1      -4.206  37.627  13.980  1.00  0.00     0.041 C 
ATOM     23  O   UNL     1      -4.403  38.867  14.072  1.00  0.00    -0.550 OA
ATOM     24  O   UNL     1      -5.289  36.763  13.886  1.00  0.00    -0.550 OA
ENDBRANCH  21  22
ENDBRANCH  20  21
ENDBRANCH  19  20
ENDBRANCH  18  19
ENDBRANCH  17  18
ENDBRANCH  16  17
ENDBRANCH  15  16
ENDBRANCH  14  15
ENDBRANCH  13  14
ENDBRANCH   1  13
TORSDOF 20
ENDMDL
MODEL 4
REMARK VINA RESULT:     3.464      2.315      7.406
REMARK INTER + INTRA:           7.045
REMARK INTER:                   7.636
REMARK INTRA:                  -0.591
REMARK UNBOUND:                -0.470
REMARK SMILES CCCCCCCCCCCCCCCCCCCCCC(=O)[O-]
REMARK SMILES IDX 12 1 11 2 10 3 9 4 8 5 7 6 6 7 5 8 4 9 3 10 2 11 1 12 13 13
REMARK SMILES IDX 14 14 15 15 16 16 17 17 18 18 19 19 20 20 21 21 22 22 23 23
REMARK SMILES IDX 24 24
REMARK H PARENT
REMARK Flexibility Score: inf
ROOT
ATOM      1  C   UNL     1      -4.602  35.438  21.227  1.00  0.00     0.000 C 
ENDROOT
BRANCH   1   2
ATOM      2  C   UNL     1      -5.730  36.059  20.389  1.00  0.00     0.000 C 
BRANCH   2   3
ATOM      3  C   UNL     1      -5.854  35.434  18.989  1.00  0.00     0.000 C 
BRANCH   3   4
ATOM      4  C   UNL     1      -4.749  34.425  18.624  1.00  0.00    -0.000 C 
BRANCH   4   5
ATOM      5  C   UNL     1      -3.673  35.025  17.703  1.00  0.00    -0.000 C 
BRANCH   5   6
ATOM      6  C   UNL     1      -4.219  35.359  16.303  1.00  0.00    -0.000 C 
BRANCH   6   7
ATOM      7  C   UNL     1      -3.441  36.502  15.629  1.00  0.00    -0.000 C 
BRANCH   7   8
ATOM      8  C   UNL     1      -3.863  36.733  14.167  1.00  0.00    -0.000 C 
BRANCH   8   9
ATOM      9  C   UNL     1      -4.896  37.853  13.950  1.00  0.00    -0.000 C 
BRANCH   9  10
ATOM     10  C   UNL     1      -4.385  39.235  14.392  1.00  0.00    -0.000 C 
BRANCH  10  11
ATOM     11  C   UNL     1      -5.268  40.382  13.875  1.00  0.00    -0.003 C 
ATOM     12  C   UNL     1      -5.548  41.440  14.941  1.00  0.00     0.004 C 
ENDBRANCH  10  11
ENDBRANCH   9  10
ENDBRANCH   8   9
ENDBRANCH   7   8
ENDBRANCH   6   7
ENDBRANCH   5   6
ENDBRANCH   4   5
ENDBRANCH   3   4
ENDBRANCH   2   3
ENDBRANCH   1   2
BRANCH   1  13
ATOM     13  C   UNL     1      -4.950  34.003  21.641  1.00  0.00     0.000 C 
BRANCH  13  14
ATOM     14  C   UNL     1      -4.808  33.819  23.159  1.00  0.00     0.000 C 
BRANCH  14  15
ATOM     15  C   UNL     1      -6.123  34.071  23.913  1.00  0.00     0.000 C 
BRANCH  15  16
ATOM     16  C   UNL     1      -6.120  35.400  24.682  1.00  0.00     0.000 C 
BRANCH  16  17
ATOM     17  C   UNL     1      -4.707  35.754  25.161  1.00  0.00     0.000 C 
BRANCH  17  18
ATOM     18  C   UNL     1      -4.591  37.252  25.475  1.00  0.00     0.000 C 
BRANCH  18  19
ATOM     19  C   UNL     1      -5.850  38.046  25.082  1.00  0.00     0.000 C 
BRANCH  19  20
ATOM     20  C   UNL     1      -6.122  38.130  23.566  1.00  0.00     0.006 C 
BRANCH  20  21
ATOM     21  C   UNL     1      -5.896  39.520  22.953  1.00  0.00     0.053 C 
BRANCH  21  22
ATOM     22  C   UNL     1      -5.238  39.441  21.610  1.00  0.00     0.041 C 
ATOM     23  O   UNL     1      -4.008  39.685  21.491  1.00  0.00    -0.550 OA
ATOM     24  O   UNL     1      -5.974  39.061  20.495  1.00  0.00    -0.550 OA
ENDBRANCH  21  22
ENDBRANCH  20  21
ENDBRANCH  19  20
ENDBRANCH  18  19
ENDBRANCH  17  18
ENDBRANCH  16  17
ENDBRANCH  15  16
ENDBRANCH  14  15
ENDBRANCH  13  14
ENDBRANCH   1  13
TORSDOF 20
ENDMDL
MODEL 5
REMARK VINA RESULT:     4.603      1.926      4.013
REMARK INTER + INTRA:           9.514
REMARK INTER:                  10.973
REMARK INTRA:                  -1.459
REMARK UNBOUND:                -0.470
REMARK SMILES CCCCCCCCCCCCCCCCCCCCCC(=O)[O-]
REMARK SMILES IDX 12 1 11 2 10 3 9 4 8 5 7 6 6 7 5 8 4 9 3 10 2 11 1 12 13 13
REMARK SMILES IDX 14 14 15 15 16 16 17 17 18 18 19 19 20 20 21 21 22 22 23 23
REMARK SMILES IDX 24 24
REMARK H PARENT
REMARK Flexibility Score: inf
ROOT
ATOM      1  C   UNL     1      -4.264  34.558  22.354  1.00  0.00     0.000 C 
ENDROOT
BRANCH   1   2
ATOM      2  C   UNL     1      -5.760  34.601  22.698  1.00  0.00     0.000 C 
BRANCH   2   3
ATOM      3  C   UNL     1      -6.104  35.665  23.756  1.00  0.00     0.000 C 
BRANCH   3   4
ATOM      4  C   UNL     1      -5.330  35.543  25.081  1.00  0.00    -0.000 C 
BRANCH   4   5
ATOM      5  C   UNL     1      -5.770  36.581  26.128  1.00  0.00    -0.000 C 
BRANCH   5   6
ATOM      6  C   UNL     1      -5.164  37.971  25.866  1.00  0.00    -0.000 C 
BRANCH   6   7
ATOM      7  C   UNL     1      -4.056  38.325  26.872  1.00  0.00    -0.000 C 
BRANCH   7   8
ATOM      8  C   UNL     1      -2.642  38.202  26.276  1.00  0.00    -0.000 C 
BRANCH   8   9
ATOM      9  C   UNL     1      -1.671  37.307  27.067  1.00  0.00    -0.000 C 
BRANCH   9  10
ATOM     10  C   UNL     1      -2.386  36.206  27.867  1.00  0.00    -0.000 C 
BRANCH  10  11
ATOM     11  C   UNL     1      -1.440  35.066  28.275  1.00  0.00    -0.003 C 
ATOM     12  C   UNL     1      -1.957  34.266  29.470  1.00  0.00     0.004 C 
ENDBRANCH  10  11
ENDBRANCH   9  10
ENDBRANCH   8   9
ENDBRANCH   7   8
ENDBRANCH   6   7
ENDBRANCH   5   6
ENDBRANCH   4   5
ENDBRANCH   3   4
ENDBRANCH   2   3
ENDBRANCH   1   2
BRANCH   1  13
ATOM     13  C   UNL     1      -4.039  34.752  20.850  1.00  0.00     0.000 C 
BRANCH  13  14
ATOM     14  C   UNL     1      -5.081  35.712  20.257  1.00  0.00     0.000 C 
BRANCH  14  15
ATOM     15  C   UNL     1      -5.816  35.116  19.046  1.00  0.00     0.000 C 
BRANCH  15  16
ATOM     16  C   UNL     1      -4.881  34.330  18.114  1.00  0.00     0.000 C 
BRANCH  16  17
ATOM     17  C   UNL     1      -4.151  35.272  17.148  1.00  0.00     0.000 C 
BRANCH  17  18
ATOM     18  C   UNL     1      -2.877  34.615  16.598  1.00  0.00     0.000 C 
BRANCH  18  19
ATOM     19  C   UNL     1      -2.084  35.541  15.656  1.00  0.00     0.000 C 
BRANCH  19  20
ATOM     20  C   UNL     1      -2.804  35.908  14.343  1.00  0.00     0.006 C 
BRANCH  20  21
ATOM     21  C   UNL     1      -2.922  37.417  14.080  1.00  0.00     0.053 C 
BRANCH  21  22
ATOM     22  C   UNL     1      -4.349  37.861  13.987  1.00  0.00     0.041 C 
ATOM     23  O   UNL     1      -5.280  37.014  14.039  1.00  0.00    -0.550 OA
ATOM     24  O   UNL     1      -4.654  39.211  13.879  1.00  0.00    -0.550 OA
ENDBRANCH  21  22
ENDBRANCH  20  21
ENDBRANCH  19  20
ENDBRANCH  18  19
ENDBRANCH  17  18
ENDBRANCH  16  17
ENDBRANCH  15  16
ENDBRANCH  14  15
ENDBRANCH  13  14
ENDBRANCH   1  13
TORSDOF 20
ENDMDL
MODEL 6
REMARK VINA RESULT:     4.671      2.689      4.894
REMARK INTER + INTRA:           9.663
REMARK INTER:                  10.634
REMARK INTRA:                  -0.971
REMARK UNBOUND:                -0.470
REMARK SMILES CCCCCCCCCCCCCCCCCCCCCC(=O)[O-]
REMARK SMILES IDX 12 1 11 2 10 3 9 4 8 5 7 6 6 7 5 8 4 9 3 10 2 11 1 12 13 13
REMARK SMILES IDX 14 14 15 15 16 16 17 17 18 18 19 19 20 20 21 21 22 22 23 23
REMARK SMILES IDX 24 24
REMARK H PARENT
REMARK Flexibility Score: inf
ROOT
ATOM      1  C   UNL     1      -4.739  34.360  23.228  1.00  0.00     0.000 C 
ENDROOT
BRANCH   1   2
ATOM      2  C   UNL     1      -6.125  34.514  23.871  1.00  0.00     0.000 C 
BRANCH   2   3
ATOM      3  C   UNL     1      -6.105  35.384  25.141  1.00  0.00     0.000 C 
BRANCH   3   4
ATOM      4  C   UNL     1      -6.125  36.903  24.892  1.00  0.00    -0.000 C 
BRANCH   4   5
ATOM      5  C   UNL     1      -5.240  37.683  25.881  1.00  0.00    -0.000 C 
BRANCH   5   6
ATOM      6  C   UNL     1      -3.878  37.006  26.107  1.00  0.00    -0.000 C 
BRANCH   6   7
ATOM      7  C   UNL     1      -2.862  37.945  26.780  1.00  0.00    -0.000 C 
BRANCH   7   8
ATOM      8  C   UNL     1      -1.633  37.201  27.334  1.00  0.00    -0.000 C 
BRANCH   8   9
ATOM      9  C   UNL     1      -1.947  36.021  28.271  1.00  0.00    -0.000 C 
BRANCH   9  10
ATOM     10  C   UNL     1      -0.923  34.878  28.159  1.00  0.00    -0.000 C 
BRANCH  10  11
ATOM     11  C   UNL     1      -1.113  33.809  29.247  1.00  0.00    -0.003 C 
ATOM     12  C   UNL     1      -2.233  34.155  30.228  1.00  0.00     0.004 C 
ENDBRANCH  10  11
ENDBRANCH   9  10
ENDBRANCH   8   9
ENDBRANCH   7   8
ENDBRANCH   6   7
ENDBRANCH   5   6
ENDBRANCH   4   5
ENDBRANCH   3   4
ENDBRANCH   2   3
ENDBRANCH   1   2
BRANCH   1  13
ATOM     13  C   UNL     1      -4.783  34.709  21.735  1.00  0.00     0.000 C 
BRANCH  13  14
ATOM     14  C   UNL     1      -5.945  35.666  21.429  1.00  0.00     0.000 C 
BRANCH  14  15
ATOM     15  C   UNL     1      -5.494  37.132  21.324  1.00  0.00     0.000 C 
BRANCH  15  16
ATOM     16  C   UNL     1      -5.582  37.678  19.892  1.00  0.00     0.000 C 
BRANCH  16  17
ATOM     17  C   UNL     1      -4.647  36.907  18.951  1.00  0.00     0.000 C 
BRANCH  17  18
ATOM     18  C   UNL     1      -5.300  35.603  18.472  1.00  0.00     0.000 C 
BRANCH  18  19
ATOM     19  C   UNL     1      -4.298  34.639  17.810  1.00  0.00     0.000 C 
BRANCH  19  20
ATOM     20  C   UNL     1      -3.429  35.262  16.699  1.00  0.00     0.006 C 
BRANCH  20  21
ATOM     21  C   UNL     1      -4.223  35.847  15.520  1.00  0.00     0.053 C 
BRANCH  21  22
ATOM     22  C   UNL     1      -3.348  36.621  14.583  1.00  0.00     0.041 C 
ATOM     23  O   UNL     1      -2.172  36.234  14.351  1.00  0.00    -0.550 OA
ATOM     24  O   UNL     1      -3.842  37.747  13.938  1.00  0.00    -0.550 OA
ENDBRANCH  21  22
ENDBRANCH  20  21
ENDBRANCH  19  20
ENDBRANCH  18  19
ENDBRANCH  17  18
ENDBRANCH  16  17
ENDBRANCH  15  16
ENDBRANCH  14  15
ENDBRANCH  13  14
ENDBRANCH   1  13
TORSDOF 20
ENDMDL
MODEL 7
REMARK VINA RESULT:     4.808      5.147      9.468
REMARK INTER + INTRA:           9.959
REMARK INTER:                  10.779
REMARK INTRA:                  -0.820
REMARK UNBOUND:                -0.470
REMARK SMILES CCCCCCCCCCCCCCCCCCCCCC(=O)[O-]
REMARK SMILES IDX 12 1 11 2 10 3 9 4 8 5 7 6 6 7 5 8 4 9 3 10 2 11 1 12 13 13
REMARK SMILES IDX 14 14 15 15 16 16 17 17 18 18 19 19 20 20 21 21 22 22 23 23
REMARK SMILES IDX 24 24
REMARK H PARENT
REMARK Flexibility Score: inf
ROOT
ATOM      1  C   UNL     1      -5.446  34.182  22.771  1.00  0.00     0.000 C 
ENDROOT
BRANCH   1   2
ATOM      2  C   UNL     1      -6.125  35.333  22.013  1.00  0.00     0.000 C 
BRANCH   2   3
ATOM      3  C   UNL     1      -5.120  36.313  21.382  1.00  0.00     0.000 C 
BRANCH   3   4
ATOM      4  C   UNL     1      -5.309  36.564  19.875  1.00  0.00    -0.000 C 
BRANCH   4   5
ATOM      5  C   UNL     1      -5.726  35.298  19.106  1.00  0.00    -0.000 C 
BRANCH   5   6
ATOM      6  C   UNL     1      -4.530  34.383  18.792  1.00  0.00    -0.000 C 
BRANCH   6   7
ATOM      7  C   UNL     1      -4.273  34.252  17.281  1.00  0.00    -0.000 C 
BRANCH   7   8
ATOM      8  C   UNL     1      -3.586  35.491  16.680  1.00  0.00    -0.000 C 
BRANCH   8   9
ATOM      9  C   UNL     1      -3.160  35.357  15.207  1.00  0.00    -0.000 C 
BRANCH   9  10
ATOM     10  C   UNL     1      -2.757  36.699  14.575  1.00  0.00    -0.000 C 
BRANCH  10  11
ATOM     11  C   UNL     1      -3.934  37.397  13.875  1.00  0.00    -0.003 C 
ATOM     12  C   UNL     1      -4.383  38.667  14.596  1.00  0.00     0.004 C 
ENDBRANCH  10  11
ENDBRANCH   9  10
ENDBRANCH   8   9
ENDBRANCH   7   8
ENDBRANCH   6   7
ENDBRANCH   5   6
ENDBRANCH   4   5
ENDBRANCH   3   4
ENDBRANCH   2   3
ENDBRANCH   1   2
BRANCH   1  13
ATOM     13  C   UNL     1      -6.061  34.004  24.164  1.00  0.00     0.000 C 
BRANCH  13  14
ATOM     14  C   UNL     1      -5.425  34.970  25.175  1.00  0.00     0.000 C 
BRANCH  14  15
ATOM     15  C   UNL     1      -5.956  36.406  25.036  1.00  0.00     0.000 C 
BRANCH  15  16
ATOM     16  C   UNL     1      -4.856  37.463  25.211  1.00  0.00     0.000 C 
BRANCH  16  17
ATOM     17  C   UNL     1      -4.065  37.225  26.504  1.00  0.00     0.000 C 
BRANCH  17  18
ATOM     18  C   UNL     1      -2.970  38.285  26.682  1.00  0.00     0.000 C 
BRANCH  18  19
ATOM     19  C   UNL     1      -1.654  37.701  27.229  1.00  0.00     0.000 C 
BRANCH  19  20
ATOM     20  C   UNL     1      -1.615  36.163  27.332  1.00  0.00     0.006 C 
BRANCH  20  21
ATOM     21  C   UNL     1      -2.366  35.585  28.542  1.00  0.00     0.053 C 
BRANCH  21  22
ATOM     22  C   UNL     1      -1.575  34.520  29.237  1.00  0.00     0.041 C 
ATOM     23  O   UNL     1      -2.084  33.875  30.192  1.00  0.00    -0.550 OA
ATOM     24  O   UNL     1      -0.291  34.214  28.807  1.00  0.00    -0.550 OA
ENDBRANCH  21  22
ENDBRANCH  20  21
ENDBRANCH  19  20
ENDBRANCH  18  19
ENDBRANCH  17  18
ENDBRANCH  16  17
ENDBRANCH  15  16
ENDBRANCH  14  15
ENDBRANCH  13  14
ENDBRANCH   1  13
TORSDOF 20
ENDMDL
MODEL 8
REMARK VINA RESULT:     5.199      2.039      4.488
REMARK INTER + INTRA:          10.808
REMARK INTER:                  10.723
REMARK INTRA:                   0.086
REMARK UNBOUND:                -0.470
REMARK SMILES CCCCCCCCCCCCCCCCCCCCCC(=O)[O-]
REMARK SMILES IDX 12 1 11 2 10 3 9 4 8 5 7 6 6 7 5 8 4 9 3 10 2 11 1 12 13 13
REMARK SMILES IDX 14 14 15 15 16 16 17 17 18 18 19 19 20 20 21 21 22 22 23 23
REMARK SMILES IDX 24 24
REMARK H PARENT
REMARK Flexibility Score: inf
ROOT
ATOM      1  C   UNL     1      -6.077  37.819  21.179  1.00  0.00     0.000 C 
ENDROOT
BRANCH   1   2
ATOM      2  C   UNL     1      -5.193  39.074  21.136  1.00  0.00     0.000 C 
BRANCH   2   3
ATOM      3  C   UNL     1      -5.488  40.057  22.283  1.00  0.00     0.000 C 
BRANCH   3   4
ATOM      4  C   UNL     1      -5.495  39.435  23.692  1.00  0.00    -0.000 C 
BRANCH   4   5
ATOM      5  C   UNL     1      -5.879  37.945  23.685  1.00  0.00    -0.000 C 
BRANCH   5   6
ATOM      6  C   UNL     1      -5.529  37.244  25.009  1.00  0.00    -0.000 C 
BRANCH   6   7
ATOM      7  C   UNL     1      -4.530  38.053  25.854  1.00  0.00    -0.000 C 
BRANCH   7   8
ATOM      8  C   UNL     1      -3.905  37.229  26.994  1.00  0.00    -0.000 C 
BRANCH   8   9
ATOM      9  C   UNL     1      -2.376  37.061  26.921  1.00  0.00    -0.000 C 
BRANCH   9  10
ATOM     10  C   UNL     1      -1.773  36.490  28.216  1.00  0.00    -0.000 C 
BRANCH  10  11
ATOM     11  C   UNL     1      -1.957  34.968  28.328  1.00  0.00    -0.003 C 
ATOM     12  C   UNL     1      -1.376  34.394  29.620  1.00  0.00     0.004 C 
ENDBRANCH  10  11
ENDBRANCH   9  10
ENDBRANCH   8   9
ENDBRANCH   7   8
ENDBRANCH   6   7
ENDBRANCH   5   6
ENDBRANCH   4   5
ENDBRANCH   3   4
ENDBRANCH   2   3
ENDBRANCH   1   2
BRANCH   1  13
ATOM     13  C   UNL     1      -5.597  36.773  20.165  1.00  0.00     0.000 C 
BRANCH  13  14
ATOM     14  C   UNL     1      -5.139  35.490  20.874  1.00  0.00     0.000 C 
BRANCH  14  15
ATOM     15  C   UNL     1      -4.525  34.465  19.906  1.00  0.00     0.000 C 
BRANCH  15  16
ATOM     16  C   UNL     1      -5.195  34.480  18.524  1.00  0.00     0.000 C 
BRANCH  16  17
ATOM     17  C   UNL     1      -4.193  34.108  17.424  1.00  0.00     0.000 C 
BRANCH  17  18
ATOM     18  C   UNL     1      -3.382  35.335  16.981  1.00  0.00     0.000 C 
BRANCH  18  19
ATOM     19  C   UNL     1      -2.361  35.010  15.874  1.00  0.00     0.000 C 
BRANCH  19  20
ATOM     20  C   UNL     1      -1.948  36.208  14.995  1.00  0.00     0.006 C 
BRANCH  20  21
ATOM     21  C   UNL     1      -2.944  36.552  13.876  1.00  0.00     0.053 C 
BRANCH  21  22
ATOM     22  C   UNL     1      -4.032  37.463  14.354  1.00  0.00     0.041 C 
ATOM     23  O   UNL     1      -3.771  38.392  15.163  1.00  0.00    -0.550 OA
ATOM     24  O   UNL     1      -5.328  37.310  13.878  1.00  0.00    -0.550 OA
ENDBRANCH  21  22
ENDBRANCH  20  21
ENDBRANCH  19  20
ENDBRANCH  18  19
ENDBRANCH  17  18
ENDBRANCH  16  17
ENDBRANCH  15  16
ENDBRANCH  14  15
ENDBRANCH  13  14
ENDBRANCH   1  13
TORSDOF 20
ENDMDL
