MODEL 1
REMARK VINA RESULT:     4.702      0.000      0.000
REMARK INTER + INTRA:           5.761
REMARK INTER:                   6.625
REMARK INTRA:                  -0.864
REMARK UNBOUND:                -0.864
REMARK SMILES OC[C@H]1O[C@@H](O[C@@H]2OC=C[C@H]3[C@H](O)[C@H]4O[C@@]4(CO)[C@H]23)[C@H](O)[C@@H](O)[C@@H]1O
REMARK SMILES IDX 6 1 7 2 10 3 9 4 11 5 8 6 19 7 12 8 16 9 14 10 15 11 13 12
REMARK SMILES IDX 17 14 18 15 5 17 20 18 4 19 22 20 3 21 24 22 21 23 23 25
REMARK SMILES IDX 2 27 1 28 25 30
REMARK H PARENT 13 13 18 16 21 24 23 26 1 29 25 31
REMARK Flexibility Score: inf
ROOT
ATOM      1  O   UNL     1     -23.221 -16.816 -13.841  1.00  0.00    -0.310 OA
ENDROOT
BRANCH   1   2
ATOM      2  C   UNL     1     -23.685 -15.480 -13.756  1.00  0.00     0.315 C 
ATOM      3  C   UNL     1     -21.746 -13.880 -15.222  1.00  0.00     0.018 C 
ATOM      4  C   UNL     1     -22.934 -14.170 -15.777  1.00  0.00     0.186 C 
ATOM      5  C   UNL     1     -21.401 -14.547 -13.927  1.00  0.00     0.059 C 
ATOM      6  O   UNL     1     -23.890 -14.953 -15.086  1.00  0.00    -0.472 OA
ATOM      7  C   UNL     1     -22.639 -14.602 -13.054  1.00  0.00     0.105 C 
ATOM      8  C   UNL     1     -20.357 -13.908 -13.024  1.00  0.00     0.154 C 
ATOM      9  C   UNL     1     -22.089 -14.976 -11.683  1.00  0.00     0.130 C 
ATOM     10  C   UNL     1     -20.664 -14.543 -11.656  1.00  0.00     0.183 C 
ATOM     11  O   UNL     1     -21.660 -13.875 -10.909  1.00  0.00    -0.360 OA
BRANCH   8  12
ATOM     12  O   UNL     1     -19.066 -14.249 -13.453  1.00  0.00    -0.390 OA
ATOM     13  H   UNL     1     -19.027 -15.242 -13.456  1.00  0.00     0.211 HD
ENDBRANCH   8  12
BRANCH   9  14
ATOM     14  C   UNL     1     -22.451 -16.253 -10.917  1.00  0.00     0.195 C 
BRANCH  14  15
ATOM     15  O   UNL     1     -22.701 -15.977  -9.565  1.00  0.00    -0.393 OA
ATOM     16  H   UNL     1     -21.990 -16.443  -9.053  1.00  0.00     0.210 HD
ENDBRANCH  14  15
ENDBRANCH   9  14
ENDBRANCH   1   2
BRANCH   1  17
ATOM     17  C   UNL     1     -24.294 -17.702 -14.099  1.00  0.00     0.286 C 
ATOM     18  C   UNL     1     -23.956 -18.509 -15.362  1.00  0.00     0.202 C 
ATOM     19  O   UNL     1     -24.436 -18.581 -12.995  1.00  0.00    -0.341 OA
ATOM     20  C   UNL     1     -25.068 -19.537 -15.636  1.00  0.00     0.179 C 
ATOM     21  C   UNL     1     -25.568 -19.418 -13.164  1.00  0.00     0.178 C 
ATOM     22  C   UNL     1     -25.352 -20.364 -14.369  1.00  0.00     0.177 C 
BRANCH  18  23
ATOM     23  O   UNL     1     -23.834 -17.632 -16.453  1.00  0.00    -0.385 OA
ATOM     24  H   UNL     1     -23.230 -18.069 -17.107  1.00  0.00     0.211 HD
ENDBRANCH  18  23
BRANCH  20  25
ATOM     25  O   UNL     1     -24.668 -20.385 -16.682  1.00  0.00    -0.387 OA
ATOM     26  H   UNL     1     -25.108 -21.261 -16.526  1.00  0.00     0.211 HD
ENDBRANCH  20  25
BRANCH  21  27
ATOM     27  C   UNL     1     -25.776 -20.216 -11.868  1.00  0.00     0.191 C 
BRANCH  27  28
ATOM     28  O   UNL     1     -25.787 -19.356 -10.761  1.00  0.00    -0.394 OA
ATOM     29  H   UNL     1     -26.543 -18.727 -10.894  1.00  0.00     0.210 HD
ENDBRANCH  27  28
ENDBRANCH  21  27
BRANCH  22  30
ATOM     30  O   UNL     1     -26.502 -21.145 -14.583  1.00  0.00    -0.387 OA
ATOM     31  H   UNL     1     -27.188 -20.554 -14.990  1.00  0.00     0.211 HD
ENDBRANCH  22  30
ENDBRANCH   1  17
TORSDOF 10
ENDMDL
MODEL 2
REMARK VINA RESULT:     5.538      2.276      6.431
REMARK INTER + INTRA:           6.941
REMARK INTER:                   5.781
REMARK INTRA:                   1.160
REMARK UNBOUND:                -0.864
REMARK SMILES OC[C@H]1O[C@@H](O[C@@H]2OC=C[C@H]3[C@H](O)[C@H]4O[C@@]4(CO)[C@H]23)[C@H](O)[C@@H](O)[C@@H]1O
REMARK SMILES IDX 6 1 7 2 10 3 9 4 11 5 8 6 19 7 12 8 16 9 14 10 15 11 13 12
REMARK SMILES IDX 17 14 18 15 5 17 20 18 4 19 22 20 3 21 24 22 21 23 23 25
REMARK SMILES IDX 2 27 1 28 25 30
REMARK H PARENT 13 13 18 16 21 24 23 26 1 29 25 31
REMARK Flexibility Score: inf
ROOT
ATOM      1  O   UNL     1     -21.257 -14.164 -14.000  1.00  0.00    -0.310 OA
ENDROOT
BRANCH   1   2
ATOM      2  C   UNL     1     -22.400 -13.882 -13.213  1.00  0.00     0.315 C 
ATOM      3  C   UNL     1     -23.004 -16.348 -11.790  1.00  0.00     0.018 C 
ATOM      4  C   UNL     1     -22.410 -15.329 -11.147  1.00  0.00     0.186 C 
ATOM      5  C   UNL     1     -23.174 -16.230 -13.273  1.00  0.00     0.059 C 
ATOM      6  O   UNL     1     -22.100 -14.123 -11.820  1.00  0.00    -0.472 OA
ATOM      7  C   UNL     1     -23.560 -14.806 -13.615  1.00  0.00     0.105 C 
ATOM      8  C   UNL     1     -24.243 -17.065 -13.961  1.00  0.00     0.154 C 
ATOM      9  C   UNL     1     -24.023 -14.902 -15.063  1.00  0.00     0.130 C 
ATOM     10  C   UNL     1     -24.454 -16.310 -15.286  1.00  0.00     0.183 C 
ATOM     11  O   UNL     1     -25.384 -15.248 -15.216  1.00  0.00    -0.360 OA
BRANCH   8  12
ATOM     12  O   UNL     1     -23.773 -18.364 -14.197  1.00  0.00    -0.390 OA
ATOM     13  H   UNL     1     -22.975 -18.270 -14.781  1.00  0.00     0.211 HD
ENDBRANCH   8  12
BRANCH   9  14
ATOM     14  C   UNL     1     -23.365 -14.173 -16.241  1.00  0.00     0.195 C 
BRANCH  14  15
ATOM     15  O   UNL     1     -22.168 -14.799 -16.616  1.00  0.00    -0.393 OA
ATOM     16  H   UNL     1     -21.938 -15.417 -15.875  1.00  0.00     0.210 HD
ENDBRANCH  14  15
ENDBRANCH   9  14
ENDBRANCH   1   2
BRANCH   1  17
ATOM     17  C   UNL     1     -20.321 -14.931 -13.267  1.00  0.00     0.286 C 
ATOM     18  C   UNL     1     -19.953 -16.166 -14.102  1.00  0.00     0.202 C 
ATOM     19  O   UNL     1     -19.163 -14.144 -13.041  1.00  0.00    -0.341 OA
ATOM     20  C   UNL     1     -18.880 -16.990 -13.369  1.00  0.00     0.179 C 
ATOM     21  C   UNL     1     -18.239 -14.836 -12.218  1.00  0.00     0.178 C 
ATOM     22  C   UNL     1     -17.705 -16.087 -12.955  1.00  0.00     0.177 C 
BRANCH  18  23
ATOM     23  O   UNL     1     -21.103 -16.947 -14.306  1.00  0.00    -0.385 OA
ATOM     24  H   UNL     1     -21.737 -16.720 -13.578  1.00  0.00     0.211 HD
ENDBRANCH  18  23
BRANCH  20  25
ATOM     25  O   UNL     1     -18.423 -18.014 -14.214  1.00  0.00    -0.387 OA
ATOM     26  H   UNL     1     -17.480 -17.801 -14.440  1.00  0.00     0.211 HD
ENDBRANCH  20  25
BRANCH  21  27
ATOM     27  C   UNL     1     -17.095 -13.876 -11.861  1.00  0.00     0.191 C 
BRANCH  27  28
ATOM     28  O   UNL     1     -15.981 -14.119 -12.678  1.00  0.00    -0.394 OA
ATOM     29  H   UNL     1     -16.187 -13.730 -13.567  1.00  0.00     0.210 HD
ENDBRANCH  27  28
ENDBRANCH  21  27
BRANCH  22  30
ATOM     30  O   UNL     1     -16.844 -16.814 -12.113  1.00  0.00    -0.387 OA
ATOM     31  H   UNL     1     -17.415 -17.336 -11.490  1.00  0.00     0.211 HD
ENDBRANCH  22  30
ENDBRANCH   1  17
TORSDOF 10
ENDMDL
MODEL 3
REMARK VINA RESULT:     7.349      1.877      6.527
REMARK INTER + INTRA:           9.493
REMARK INTER:                   9.328
REMARK INTRA:                   0.165
REMARK UNBOUND:                -0.864
REMARK SMILES OC[C@H]1O[C@@H](O[C@@H]2OC=C[C@H]3[C@H](O)[C@H]4O[C@@]4(CO)[C@H]23)[C@H](O)[C@@H](O)[C@@H]1O
REMARK SMILES IDX 6 1 7 2 10 3 9 4 11 5 8 6 19 7 12 8 16 9 14 10 15 11 13 12
REMARK SMILES IDX 17 14 18 15 5 17 20 18 4 19 22 20 3 21 24 22 21 23 23 25
REMARK SMILES IDX 2 27 1 28 25 30
REMARK H PARENT 13 13 18 16 21 24 23 26 1 29 25 31
REMARK Flexibility Score: inf
ROOT
ATOM      1  O   UNL     1     -22.894 -16.605 -13.262  1.00  0.00    -0.310 OA
ENDROOT
BRANCH   1   2
ATOM      2  C   UNL     1     -22.767 -17.166 -14.557  1.00  0.00     0.315 C 
ATOM      3  C   UNL     1     -24.356 -15.468 -16.308  1.00  0.00     0.018 C 
ATOM      4  C   UNL     1     -23.016 -15.368 -16.309  1.00  0.00     0.186 C 
ATOM      5  C   UNL     1     -24.987 -16.339 -15.266  1.00  0.00     0.059 C 
ATOM      6  O   UNL     1     -22.223 -16.178 -15.461  1.00  0.00    -0.472 OA
ATOM      7  C   UNL     1     -24.145 -17.586 -15.088  1.00  0.00     0.105 C 
ATOM      8  C   UNL     1     -26.386 -16.885 -15.511  1.00  0.00     0.154 C 
ATOM      9  C   UNL     1     -25.050 -18.512 -14.283  1.00  0.00     0.130 C 
ATOM     10  C   UNL     1     -26.451 -18.081 -14.545  1.00  0.00     0.183 C 
ATOM     11  O   UNL     1     -25.933 -19.288 -15.067  1.00  0.00    -0.360 OA
BRANCH   8  12
ATOM     12  O   UNL     1     -27.351 -15.923 -15.180  1.00  0.00    -0.390 OA
ATOM     13  H   UNL     1     -27.810 -15.687 -16.028  1.00  0.00     0.211 HD
ENDBRANCH   8  12
BRANCH   9  14
ATOM     14  C   UNL     1     -24.727 -19.046 -12.882  1.00  0.00     0.195 C 
BRANCH  14  15
ATOM     15  O   UNL     1     -25.803 -19.780 -12.363  1.00  0.00    -0.393 OA
ATOM     16  H   UNL     1     -25.425 -20.347 -11.641  1.00  0.00     0.210 HD
ENDBRANCH  14  15
ENDBRANCH   9  14
ENDBRANCH   1   2
BRANCH   1  17
ATOM     17  C   UNL     1     -21.858 -15.673 -13.016  1.00  0.00     0.286 C 
ATOM     18  C   UNL     1     -22.005 -15.163 -11.575  1.00  0.00     0.202 C 
ATOM     19  O   UNL     1     -20.610 -16.327 -13.167  1.00  0.00    -0.341 OA
ATOM     20  C   UNL     1     -20.852 -14.199 -11.244  1.00  0.00     0.179 C 
ATOM     21  C   UNL     1     -19.541 -15.405 -13.034  1.00  0.00     0.178 C 
ATOM     22  C   UNL     1     -19.499 -14.847 -11.592  1.00  0.00     0.177 C 
BRANCH  18  23
ATOM     23  O   UNL     1     -23.237 -14.502 -11.440  1.00  0.00    -0.385 OA
ATOM     24  H   UNL     1     -23.835 -14.861 -12.145  1.00  0.00     0.211 HD
ENDBRANCH  18  23
BRANCH  20  25
ATOM     25  O   UNL     1     -20.892 -13.878  -9.877  1.00  0.00    -0.387 OA
ATOM     26  H   UNL     1     -21.615 -14.427  -9.475  1.00  0.00     0.211 HD
ENDBRANCH  20  25
BRANCH  21  27
ATOM     27  C   UNL     1     -18.232 -16.128 -13.383  1.00  0.00     0.191 C 
BRANCH  27  28
ATOM     28  O   UNL     1     -17.133 -15.290 -13.146  1.00  0.00    -0.394 OA
ATOM     29  H   UNL     1     -16.356 -15.696 -13.613  1.00  0.00     0.210 HD
ENDBRANCH  27  28
ENDBRANCH  21  27
BRANCH  22  30
ATOM     30  O   UNL     1     -18.486 -13.878 -11.477  1.00  0.00    -0.387 OA
ATOM     31  H   UNL     1     -18.748 -13.265 -10.741  1.00  0.00     0.211 HD
ENDBRANCH  22  30
ENDBRANCH   1  17
TORSDOF 10
ENDMDL
