MODEL 1
REMARK VINA RESULT:    -4.361      0.000      0.000
REMARK INTER + INTRA:          -5.323
REMARK INTER:                  -5.254
REMARK INTRA:                  -0.069
REMARK UNBOUND:                -0.069
REMARK SMILES CC[C@H](C)[C@@H]([NH3+])C(=O)[O-]
REMARK SMILES IDX 3 1 4 2 5 3 6 4 7 8 8 9 9 10 2 11 1 12
REMARK H PARENT 6 5 6 6 6 7
REMARK Flexibility Score: inf
ROOT
ATOM      1  C   UNL     1       2.750  42.587  10.856  1.00  0.00     0.050 C 
ATOM      2  C   UNL     1       3.022  41.296  11.650  1.00  0.00     0.014 C 
ENDROOT
BRANCH   1   3
ATOM      3  C   UNL     1       4.091  43.299  10.497  1.00  0.00     0.230 C 
BRANCH   3   4
ATOM      4  N   UNL     1       4.101  43.794   9.112  1.00  0.00    -0.350 N 
ATOM      5  H   UNL     1       4.712  43.210   8.496  1.00  0.00     0.345 HD
ATOM      6  H   UNL     1       4.435  44.785   9.086  1.00  0.00     0.345 HD
ATOM      7  H   UNL     1       3.129  43.771   8.728  1.00  0.00     0.345 HD
ENDBRANCH   3   4
BRANCH   3   8
ATOM      8  C   UNL     1       4.439  44.404  11.466  1.00  0.00     0.099 C 
ATOM      9  O   UNL     1       4.840  44.139  12.630  1.00  0.00    -0.544 OA
ATOM     10  O   UNL     1       4.352  45.731  11.060  1.00  0.00    -0.544 OA
ENDBRANCH   3   8
ENDBRANCH   1   3
BRANCH   1  11
ATOM     11  C   UNL     1       1.754  43.508  11.611  1.00  0.00     0.006 C 
ATOM     12  C   UNL     1       0.916  44.375  10.671  1.00  0.00     0.004 C 
ENDBRANCH   1  11
TORSDOF 4
ENDMDL
MODEL 2
REMARK VINA RESULT:    -4.162      3.480      4.873
REMARK INTER + INTRA:          -5.083
REMARK INTER:                  -5.020
REMARK INTRA:                  -0.063
REMARK UNBOUND:                -0.069
REMARK SMILES CC[C@H](C)[C@@H]([NH3+])C(=O)[O-]
REMARK SMILES IDX 3 1 4 2 5 3 6 4 7 8 8 9 9 10 2 11 1 12
REMARK H PARENT 6 5 6 6 6 7
REMARK Flexibility Score: inf
ROOT
ATOM      1  C   UNL     1       4.931  46.862   9.012  1.00  0.00     0.050 C 
ATOM      2  C   UNL     1       4.138  47.790   8.071  1.00  0.00     0.014 C 
ENDROOT
BRANCH   1   3
ATOM      3  C   UNL     1       4.062  46.470  10.248  1.00  0.00     0.230 C 
BRANCH   3   4
ATOM      4  N   UNL     1       2.665  46.906  10.103  1.00  0.00    -0.350 N 
ATOM      5  H   UNL     1       2.025  46.372  10.733  1.00  0.00     0.345 HD
ATOM      6  H   UNL     1       2.352  46.785   9.113  1.00  0.00     0.345 HD
ATOM      7  H   UNL     1       2.591  47.921  10.342  1.00  0.00     0.345 HD
ENDBRANCH   3   4
BRANCH   3   8
ATOM      8  C   UNL     1       4.137  44.996  10.566  1.00  0.00     0.099 C 
ATOM      9  O   UNL     1       4.070  44.135   9.650  1.00  0.00    -0.544 OA
ATOM     10  O   UNL     1       4.318  44.582  11.880  1.00  0.00    -0.544 OA
ENDBRANCH   3   8
ENDBRANCH   1   3
BRANCH   1  11
ATOM     11  C   UNL     1       6.294  47.494   9.401  1.00  0.00     0.006 C 
ATOM     12  C   UNL     1       6.412  48.960   8.980  1.00  0.00     0.004 C 
ENDBRANCH   1  11
TORSDOF 4
ENDMDL
MODEL 3
REMARK VINA RESULT:    -4.155      1.861      2.498
REMARK INTER + INTRA:          -5.074
REMARK INTER:                  -5.056
REMARK INTRA:                  -0.018
REMARK UNBOUND:                -0.069
REMARK SMILES CC[C@H](C)[C@@H]([NH3+])C(=O)[O-]
REMARK SMILES IDX 3 1 4 2 5 3 6 4 7 8 8 9 9 10 2 11 1 12
REMARK H PARENT 6 5 6 6 6 7
REMARK Flexibility Score: inf
ROOT
ATOM      1  C   UNL     1       2.442  43.613  10.769  1.00  0.00     0.050 C 
ATOM      2  C   UNL     1       2.710  42.882   9.440  1.00  0.00     0.014 C 
ENDROOT
BRANCH   1   3
ATOM      3  C   UNL     1       3.577  44.643  11.063  1.00  0.00     0.230 C 
BRANCH   3   4
ATOM      4  N   UNL     1       4.886  43.993  11.226  1.00  0.00    -0.350 N 
ATOM      5  H   UNL     1       5.122  43.842  12.232  1.00  0.00     0.345 HD
ATOM      6  H   UNL     1       5.634  44.574  10.781  1.00  0.00     0.345 HD
ATOM      7  H   UNL     1       4.873  43.063  10.747  1.00  0.00     0.345 HD
ENDBRANCH   3   4
BRANCH   3   8
ATOM      8  C   UNL     1       3.646  45.742  10.029  1.00  0.00     0.099 C 
ATOM      9  O   UNL     1       4.652  45.862   9.281  1.00  0.00    -0.544 OA
ATOM     10  O   UNL     1       2.572  46.610   9.872  1.00  0.00    -0.544 OA
ENDBRANCH   3   8
ENDBRANCH   1   3
BRANCH   1  11
ATOM     11  C   UNL     1       2.222  42.603  11.927  1.00  0.00     0.006 C 
ATOM     12  C   UNL     1       2.944  41.273  11.702  1.00  0.00     0.004 C 
ENDBRANCH   1  11
TORSDOF 4
ENDMDL
MODEL 4
REMARK VINA RESULT:    -4.062      1.841      2.562
REMARK INTER + INTRA:          -4.962
REMARK INTER:                  -5.011
REMARK INTRA:                   0.049
REMARK UNBOUND:                -0.069
REMARK SMILES CC[C@H](C)[C@@H]([NH3+])C(=O)[O-]
REMARK SMILES IDX 3 1 4 2 5 3 6 4 7 8 8 9 9 10 2 11 1 12
REMARK H PARENT 6 5 6 6 6 7
REMARK Flexibility Score: inf
ROOT
ATOM      1  C   UNL     1       4.148  43.240  11.044  1.00  0.00     0.050 C 
ATOM      2  C   UNL     1       4.538  44.299  12.093  1.00  0.00     0.014 C 
ENDROOT
BRANCH   1   3
ATOM      3  C   UNL     1       4.074  43.883   9.623  1.00  0.00     0.230 C 
BRANCH   3   4
ATOM      4  N   UNL     1       3.048  43.247   8.782  1.00  0.00    -0.350 N 
ATOM      5  H   UNL     1       2.867  43.795   7.911  1.00  0.00     0.345 HD
ATOM      6  H   UNL     1       2.155  43.149   9.317  1.00  0.00     0.345 HD
ATOM      7  H   UNL     1       3.368  42.289   8.509  1.00  0.00     0.345 HD
ENDBRANCH   3   4
BRANCH   3   8
ATOM      8  C   UNL     1       3.878  45.380   9.673  1.00  0.00     0.099 C 
ATOM      9  O   UNL     1       4.824  46.163   9.393  1.00  0.00    -0.544 OA
ATOM     10  O   UNL     1       2.632  45.903   9.995  1.00  0.00    -0.544 OA
ENDBRANCH   3   8
ENDBRANCH   1   3
BRANCH   1  11
ATOM     11  C   UNL     1       2.843  42.505  11.449  1.00  0.00     0.006 C 
ATOM     12  C   UNL     1       3.076  41.040  11.821  1.00  0.00     0.004 C 
ENDBRANCH   1  11
TORSDOF 4
ENDMDL
MODEL 5
REMARK VINA RESULT:    -4.048      2.339      3.249
REMARK INTER + INTRA:          -4.946
REMARK INTER:                  -4.894
REMARK INTRA:                  -0.052
REMARK UNBOUND:                -0.069
REMARK SMILES CC[C@H](C)[C@@H]([NH3+])C(=O)[O-]
REMARK SMILES IDX 3 1 4 2 5 3 6 4 7 8 8 9 9 10 2 11 1 12
REMARK H PARENT 6 5 6 6 6 7
REMARK Flexibility Score: inf
ROOT
ATOM      1  C   UNL     1       3.658  45.024  10.832  1.00  0.00     0.050 C 
ATOM      2  C   UNL     1       4.515  44.380  11.939  1.00  0.00     0.014 C 
ENDROOT
BRANCH   1   3
ATOM      3  C   UNL     1       2.892  43.927  10.029  1.00  0.00     0.230 C 
BRANCH   3   4
ATOM      4  N   UNL     1       3.713  43.355   8.952  1.00  0.00    -0.350 N 
ATOM      5  H   UNL     1       4.643  43.032   9.302  1.00  0.00     0.345 HD
ATOM      6  H   UNL     1       3.858  44.063   8.196  1.00  0.00     0.345 HD
ATOM      7  H   UNL     1       3.216  42.535   8.534  1.00  0.00     0.345 HD
ENDBRANCH   3   4
BRANCH   3   8
ATOM      8  C   UNL     1       2.336  42.839  10.917  1.00  0.00     0.099 C 
ATOM      9  O   UNL     1       1.331  43.052  11.646  1.00  0.00    -0.544 OA
ATOM     10  O   UNL     1       2.914  41.576  10.906  1.00  0.00    -0.544 OA
ENDBRANCH   3   8
ENDBRANCH   1   3
BRANCH   1  11
ATOM     11  C   UNL     1       4.515  45.952   9.931  1.00  0.00     0.006 C 
ATOM     12  C   UNL     1       3.674  46.953   9.137  1.00  0.00     0.004 C 
ENDBRANCH   1  11
TORSDOF 4
ENDMDL
MODEL 6
REMARK VINA RESULT:    -4.034      2.598      3.447
REMARK INTER + INTRA:          -4.929
REMARK INTER:                  -4.854
REMARK INTRA:                  -0.075
REMARK UNBOUND:                -0.069
REMARK SMILES CC[C@H](C)[C@@H]([NH3+])C(=O)[O-]
REMARK SMILES IDX 3 1 4 2 5 3 6 4 7 8 8 9 9 10 2 11 1 12
REMARK H PARENT 6 5 6 6 6 7
REMARK Flexibility Score: inf
ROOT
ATOM      1  C   UNL     1       3.584  46.302  10.056  1.00  0.00     0.050 C 
ATOM      2  C   UNL     1       4.991  46.586   9.498  1.00  0.00     0.014 C 
ENDROOT
BRANCH   1   3
ATOM      3  C   UNL     1       3.331  44.764  10.139  1.00  0.00     0.230 C 
BRANCH   3   4
ATOM      4  N   UNL     1       4.196  44.011   9.218  1.00  0.00    -0.350 N 
ATOM      5  H   UNL     1       4.780  43.306   9.722  1.00  0.00     0.345 HD
ATOM      6  H   UNL     1       4.824  44.666   8.698  1.00  0.00     0.345 HD
ATOM      7  H   UNL     1       3.604  43.508   8.518  1.00  0.00     0.345 HD
ENDBRANCH   3   4
BRANCH   3   8
ATOM      8  C   UNL     1       3.450  44.231  11.547  1.00  0.00     0.099 C 
ATOM      9  O   UNL     1       4.538  44.311  12.177  1.00  0.00    -0.544 OA
ATOM     10  O   UNL     1       2.339  43.677  12.171  1.00  0.00    -0.544 OA
ENDBRANCH   3   8
ENDBRANCH   1   3
BRANCH   1  11
ATOM     11  C   UNL     1       2.498  47.054   9.243  1.00  0.00     0.006 C 
ATOM     12  C   UNL     1       3.045  47.684   7.960  1.00  0.00     0.004 C 
ENDBRANCH   1  11
TORSDOF 4
ENDMDL
MODEL 7
REMARK VINA RESULT:    -4.034      2.332      3.052
REMARK INTER + INTRA:          -4.928
REMARK INTER:                  -4.964
REMARK INTRA:                   0.035
REMARK UNBOUND:                -0.069
REMARK SMILES CC[C@H](C)[C@@H]([NH3+])C(=O)[O-]
REMARK SMILES IDX 3 1 4 2 5 3 6 4 7 8 8 9 9 10 2 11 1 12
REMARK H PARENT 6 5 6 6 6 7
REMARK Flexibility Score: inf
ROOT
ATOM      1  C   UNL     1       3.693  43.818   9.651  1.00  0.00     0.050 C 
ATOM      2  C   UNL     1       2.416  43.196   9.054  1.00  0.00     0.014 C 
ENDROOT
BRANCH   1   3
ATOM      3  C   UNL     1       4.184  42.982  10.875  1.00  0.00     0.230 C 
BRANCH   3   4
ATOM      4  N   UNL     1       4.996  43.784  11.801  1.00  0.00    -0.350 N 
ATOM      5  H   UNL     1       5.187  43.273  12.693  1.00  0.00     0.345 HD
ATOM      6  H   UNL     1       4.511  44.685  12.019  1.00  0.00     0.345 HD
ATOM      7  H   UNL     1       5.913  44.013  11.351  1.00  0.00     0.345 HD
ENDBRANCH   3   4
BRANCH   3   8
ATOM      8  C   UNL     1       3.051  42.300  11.604  1.00  0.00     0.099 C 
ATOM      9  O   UNL     1       2.981  41.043  11.654  1.00  0.00    -0.544 OA
ATOM     10  O   UNL     1       2.093  43.063  12.259  1.00  0.00    -0.544 OA
ENDBRANCH   3   8
ENDBRANCH   1   3
BRANCH   1  11
ATOM     11  C   UNL     1       3.480  45.319   9.984  1.00  0.00     0.006 C 
ATOM     12  C   UNL     1       4.460  46.235   9.250  1.00  0.00     0.004 C 
ENDBRANCH   1  11
TORSDOF 4
ENDMDL
MODEL 8
REMARK VINA RESULT:    -3.974      2.242      3.101
REMARK INTER + INTRA:          -4.857
REMARK INTER:                  -4.913
REMARK INTRA:                   0.056
REMARK UNBOUND:                -0.069
REMARK SMILES CC[C@H](C)[C@@H]([NH3+])C(=O)[O-]
REMARK SMILES IDX 3 1 4 2 5 3 6 4 7 8 8 9 9 10 2 11 1 12
REMARK H PARENT 6 5 6 6 6 7
REMARK Flexibility Score: inf
ROOT
ATOM      1  C   UNL     1       3.793  43.419  11.180  1.00  0.00     0.050 C 
ATOM      2  C   UNL     1       4.544  44.100  12.340  1.00  0.00     0.014 C 
ENDROOT
BRANCH   1   3
ATOM      3  C   UNL     1       3.219  44.489  10.200  1.00  0.00     0.230 C 
BRANCH   3   4
ATOM      4  N   UNL     1       4.148  44.784   9.099  1.00  0.00    -0.350 N 
ATOM      5  H   UNL     1       4.661  45.681   9.253  1.00  0.00     0.345 HD
ATOM      6  H   UNL     1       3.627  44.839   8.193  1.00  0.00     0.345 HD
ATOM      7  H   UNL     1       4.850  44.012   9.020  1.00  0.00     0.345 HD
ENDBRANCH   3   4
BRANCH   3   8
ATOM      8  C   UNL     1       1.855  44.118   9.670  1.00  0.00     0.099 C 
ATOM      9  O   UNL     1       1.733  43.311   8.711  1.00  0.00    -0.544 OA
ATOM     10  O   UNL     1       0.716  44.644  10.268  1.00  0.00    -0.544 OA
ENDBRANCH   3   8
ENDBRANCH   1   3
BRANCH   1  11
ATOM     11  C   UNL     1       2.714  42.439  11.713  1.00  0.00     0.006 C 
ATOM     12  C   UNL     1       3.215  40.997  11.811  1.00  0.00     0.004 C 
ENDBRANCH   1  11
TORSDOF 4
ENDMDL
MODEL 9
REMARK VINA RESULT:    -3.970      2.861      3.731
REMARK INTER + INTRA:          -4.851
REMARK INTER:                  -4.777
REMARK INTRA:                  -0.075
REMARK UNBOUND:                -0.069
REMARK SMILES CC[C@H](C)[C@@H]([NH3+])C(=O)[O-]
REMARK SMILES IDX 3 1 4 2 5 3 6 4 7 8 8 9 9 10 2 11 1 12
REMARK H PARENT 6 5 6 6 6 7
REMARK Flexibility Score: inf
ROOT
ATOM      1  C   UNL     1       3.444  44.753  11.160  1.00  0.00     0.050 C 
ATOM      2  C   UNL     1       4.427  44.118  12.162  1.00  0.00     0.014 C 
ENDROOT
BRANCH   1   3
ATOM      3  C   UNL     1       2.217  43.816  10.932  1.00  0.00     0.230 C 
BRANCH   3   4
ATOM      4  N   UNL     1       1.534  43.484  12.191  1.00  0.00    -0.350 N 
ATOM      5  H   UNL     1       0.971  42.607  12.108  1.00  0.00     0.345 HD
ATOM      6  H   UNL     1       0.905  44.269  12.477  1.00  0.00     0.345 HD
ATOM      7  H   UNL     1       2.244  43.348  12.947  1.00  0.00     0.345 HD
ENDBRANCH   3   4
BRANCH   3   8
ATOM      8  C   UNL     1       1.243  44.370   9.919  1.00  0.00     0.099 C 
ATOM      9  O   UNL     1       1.159  43.872   8.766  1.00  0.00    -0.544 OA
ATOM     10  O   UNL     1       0.403  45.419  10.273  1.00  0.00    -0.544 OA
ENDBRANCH   3   8
ENDBRANCH   1   3
BRANCH   1  11
ATOM     11  C   UNL     1       4.166  45.144   9.843  1.00  0.00     0.006 C 
ATOM     12  C   UNL     1       4.845  46.512   9.920  1.00  0.00     0.004 C 
ENDBRANCH   1  11
TORSDOF 4
ENDMDL
