MODEL 1
REMARK VINA RESULT:    -3.590      0.000      0.000
REMARK INTER + INTRA:          -5.249
REMARK INTER:                  -4.849
REMARK INTRA:                  -0.400
REMARK UNBOUND:                -0.400
REMARK SMILES CCCCCCCC(=O)[O-]
REMARK SMILES IDX 5 1 6 2 7 3 8 4 9 5 10 6 4 7 3 8 2 9 1 10
REMARK H PARENT
REMARK Flexibility Score: inf
ROOT
ATOM      1  C   UNL     1      -3.424   2.354  -0.145  1.00  0.00     0.000 C 
ENDROOT
BRANCH   1   2
ATOM      2  C   UNL     1      -3.018   3.060   1.165  1.00  0.00     0.006 C 
BRANCH   2   3
ATOM      3  C   UNL     1      -3.982   4.167   1.621  1.00  0.00     0.053 C 
BRANCH   3   4
ATOM      4  C   UNL     1      -4.578   3.874   2.964  1.00  0.00     0.041 C 
ATOM      5  O   UNL     1      -5.476   3.000   3.082  1.00  0.00    -0.550 OA
ATOM      6  O   UNL     1      -4.115   4.542   4.091  1.00  0.00    -0.550 OA
ENDBRANCH   3   4
ENDBRANCH   2   3
ENDBRANCH   1   2
BRANCH   1   7
ATOM      7  C   UNL     1      -4.893   2.543  -0.563  1.00  0.00     0.000 C 
BRANCH   7   8
ATOM      8  C   UNL     1      -5.798   1.383  -0.115  1.00  0.00    -0.000 C 
BRANCH   8   9
ATOM      9  C   UNL     1      -5.013   0.257   0.576  1.00  0.00    -0.003 C 
ATOM     10  C   UNL     1      -5.807  -1.046   0.673  1.00  0.00     0.004 C 
ENDBRANCH   8   9
ENDBRANCH   7   8
ENDBRANCH   1   7
TORSDOF 6
ENDMDL
MODEL 2
REMARK VINA RESULT:    -3.473      1.604      2.329
REMARK INTER + INTRA:          -5.092
REMARK INTER:                  -4.777
REMARK INTRA:                  -0.315
REMARK UNBOUND:                -0.400
REMARK SMILES CCCCCCCC(=O)[O-]
REMARK SMILES IDX 5 1 6 2 7 3 8 4 9 5 10 6 4 7 3 8 2 9 1 10
REMARK H PARENT
REMARK Flexibility Score: inf
ROOT
ATOM      1  C   UNL     1      -5.631   2.036  -0.501  1.00  0.00     0.000 C 
ENDROOT
BRANCH   1   2
ATOM      2  C   UNL     1      -4.408   1.644   0.354  1.00  0.00     0.006 C 
BRANCH   2   3
ATOM      3  C   UNL     1      -3.209   2.598   0.232  1.00  0.00     0.053 C 
BRANCH   3   4
ATOM      4  C   UNL     1      -3.334   3.776   1.149  1.00  0.00     0.041 C 
ATOM      5  O   UNL     1      -2.954   3.690   2.346  1.00  0.00    -0.550 OA
ATOM      6  O   UNL     1      -3.837   4.980   0.671  1.00  0.00    -0.550 OA
ENDBRANCH   3   4
ENDBRANCH   2   3
ENDBRANCH   1   2
BRANCH   1   7
ATOM      7  C   UNL     1      -6.862   1.127  -0.338  1.00  0.00     0.000 C 
BRANCH   7   8
ATOM      8  C   UNL     1      -6.740   0.160   0.851  1.00  0.00    -0.000 C 
BRANCH   8   9
ATOM      9  C   UNL     1      -6.626  -1.307   0.409  1.00  0.00    -0.003 C 
ATOM     10  C   UNL     1      -5.202  -1.852   0.520  1.00  0.00     0.004 C 
ENDBRANCH   8   9
ENDBRANCH   7   8
ENDBRANCH   1   7
TORSDOF 6
ENDMDL
MODEL 3
REMARK VINA RESULT:    -3.452      1.672      2.509
REMARK INTER + INTRA:          -5.064
REMARK INTER:                  -4.770
REMARK INTRA:                  -0.294
REMARK UNBOUND:                -0.400
REMARK SMILES CCCCCCCC(=O)[O-]
REMARK SMILES IDX 5 1 6 2 7 3 8 4 9 5 10 6 4 7 3 8 2 9 1 10
REMARK H PARENT
REMARK Flexibility Score: inf
ROOT
ATOM      1  C   UNL     1      -6.609   1.911  -0.481  1.00  0.00     0.000 C 
ENDROOT
BRANCH   1   2
ATOM      2  C   UNL     1      -5.189   2.492  -0.649  1.00  0.00     0.006 C 
BRANCH   2   3
ATOM      3  C   UNL     1      -4.784   3.512   0.426  1.00  0.00     0.053 C 
BRANCH   3   4
ATOM      4  C   UNL     1      -3.460   3.180   1.044  1.00  0.00     0.041 C 
ATOM      5  O   UNL     1      -2.669   2.392   0.462  1.00  0.00    -0.550 OA
ATOM      6  O   UNL     1      -3.084   3.771   2.244  1.00  0.00    -0.550 OA
ENDBRANCH   3   4
ENDBRANCH   2   3
ENDBRANCH   1   2
BRANCH   1   7
ATOM      7  C   UNL     1      -6.676   0.535   0.204  1.00  0.00     0.000 C 
BRANCH   7   8
ATOM      8  C   UNL     1      -5.288  -0.029   0.553  1.00  0.00    -0.000 C 
BRANCH   8   9
ATOM      9  C   UNL     1      -5.281  -1.563   0.643  1.00  0.00    -0.003 C 
ATOM     10  C   UNL     1      -6.600  -2.190   0.191  1.00  0.00     0.004 C 
ENDBRANCH   8   9
ENDBRANCH   7   8
ENDBRANCH   1   7
TORSDOF 6
ENDMDL
MODEL 4
REMARK VINA RESULT:    -3.345      1.049      1.715
REMARK INTER + INTRA:          -4.918
REMARK INTER:                  -4.483
REMARK INTRA:                  -0.435
REMARK UNBOUND:                -0.400
REMARK SMILES CCCCCCCC(=O)[O-]
REMARK SMILES IDX 5 1 6 2 7 3 8 4 9 5 10 6 4 7 3 8 2 9 1 10
REMARK H PARENT
REMARK Flexibility Score: inf
ROOT
ATOM      1  C   UNL     1      -3.111   3.206   1.292  1.00  0.00     0.000 C 
ENDROOT
BRANCH   1   2
ATOM      2  C   UNL     1      -4.292   4.090   1.745  1.00  0.00     0.006 C 
BRANCH   2   3
ATOM      3  C   UNL     1      -4.962   3.641   3.053  1.00  0.00     0.053 C 
BRANCH   3   4
ATOM      4  C   UNL     1      -4.861   4.685   4.123  1.00  0.00     0.041 C 
ATOM      5  O   UNL     1      -5.493   4.548   5.203  1.00  0.00    -0.550 OA
ATOM      6  O   UNL     1      -4.039   5.790   3.941  1.00  0.00    -0.550 OA
ENDBRANCH   3   4
ENDBRANCH   2   3
ENDBRANCH   1   2
BRANCH   1   7
ATOM      7  C   UNL     1      -3.426   2.232   0.142  1.00  0.00     0.000 C 
BRANCH   7   8
ATOM      8  C   UNL     1      -4.797   2.490  -0.503  1.00  0.00    -0.000 C 
BRANCH   8   9
ATOM      9  C   UNL     1      -5.827   1.405  -0.153  1.00  0.00    -0.003 C 
ATOM     10  C   UNL     1      -5.217   0.237   0.623  1.00  0.00     0.004 C 
ENDBRANCH   8   9
ENDBRANCH   7   8
ENDBRANCH   1   7
TORSDOF 6
ENDMDL
MODEL 5
REMARK VINA RESULT:    -3.308      1.024      1.915
REMARK INTER + INTRA:          -4.869
REMARK INTER:                  -4.384
REMARK INTRA:                  -0.485
REMARK UNBOUND:                -0.400
REMARK SMILES CCCCCCCC(=O)[O-]
REMARK SMILES IDX 5 1 6 2 7 3 8 4 9 5 10 6 4 7 3 8 2 9 1 10
REMARK H PARENT
REMARK Flexibility Score: inf
ROOT
ATOM      1  C   UNL     1      -3.713   2.252  -0.027  1.00  0.00     0.000 C 
ENDROOT
BRANCH   1   2
ATOM      2  C   UNL     1      -3.046   2.950   1.176  1.00  0.00     0.006 C 
BRANCH   2   3
ATOM      3  C   UNL     1      -3.787   4.196   1.685  1.00  0.00     0.053 C 
BRANCH   3   4
ATOM      4  C   UNL     1      -4.472   3.946   2.994  1.00  0.00     0.041 C 
ATOM      5  O   UNL     1      -5.392   3.091   3.074  1.00  0.00    -0.550 OA
ATOM      6  O   UNL     1      -4.069   4.632   4.133  1.00  0.00    -0.550 OA
ENDBRANCH   3   4
ENDBRANCH   2   3
ENDBRANCH   1   2
BRANCH   1   7
ATOM      7  C   UNL     1      -4.659   1.092   0.331  1.00  0.00     0.000 C 
BRANCH   7   8
ATOM      8  C   UNL     1      -6.101   1.322  -0.153  1.00  0.00    -0.000 C 
BRANCH   8   9
ATOM      9  C   UNL     1      -6.378   2.794  -0.497  1.00  0.00    -0.003 C 
ATOM     10  C   UNL     1      -7.219   2.959  -1.763  1.00  0.00     0.004 C 
ENDBRANCH   8   9
ENDBRANCH   7   8
ENDBRANCH   1   7
TORSDOF 6
ENDMDL
MODEL 6
REMARK VINA RESULT:    -3.207      1.935      2.759
REMARK INTER + INTRA:          -4.732
REMARK INTER:                  -4.080
REMARK INTRA:                  -0.652
REMARK UNBOUND:                -0.400
REMARK SMILES CCCCCCCC(=O)[O-]
REMARK SMILES IDX 5 1 6 2 7 3 8 4 9 5 10 6 4 7 3 8 2 9 1 10
REMARK H PARENT
REMARK Flexibility Score: inf
ROOT
ATOM      1  C   UNL     1      -4.513   1.321   0.291  1.00  0.00     0.000 C 
ENDROOT
BRANCH   1   2
ATOM      2  C   UNL     1      -3.336   2.307   0.139  1.00  0.00     0.006 C 
BRANCH   2   3
ATOM      3  C   UNL     1      -3.115   3.231   1.347  1.00  0.00     0.053 C 
BRANCH   3   4
ATOM      4  C   UNL     1      -3.555   4.636   1.067  1.00  0.00     0.041 C 
ATOM      5  O   UNL     1      -3.109   5.589   1.759  1.00  0.00    -0.550 OA
ATOM      6  O   UNL     1      -4.429   4.896   0.020  1.00  0.00    -0.550 OA
ENDBRANCH   3   4
ENDBRANCH   2   3
ENDBRANCH   1   2
BRANCH   1   7
ATOM      7  C   UNL     1      -5.806   1.728  -0.439  1.00  0.00     0.000 C 
BRANCH   7   8
ATOM      8  C   UNL     1      -6.891   2.258   0.513  1.00  0.00    -0.000 C 
BRANCH   8   9
ATOM      9  C   UNL     1      -6.600   1.920   1.984  1.00  0.00    -0.003 C 
ATOM     10  C   UNL     1      -6.528   3.160   2.875  1.00  0.00     0.004 C 
ENDBRANCH   8   9
ENDBRANCH   7   8
ENDBRANCH   1   7
TORSDOF 6
ENDMDL
MODEL 7
REMARK VINA RESULT:    -3.194      1.519      2.758
REMARK INTER + INTRA:          -4.715
REMARK INTER:                  -4.088
REMARK INTRA:                  -0.626
REMARK UNBOUND:                -0.400
REMARK SMILES CCCCCCCC(=O)[O-]
REMARK SMILES IDX 5 1 6 2 7 3 8 4 9 5 10 6 4 7 3 8 2 9 1 10
REMARK H PARENT
REMARK Flexibility Score: inf
ROOT
ATOM      1  C   UNL     1      -6.671   2.314   1.106  1.00  0.00     0.000 C 
ENDROOT
BRANCH   1   2
ATOM      2  C   UNL     1      -5.927   2.665   2.412  1.00  0.00     0.006 C 
BRANCH   2   3
ATOM      3  C   UNL     1      -5.749   4.171   2.660  1.00  0.00     0.053 C 
BRANCH   3   4
ATOM      4  C   UNL     1      -4.304   4.566   2.700  1.00  0.00     0.041 C 
ATOM      5  O   UNL     1      -3.436   3.753   3.113  1.00  0.00    -0.550 OA
ATOM      6  O   UNL     1      -3.913   5.820   2.248  1.00  0.00    -0.550 OA
ENDBRANCH   3   4
ENDBRANCH   2   3
ENDBRANCH   1   2
BRANCH   1   7
ATOM      7  C   UNL     1      -5.772   1.864  -0.059  1.00  0.00     0.000 C 
BRANCH   7   8
ATOM      8  C   UNL     1      -4.364   1.445   0.397  1.00  0.00    -0.000 C 
BRANCH   8   9
ATOM      9  C   UNL     1      -3.266   2.367  -0.157  1.00  0.00    -0.003 C 
ATOM     10  C   UNL     1      -3.817   3.462  -1.070  1.00  0.00     0.004 C 
ENDBRANCH   8   9
ENDBRANCH   7   8
ENDBRANCH   1   7
TORSDOF 6
ENDMDL
MODEL 8
REMARK VINA RESULT:    -3.144      1.800      2.413
REMARK INTER + INTRA:          -4.647
REMARK INTER:                  -4.009
REMARK INTRA:                  -0.638
REMARK UNBOUND:                -0.400
REMARK SMILES CCCCCCCC(=O)[O-]
REMARK SMILES IDX 5 1 6 2 7 3 8 4 9 5 10 6 4 7 3 8 2 9 1 10
REMARK H PARENT
REMARK Flexibility Score: inf
ROOT
ATOM      1  C   UNL     1      -5.954   3.352  -1.437  1.00  0.00     0.000 C 
ENDROOT
BRANCH   1   2
ATOM      2  C   UNL     1      -4.443   3.386  -1.124  1.00  0.00     0.006 C 
BRANCH   2   3
ATOM      3  C   UNL     1      -4.035   4.408  -0.051  1.00  0.00     0.053 C 
BRANCH   3   4
ATOM      4  C   UNL     1      -3.397   3.751   1.135  1.00  0.00     0.041 C 
ATOM      5  O   UNL     1      -2.807   2.647   1.006  1.00  0.00    -0.550 OA
ATOM      6  O   UNL     1      -3.424   4.378   2.375  1.00  0.00    -0.550 OA
ENDBRANCH   3   4
ENDBRANCH   2   3
ENDBRANCH   1   2
BRANCH   1   7
ATOM      7  C   UNL     1      -6.721   2.164  -0.828  1.00  0.00     0.000 C 
BRANCH   7   8
ATOM      8  C   UNL     1      -5.797   1.135  -0.155  1.00  0.00    -0.000 C 
BRANCH   8   9
ATOM      9  C   UNL     1      -6.064   1.001   1.352  1.00  0.00    -0.003 C 
ATOM     10  C   UNL     1      -6.735   2.238   1.948  1.00  0.00     0.004 C 
ENDBRANCH   8   9
ENDBRANCH   7   8
ENDBRANCH   1   7
TORSDOF 6
ENDMDL
MODEL 9
REMARK VINA RESULT:    -3.044      3.558      5.191
REMARK INTER + INTRA:          -4.512
REMARK INTER:                  -4.249
REMARK INTRA:                  -0.264
REMARK UNBOUND:                -0.400
REMARK SMILES CCCCCCCC(=O)[O-]
REMARK SMILES IDX 5 1 6 2 7 3 8 4 9 5 10 6 4 7 3 8 2 9 1 10
REMARK H PARENT
REMARK Flexibility Score: inf
ROOT
ATOM      1  C   UNL     1      -6.305   0.562   0.071  1.00  0.00     0.000 C 
ENDROOT
BRANCH   1   2
ATOM      2  C   UNL     1      -5.513  -0.583   0.737  1.00  0.00     0.006 C 
BRANCH   2   3
ATOM      3  C   UNL     1      -6.099  -1.985   0.507  1.00  0.00     0.053 C 
BRANCH   3   4
ATOM      4  C   UNL     1      -7.172  -2.315   1.499  1.00  0.00     0.041 C 
ATOM      5  O   UNL     1      -8.378  -2.082   1.228  1.00  0.00    -0.550 OA
ATOM      6  O   UNL     1      -6.841  -2.914   2.708  1.00  0.00    -0.550 OA
ENDBRANCH   3   4
ENDBRANCH   2   3
ENDBRANCH   1   2
BRANCH   1   7
ATOM      7  C   UNL     1      -5.529   1.879  -0.105  1.00  0.00     0.000 C 
BRANCH   7   8
ATOM      8  C   UNL     1      -4.067   1.780   0.362  1.00  0.00    -0.000 C 
BRANCH   8   9
ATOM      9  C   UNL     1      -3.110   2.600  -0.517  1.00  0.00    -0.003 C 
ATOM     10  C   UNL     1      -3.834   3.649  -1.361  1.00  0.00     0.004 C 
ENDBRANCH   8   9
ENDBRANCH   7   8
ENDBRANCH   1   7
TORSDOF 6
ENDMDL
