MODEL 1
REMARK VINA RESULT:    -4.484      0.000      0.000
REMARK INTER + INTRA:          -9.793
REMARK INTER:                  -8.154
REMARK INTRA:                  -1.639
REMARK UNBOUND:                -1.639
REMARK SMILES CCCCCCCCCCCCCC[C@H](C)C(=O)[O-]
REMARK SMILES IDX 9 1 10 2 11 3 12 4 13 5 14 6 15 7 16 8 17 9 18 10 19 11 8 12
REMARK SMILES IDX 7 13 6 14 5 15 4 16 3 17 2 18 1 19
REMARK H PARENT
REMARK Flexibility Score: inf
ROOT
ATOM      1  C   UNL     1       0.405   4.289  -3.839  1.00  0.00     0.000 C 
ENDROOT
BRANCH   1   2
ATOM      2  C   UNL     1       1.753   3.905  -3.207  1.00  0.00     0.000 C 
BRANCH   2   3
ATOM      3  C   UNL     1       1.990   2.384  -3.176  1.00  0.00     0.000 C 
BRANCH   3   4
ATOM      4  C   UNL     1       3.468   1.950  -3.157  1.00  0.00     0.000 C 
BRANCH   4   5
ATOM      5  C   UNL     1       4.296   2.588  -4.282  1.00  0.00     0.001 C 
BRANCH   5   6
ATOM      6  C   UNL     1       3.942   1.972  -5.644  1.00  0.00     0.009 C 
BRANCH   6   7
ATOM      7  C   UNL     1       3.974   3.014  -6.781  1.00  0.00     0.032 C 
ATOM      8  C   UNL     1       2.596   3.657  -6.963  1.00  0.00     0.014 C 
BRANCH   7   9
ATOM      9  C   UNL     1       4.420   2.394  -8.078  1.00  0.00     0.044 C 
ATOM     10  O   UNL     1       3.575   2.120  -8.972  1.00  0.00    -0.550 OA
ATOM     11  O   UNL     1       5.765   2.119  -8.300  1.00  0.00    -0.550 OA
ENDBRANCH   7   9
ENDBRANCH   6   7
ENDBRANCH   5   6
ENDBRANCH   4   5
ENDBRANCH   3   4
ENDBRANCH   2   3
ENDBRANCH   1   2
BRANCH   1  12
ATOM     12  C   UNL     1      -0.261   3.115  -4.578  1.00  0.00     0.000 C 
BRANCH  12  13
ATOM     13  C   UNL     1      -1.709   2.835  -4.121  1.00  0.00    -0.000 C 
BRANCH  13  14
ATOM     14  C   UNL     1      -1.806   2.614  -2.601  1.00  0.00    -0.000 C 
BRANCH  14  15
ATOM     15  C   UNL     1      -3.268   2.506  -2.118  1.00  0.00    -0.000 C 
BRANCH  15  16
ATOM     16  C   UNL     1      -4.289   2.389  -3.262  1.00  0.00    -0.000 C 
BRANCH  16  17
ATOM     17  C   UNL     1      -4.961   1.010  -3.326  1.00  0.00    -0.000 C 
BRANCH  17  18
ATOM     18  C   UNL     1      -4.185   0.063  -4.248  1.00  0.00    -0.003 C 
ATOM     19  C   UNL     1      -3.777  -1.211  -3.513  1.00  0.00     0.004 C 
ENDBRANCH  17  18
ENDBRANCH  16  17
ENDBRANCH  15  16
ENDBRANCH  14  15
ENDBRANCH  13  14
ENDBRANCH  12  13
ENDBRANCH   1  12
TORSDOF 14
ENDMDL
MODEL 2
REMARK VINA RESULT:    -4.479      1.489      2.514
REMARK INTER + INTRA:          -9.784
REMARK INTER:                  -7.863
REMARK INTRA:                  -1.920
REMARK UNBOUND:                -1.639
REMARK SMILES CCCCCCCCCCCCCC[C@H](C)C(=O)[O-]
REMARK SMILES IDX 9 1 10 2 11 3 12 4 13 5 14 6 15 7 16 8 17 9 18 10 19 11 8 12
REMARK SMILES IDX 7 13 6 14 5 15 4 16 3 17 2 18 1 19
REMARK H PARENT
REMARK Flexibility Score: inf
ROOT
ATOM      1  C   UNL     1       1.163   2.350  -3.306  1.00  0.00     0.000 C 
ENDROOT
BRANCH   1   2
ATOM      2  C   UNL     1       2.632   2.125  -2.913  1.00  0.00     0.000 C 
BRANCH   2   3
ATOM      3  C   UNL     1       3.549   1.880  -4.125  1.00  0.00     0.000 C 
BRANCH   3   4
ATOM      4  C   UNL     1       4.630   2.951  -4.360  1.00  0.00     0.000 C 
BRANCH   4   5
ATOM      5  C   UNL     1       4.461   3.694  -5.693  1.00  0.00     0.001 C 
BRANCH   5   6
ATOM      6  C   UNL     1       3.481   2.953  -6.616  1.00  0.00     0.009 C 
BRANCH   6   7
ATOM      7  C   UNL     1       4.052   2.760  -8.036  1.00  0.00     0.032 C 
ATOM      8  C   UNL     1       2.988   3.074  -9.092  1.00  0.00     0.014 C 
BRANCH   7   9
ATOM      9  C   UNL     1       4.566   1.359  -8.234  1.00  0.00     0.044 C 
ATOM     10  O   UNL     1       5.334   1.097  -9.197  1.00  0.00    -0.550 OA
ATOM     11  O   UNL     1       4.199   0.346  -7.356  1.00  0.00    -0.550 OA
ENDBRANCH   7   9
ENDBRANCH   6   7
ENDBRANCH   5   6
ENDBRANCH   4   5
ENDBRANCH   3   4
ENDBRANCH   2   3
ENDBRANCH   1   2
BRANCH   1  12
ATOM     12  C   UNL     1       0.664   3.763  -2.959  1.00  0.00     0.000 C 
BRANCH  12  13
ATOM     13  C   UNL     1      -0.017   4.489  -4.138  1.00  0.00    -0.000 C 
BRANCH  13  14
ATOM     14  C   UNL     1       0.134   3.716  -5.461  1.00  0.00    -0.000 C 
BRANCH  14  15
ATOM     15  C   UNL     1      -1.199   3.095  -5.931  1.00  0.00    -0.000 C 
BRANCH  15  16
ATOM     16  C   UNL     1      -2.328   3.198  -4.892  1.00  0.00    -0.000 C 
BRANCH  16  17
ATOM     17  C   UNL     1      -2.766   1.831  -4.348  1.00  0.00    -0.000 C 
BRANCH  17  18
ATOM     18  C   UNL     1      -2.428   1.699  -2.858  1.00  0.00    -0.003 C 
ATOM     19  C   UNL     1      -3.317   2.604  -2.009  1.00  0.00     0.004 C 
ENDBRANCH  17  18
ENDBRANCH  16  17
ENDBRANCH  15  16
ENDBRANCH  14  15
ENDBRANCH  13  14
ENDBRANCH  12  13
ENDBRANCH   1  12
TORSDOF 14
ENDMDL
MODEL 3
REMARK VINA RESULT:    -4.401      3.643      7.422
REMARK INTER + INTRA:          -9.642
REMARK INTER:                  -7.496
REMARK INTRA:                  -2.145
REMARK UNBOUND:                -1.639
REMARK SMILES CCCCCCCCCCCCCC[C@H](C)C(=O)[O-]
REMARK SMILES IDX 9 1 10 2 11 3 12 4 13 5 14 6 15 7 16 8 17 9 18 10 19 11 8 12
REMARK SMILES IDX 7 13 6 14 5 15 4 16 3 17 2 18 1 19
REMARK H PARENT
REMARK Flexibility Score: inf
ROOT
ATOM      1  C   UNL     1       0.749   5.032  -5.342  1.00  0.00     0.000 C 
ENDROOT
BRANCH   1   2
ATOM      2  C   UNL     1      -0.419   4.972  -6.339  1.00  0.00     0.000 C 
BRANCH   2   3
ATOM      3  C   UNL     1      -0.644   3.563  -6.917  1.00  0.00     0.000 C 
BRANCH   3   4
ATOM      4  C   UNL     1      -1.998   2.917  -6.566  1.00  0.00     0.000 C 
BRANCH   4   5
ATOM      5  C   UNL     1      -2.127   2.562  -5.077  1.00  0.00     0.001 C 
BRANCH   5   6
ATOM      6  C   UNL     1      -3.263   3.358  -4.418  1.00  0.00     0.009 C 
BRANCH   6   7
ATOM      7  C   UNL     1      -3.663   2.777  -3.046  1.00  0.00     0.032 C 
ATOM      8  C   UNL     1      -2.421   2.345  -2.261  1.00  0.00     0.014 C 
BRANCH   7   9
ATOM      9  C   UNL     1      -4.599   1.608  -3.200  1.00  0.00     0.044 C 
ATOM     10  O   UNL     1      -4.148   0.431  -3.185  1.00  0.00    -0.550 OA
ATOM     11  O   UNL     1      -5.964   1.816  -3.359  1.00  0.00    -0.550 OA
ENDBRANCH   7   9
ENDBRANCH   6   7
ENDBRANCH   5   6
ENDBRANCH   4   5
ENDBRANCH   3   4
ENDBRANCH   2   3
ENDBRANCH   1   2
BRANCH   1  12
ATOM     12  C   UNL     1       0.282   5.229  -3.889  1.00  0.00     0.000 C 
BRANCH  12  13
ATOM     13  C   UNL     1       0.608   4.036  -2.965  1.00  0.00    -0.000 C 
BRANCH  13  14
ATOM     14  C   UNL     1       1.171   2.834  -3.744  1.00  0.00    -0.000 C 
BRANCH  14  15
ATOM     15  C   UNL     1       2.405   2.216  -3.053  1.00  0.00    -0.000 C 
BRANCH  15  16
ATOM     16  C   UNL     1       3.512   1.791  -4.033  1.00  0.00    -0.000 C 
BRANCH  16  17
ATOM     17  C   UNL     1       4.558   2.891  -4.268  1.00  0.00    -0.000 C 
BRANCH  17  18
ATOM     18  C   UNL     1       4.217   3.715  -5.515  1.00  0.00    -0.003 C 
ATOM     19  C   UNL     1       3.696   2.824  -6.639  1.00  0.00     0.004 C 
ENDBRANCH  17  18
ENDBRANCH  16  17
ENDBRANCH  15  16
ENDBRANCH  14  15
ENDBRANCH  13  14
ENDBRANCH  12  13
ENDBRANCH   1  12
TORSDOF 14
ENDMDL
MODEL 4
REMARK VINA RESULT:    -4.380      2.397      3.326
REMARK INTER + INTRA:          -9.604
REMARK INTER:                  -7.696
REMARK INTRA:                  -1.908
REMARK UNBOUND:                -1.639
REMARK SMILES CCCCCCCCCCCCCC[C@H](C)C(=O)[O-]
REMARK SMILES IDX 9 1 10 2 11 3 12 4 13 5 14 6 15 7 16 8 17 9 18 10 19 11 8 12
REMARK SMILES IDX 7 13 6 14 5 15 4 16 3 17 2 18 1 19
REMARK H PARENT
REMARK Flexibility Score: inf
ROOT
ATOM      1  C   UNL     1      -1.390   2.905  -5.317  1.00  0.00     0.000 C 
ENDROOT
BRANCH   1   2
ATOM      2  C   UNL     1       0.016   3.493  -5.519  1.00  0.00     0.000 C 
BRANCH   2   3
ATOM      3  C   UNL     1       0.398   4.524  -4.442  1.00  0.00     0.000 C 
BRANCH   3   4
ATOM      4  C   UNL     1       1.207   3.967  -3.256  1.00  0.00     0.000 C 
BRANCH   4   5
ATOM      5  C   UNL     1       1.185   2.433  -3.181  1.00  0.00     0.001 C 
BRANCH   5   6
ATOM      6  C   UNL     1       2.611   1.865  -3.110  1.00  0.00     0.009 C 
BRANCH   6   7
ATOM      7  C   UNL     1       3.634   2.768  -3.829  1.00  0.00     0.032 C 
ATOM      8  C   UNL     1       3.873   2.278  -5.260  1.00  0.00     0.014 C 
BRANCH   7   9
ATOM      9  C   UNL     1       4.941   2.815  -3.083  1.00  0.00     0.044 C 
ATOM     10  O   UNL     1       5.403   1.771  -2.550  1.00  0.00    -0.550 OA
ATOM     11  O   UNL     1       5.646   4.008  -2.977  1.00  0.00    -0.550 OA
ENDBRANCH   7   9
ENDBRANCH   6   7
ENDBRANCH   5   6
ENDBRANCH   4   5
ENDBRANCH   3   4
ENDBRANCH   2   3
ENDBRANCH   1   2
BRANCH   1  12
ATOM     12  C   UNL     1      -2.308   3.830  -4.499  1.00  0.00     0.000 C 
BRANCH  12  13
ATOM     13  C   UNL     1      -3.115   3.096  -3.406  1.00  0.00    -0.000 C 
BRANCH  13  14
ATOM     14  C   UNL     1      -2.454   1.769  -2.990  1.00  0.00    -0.000 C 
BRANCH  14  15
ATOM     15  C   UNL     1      -3.298   0.543  -3.397  1.00  0.00    -0.000 C 
BRANCH  15  16
ATOM     16  C   UNL     1      -4.815   0.786  -3.326  1.00  0.00    -0.000 C 
BRANCH  16  17
ATOM     17  C   UNL     1      -5.500   0.695  -4.697  1.00  0.00    -0.000 C 
BRANCH  17  18
ATOM     18  C   UNL     1      -4.503   0.280  -5.784  1.00  0.00    -0.003 C 
ATOM     19  C   UNL     1      -4.421   1.331  -6.887  1.00  0.00     0.004 C 
ENDBRANCH  17  18
ENDBRANCH  16  17
ENDBRANCH  15  16
ENDBRANCH  14  15
ENDBRANCH  13  14
ENDBRANCH  12  13
ENDBRANCH   1  12
TORSDOF 14
ENDMDL
MODEL 5
REMARK VINA RESULT:    -4.353      2.598      3.922
REMARK INTER + INTRA:          -9.555
REMARK INTER:                  -7.940
REMARK INTRA:                  -1.615
REMARK UNBOUND:                -1.639
REMARK SMILES CCCCCCCCCCCCCC[C@H](C)C(=O)[O-]
REMARK SMILES IDX 9 1 10 2 11 3 12 4 13 5 14 6 15 7 16 8 17 9 18 10 19 11 8 12
REMARK SMILES IDX 7 13 6 14 5 15 4 16 3 17 2 18 1 19
REMARK H PARENT
REMARK Flexibility Score: inf
ROOT
ATOM      1  C   UNL     1      -2.036   2.155  -2.718  1.00  0.00     0.000 C 
ENDROOT
BRANCH   1   2
ATOM      2  C   UNL     1      -1.926   2.578  -4.191  1.00  0.00     0.000 C 
BRANCH   2   3
ATOM      3  C   UNL     1      -0.532   3.120  -4.558  1.00  0.00     0.000 C 
BRANCH   3   4
ATOM      4  C   UNL     1      -0.089   4.375  -3.783  1.00  0.00     0.000 C 
BRANCH   4   5
ATOM      5  C   UNL     1       1.300   4.229  -3.144  1.00  0.00     0.001 C 
BRANCH   5   6
ATOM      6  C   UNL     1       1.896   2.843  -3.434  1.00  0.00     0.009 C 
BRANCH   6   7
ATOM      7  C   UNL     1       3.385   2.919  -3.829  1.00  0.00     0.032 C 
ATOM      8  C   UNL     1       3.816   1.643  -4.556  1.00  0.00     0.014 C 
BRANCH   7   9
ATOM      9  C   UNL     1       4.259   3.137  -2.623  1.00  0.00     0.044 C 
ATOM     10  O   UNL     1       4.820   4.251  -2.441  1.00  0.00    -0.550 OA
ATOM     11  O   UNL     1       4.454   2.115  -1.702  1.00  0.00    -0.550 OA
ENDBRANCH   7   9
ENDBRANCH   6   7
ENDBRANCH   5   6
ENDBRANCH   4   5
ENDBRANCH   3   4
ENDBRANCH   2   3
ENDBRANCH   1   2
BRANCH   1  12
ATOM     12  C   UNL     1      -3.364   2.589  -2.073  1.00  0.00     0.000 C 
BRANCH  12  13
ATOM     13  C   UNL     1      -4.446   2.998  -3.095  1.00  0.00    -0.000 C 
BRANCH  13  14
ATOM     14  C   UNL     1      -5.655   2.046  -3.073  1.00  0.00    -0.000 C 
BRANCH  14  15
ATOM     15  C   UNL     1      -6.002   1.507  -4.477  1.00  0.00    -0.000 C 
BRANCH  15  16
ATOM     16  C   UNL     1      -4.858   0.716  -5.133  1.00  0.00    -0.000 C 
BRANCH  16  17
ATOM     17  C   UNL     1      -4.814  -0.753  -4.688  1.00  0.00    -0.000 C 
BRANCH  17  18
ATOM     18  C   UNL     1      -3.707  -0.980  -3.651  1.00  0.00    -0.003 C 
ATOM     19  C   UNL     1      -3.848  -2.346  -2.985  1.00  0.00     0.004 C 
ENDBRANCH  17  18
ENDBRANCH  16  17
ENDBRANCH  15  16
ENDBRANCH  14  15
ENDBRANCH  13  14
ENDBRANCH  12  13
ENDBRANCH   1  12
TORSDOF 14
ENDMDL
MODEL 6
REMARK VINA RESULT:    -4.351      1.202      1.834
REMARK INTER + INTRA:          -9.551
REMARK INTER:                  -8.166
REMARK INTRA:                  -1.385
REMARK UNBOUND:                -1.639
REMARK SMILES CCCCCCCCCCCCCC[C@H](C)C(=O)[O-]
REMARK SMILES IDX 9 1 10 2 11 3 12 4 13 5 14 6 15 7 16 8 17 9 18 10 19 11 8 12
REMARK SMILES IDX 7 13 6 14 5 15 4 16 3 17 2 18 1 19
REMARK H PARENT
REMARK Flexibility Score: inf
ROOT
ATOM      1  C   UNL     1      -0.345   3.107  -4.349  1.00  0.00     0.000 C 
ENDROOT
BRANCH   1   2
ATOM      2  C   UNL     1       0.469   3.162  -3.047  1.00  0.00     0.000 C 
BRANCH   2   3
ATOM      3  C   UNL     1       1.985   3.273  -3.290  1.00  0.00     0.000 C 
BRANCH   3   4
ATOM      4  C   UNL     1       2.743   1.933  -3.338  1.00  0.00     0.000 C 
BRANCH   4   5
ATOM      5  C   UNL     1       4.113   2.041  -4.024  1.00  0.00     0.001 C 
BRANCH   5   6
ATOM      6  C   UNL     1       4.095   3.115  -5.122  1.00  0.00     0.009 C 
BRANCH   6   7
ATOM      7  C   UNL     1       3.482   2.594  -6.438  1.00  0.00     0.032 C 
ATOM      8  C   UNL     1       4.575   2.063  -7.369  1.00  0.00     0.014 C 
BRANCH   7   9
ATOM      9  C   UNL     1       2.696   3.670  -7.139  1.00  0.00     0.044 C 
ATOM     10  O   UNL     1       2.589   3.659  -8.394  1.00  0.00    -0.550 OA
ATOM     11  O   UNL     1       2.082   4.681  -6.408  1.00  0.00    -0.550 OA
ENDBRANCH   7   9
ENDBRANCH   6   7
ENDBRANCH   5   6
ENDBRANCH   4   5
ENDBRANCH   3   4
ENDBRANCH   2   3
ENDBRANCH   1   2
BRANCH   1  12
ATOM     12  C   UNL     1      -1.792   2.633  -4.126  1.00  0.00     0.000 C 
BRANCH  12  13
ATOM     13  C   UNL     1      -2.048   2.063  -2.714  1.00  0.00    -0.000 C 
BRANCH  13  14
ATOM     14  C   UNL     1      -3.348   2.607  -2.096  1.00  0.00    -0.000 C 
BRANCH  14  15
ATOM     15  C   UNL     1      -4.526   2.581  -3.093  1.00  0.00    -0.000 C 
BRANCH  15  16
ATOM     16  C   UNL     1      -5.108   1.176  -3.324  1.00  0.00    -0.000 C 
BRANCH  16  17
ATOM     17  C   UNL     1      -4.846   0.646  -4.741  1.00  0.00    -0.000 C 
BRANCH  17  18
ATOM     18  C   UNL     1      -4.495  -0.846  -4.713  1.00  0.00    -0.003 C 
ATOM     19  C   UNL     1      -3.764  -1.216  -3.425  1.00  0.00     0.004 C 
ENDBRANCH  17  18
ENDBRANCH  16  17
ENDBRANCH  15  16
ENDBRANCH  14  15
ENDBRANCH  13  14
ENDBRANCH  12  13
ENDBRANCH   1  12
TORSDOF 14
ENDMDL
MODEL 7
REMARK VINA RESULT:    -4.344      2.322      3.631
REMARK INTER + INTRA:          -9.539
REMARK INTER:                  -7.691
REMARK INTRA:                  -1.848
REMARK UNBOUND:                -1.639
REMARK SMILES CCCCCCCCCCCCCC[C@H](C)C(=O)[O-]
REMARK SMILES IDX 9 1 10 2 11 3 12 4 13 5 14 6 15 7 16 8 17 9 18 10 19 11 8 12
REMARK SMILES IDX 7 13 6 14 5 15 4 16 3 17 2 18 1 19
REMARK H PARENT
REMARK Flexibility Score: inf
ROOT
ATOM      1  C   UNL     1       1.867   5.684  -5.302  1.00  0.00     0.000 C 
ENDROOT
BRANCH   1   2
ATOM      2  C   UNL     1       1.639   5.194  -6.741  1.00  0.00     0.000 C 
BRANCH   2   3
ATOM      3  C   UNL     1       2.020   3.716  -6.940  1.00  0.00     0.000 C 
BRANCH   3   4
ATOM      4  C   UNL     1       3.413   3.473  -7.552  1.00  0.00     0.000 C 
BRANCH   4   5
ATOM      5  C   UNL     1       4.472   3.098  -6.505  1.00  0.00     0.001 C 
BRANCH   5   6
ATOM      6  C   UNL     1       3.819   2.495  -5.252  1.00  0.00     0.009 C 
BRANCH   6   7
ATOM      7  C   UNL     1       4.268   3.208  -3.960  1.00  0.00     0.032 C 
ATOM      8  C   UNL     1       5.594   3.942  -4.182  1.00  0.00     0.014 C 
BRANCH   7   9
ATOM      9  C   UNL     1       4.411   2.235  -2.820  1.00  0.00     0.044 C 
ATOM     10  O   UNL     1       5.506   2.137  -2.206  1.00  0.00    -0.550 OA
ATOM     11  O   UNL     1       3.338   1.439  -2.437  1.00  0.00    -0.550 OA
ENDBRANCH   7   9
ENDBRANCH   6   7
ENDBRANCH   5   6
ENDBRANCH   4   5
ENDBRANCH   3   4
ENDBRANCH   2   3
ENDBRANCH   1   2
BRANCH   1  12
ATOM     12  C   UNL     1       0.645   5.454  -4.396  1.00  0.00     0.000 C 
BRANCH  12  13
ATOM     13  C   UNL     1       0.900   4.447  -3.254  1.00  0.00    -0.000 C 
BRANCH  13  14
ATOM     14  C   UNL     1       0.423   3.028  -3.613  1.00  0.00    -0.000 C 
BRANCH  14  15
ATOM     15  C   UNL     1      -1.107   2.956  -3.802  1.00  0.00    -0.000 C 
BRANCH  15  16
ATOM     16  C   UNL     1      -1.848   2.338  -2.605  1.00  0.00    -0.000 C 
BRANCH  16  17
ATOM     17  C   UNL     1      -3.369   2.278  -2.808  1.00  0.00    -0.000 C 
BRANCH  17  18
ATOM     18  C   UNL     1      -3.736   1.283  -3.915  1.00  0.00    -0.003 C 
ATOM     19  C   UNL     1      -3.608  -0.157  -3.427  1.00  0.00     0.004 C 
ENDBRANCH  17  18
ENDBRANCH  16  17
ENDBRANCH  15  16
ENDBRANCH  14  15
ENDBRANCH  13  14
ENDBRANCH  12  13
ENDBRANCH   1  12
TORSDOF 14
ENDMDL
MODEL 8
REMARK VINA RESULT:    -4.330      2.586      3.497
REMARK INTER + INTRA:          -9.512
REMARK INTER:                  -8.079
REMARK INTRA:                  -1.433
REMARK UNBOUND:                -1.639
REMARK SMILES CCCCCCCCCCCCCC[C@H](C)C(=O)[O-]
REMARK SMILES IDX 9 1 10 2 11 3 12 4 13 5 14 6 15 7 16 8 17 9 18 10 19 11 8 12
REMARK SMILES IDX 7 13 6 14 5 15 4 16 3 17 2 18 1 19
REMARK H PARENT
REMARK Flexibility Score: inf
ROOT
ATOM      1  C   UNL     1       0.537   4.360  -3.552  1.00  0.00     0.000 C 
ENDROOT
BRANCH   1   2
ATOM      2  C   UNL     1       1.211   4.908  -4.820  1.00  0.00     0.000 C 
BRANCH   2   3
ATOM      3  C   UNL     1       1.415   3.833  -5.904  1.00  0.00     0.000 C 
BRANCH   3   4
ATOM      4  C   UNL     1       2.853   3.708  -6.442  1.00  0.00     0.000 C 
BRANCH   4   5
ATOM      5  C   UNL     1       3.665   2.610  -5.740  1.00  0.00     0.001 C 
BRANCH   5   6
ATOM      6  C   UNL     1       4.470   3.187  -4.565  1.00  0.00     0.009 C 
BRANCH   6   7
ATOM      7  C   UNL     1       4.365   2.310  -3.301  1.00  0.00     0.032 C 
ATOM      8  C   UNL     1       2.935   1.793  -3.120  1.00  0.00     0.014 C 
BRANCH   7   9
ATOM      9  C   UNL     1       4.789   3.070  -2.072  1.00  0.00     0.044 C 
ATOM     10  O   UNL     1       5.490   2.505  -1.190  1.00  0.00    -0.550 OA
ATOM     11  O   UNL     1       4.413   4.397  -1.902  1.00  0.00    -0.550 OA
ENDBRANCH   7   9
ENDBRANCH   6   7
ENDBRANCH   5   6
ENDBRANCH   4   5
ENDBRANCH   3   4
ENDBRANCH   2   3
ENDBRANCH   1   2
BRANCH   1  12
ATOM     12  C   UNL     1      -0.482   3.246  -3.854  1.00  0.00     0.000 C 
BRANCH  12  13
ATOM     13  C   UNL     1      -1.131   2.639  -2.592  1.00  0.00    -0.000 C 
BRANCH  13  14
ATOM     14  C   UNL     1      -2.370   1.790  -2.928  1.00  0.00    -0.000 C 
BRANCH  14  15
ATOM     15  C   UNL     1      -2.778   1.910  -4.411  1.00  0.00    -0.000 C 
BRANCH  15  16
ATOM     16  C   UNL     1      -4.030   1.096  -4.775  1.00  0.00    -0.000 C 
BRANCH  16  17
ATOM     17  C   UNL     1      -4.426   0.088  -3.687  1.00  0.00    -0.000 C 
BRANCH  17  18
ATOM     18  C   UNL     1      -4.322  -1.351  -4.206  1.00  0.00    -0.003 C 
ATOM     19  C   UNL     1      -3.397  -2.188  -3.328  1.00  0.00     0.004 C 
ENDBRANCH  17  18
ENDBRANCH  16  17
ENDBRANCH  15  16
ENDBRANCH  14  15
ENDBRANCH  13  14
ENDBRANCH  12  13
ENDBRANCH   1  12
TORSDOF 14
ENDMDL
MODEL 9
REMARK VINA RESULT:    -4.316      2.373      3.468
REMARK INTER + INTRA:          -9.488
REMARK INTER:                  -7.313
REMARK INTRA:                  -2.176
REMARK UNBOUND:                -1.639
REMARK SMILES CCCCCCCCCCCCCC[C@H](C)C(=O)[O-]
REMARK SMILES IDX 9 1 10 2 11 3 12 4 13 5 14 6 15 7 16 8 17 9 18 10 19 11 8 12
REMARK SMILES IDX 7 13 6 14 5 15 4 16 3 17 2 18 1 19
REMARK H PARENT
REMARK Flexibility Score: inf
ROOT
ATOM      1  C   UNL     1      -0.506   4.961  -6.285  1.00  0.00     0.000 C 
ENDROOT
BRANCH   1   2
ATOM      2  C   UNL     1       0.818   4.859  -5.510  1.00  0.00     0.000 C 
BRANCH   2   3
ATOM      3  C   UNL     1       0.676   5.244  -4.026  1.00  0.00     0.000 C 
BRANCH   3   4
ATOM      4  C   UNL     1       1.044   4.135  -3.022  1.00  0.00     0.000 C 
BRANCH   4   5
ATOM      5  C   UNL     1       1.166   2.750  -3.673  1.00  0.00     0.001 C 
BRANCH   5   6
ATOM      6  C   UNL     1       2.547   2.134  -3.401  1.00  0.00     0.009 C 
BRANCH   6   7
ATOM      7  C   UNL     1       3.686   2.950  -4.045  1.00  0.00     0.032 C 
ATOM      8  C   UNL     1       3.906   2.516  -5.497  1.00  0.00     0.014 C 
BRANCH   7   9
ATOM      9  C   UNL     1       4.969   2.803  -3.271  1.00  0.00     0.044 C 
ATOM     10  O   UNL     1       5.115   1.846  -2.464  1.00  0.00    -0.550 OA
ATOM     11  O   UNL     1       6.001   3.719  -3.441  1.00  0.00    -0.550 OA
ENDBRANCH   7   9
ENDBRANCH   6   7
ENDBRANCH   5   6
ENDBRANCH   4   5
ENDBRANCH   3   4
ENDBRANCH   2   3
ENDBRANCH   1   2
BRANCH   1  12
ATOM     12  C   UNL     1      -1.727   5.098  -5.360  1.00  0.00     0.000 C 
BRANCH  12  13
ATOM     13  C   UNL     1      -2.723   3.923  -5.469  1.00  0.00    -0.000 C 
BRANCH  13  14
ATOM     14  C   UNL     1      -2.030   2.558  -5.308  1.00  0.00    -0.000 C 
BRANCH  14  15
ATOM     15  C   UNL     1      -2.577   1.763  -4.103  1.00  0.00    -0.000 C 
BRANCH  15  16
ATOM     16  C   UNL     1      -2.368   2.468  -2.753  1.00  0.00    -0.000 C 
BRANCH  16  17
ATOM     17  C   UNL     1      -3.677   2.680  -1.979  1.00  0.00    -0.000 C 
BRANCH  17  18
ATOM     18  C   UNL     1      -4.892   2.379  -2.863  1.00  0.00    -0.003 C 
ATOM     19  C   UNL     1      -5.668   3.653  -3.187  1.00  0.00     0.004 C 
ENDBRANCH  17  18
ENDBRANCH  16  17
ENDBRANCH  15  16
ENDBRANCH  14  15
ENDBRANCH  13  14
ENDBRANCH  12  13
ENDBRANCH   1  12
TORSDOF 14
ENDMDL
