MODEL 1
REMARK VINA RESULT:    -3.762      0.000      0.000
REMARK INTER + INTRA:          -4.351
REMARK INTER:                  -4.312
REMARK INTRA:                  -0.039
REMARK UNBOUND:                -0.039
REMARK SMILES CC(C)[C@H]([NH3+])C(=O)[O-]
REMARK SMILES IDX 4 1 5 2 6 6 7 7 8 8 2 9 1 10 3 11
REMARK H PARENT 5 3 5 4 5 5
REMARK Flexibility Score: inf
ROOT
ATOM      1  C   UNL     1      22.919  -3.473  -0.708  1.00  0.00     0.230 C 
ENDROOT
BRANCH   1   2
ATOM      2  N   UNL     1      22.992  -2.970  -2.088  1.00  0.00    -0.350 N 
ATOM      3  H   UNL     1      22.904  -1.929  -2.084  1.00  0.00     0.345 HD
ATOM      4  H   UNL     1      23.899  -3.224  -2.542  1.00  0.00     0.345 HD
ATOM      5  H   UNL     1      22.201  -3.350  -2.658  1.00  0.00     0.345 HD
ENDBRANCH   1   2
BRANCH   1   6
ATOM      6  C   UNL     1      21.492  -3.783  -0.328  1.00  0.00     0.099 C 
ATOM      7  O   UNL     1      21.161  -4.964  -0.041  1.00  0.00    -0.544 OA
ATOM      8  O   UNL     1      20.543  -2.770  -0.242  1.00  0.00    -0.544 OA
ENDBRANCH   1   6
BRANCH   1   9
ATOM      9  C   UNL     1      23.573  -2.509   0.328  1.00  0.00     0.047 C 
ATOM     10  C   UNL     1      23.600  -1.041  -0.130  1.00  0.00     0.014 C 
ATOM     11  C   UNL     1      24.985  -2.966   0.724  1.00  0.00     0.014 C 
ENDBRANCH   1   9
TORSDOF 3
ENDMDL
MODEL 2
REMARK VINA RESULT:    -3.575      2.367      3.352
REMARK INTER + INTRA:          -4.137
REMARK INTER:                  -4.115
REMARK INTRA:                  -0.022
REMARK UNBOUND:                -0.039
REMARK SMILES CC(C)[C@H]([NH3+])C(=O)[O-]
REMARK SMILES IDX 4 1 5 2 6 6 7 7 8 8 2 9 1 10 3 11
REMARK H PARENT 5 3 5 4 5 5
REMARK Flexibility Score: inf
ROOT
ATOM      1  C   UNL     1      22.797  -2.959  -0.387  1.00  0.00     0.230 C 
ENDROOT
BRANCH   1   2
ATOM      2  N   UNL     1      23.011  -3.316  -1.798  1.00  0.00    -0.350 N 
ATOM      3  H   UNL     1      23.359  -4.300  -1.859  1.00  0.00     0.345 HD
ATOM      4  H   UNL     1      22.126  -3.243  -2.350  1.00  0.00     0.345 HD
ATOM      5  H   UNL     1      23.737  -2.698  -2.226  1.00  0.00     0.345 HD
ENDBRANCH   1   2
BRANCH   1   6
ATOM      6  C   UNL     1      24.037  -2.329   0.198  1.00  0.00     0.099 C 
ATOM      7  O   UNL     1      24.048  -1.099   0.468  1.00  0.00    -0.544 OA
ATOM      8  O   UNL     1      25.157  -3.101   0.488  1.00  0.00    -0.544 OA
ENDBRANCH   1   6
BRANCH   1   9
ATOM      9  C   UNL     1      22.323  -4.163   0.482  1.00  0.00     0.047 C 
ATOM     10  C   UNL     1      21.003  -4.787   0.000  1.00  0.00     0.014 C 
ATOM     11  C   UNL     1      22.222  -3.793   1.969  1.00  0.00     0.014 C 
ENDBRANCH   1   9
TORSDOF 3
ENDMDL
MODEL 3
REMARK VINA RESULT:    -3.303      2.265      3.341
REMARK INTER + INTRA:          -3.824
REMARK INTER:                  -3.816
REMARK INTRA:                  -0.008
REMARK UNBOUND:                -0.039
REMARK SMILES CC(C)[C@H]([NH3+])C(=O)[O-]
REMARK SMILES IDX 4 1 5 2 6 6 7 7 8 8 2 9 1 10 3 11
REMARK H PARENT 5 3 5 4 5 5
REMARK Flexibility Score: inf
ROOT
ATOM      1  C   UNL     1      22.822  -2.636  -0.545  1.00  0.00     0.230 C 
ENDROOT
BRANCH   1   2
ATOM      2  N   UNL     1      23.076  -3.392  -1.780  1.00  0.00    -0.350 N 
ATOM      3  H   UNL     1      24.016  -3.133  -2.160  1.00  0.00     0.345 HD
ATOM      4  H   UNL     1      23.062  -4.423  -1.609  1.00  0.00     0.345 HD
ATOM      5  H   UNL     1      22.366  -3.152  -2.509  1.00  0.00     0.345 HD
ENDBRANCH   1   2
BRANCH   1   6
ATOM      6  C   UNL     1      24.093  -2.470   0.251  1.00  0.00     0.099 C 
ATOM      7  O   UNL     1      24.932  -3.409   0.297  1.00  0.00    -0.544 OA
ATOM      8  O   UNL     1      24.376  -1.272   0.897  1.00  0.00    -0.544 OA
ENDBRANCH   1   6
BRANCH   1   9
ATOM      9  C   UNL     1      21.696  -3.262   0.332  1.00  0.00     0.047 C 
ATOM     10  C   UNL     1      21.826  -4.785   0.507  1.00  0.00     0.014 C 
ATOM     11  C   UNL     1      20.296  -2.908  -0.193  1.00  0.00     0.014 C 
ENDBRANCH   1   9
TORSDOF 3
ENDMDL
MODEL 4
REMARK VINA RESULT:    -3.219     15.634     16.741
REMARK INTER + INTRA:          -3.728
REMARK INTER:                  -3.683
REMARK INTRA:                  -0.045
REMARK UNBOUND:                -0.039
REMARK SMILES CC(C)[C@H]([NH3+])C(=O)[O-]
REMARK SMILES IDX 4 1 5 2 6 6 7 7 8 8 2 9 1 10 3 11
REMARK H PARENT 5 3 5 4 5 5
REMARK Flexibility Score: inf
ROOT
ATOM      1  C   UNL     1      34.390  -4.206  11.634  1.00  0.00     0.230 C 
ENDROOT
BRANCH   1   2
ATOM      2  N   UNL     1      34.668  -3.258  12.724  1.00  0.00    -0.350 N 
ATOM      3  H   UNL     1      34.635  -3.762  13.640  1.00  0.00     0.345 HD
ATOM      4  H   UNL     1      35.612  -2.821  12.621  1.00  0.00     0.345 HD
ATOM      5  H   UNL     1      33.940  -2.509  12.752  1.00  0.00     0.345 HD
ENDBRANCH   1   2
BRANCH   1   6
ATOM      6  C   UNL     1      33.143  -3.806  10.885  1.00  0.00     0.099 C 
ATOM      7  O   UNL     1      33.232  -3.368   9.707  1.00  0.00    -0.544 OA
ATOM      8  O   UNL     1      31.887  -3.960  11.461  1.00  0.00    -0.544 OA
ENDBRANCH   1   6
BRANCH   1   9
ATOM      9  C   UNL     1      34.296  -5.684  12.121  1.00  0.00     0.047 C 
ATOM     10  C   UNL     1      34.014  -5.820  13.626  1.00  0.00     0.014 C 
ATOM     11  C   UNL     1      35.545  -6.493  11.741  1.00  0.00     0.014 C 
ENDBRANCH   1   9
TORSDOF 3
ENDMDL
MODEL 5
REMARK VINA RESULT:    -3.213      2.279      2.713
REMARK INTER + INTRA:          -3.722
REMARK INTER:                  -3.656
REMARK INTRA:                  -0.066
REMARK UNBOUND:                -0.039
REMARK SMILES CC(C)[C@H]([NH3+])C(=O)[O-]
REMARK SMILES IDX 4 1 5 2 6 6 7 7 8 8 2 9 1 10 3 11
REMARK H PARENT 5 3 5 4 5 5
REMARK Flexibility Score: inf
ROOT
ATOM      1  C   UNL     1      24.400  -2.459   1.461  1.00  0.00     0.230 C 
ENDROOT
BRANCH   1   2
ATOM      2  N   UNL     1      25.663  -2.529   0.712  1.00  0.00    -0.350 N 
ATOM      3  H   UNL     1      26.347  -3.121   1.237  1.00  0.00     0.345 HD
ATOM      4  H   UNL     1      25.524  -2.947  -0.236  1.00  0.00     0.345 HD
ATOM      5  H   UNL     1      26.083  -1.577   0.612  1.00  0.00     0.345 HD
ENDBRANCH   1   2
BRANCH   1   6
ATOM      6  C   UNL     1      23.371  -3.384   0.860  1.00  0.00     0.099 C 
ATOM      7  O   UNL     1      22.358  -3.717   1.531  1.00  0.00    -0.544 OA
ATOM      8  O   UNL     1      23.501  -3.838  -0.448  1.00  0.00    -0.544 OA
ENDBRANCH   1   6
BRANCH   1   9
ATOM      9  C   UNL     1      23.841  -1.008   1.579  1.00  0.00     0.047 C 
ATOM     10  C   UNL     1      23.386  -0.413   0.237  1.00  0.00     0.014 C 
ATOM     11  C   UNL     1      24.839  -0.064   2.267  1.00  0.00     0.014 C 
ENDBRANCH   1   9
TORSDOF 3
ENDMDL
MODEL 6
REMARK VINA RESULT:    -3.193     15.856     16.757
REMARK INTER + INTRA:          -3.699
REMARK INTER:                  -3.671
REMARK INTRA:                  -0.028
REMARK UNBOUND:                -0.039
REMARK SMILES CC(C)[C@H]([NH3+])C(=O)[O-]
REMARK SMILES IDX 4 1 5 2 6 6 7 7 8 8 2 9 1 10 3 11
REMARK H PARENT 5 3 5 4 5 5
REMARK Flexibility Score: inf
ROOT
ATOM      1  C   UNL     1      33.831  -4.431  12.322  1.00  0.00     0.230 C 
ENDROOT
BRANCH   1   2
ATOM      2  N   UNL     1      34.722  -3.337  12.738  1.00  0.00    -0.350 N 
ATOM      3  H   UNL     1      34.157  -2.576  13.178  1.00  0.00     0.345 HD
ATOM      4  H   UNL     1      35.433  -3.664  13.431  1.00  0.00     0.345 HD
ATOM      5  H   UNL     1      35.210  -2.927  11.909  1.00  0.00     0.345 HD
ENDBRANCH   1   2
BRANCH   1   6
ATOM      6  C   UNL     1      34.629  -5.649  11.928  1.00  0.00     0.099 C 
ATOM      7  O   UNL     1      35.647  -5.975  12.594  1.00  0.00    -0.544 OA
ATOM      8  O   UNL     1      34.227  -6.448  10.863  1.00  0.00    -0.544 OA
ENDBRANCH   1   6
BRANCH   1   9
ATOM      9  C   UNL     1      32.849  -4.018  11.183  1.00  0.00     0.047 C 
ATOM     10  C   UNL     1      33.509  -3.182  10.074  1.00  0.00     0.014 C 
ATOM     11  C   UNL     1      31.612  -3.290  11.729  1.00  0.00     0.014 C 
ENDBRANCH   1   9
TORSDOF 3
ENDMDL
MODEL 7
REMARK VINA RESULT:    -3.183     14.806     15.309
REMARK INTER + INTRA:          -3.687
REMARK INTER:                  -3.740
REMARK INTRA:                   0.053
REMARK UNBOUND:                -0.039
REMARK SMILES CC(C)[C@H]([NH3+])C(=O)[O-]
REMARK SMILES IDX 4 1 5 2 6 6 7 7 8 8 2 9 1 10 3 11
REMARK H PARENT 5 3 5 4 5 5
REMARK Flexibility Score: inf
ROOT
ATOM      1  C   UNL     1      32.873  -3.533  10.000  1.00  0.00     0.230 C 
ENDROOT
BRANCH   1   2
ATOM      2  N   UNL     1      33.248  -4.326   8.820  1.00  0.00    -0.350 N 
ATOM      3  H   UNL     1      33.837  -3.744   8.183  1.00  0.00     0.345 HD
ATOM      4  H   UNL     1      33.792  -5.178   9.088  1.00  0.00     0.345 HD
ATOM      5  H   UNL     1      32.396  -4.613   8.287  1.00  0.00     0.345 HD
ENDBRANCH   1   2
BRANCH   1   6
ATOM      6  C   UNL     1      33.875  -3.722  11.112  1.00  0.00     0.099 C 
ATOM      7  O   UNL     1      34.361  -4.863  11.331  1.00  0.00    -0.544 OA
ATOM      8  O   UNL     1      34.309  -2.639  11.870  1.00  0.00    -0.544 OA
ENDBRANCH   1   6
BRANCH   1   9
ATOM      9  C   UNL     1      31.426  -3.830  10.501  1.00  0.00     0.047 C 
ATOM     10  C   UNL     1      31.119  -3.233  11.884  1.00  0.00     0.014 C 
ATOM     11  C   UNL     1      31.114  -5.334  10.492  1.00  0.00     0.014 C 
ENDBRANCH   1   9
TORSDOF 3
ENDMDL
MODEL 8
REMARK VINA RESULT:    -3.178     15.722     16.844
REMARK INTER + INTRA:          -3.681
REMARK INTER:                  -3.623
REMARK INTRA:                  -0.057
REMARK UNBOUND:                -0.039
REMARK SMILES CC(C)[C@H]([NH3+])C(=O)[O-]
REMARK SMILES IDX 4 1 5 2 6 6 7 7 8 8 2 9 1 10 3 11
REMARK H PARENT 5 3 5 4 5 5
REMARK Flexibility Score: inf
ROOT
ATOM      1  C   UNL     1      33.708  -4.929  11.329  1.00  0.00     0.230 C 
ENDROOT
BRANCH   1   2
ATOM      2  N   UNL     1      33.883  -5.769  10.135  1.00  0.00    -0.350 N 
ATOM      3  H   UNL     1      33.666  -5.207   9.280  1.00  0.00     0.345 HD
ATOM      4  H   UNL     1      34.863  -6.125  10.056  1.00  0.00     0.345 HD
ATOM      5  H   UNL     1      33.221  -6.578  10.156  1.00  0.00     0.345 HD
ENDBRANCH   1   2
BRANCH   1   6
ATOM      6  C   UNL     1      33.871  -3.470  10.985  1.00  0.00     0.099 C 
ATOM      7  O   UNL     1      34.280  -2.660  11.859  1.00  0.00    -0.544 OA
ATOM      8  O   UNL     1      33.622  -3.011   9.696  1.00  0.00    -0.544 OA
ENDBRANCH   1   6
BRANCH   1   9
ATOM      9  C   UNL     1      34.653  -5.333  12.502  1.00  0.00     0.047 C 
ATOM     10  C   UNL     1      35.615  -6.479  12.150  1.00  0.00     0.014 C 
ATOM     11  C   UNL     1      33.869  -5.672  13.779  1.00  0.00     0.014 C 
ENDBRANCH   1   9
TORSDOF 3
ENDMDL
MODEL 9
REMARK VINA RESULT:    -3.115      4.375      5.154
REMARK INTER + INTRA:          -3.610
REMARK INTER:                  -3.536
REMARK INTRA:                  -0.073
REMARK UNBOUND:                -0.039
REMARK SMILES CC(C)[C@H]([NH3+])C(=O)[O-]
REMARK SMILES IDX 4 1 5 2 6 6 7 7 8 8 2 9 1 10 3 11
REMARK H PARENT 5 3 5 4 5 5
REMARK Flexibility Score: inf
ROOT
ATOM      1  C   UNL     1      25.624  -0.845   1.837  1.00  0.00     0.230 C 
ENDROOT
BRANCH   1   2
ATOM      2  N   UNL     1      26.761  -1.478   2.522  1.00  0.00    -0.350 N 
ATOM      3  H   UNL     1      26.686  -1.306   3.551  1.00  0.00     0.345 HD
ATOM      4  H   UNL     1      26.779  -2.511   2.360  1.00  0.00     0.345 HD
ATOM      5  H   UNL     1      27.662  -1.061   2.198  1.00  0.00     0.345 HD
ENDBRANCH   1   2
BRANCH   1   6
ATOM      6  C   UNL     1      25.169   0.385   2.583  1.00  0.00     0.099 C 
ATOM      7  O   UNL     1      25.640   0.638   3.724  1.00  0.00    -0.544 OA
ATOM      8  O   UNL     1      24.268   1.274   2.006  1.00  0.00    -0.544 OA
ENDBRANCH   1   6
BRANCH   1   9
ATOM      9  C   UNL     1      24.433  -1.822   1.599  1.00  0.00     0.047 C 
ATOM     10  C   UNL     1      23.824  -2.378   2.897  1.00  0.00     0.014 C 
ATOM     11  C   UNL     1      24.817  -2.975   0.658  1.00  0.00     0.014 C 
ENDBRANCH   1   9
TORSDOF 3
ENDMDL
