MODEL 1
REMARK VINA RESULT:    -3.671      0.000      0.000
REMARK INTER + INTRA:          -4.118
REMARK INTER:                  -3.993
REMARK INTRA:                  -0.125
REMARK UNBOUND:                -0.125
REMARK SMILES Cc1ccc(C(C)C)cc1O
REMARK SMILES IDX 1 1 2 2 10 3 9 4 5 5 4 6 3 7 11 8 6 10 7 11 8 12
REMARK H PARENT 11 9
REMARK Flexibility Score: inf
ROOT
ATOM      1  C   UNL     1     113.433 107.184 106.580  1.00  0.00     0.048 C 
ATOM      2  C   UNL     1     112.842 108.410 105.944  1.00  0.00    -0.009 A 
ATOM      3  C   UNL     1     113.155 108.739 104.613  1.00  0.00     0.118 A 
ATOM      4  C   UNL     1     112.601 109.885 104.025  1.00  0.00     0.050 A 
ATOM      5  C   UNL     1     111.730 110.715 104.753  1.00  0.00    -0.042 A 
ATOM      6  C   UNL     1     111.423 110.378 106.084  1.00  0.00     0.004 A 
ATOM      7  C   UNL     1     111.974 109.237 106.672  1.00  0.00     0.007 A 
ENDROOT
BRANCH   3   8
ATOM      8  O   UNL     1     114.017 107.925 103.877  1.00  0.00    -0.508 OA
ATOM      9  H   UNL     1     113.865 106.927 103.796  1.00  0.00     0.293 HD
ENDBRANCH   3   8
BRANCH   5  10
ATOM     10  C   UNL     1     111.139 111.951 104.101  1.00  0.00     0.013 C 
ATOM     11  C   UNL     1     109.707 112.201 104.588  1.00  0.00     0.012 C 
ATOM     12  C   UNL     1     112.025 113.179 104.340  1.00  0.00     0.012 C 
ENDBRANCH   5  10
TORSDOF 2
ENDMDL
MODEL 2
REMARK VINA RESULT:    -3.649      4.399      6.063
REMARK INTER + INTRA:          -4.095
REMARK INTER:                  -3.970
REMARK INTRA:                  -0.125
REMARK UNBOUND:                -0.125
REMARK SMILES Cc1ccc(C(C)C)cc1O
REMARK SMILES IDX 1 1 2 2 10 3 9 4 5 5 4 6 3 7 11 8 6 10 7 11 8 12
REMARK H PARENT 11 9
REMARK Flexibility Score: inf
ROOT
ATOM      1  C   UNL     1     106.972 112.798 106.579  1.00  0.00     0.048 C 
ATOM      2  C   UNL     1     107.404 111.517 105.923  1.00  0.00    -0.009 A 
ATOM      3  C   UNL     1     107.012 111.229 104.604  1.00  0.00     0.118 A 
ATOM      4  C   UNL     1     107.418 110.032 103.998  1.00  0.00     0.050 A 
ATOM      5  C   UNL     1     108.216 109.109 104.696  1.00  0.00    -0.042 A 
ATOM      6  C   UNL     1     108.603 109.404 106.015  1.00  0.00     0.004 A 
ATOM      7  C   UNL     1     108.200 110.597 106.622  1.00  0.00     0.007 A 
ENDROOT
BRANCH   3   8
ATOM      8  O   UNL     1     106.220 112.136 103.898  1.00  0.00    -0.508 OA
ATOM      9  H   UNL     1     105.222 112.200 104.052  1.00  0.00     0.293 HD
ENDBRANCH   3   8
BRANCH   5  10
ATOM     10  C   UNL     1     108.646 107.818 104.024  1.00  0.00     0.013 C 
ATOM     11  C   UNL     1     110.170 107.753 103.876  1.00  0.00     0.012 C 
ATOM     12  C   UNL     1     108.113 106.596 104.782  1.00  0.00     0.012 C 
ENDBRANCH   5  10
TORSDOF 2
ENDMDL
MODEL 3
REMARK VINA RESULT:    -3.644      3.452      4.210
REMARK INTER + INTRA:          -4.089
REMARK INTER:                  -3.963
REMARK INTRA:                  -0.125
REMARK UNBOUND:                -0.125
REMARK SMILES Cc1ccc(C(C)C)cc1O
REMARK SMILES IDX 1 1 2 2 10 3 9 4 5 5 4 6 3 7 11 8 6 10 7 11 8 12
REMARK H PARENT 11 9
REMARK Flexibility Score: inf
ROOT
ATOM      1  C   UNL     1     112.991 113.418 106.564  1.00  0.00     0.048 C 
ATOM      2  C   UNL     1     111.810 112.796 105.874  1.00  0.00    -0.009 A 
ATOM      3  C   UNL     1     111.477 113.174 104.561  1.00  0.00     0.118 A 
ATOM      4  C   UNL     1     110.374 112.589 103.923  1.00  0.00     0.050 A 
ATOM      5  C   UNL     1     109.592 111.623 104.581  1.00  0.00    -0.042 A 
ATOM      6  C   UNL     1     109.933 111.252 105.894  1.00  0.00     0.004 A 
ATOM      7  C   UNL     1     111.032 111.833 106.533  1.00  0.00     0.007 A 
ENDROOT
BRANCH   3   8
ATOM      8  O   UNL     1     112.243 114.130 103.894  1.00  0.00    -0.508 OA
ATOM      9  H   UNL     1     112.675 113.934 102.999  1.00  0.00     0.293 HD
ENDBRANCH   3   8
BRANCH   5  10
ATOM     10  C   UNL     1     108.402 111.002 103.875  1.00  0.00     0.013 C 
ATOM     11  C   UNL     1     108.094 109.608 104.436  1.00  0.00     0.012 C 
ATOM     12  C   UNL     1     107.172 111.913 103.957  1.00  0.00     0.012 C 
ENDBRANCH   5  10
TORSDOF 2
ENDMDL
MODEL 4
REMARK VINA RESULT:    -3.633      3.697      4.377
REMARK INTER + INTRA:          -4.077
REMARK INTER:                  -3.952
REMARK INTRA:                  -0.126
REMARK UNBOUND:                -0.125
REMARK SMILES Cc1ccc(C(C)C)cc1O
REMARK SMILES IDX 1 1 2 2 10 3 9 4 5 5 4 6 3 7 11 8 6 10 7 11 8 12
REMARK H PARENT 11 9
REMARK Flexibility Score: inf
ROOT
ATOM      1  C   UNL     1     107.030 106.632 106.564  1.00  0.00     0.048 C 
ATOM      2  C   UNL     1     108.240 107.239 105.914  1.00  0.00    -0.009 A 
ATOM      3  C   UNL     1     108.577 106.904 104.590  1.00  0.00     0.118 A 
ATOM      4  C   UNL     1     109.709 107.474 103.990  1.00  0.00     0.050 A 
ATOM      5  C   UNL     1     110.516 108.382 104.697  1.00  0.00    -0.042 A 
ATOM      6  C   UNL     1     110.173 108.710 106.021  1.00  0.00     0.004 A 
ATOM      7  C   UNL     1     109.045 108.144 106.622  1.00  0.00     0.007 A 
ENDROOT
BRANCH   3   8
ATOM      8  O   UNL     1     107.785 106.006 103.875  1.00  0.00    -0.508 OA
ATOM      9  H   UNL     1     107.000 105.531 104.305  1.00  0.00     0.293 HD
ENDBRANCH   3   8
BRANCH   5  10
ATOM     10  C   UNL     1     111.737 108.988 104.032  1.00  0.00     0.013 C 
ATOM     11  C   UNL     1     112.031 110.387 104.587  1.00  0.00     0.012 C 
ATOM     12  C   UNL     1     112.958 108.071 104.173  1.00  0.00     0.012 C 
ENDBRANCH   5  10
TORSDOF 2
ENDMDL
MODEL 5
REMARK VINA RESULT:    -3.437      9.678     10.672
REMARK INTER + INTRA:          -3.864
REMARK INTER:                  -3.738
REMARK INTRA:                  -0.126
REMARK UNBOUND:                -0.125
REMARK SMILES Cc1ccc(C(C)C)cc1O
REMARK SMILES IDX 1 1 2 2 10 3 9 4 5 5 4 6 3 7 11 8 6 10 7 11 8 12
REMARK H PARENT 11 9
REMARK Flexibility Score: inf
ROOT
ATOM      1  C   UNL     1     101.323 103.077 108.852  1.00  0.00     0.048 C 
ATOM      2  C   UNL     1     102.574 103.904 108.770  1.00  0.00    -0.009 A 
ATOM      3  C   UNL     1     102.511 105.245 108.350  1.00  0.00     0.118 A 
ATOM      4  C   UNL     1     103.683 106.011 108.275  1.00  0.00     0.050 A 
ATOM      5  C   UNL     1     104.928 105.455 108.618  1.00  0.00    -0.042 A 
ATOM      6  C   UNL     1     104.981 104.114 109.037  1.00  0.00     0.004 A 
ATOM      7  C   UNL     1     103.816 103.347 109.113  1.00  0.00     0.007 A 
ENDROOT
BRANCH   3   8
ATOM      8  O   UNL     1     101.283 105.811 108.007  1.00  0.00    -0.508 OA
ATOM      9  H   UNL     1     100.412 105.457 108.382  1.00  0.00     0.293 HD
ENDBRANCH   3   8
BRANCH   5  10
ATOM     10  C   UNL     1     106.185 106.300 108.531  1.00  0.00     0.013 C 
ATOM     11  C   UNL     1     107.289 105.741 109.437  1.00  0.00     0.012 C 
ATOM     12  C   UNL     1     106.671 106.422 107.082  1.00  0.00     0.012 C 
ENDBRANCH   5  10
TORSDOF 2
ENDMDL
MODEL 6
REMARK VINA RESULT:    -3.409      6.731      7.886
REMARK INTER + INTRA:          -3.833
REMARK INTER:                  -3.707
REMARK INTRA:                  -0.126
REMARK UNBOUND:                -0.125
REMARK SMILES Cc1ccc(C(C)C)cc1O
REMARK SMILES IDX 1 1 2 2 10 3 9 4 5 5 4 6 3 7 11 8 6 10 7 11 8 12
REMARK H PARENT 11 9
REMARK Flexibility Score: inf
ROOT
ATOM      1  C   UNL     1     118.872 116.975 108.852  1.00  0.00     0.048 C 
ATOM      2  C   UNL     1     117.628 116.135 108.789  1.00  0.00    -0.009 A 
ATOM      3  C   UNL     1     117.702 114.788 108.391  1.00  0.00     0.118 A 
ATOM      4  C   UNL     1     116.537 114.010 108.333  1.00  0.00     0.050 A 
ATOM      5  C   UNL     1     115.288 114.561 108.670  1.00  0.00    -0.042 A 
ATOM      6  C   UNL     1     115.224 115.909 109.066  1.00  0.00     0.004 A 
ATOM      7  C   UNL     1     116.383 116.687 109.125  1.00  0.00     0.007 A 
ENDROOT
BRANCH   3   8
ATOM      8  O   UNL     1     118.934 114.227 108.055  1.00  0.00    -0.508 OA
ATOM      9  H   UNL     1     119.720 114.800 107.775  1.00  0.00     0.293 HD
ENDBRANCH   3   8
BRANCH   5  10
ATOM     10  C   UNL     1     114.038 113.704 108.602  1.00  0.00     0.013 C 
ATOM     11  C   UNL     1     112.939 114.257 109.518  1.00  0.00     0.012 C 
ATOM     12  C   UNL     1     113.537 113.570 107.159  1.00  0.00     0.012 C 
ENDBRANCH   5  10
TORSDOF 2
ENDMDL
MODEL 7
REMARK VINA RESULT:    -3.405      5.187      7.539
REMARK INTER + INTRA:          -3.829
REMARK INTER:                  -3.703
REMARK INTRA:                  -0.126
REMARK UNBOUND:                -0.125
REMARK SMILES Cc1ccc(C(C)C)cc1O
REMARK SMILES IDX 1 1 2 2 10 3 9 4 5 5 4 6 3 7 11 8 6 10 7 11 8 12
REMARK H PARENT 11 9
REMARK Flexibility Score: inf
ROOT
ATOM      1  C   UNL     1     116.865 101.341 108.949  1.00  0.00     0.048 C 
ATOM      2  C   UNL     1     116.031 102.584 108.825  1.00  0.00    -0.009 A 
ATOM      3  C   UNL     1     114.710 102.506 108.348  1.00  0.00     0.118 A 
ATOM      4  C   UNL     1     113.937 103.670 108.234  1.00  0.00     0.050 A 
ATOM      5  C   UNL     1     114.467 104.922 108.592  1.00  0.00    -0.042 A 
ATOM      6  C   UNL     1     115.789 104.991 109.066  1.00  0.00     0.004 A 
ATOM      7  C   UNL     1     116.562 103.832 109.182  1.00  0.00     0.007 A 
ENDROOT
BRANCH   3   8
ATOM      8  O   UNL     1     114.170 101.271 107.990  1.00  0.00    -0.508 OA
ATOM      9  H   UNL     1     114.750 100.518 107.641  1.00  0.00     0.293 HD
ENDBRANCH   3   8
BRANCH   5  10
ATOM     10  C   UNL     1     113.616 106.171 108.461  1.00  0.00     0.013 C 
ATOM     11  C   UNL     1     114.090 107.265 109.425  1.00  0.00     0.012 C 
ATOM     12  C   UNL     1     113.598 106.680 107.015  1.00  0.00     0.012 C 
ENDBRANCH   5  10
TORSDOF 2
ENDMDL
MODEL 8
REMARK VINA RESULT:    -3.346      8.422     10.925
REMARK INTER + INTRA:          -3.765
REMARK INTER:                  -3.639
REMARK INTRA:                  -0.126
REMARK UNBOUND:                -0.125
REMARK SMILES Cc1ccc(C(C)C)cc1O
REMARK SMILES IDX 1 1 2 2 10 3 9 4 5 5 4 6 3 7 11 8 6 10 7 11 8 12
REMARK H PARENT 11 9
REMARK Flexibility Score: inf
ROOT
ATOM      1  C   UNL     1     103.134 118.947 108.859  1.00  0.00     0.048 C 
ATOM      2  C   UNL     1     103.960 117.693 108.813  1.00  0.00    -0.009 A 
ATOM      3  C   UNL     1     105.308 117.746 108.415  1.00  0.00     0.118 A 
ATOM      4  C   UNL     1     106.073 116.572 108.374  1.00  0.00     0.050 A 
ATOM      5  C   UNL     1     105.508 115.334 108.727  1.00  0.00    -0.042 A 
ATOM      6  C   UNL     1     104.158 115.290 109.122  1.00  0.00     0.004 A 
ATOM      7  C   UNL     1     103.394 116.459 109.165  1.00  0.00     0.007 A 
ENDROOT
BRANCH   3   8
ATOM      8  O   UNL     1     105.884 118.967 108.063  1.00  0.00    -0.508 OA
ATOM      9  H   UNL     1     106.872 119.048 107.856  1.00  0.00     0.293 HD
ENDBRANCH   3   8
BRANCH   5  10
ATOM     10  C   UNL     1     106.350 114.073 108.675  1.00  0.00     0.013 C 
ATOM     11  C   UNL     1     105.708 112.947 109.493  1.00  0.00     0.012 C 
ATOM     12  C   UNL     1     106.598 113.632 107.228  1.00  0.00     0.012 C 
ENDBRANCH   5  10
TORSDOF 2
ENDMDL
MODEL 9
REMARK VINA RESULT:    -3.322      2.858      4.240
REMARK INTER + INTRA:          -3.739
REMARK INTER:                  -3.613
REMARK INTRA:                  -0.125
REMARK UNBOUND:                -0.125
REMARK SMILES Cc1ccc(C(C)C)cc1O
REMARK SMILES IDX 1 1 2 2 10 3 9 4 5 5 4 6 3 7 11 8 6 10 7 11 8 12
REMARK H PARENT 11 9
REMARK Flexibility Score: inf
ROOT
ATOM      1  C   UNL     1     112.939 113.750 108.377  1.00  0.00     0.048 C 
ATOM      2  C   UNL     1     112.604 112.688 107.369  1.00  0.00    -0.009 A 
ATOM      3  C   UNL     1     112.457 113.021 106.011  1.00  0.00     0.118 A 
ATOM      4  C   UNL     1     112.145 112.025 105.075  1.00  0.00     0.050 A 
ATOM      5  C   UNL     1     111.976 110.689 105.478  1.00  0.00    -0.042 A 
ATOM      6  C   UNL     1     112.124 110.365 106.838  1.00  0.00     0.004 A 
ATOM      7  C   UNL     1     112.436 111.355 107.773  1.00  0.00     0.007 A 
ENDROOT
BRANCH   3   8
ATOM      8  O   UNL     1     112.622 114.343 105.595  1.00  0.00    -0.508 OA
ATOM      9  H   UNL     1     112.775 115.093 106.258  1.00  0.00     0.293 HD
ENDBRANCH   3   8
BRANCH   5  10
ATOM     10  C   UNL     1     111.638 109.624 104.451  1.00  0.00     0.013 C 
ATOM     11  C   UNL     1     112.908 108.977 103.888  1.00  0.00     0.012 C 
ATOM     12  C   UNL     1     110.694 108.569 105.039  1.00  0.00     0.012 C 
ENDBRANCH   5  10
TORSDOF 2
ENDMDL
