MODEL 1
REMARK VINA RESULT:    -3.613      0.000      0.000
REMARK INTER + INTRA:          -4.928
REMARK INTER:                  -4.775
REMARK INTRA:                  -0.154
REMARK UNBOUND:                -0.154
REMARK SMILES CCCCCCCO
REMARK SMILES IDX 5 1 4 2 3 3 2 4 1 5 6 6 7 7 8 8
REMARK H PARENT 8 9
REMARK Flexibility Score: inf
ROOT
ATOM      1  C   UNL     1     180.276 168.094 183.008  1.00  0.00     0.002 C 
ENDROOT
BRANCH   1   2
ATOM      2  C   UNL     1     178.897 168.554 183.498  1.00  0.00     0.000 C 
BRANCH   2   3
ATOM      3  C   UNL     1     178.734 168.300 185.004  1.00  0.00    -0.000 C 
BRANCH   3   4
ATOM      4  C   UNL     1     177.567 169.091 185.614  1.00  0.00    -0.003 C 
ATOM      5  C   UNL     1     178.033 170.287 186.443  1.00  0.00     0.004 C 
ENDBRANCH   3   4
ENDBRANCH   2   3
ENDBRANCH   1   2
BRANCH   1   6
ATOM      6  C   UNL     1     180.739 166.842 183.762  1.00  0.00     0.028 C 
BRANCH   6   7
ATOM      7  C   UNL     1     180.846 165.639 182.823  1.00  0.00     0.156 C 
BRANCH   7   8
ATOM      8  O   UNL     1     179.947 164.637 183.213  1.00  0.00    -0.396 OA
ATOM      9  H   UNL     1     180.384 164.135 183.950  1.00  0.00     0.210 HD
ENDBRANCH   7   8
ENDBRANCH   6   7
ENDBRANCH   1   6
TORSDOF 6
ENDMDL
MODEL 2
REMARK VINA RESULT:    -3.567     15.599     17.412
REMARK INTER + INTRA:          -4.868
REMARK INTER:                  -4.739
REMARK INTRA:                  -0.129
REMARK UNBOUND:                -0.154
REMARK SMILES CCCCCCCO
REMARK SMILES IDX 5 1 4 2 3 3 2 4 1 5 6 6 7 7 8 8
REMARK H PARENT 8 9
REMARK Flexibility Score: inf
ROOT
ATOM      1  C   UNL     1     163.887 176.905 183.639  1.00  0.00     0.002 C 
ENDROOT
BRANCH   1   2
ATOM      2  C   UNL     1     165.233 176.172 183.686  1.00  0.00     0.000 C 
BRANCH   2   3
ATOM      3  C   UNL     1     165.811 176.174 185.110  1.00  0.00    -0.000 C 
BRANCH   3   4
ATOM      4  C   UNL     1     166.822 175.040 185.338  1.00  0.00    -0.003 C 
ATOM      5  C   UNL     1     166.243 173.887 186.157  1.00  0.00     0.004 C 
ENDBRANCH   3   4
ENDBRANCH   2   3
ENDBRANCH   1   2
BRANCH   1   6
ATOM      6  C   UNL     1     163.816 177.853 182.437  1.00  0.00     0.028 C 
BRANCH   6   7
ATOM      7  C   UNL     1     165.006 178.816 182.421  1.00  0.00     0.156 C 
BRANCH   7   8
ATOM      8  O   UNL     1     164.697 179.982 183.134  1.00  0.00    -0.396 OA
ATOM      9  H   UNL     1     165.369 180.663 182.870  1.00  0.00     0.210 HD
ENDBRANCH   7   8
ENDBRANCH   6   7
ENDBRANCH   1   6
TORSDOF 6
ENDMDL
MODEL 3
REMARK VINA RESULT:    -3.530     15.325     17.182
REMARK INTER + INTRA:          -4.818
REMARK INTER:                  -4.714
REMARK INTRA:                  -0.104
REMARK UNBOUND:                -0.154
REMARK SMILES CCCCCCCO
REMARK SMILES IDX 5 1 4 2 3 3 2 4 1 5 6 6 7 7 8 8
REMARK H PARENT 8 9
REMARK Flexibility Score: inf
ROOT
ATOM      1  C   UNL     1     164.538 176.743 183.913  1.00  0.00     0.002 C 
ENDROOT
BRANCH   1   2
ATOM      2  C   UNL     1     165.689 175.747 184.101  1.00  0.00     0.000 C 
BRANCH   2   3
ATOM      3  C   UNL     1     166.193 175.755 185.552  1.00  0.00    -0.000 C 
BRANCH   3   4
ATOM      4  C   UNL     1     166.375 174.341 186.123  1.00  0.00    -0.003 C 
ATOM      5  C   UNL     1     166.513 173.278 185.034  1.00  0.00     0.004 C 
ENDBRANCH   3   4
ENDBRANCH   2   3
ENDBRANCH   1   2
BRANCH   1   6
ATOM      6  C   UNL     1     164.786 177.651 182.703  1.00  0.00     0.028 C 
BRANCH   6   7
ATOM      7  C   UNL     1     163.945 178.927 182.787  1.00  0.00     0.156 C 
BRANCH   7   8
ATOM      8  O   UNL     1     164.744 180.011 183.175  1.00  0.00    -0.396 OA
ATOM      9  H   UNL     1     164.368 180.349 184.030  1.00  0.00     0.210 HD
ENDBRANCH   7   8
ENDBRANCH   6   7
ENDBRANCH   1   6
TORSDOF 6
ENDMDL
MODEL 4
REMARK VINA RESULT:    -3.482      1.590      2.351
REMARK INTER + INTRA:          -4.755
REMARK INTER:                  -4.611
REMARK INTRA:                  -0.143
REMARK UNBOUND:                -0.154
REMARK SMILES CCCCCCCO
REMARK SMILES IDX 5 1 4 2 3 3 2 4 1 5 6 6 7 7 8 8
REMARK H PARENT 8 9
REMARK Flexibility Score: inf
ROOT
ATOM      1  C   UNL     1     178.615 168.888 184.323  1.00  0.00     0.002 C 
ENDROOT
BRANCH   1   2
ATOM      2  C   UNL     1     178.011 168.803 185.730  1.00  0.00     0.000 C 
BRANCH   2   3
ATOM      3  C   UNL     1     178.005 170.181 186.411  1.00  0.00    -0.000 C 
BRANCH   3   4
ATOM      4  C   UNL     1     176.613 170.830 186.419  1.00  0.00    -0.003 C 
ATOM      5  C   UNL     1     176.477 171.950 185.388  1.00  0.00     0.004 C 
ENDBRANCH   3   4
ENDBRANCH   2   3
ENDBRANCH   1   2
BRANCH   1   6
ATOM      6  C   UNL     1     179.157 167.527 183.872  1.00  0.00     0.028 C 
BRANCH   6   7
ATOM      7  C   UNL     1     180.687 167.521 183.847  1.00  0.00     0.156 C 
BRANCH   7   8
ATOM      8  O   UNL     1     181.187 166.734 184.893  1.00  0.00    -0.396 OA
ATOM      9  H   UNL     1     180.475 166.696 185.584  1.00  0.00     0.210 HD
ENDBRANCH   7   8
ENDBRANCH   6   7
ENDBRANCH   1   6
TORSDOF 6
ENDMDL
MODEL 5
REMARK VINA RESULT:    -3.367     15.126     16.851
REMARK INTER + INTRA:          -4.603
REMARK INTER:                  -4.421
REMARK INTRA:                  -0.183
REMARK UNBOUND:                -0.154
REMARK SMILES CCCCCCCO
REMARK SMILES IDX 5 1 4 2 3 3 2 4 1 5 6 6 7 7 8 8
REMARK H PARENT 8 9
REMARK Flexibility Score: inf
ROOT
ATOM      1  C   UNL     1     165.527 175.822 184.199  1.00  0.00     0.002 C 
ENDROOT
BRANCH   1   2
ATOM      2  C   UNL     1     164.387 176.847 184.249  1.00  0.00     0.000 C 
BRANCH   2   3
ATOM      3  C   UNL     1     163.673 176.942 182.893  1.00  0.00    -0.000 C 
BRANCH   3   4
ATOM      4  C   UNL     1     164.460 177.772 181.867  1.00  0.00    -0.003 C 
ATOM      5  C   UNL     1     164.973 179.091 182.443  1.00  0.00     0.004 C 
ENDBRANCH   3   4
ENDBRANCH   2   3
ENDBRANCH   1   2
BRANCH   1   6
ATOM      6  C   UNL     1     166.389 175.893 185.465  1.00  0.00     0.028 C 
BRANCH   6   7
ATOM      7  C   UNL     1     166.709 174.493 185.995  1.00  0.00     0.156 C 
BRANCH   7   8
ATOM      8  O   UNL     1     165.534 173.850 186.406  1.00  0.00    -0.396 OA
ATOM      9  H   UNL     1     165.751 173.375 187.251  1.00  0.00     0.210 HD
ENDBRANCH   7   8
ENDBRANCH   6   7
ENDBRANCH   1   6
TORSDOF 6
ENDMDL
MODEL 6
REMARK VINA RESULT:    -3.333      2.634      4.674
REMARK INTER + INTRA:          -4.558
REMARK INTER:                  -4.420
REMARK INTRA:                  -0.138
REMARK UNBOUND:                -0.154
REMARK SMILES CCCCCCCO
REMARK SMILES IDX 5 1 4 2 3 3 2 4 1 5 6 6 7 7 8 8
REMARK H PARENT 8 9
REMARK Flexibility Score: inf
ROOT
ATOM      1  C   UNL     1     178.613 169.041 183.849  1.00  0.00     0.002 C 
ENDROOT
BRANCH   1   2
ATOM      2  C   UNL     1     179.502 168.037 183.104  1.00  0.00     0.000 C 
BRANCH   2   3
ATOM      3  C   UNL     1     180.545 167.420 184.047  1.00  0.00    -0.000 C 
BRANCH   3   4
ATOM      4  C   UNL     1     181.076 166.071 183.539  1.00  0.00    -0.003 C 
ATOM      5  C   UNL     1     181.774 165.261 184.632  1.00  0.00     0.004 C 
ENDBRANCH   3   4
ENDBRANCH   2   3
ENDBRANCH   1   2
BRANCH   1   6
ATOM      6  C   UNL     1     178.346 168.580 185.287  1.00  0.00     0.028 C 
BRANCH   6   7
ATOM      7  C   UNL     1     177.690 169.691 186.110  1.00  0.00     0.156 C 
BRANCH   7   8
ATOM      8  O   UNL     1     178.669 170.461 186.753  1.00  0.00    -0.396 OA
ATOM      9  H   UNL     1     178.771 171.292 186.219  1.00  0.00     0.210 HD
ENDBRANCH   7   8
ENDBRANCH   6   7
ENDBRANCH   1   6
TORSDOF 6
ENDMDL
MODEL 7
REMARK VINA RESULT:    -3.327      3.661      5.716
REMARK INTER + INTRA:          -4.551
REMARK INTER:                  -4.411
REMARK INTRA:                  -0.140
REMARK UNBOUND:                -0.154
REMARK SMILES CCCCCCCO
REMARK SMILES IDX 5 1 4 2 3 3 2 4 1 5 6 6 7 7 8 8
REMARK H PARENT 8 9
REMARK Flexibility Score: inf
ROOT
ATOM      1  C   UNL     1     177.205 170.631 185.182  1.00  0.00     0.002 C 
ENDROOT
BRANCH   1   2
ATOM      2  C   UNL     1     177.982 169.720 186.140  1.00  0.00     0.000 C 
BRANCH   2   3
ATOM      3  C   UNL     1     178.170 168.320 185.538  1.00  0.00    -0.000 C 
BRANCH   3   4
ATOM      4  C   UNL     1     178.960 168.344 184.221  1.00  0.00    -0.003 C 
ATOM      5  C   UNL     1     180.225 167.489 184.275  1.00  0.00     0.004 C 
ENDBRANCH   3   4
ENDBRANCH   2   3
ENDBRANCH   1   2
BRANCH   1   6
ATOM      6  C   UNL     1     176.295 171.595 185.952  1.00  0.00     0.028 C 
BRANCH   6   7
ATOM      7  C   UNL     1     174.927 170.965 186.224  1.00  0.00     0.156 C 
BRANCH   7   8
ATOM      8  O   UNL     1     174.660 170.960 187.599  1.00  0.00    -0.396 OA
ATOM      9  H   UNL     1     173.777 171.397 187.719  1.00  0.00     0.210 HD
ENDBRANCH   7   8
ENDBRANCH   6   7
ENDBRANCH   1   6
TORSDOF 6
ENDMDL
MODEL 8
REMARK VINA RESULT:    -3.325     13.310     15.049
REMARK INTER + INTRA:          -4.548
REMARK INTER:                  -4.431
REMARK INTRA:                  -0.116
REMARK UNBOUND:                -0.154
REMARK SMILES CCCCCCCO
REMARK SMILES IDX 5 1 4 2 3 3 2 4 1 5 6 6 7 7 8 8
REMARK H PARENT 8 9
REMARK Flexibility Score: inf
ROOT
ATOM      1  C   UNL     1     166.454 173.959 185.785  1.00  0.00     0.002 C 
ENDROOT
BRANCH   1   2
ATOM      2  C   UNL     1     166.316 175.467 185.541  1.00  0.00     0.000 C 
BRANCH   2   3
ATOM      3  C   UNL     1     165.669 175.746 184.176  1.00  0.00    -0.000 C 
BRANCH   3   4
ATOM      4  C   UNL     1     164.497 176.735 184.269  1.00  0.00    -0.003 C 
ATOM      5  C   UNL     1     163.675 176.799 182.983  1.00  0.00     0.004 C 
ENDBRANCH   3   4
ENDBRANCH   2   3
ENDBRANCH   1   2
BRANCH   1   6
ATOM      6  C   UNL     1     167.902 173.585 186.122  1.00  0.00     0.028 C 
BRANCH   6   7
ATOM      7  C   UNL     1     168.867 174.084 185.045  1.00  0.00     0.156 C 
BRANCH   7   8
ATOM      8  O   UNL     1     169.823 174.940 185.608  1.00  0.00    -0.396 OA
ATOM      9  H   UNL     1     170.276 175.396 184.851  1.00  0.00     0.210 HD
ENDBRANCH   7   8
ENDBRANCH   6   7
ENDBRANCH   1   6
TORSDOF 6
ENDMDL
MODEL 9
REMARK VINA RESULT:    -3.264     13.705     15.605
REMARK INTER + INTRA:          -4.467
REMARK INTER:                  -4.199
REMARK INTRA:                  -0.268
REMARK UNBOUND:                -0.154
REMARK SMILES CCCCCCCO
REMARK SMILES IDX 5 1 4 2 3 3 2 4 1 5 6 6 7 7 8 8
REMARK H PARENT 8 9
REMARK Flexibility Score: inf
ROOT
ATOM      1  C   UNL     1     165.974 175.800 185.462  1.00  0.00     0.002 C 
ENDROOT
BRANCH   1   2
ATOM      2  C   UNL     1     166.266 174.476 186.180  1.00  0.00     0.000 C 
BRANCH   2   3
ATOM      3  C   UNL     1     166.483 173.339 185.170  1.00  0.00    -0.000 C 
BRANCH   3   4
ATOM      4  C   UNL     1     167.809 172.597 185.393  1.00  0.00    -0.003 C 
ATOM      5  C   UNL     1     169.017 173.533 185.398  1.00  0.00     0.004 C 
ENDBRANCH   3   4
ENDBRANCH   2   3
ENDBRANCH   1   2
BRANCH   1   6
ATOM      6  C   UNL     1     165.670 175.568 183.978  1.00  0.00     0.028 C 
BRANCH   6   7
ATOM      7  C   UNL     1     164.601 176.540 183.474  1.00  0.00     0.156 C 
BRANCH   7   8
ATOM      8  O   UNL     1     164.012 177.216 184.551  1.00  0.00    -0.396 OA
ATOM      9  H   UNL     1     164.670 177.193 185.295  1.00  0.00     0.210 HD
ENDBRANCH   7   8
ENDBRANCH   6   7
ENDBRANCH   1   6
TORSDOF 6
ENDMDL
