MODEL 1
REMARK VINA RESULT:    -3.479      0.000      0.000
REMARK INTER + INTRA:          -4.125
REMARK INTER:                  -4.089
REMARK INTRA:                  -0.036
REMARK UNBOUND:                -0.036
REMARK SMILES O=C([O-])CCC(=O)[O-]
REMARK SMILES IDX 4 1 2 2 1 3 3 4 5 5 6 6 7 7 8 8
REMARK H PARENT
REMARK Flexibility Score: inf
ROOT
ATOM      1  C   UNL     1      -9.153   3.161   6.834  1.00  0.00     0.059 C 
ENDROOT
BRANCH   1   2
ATOM      2  C   UNL     1      -9.561   1.721   6.829  1.00  0.00     0.042 C 
ATOM      3  O   UNL     1     -10.125   1.219   7.836  1.00  0.00    -0.550 OA
ATOM      4  O   UNL     1      -9.362   0.946   5.693  1.00  0.00    -0.550 OA
ENDBRANCH   1   2
BRANCH   1   5
ATOM      5  C   UNL     1      -9.365   3.772   8.221  1.00  0.00     0.059 C 
BRANCH   5   6
ATOM      6  C   UNL     1      -8.974   5.216   8.222  1.00  0.00     0.042 C 
ATOM      7  O   UNL     1      -9.581   6.037   7.485  1.00  0.00    -0.550 OA
ATOM      8  O   UNL     1      -7.906   5.647   8.999  1.00  0.00    -0.550 OA
ENDBRANCH   5   6
ENDBRANCH   1   5
TORSDOF 3
ENDMDL
MODEL 2
REMARK VINA RESULT:    -3.419     23.343     24.097
REMARK INTER + INTRA:          -4.054
REMARK INTER:                  -3.941
REMARK INTRA:                  -0.113
REMARK UNBOUND:                -0.036
REMARK SMILES O=C([O-])CCC(=O)[O-]
REMARK SMILES IDX 4 1 2 2 1 3 3 4 5 5 6 6 7 7 8 8
REMARK H PARENT
REMARK Flexibility Score: inf
ROOT
ATOM      1  C   UNL     1       8.676   3.024  -6.863  1.00  0.00     0.059 C 
ENDROOT
BRANCH   1   2
ATOM      2  C   UNL     1       9.438   1.736  -6.857  1.00  0.00     0.042 C 
ATOM      3  O   UNL     1      10.124   1.401  -7.858  1.00  0.00    -0.550 OA
ATOM      4  O   UNL     1       9.432   0.928  -5.726  1.00  0.00    -0.550 OA
ENDBRANCH   1   2
BRANCH   1   5
ATOM      5  C   UNL     1       9.551   4.160  -7.394  1.00  0.00     0.059 C 
BRANCH   5   6
ATOM      6  C   UNL     1       9.027   4.655  -8.705  1.00  0.00     0.042 C 
ATOM      7  O   UNL     1       8.121   5.529  -8.736  1.00  0.00    -0.550 OA
ATOM      8  O   UNL     1       9.503   4.115  -9.893  1.00  0.00    -0.550 OA
ENDBRANCH   5   6
ENDBRANCH   1   5
TORSDOF 3
ENDMDL
MODEL 3
REMARK VINA RESULT:    -3.416     19.539     20.256
REMARK INTER + INTRA:          -4.050
REMARK INTER:                  -4.016
REMARK INTRA:                  -0.034
REMARK UNBOUND:                -0.036
REMARK SMILES O=C([O-])CCC(=O)[O-]
REMARK SMILES IDX 4 1 2 2 1 3 3 4 5 5 6 6 7 7 8 8
REMARK H PARENT
REMARK Flexibility Score: inf
ROOT
ATOM      1  C   UNL     1       9.128  -3.300   6.930  1.00  0.00     0.059 C 
ENDROOT
BRANCH   1   2
ATOM      2  C   UNL     1       9.556  -1.867   6.884  1.00  0.00     0.042 C 
ATOM      3  O   UNL     1      10.122  -1.342   7.878  1.00  0.00    -0.550 OA
ATOM      4  O   UNL     1       9.375  -1.123   5.724  1.00  0.00    -0.550 OA
ENDBRANCH   1   2
BRANCH   1   5
ATOM      5  C   UNL     1       9.527  -3.934   8.264  1.00  0.00     0.059 C 
BRANCH   5   6
ATOM      6  C   UNL     1       9.031  -5.344   8.342  1.00  0.00     0.042 C 
ATOM      7  O   UNL     1       7.962  -5.607   8.952  1.00  0.00    -0.550 OA
ATOM      8  O   UNL     1       9.776  -6.375   7.783  1.00  0.00    -0.550 OA
ENDBRANCH   5   6
ENDBRANCH   1   5
TORSDOF 3
ENDMDL
MODEL 4
REMARK VINA RESULT:    -3.387     14.875     17.168
REMARK INTER + INTRA:          -4.017
REMARK INTER:                  -3.988
REMARK INTRA:                  -0.029
REMARK UNBOUND:                -0.036
REMARK SMILES O=C([O-])CCC(=O)[O-]
REMARK SMILES IDX 4 1 2 2 1 3 3 4 5 5 6 6 7 7 8 8
REMARK H PARENT
REMARK Flexibility Score: inf
ROOT
ATOM      1  C   UNL     1      -8.771  -3.149  -7.162  1.00  0.00     0.059 C 
ENDROOT
BRANCH   1   2
ATOM      2  C   UNL     1      -9.450  -1.861  -6.821  1.00  0.00     0.042 C 
ATOM      3  O   UNL     1      -9.374  -1.395  -5.653  1.00  0.00    -0.550 OA
ATOM      4  O   UNL     1     -10.125  -1.148  -7.804  1.00  0.00    -0.550 OA
ENDBRANCH   1   2
BRANCH   1   5
ATOM      5  C   UNL     1      -9.572  -3.912  -8.219  1.00  0.00     0.059 C 
BRANCH   5   6
ATOM      6  C   UNL     1      -9.109  -5.333  -8.301  1.00  0.00     0.042 C 
ATOM      7  O   UNL     1      -9.761  -6.246  -7.731  1.00  0.00    -0.550 OA
ATOM      8  O   UNL     1      -7.929  -5.643  -8.967  1.00  0.00    -0.550 OA
ENDBRANCH   5   6
ENDBRANCH   1   5
TORSDOF 3
ENDMDL
MODEL 5
REMARK VINA RESULT:    -3.275      0.432      4.262
REMARK INTER + INTRA:          -3.884
REMARK INTER:                  -3.846
REMARK INTRA:                  -0.039
REMARK UNBOUND:                -0.036
REMARK SMILES O=C([O-])CCC(=O)[O-]
REMARK SMILES IDX 4 1 2 2 1 3 3 4 5 5 6 6 7 7 8 8
REMARK H PARENT
REMARK Flexibility Score: inf
ROOT
ATOM      1  C   UNL     1      -8.652   3.751   7.865  1.00  0.00     0.059 C 
ENDROOT
BRANCH   1   2
ATOM      2  C   UNL     1      -8.858   5.169   8.296  1.00  0.00     0.042 C 
ATOM      3  O   UNL     1      -8.183   5.647   9.246  1.00  0.00    -0.550 OA
ATOM      4  O   UNL     1      -9.760   5.979   7.618  1.00  0.00    -0.550 OA
ENDBRANCH   1   2
BRANCH   1   5
ATOM      5  C   UNL     1      -9.751   3.324   6.890  1.00  0.00     0.059 C 
BRANCH   5   6
ATOM      6  C   UNL     1      -9.879   1.833   6.867  1.00  0.00     0.042 C 
ATOM      7  O   UNL     1     -10.125   1.203   7.929  1.00  0.00    -0.550 OA
ATOM      8  O   UNL     1      -9.677   1.136   5.683  1.00  0.00    -0.550 OA
ENDBRANCH   5   6
ENDBRANCH   1   5
TORSDOF 3
ENDMDL
MODEL 6
REMARK VINA RESULT:    -3.233     23.343     23.930
REMARK INTER + INTRA:          -3.836
REMARK INTER:                  -3.794
REMARK INTRA:                  -0.042
REMARK UNBOUND:                -0.036
REMARK SMILES O=C([O-])CCC(=O)[O-]
REMARK SMILES IDX 4 1 2 2 1 3 3 4 5 5 6 6 7 7 8 8
REMARK H PARENT
REMARK Flexibility Score: inf
ROOT
ATOM      1  C   UNL     1       9.014   3.176  -6.867  1.00  0.00     0.059 C 
ENDROOT
BRANCH   1   2
ATOM      2  C   UNL     1       9.524   1.775  -6.738  1.00  0.00     0.042 C 
ATOM      3  O   UNL     1       9.371   1.142  -5.660  1.00  0.00    -0.550 OA
ATOM      4  O   UNL     1      10.123   1.149  -7.824  1.00  0.00    -0.550 OA
ENDBRANCH   1   2
BRANCH   1   5
ATOM      5  C   UNL     1      10.017   4.041  -7.632  1.00  0.00     0.059 C 
BRANCH   5   6
ATOM      6  C   UNL     1       9.942   5.462  -7.169  1.00  0.00     0.042 C 
ATOM      7  O   UNL     1       9.754   5.722  -5.951  1.00  0.00    -0.550 OA
ATOM      8  O   UNL     1      10.029   6.499  -8.089  1.00  0.00    -0.550 OA
ENDBRANCH   5   6
ENDBRANCH   1   5
TORSDOF 3
ENDMDL
MODEL 7
REMARK VINA RESULT:    -3.084     24.301     25.785
REMARK INTER + INTRA:          -3.661
REMARK INTER:                  -3.540
REMARK INTRA:                  -0.121
REMARK UNBOUND:                -0.036
REMARK SMILES O=C([O-])CCC(=O)[O-]
REMARK SMILES IDX 4 1 2 2 1 3 3 4 5 5 6 6 7 7 8 8
REMARK H PARENT
REMARK Flexibility Score: inf
ROOT
ATOM      1  C   UNL     1       7.815  -4.794 -10.074  1.00  0.00     0.059 C 
ENDROOT
BRANCH   1   2
ATOM      2  C   UNL     1       9.297  -4.605  -9.988  1.00  0.00     0.042 C 
ATOM      3  O   UNL     1       9.796  -3.454 -10.093  1.00  0.00    -0.550 OA
ATOM      4  O   UNL     1      10.125  -5.693  -9.741  1.00  0.00    -0.550 OA
ENDBRANCH   1   2
BRANCH   1   5
ATOM      5  C   UNL     1       7.191  -4.772  -8.677  1.00  0.00     0.059 C 
BRANCH   5   6
ATOM      6  C   UNL     1       6.666  -6.126  -8.317  1.00  0.00     0.042 C 
ATOM      7  O   UNL     1       7.462  -7.078  -8.105  1.00  0.00    -0.550 OA
ATOM      8  O   UNL     1       5.296  -6.349  -8.263  1.00  0.00    -0.550 OA
ENDBRANCH   5   6
ENDBRANCH   1   5
TORSDOF 3
ENDMDL
MODEL 8
REMARK VINA RESULT:    -3.012     16.047     17.215
REMARK INTER + INTRA:          -3.576
REMARK INTER:                  -3.491
REMARK INTRA:                  -0.085
REMARK UNBOUND:                -0.036
REMARK SMILES O=C([O-])CCC(=O)[O-]
REMARK SMILES IDX 4 1 2 2 1 3 3 4 5 5 6 6 7 7 8 8
REMARK H PARENT
REMARK Flexibility Score: inf
ROOT
ATOM      1  C   UNL     1       7.138   5.562   8.205  1.00  0.00     0.059 C 
ENDROOT
BRANCH   1   2
ATOM      2  C   UNL     1       5.981   6.429   8.589  1.00  0.00     0.042 C 
ATOM      3  O   UNL     1       6.174   7.619   8.951  1.00  0.00    -0.550 OA
ATOM      4  O   UNL     1       4.684   5.939   8.500  1.00  0.00    -0.550 OA
ENDBRANCH   1   2
BRANCH   1   5
ATOM      5  C   UNL     1       7.491   4.605   9.346  1.00  0.00     0.059 C 
BRANCH   5   6
ATOM      6  C   UNL     1       8.939   4.731   9.705  1.00  0.00     0.042 C 
ATOM      7  O   UNL     1       9.490   5.862   9.725  1.00  0.00    -0.550 OA
ATOM      8  O   UNL     1       9.691   3.593   9.969  1.00  0.00    -0.550 OA
ENDBRANCH   5   6
ENDBRANCH   1   5
TORSDOF 3
ENDMDL
