MODEL 1
REMARK VINA RESULT:    -7.175      0.000      0.000
REMARK INTER + INTRA:          -8.036
REMARK INTER:                  -7.805
REMARK INTRA:                  -0.232
REMARK UNBOUND:                -0.232
REMARK SMILES C[C@H]1[C@H](C)CC[C@]2(C(=O)[O-])CC[C@@]3(C)C(=CC[C@@H]4[C@@]5(C)CC[C@@H](O)C(C)(C)[C@H]5CC[C@@]43C)[C@H]12
REMARK SMILES IDX 7 1 6 2 11 3 33 4 5 5 12 6 15 7 2 8 3 9 13 10 16 11 1 12
REMARK SMILES IDX 4 13 14 14 31 15 17 16 18 17 30 18 32 19 19 20 29 21 28 22
REMARK SMILES IDX 21 23 20 24 25 25 22 26 23 27 26 28 27 29 8 30 9 31 10 32
REMARK SMILES IDX 24 33
REMARK H PARENT 24 34
REMARK Flexibility Score: inf
ROOT
ATOM      1  C   UNL     1      93.009   3.321 -26.454  1.00  0.00     0.017 C 
ATOM      2  C   UNL     1      93.409   3.823 -27.872  1.00  0.00     0.014 C 
ATOM      3  C   UNL     1      92.071   2.062 -26.612  1.00  0.00     0.014 C 
ATOM      4  C   UNL     1      92.359   4.502 -25.591  1.00  0.00     0.030 C 
ATOM      5  C   UNL     1      92.260   4.521 -28.583  1.00  0.00     0.004 C 
ATOM      6  C   UNL     1      90.599   2.304 -26.279  1.00  0.00     0.013 C 
ATOM      7  C   UNL     1      91.113   4.166 -24.740  1.00  0.00    -0.063 C 
ATOM      8  C   UNL     1      92.184   5.885 -26.339  1.00  0.00    -0.003 C 
ATOM      9  C   UNL     1      91.842   5.820 -27.870  1.00  0.00    -0.011 C 
ATOM     10  C   UNL     1      90.354   2.854 -24.844  1.00  0.00    -0.006 C 
ATOM     11  C   UNL     1      90.838   4.967 -23.693  1.00  0.00    -0.027 C 
ATOM     12  C   UNL     1      93.409   6.797 -26.098  1.00  0.00     0.008 C 
ATOM     13  C   UNL     1      90.362   6.116 -28.133  1.00  0.00     0.008 C 
ATOM     14  C   UNL     1      91.060   1.881 -23.840  1.00  0.00     0.017 C 
ATOM     15  C   UNL     1      88.747   3.054 -24.521  1.00  0.00    -0.020 C 
ATOM     16  C   UNL     1      89.708   4.683 -22.753  1.00  0.00     0.032 C 
ATOM     17  C   UNL     1      88.428   4.285 -23.538  1.00  0.00     0.006 C 
ATOM     18  C   UNL     1      88.185   1.741 -23.918  1.00  0.00     0.008 C 
ATOM     19  C   UNL     1      87.975   3.315 -25.858  1.00  0.00     0.012 C 
ATOM     20  C   UNL     1      87.056   4.254 -22.650  1.00  0.00    -0.025 C 
ATOM     21  C   UNL     1      86.735   1.822 -23.479  1.00  0.00     0.005 C 
ATOM     22  C   UNL     1      86.555   2.788 -22.284  1.00  0.00     0.003 C 
ATOM     23  C   UNL     1      85.927   5.015 -23.422  1.00  0.00     0.010 C 
ATOM     24  C   UNL     1      87.288   5.064 -21.336  1.00  0.00     0.012 C 
ATOM     25  C   UNL     1      85.078   2.690 -21.656  1.00  0.00    -0.006 C 
ATOM     26  C   UNL     1      84.541   4.982 -22.758  1.00  0.00     0.033 C 
ATOM     27  C   UNL     1      84.044   3.553 -22.455  1.00  0.00     0.120 C 
ATOM     28  C   UNL     1      85.074   3.137 -20.154  1.00  0.00     0.014 C 
ATOM     29  C   UNL     1      84.562   1.217 -21.627  1.00  0.00     0.014 C 
ENDROOT
BRANCH   1  30
ATOM     30  C   UNL     1      94.336   2.888 -25.810  1.00  0.00     0.048 C 
ATOM     31  O   UNL     1      94.367   1.879 -25.054  1.00  0.00    -0.550 OA
ATOM     32  O   UNL     1      95.507   3.626 -25.966  1.00  0.00    -0.550 OA
ENDBRANCH   1  30
BRANCH  27  33
ATOM     33  O   UNL     1      83.582   2.896 -23.618  1.00  0.00    -0.393 OA
ATOM     34  H   UNL     1      83.313   3.562 -24.297  1.00  0.00     0.210 HD
ENDBRANCH  27  33
TORSDOF 2
ENDMDL
MODEL 2
REMARK VINA RESULT:    -7.040      3.581      4.658
REMARK INTER + INTRA:          -7.889
REMARK INTER:                  -7.659
REMARK INTRA:                  -0.230
REMARK UNBOUND:                -0.232
REMARK SMILES C[C@H]1[C@H](C)CC[C@]2(C(=O)[O-])CC[C@@]3(C)C(=CC[C@@H]4[C@@]5(C)CC[C@@H](O)C(C)(C)[C@H]5CC[C@@]43C)[C@H]12
REMARK SMILES IDX 7 1 6 2 11 3 33 4 5 5 12 6 15 7 2 8 3 9 13 10 16 11 1 12
REMARK SMILES IDX 4 13 14 14 31 15 17 16 18 17 30 18 32 19 19 20 29 21 28 22
REMARK SMILES IDX 21 23 20 24 25 25 22 26 23 27 26 28 27 29 8 30 9 31 10 32
REMARK SMILES IDX 24 33
REMARK H PARENT 24 34
REMARK Flexibility Score: inf
ROOT
ATOM      1  C   UNL     1      93.899   2.918 -25.248  1.00  0.00     0.017 C 
ATOM      2  C   UNL     1      93.368   2.503 -26.651  1.00  0.00     0.014 C 
ATOM      3  C   UNL     1      93.916   1.644 -24.319  1.00  0.00     0.014 C 
ATOM      4  C   UNL     1      93.051   4.138 -24.652  1.00  0.00     0.030 C 
ATOM      5  C   UNL     1      91.869   2.243 -26.647  1.00  0.00     0.004 C 
ATOM      6  C   UNL     1      92.840   1.619 -23.234  1.00  0.00     0.013 C 
ATOM      7  C   UNL     1      92.669   4.082 -23.156  1.00  0.00    -0.063 C 
ATOM      8  C   UNL     1      91.831   4.623 -25.535  1.00  0.00    -0.003 C 
ATOM      9  C   UNL     1      91.061   3.519 -26.343  1.00  0.00    -0.011 C 
ATOM     10  C   UNL     1      92.864   2.852 -22.285  1.00  0.00    -0.006 C 
ATOM     11  C   UNL     1      92.382   5.245 -22.541  1.00  0.00    -0.027 C 
ATOM     12  C   UNL     1      92.256   5.778 -26.470  1.00  0.00     0.008 C 
ATOM     13  C   UNL     1      89.728   3.156 -25.680  1.00  0.00     0.008 C 
ATOM     14  C   UNL     1      94.317   2.973 -21.709  1.00  0.00     0.017 C 
ATOM     15  C   UNL     1      91.714   2.753 -21.105  1.00  0.00    -0.020 C 
ATOM     16  C   UNL     1      92.086   5.315 -21.075  1.00  0.00     0.032 C 
ATOM     17  C   UNL     1      91.116   4.176 -20.656  1.00  0.00     0.006 C 
ATOM     18  C   UNL     1      92.311   2.022 -19.876  1.00  0.00     0.008 C 
ATOM     19  C   UNL     1      90.515   1.887 -21.619  1.00  0.00     0.012 C 
ATOM     20  C   UNL     1      90.477   4.329 -19.159  1.00  0.00    -0.025 C 
ATOM     21  C   UNL     1      91.385   1.953 -18.676  1.00  0.00     0.005 C 
ATOM     22  C   UNL     1      91.122   3.355 -18.078  1.00  0.00     0.003 C 
ATOM     23  C   UNL     1      88.934   4.082 -19.231  1.00  0.00     0.010 C 
ATOM     24  C   UNL     1      90.646   5.808 -18.689  1.00  0.00     0.012 C 
ATOM     25  C   UNL     1      90.352   3.267 -16.669  1.00  0.00    -0.006 C 
ATOM     26  C   UNL     1      88.204   4.090 -17.878  1.00  0.00     0.033 C 
ATOM     27  C   UNL     1      88.806   3.104 -16.856  1.00  0.00     0.120 C 
ATOM     28  C   UNL     1      90.636   4.535 -15.792  1.00  0.00     0.014 C 
ATOM     29  C   UNL     1      90.866   2.073 -15.805  1.00  0.00     0.014 C 
ENDROOT
BRANCH   1  30
ATOM     30  C   UNL     1      95.344   3.379 -25.505  1.00  0.00     0.048 C 
ATOM     31  O   UNL     1      95.607   4.080 -26.519  1.00  0.00    -0.550 OA
ATOM     32  O   UNL     1      96.402   2.976 -24.695  1.00  0.00    -0.550 OA
ENDBRANCH   1  30
BRANCH  27  33
ATOM     33  O   UNL     1      88.438   1.767 -17.128  1.00  0.00    -0.393 OA
ATOM     34  H   UNL     1      87.626   1.750 -17.693  1.00  0.00     0.210 HD
ENDBRANCH  27  33
TORSDOF 2
ENDMDL
MODEL 3
REMARK VINA RESULT:    -7.014      1.885      8.006
REMARK INTER + INTRA:          -7.861
REMARK INTER:                  -7.628
REMARK INTRA:                  -0.233
REMARK UNBOUND:                -0.232
REMARK SMILES C[C@H]1[C@H](C)CC[C@]2(C(=O)[O-])CC[C@@]3(C)C(=CC[C@@H]4[C@@]5(C)CC[C@@H](O)C(C)(C)[C@H]5CC[C@@]43C)[C@H]12
REMARK SMILES IDX 7 1 6 2 11 3 33 4 5 5 12 6 15 7 2 8 3 9 13 10 16 11 1 12
REMARK SMILES IDX 4 13 14 14 31 15 17 16 18 17 30 18 32 19 19 20 29 21 28 22
REMARK SMILES IDX 21 23 20 24 25 25 22 26 23 27 26 28 27 29 8 30 9 31 10 32
REMARK SMILES IDX 24 33
REMARK H PARENT 24 34
REMARK Flexibility Score: inf
ROOT
ATOM      1  C   UNL     1      85.401   2.545 -21.840  1.00  0.00     0.017 C 
ATOM      2  C   UNL     1      85.010   3.329 -20.553  1.00  0.00     0.014 C 
ATOM      3  C   UNL     1      86.900   2.073 -21.706  1.00  0.00     0.014 C 
ATOM      4  C   UNL     1      85.117   3.417 -23.151  1.00  0.00     0.030 C 
ATOM      5  C   UNL     1      85.648   4.709 -20.503  1.00  0.00     0.004 C 
ATOM      6  C   UNL     1      87.897   2.821 -22.590  1.00  0.00     0.013 C 
ATOM      7  C   UNL     1      86.182   3.396 -24.271  1.00  0.00    -0.063 C 
ATOM      8  C   UNL     1      84.583   4.885 -22.898  1.00  0.00    -0.003 C 
ATOM      9  C   UNL     1      85.132   5.626 -21.628  1.00  0.00    -0.011 C 
ATOM     10  C   UNL     1      87.559   2.776 -24.109  1.00  0.00    -0.006 C 
ATOM     11  C   UNL     1      85.784   3.720 -25.516  1.00  0.00    -0.027 C 
ATOM     12  C   UNL     1      83.038   4.917 -22.915  1.00  0.00     0.008 C 
ATOM     13  C   UNL     1      86.197   6.665 -21.994  1.00  0.00     0.008 C 
ATOM     14  C   UNL     1      87.391   1.270 -24.508  1.00  0.00     0.017 C 
ATOM     15  C   UNL     1      88.691   3.559 -25.021  1.00  0.00    -0.020 C 
ATOM     16  C   UNL     1      86.712   3.646 -26.689  1.00  0.00     0.032 C 
ATOM     17  C   UNL     1      88.093   4.265 -26.336  1.00  0.00     0.006 C 
ATOM     18  C   UNL     1      89.800   2.554 -25.423  1.00  0.00     0.008 C 
ATOM     19  C   UNL     1      89.370   4.677 -24.162  1.00  0.00     0.012 C 
ATOM     20  C   UNL     1      89.080   4.525 -27.613  1.00  0.00    -0.025 C 
ATOM     21  C   UNL     1      90.855   3.123 -26.353  1.00  0.00     0.005 C 
ATOM     22  C   UNL     1      90.264   3.469 -27.740  1.00  0.00     0.003 C 
ATOM     23  C   UNL     1      89.674   5.969 -27.517  1.00  0.00     0.010 C 
ATOM     24  C   UNL     1      88.227   4.506 -28.920  1.00  0.00     0.012 C 
ATOM     25  C   UNL     1      91.414   3.834 -28.804  1.00  0.00    -0.006 C 
ATOM     26  C   UNL     1      90.708   6.326 -28.597  1.00  0.00     0.033 C 
ATOM     27  C   UNL     1      91.878   5.324 -28.677  1.00  0.00     0.120 C 
ATOM     28  C   UNL     1      90.930   3.566 -30.270  1.00  0.00     0.014 C 
ATOM     29  C   UNL     1      92.667   2.919 -28.633  1.00  0.00     0.014 C 
ENDROOT
BRANCH   1  30
ATOM     30  C   UNL     1      84.479   1.314 -21.835  1.00  0.00     0.048 C 
ATOM     31  O   UNL     1      84.971   0.161 -21.969  1.00  0.00    -0.550 OA
ATOM     32  O   UNL     1      83.093   1.432 -21.769  1.00  0.00    -0.550 OA
ENDBRANCH   1  30
BRANCH  27  33
ATOM     33  O   UNL     1      92.805   5.509 -27.626  1.00  0.00    -0.393 OA
ATOM     34  H   UNL     1      92.354   5.915 -26.846  1.00  0.00     0.210 HD
ENDBRANCH  27  33
TORSDOF 2
ENDMDL
MODEL 4
REMARK VINA RESULT:    -6.993      7.776     11.642
REMARK INTER + INTRA:          -7.838
REMARK INTER:                  -7.624
REMARK INTRA:                  -0.215
REMARK UNBOUND:                -0.232
REMARK SMILES C[C@H]1[C@H](C)CC[C@]2(C(=O)[O-])CC[C@@]3(C)C(=CC[C@@H]4[C@@]5(C)CC[C@@H](O)C(C)(C)[C@H]5CC[C@@]43C)[C@H]12
REMARK SMILES IDX 7 1 6 2 11 3 33 4 5 5 12 6 15 7 2 8 3 9 13 10 16 11 1 12
REMARK SMILES IDX 4 13 14 14 31 15 17 16 18 17 30 18 32 19 19 20 29 21 28 22
REMARK SMILES IDX 21 23 20 24 25 25 22 26 23 27 26 28 27 29 8 30 9 31 10 32
REMARK SMILES IDX 24 33
REMARK H PARENT 24 34
REMARK Flexibility Score: inf
ROOT
ATOM      1  C   UNL     1      83.298   0.667 -21.777  1.00  0.00     0.017 C 
ATOM      2  C   UNL     1      83.218   0.483 -23.320  1.00  0.00     0.014 C 
ATOM      3  C   UNL     1      84.514  -0.176 -21.231  1.00  0.00     0.014 C 
ATOM      4  C   UNL     1      81.901   0.304 -21.084  1.00  0.00     0.030 C 
ATOM      5  C   UNL     1      82.697  -0.891 -23.711  1.00  0.00     0.004 C 
ATOM      6  C   UNL     1      84.133  -1.434 -20.452  1.00  0.00     0.013 C 
ATOM      7  C   UNL     1      81.942  -0.516 -19.775  1.00  0.00    -0.063 C 
ATOM      8  C   UNL     1      80.770  -0.226 -22.054  1.00  0.00    -0.003 C 
ATOM      9  C   UNL     1      81.236  -1.103 -23.270  1.00  0.00    -0.011 C 
ATOM     10  C   UNL     1      83.202  -1.171 -19.233  1.00  0.00    -0.006 C 
ATOM     11  C   UNL     1      80.875  -0.439 -18.957  1.00  0.00    -0.027 C 
ATOM     12  C   UNL     1      79.875   0.937 -22.540  1.00  0.00     0.008 C 
ATOM     13  C   UNL     1      80.966  -2.592 -23.032  1.00  0.00     0.008 C 
ATOM     14  C   UNL     1      83.891  -0.080 -18.342  1.00  0.00     0.017 C 
ATOM     15  C   UNL     1      82.859  -2.555 -18.401  1.00  0.00    -0.020 C 
ATOM     16  C   UNL     1      80.847  -1.122 -17.624  1.00  0.00     0.032 C 
ATOM     17  C   UNL     1      81.394  -2.571 -17.738  1.00  0.00     0.006 C 
ATOM     18  C   UNL     1      83.933  -2.766 -17.305  1.00  0.00     0.008 C 
ATOM     19  C   UNL     1      82.943  -3.780 -19.372  1.00  0.00     0.012 C 
ATOM     20  C   UNL     1      81.128  -3.515 -16.430  1.00  0.00    -0.025 C 
ATOM     21  C   UNL     1      83.679  -3.955 -16.396  1.00  0.00     0.005 C 
ATOM     22  C   UNL     1      82.417  -3.746 -15.526  1.00  0.00     0.003 C 
ATOM     23  C   UNL     1      80.563  -4.896 -16.900  1.00  0.00     0.010 C 
ATOM     24  C   UNL     1      79.999  -2.870 -15.566  1.00  0.00     0.012 C 
ATOM     25  C   UNL     1      82.281  -4.878 -14.392  1.00  0.00    -0.006 C 
ATOM     26  C   UNL     1      80.359  -5.935 -15.785  1.00  0.00     0.033 C 
ATOM     27  C   UNL     1      81.629  -6.189 -14.948  1.00  0.00     0.120 C 
ATOM     28  C   UNL     1      81.442  -4.359 -13.175  1.00  0.00     0.014 C 
ATOM     29  C   UNL     1      83.669  -5.248 -13.779  1.00  0.00     0.014 C 
ENDROOT
BRANCH   1  30
ATOM     30  C   UNL     1      83.590   2.165 -21.583  1.00  0.00     0.048 C 
ATOM     31  O   UNL     1      82.954   2.819 -20.712  1.00  0.00    -0.550 OA
ATOM     32  O   UNL     1      84.483   2.854 -22.399  1.00  0.00    -0.550 OA
ENDBRANCH   1  30
BRANCH  27  33
ATOM     33  O   UNL     1      82.561  -7.002 -15.634  1.00  0.00    -0.393 OA
ATOM     34  H   UNL     1      82.573  -6.765 -16.594  1.00  0.00     0.210 HD
ENDBRANCH  27  33
TORSDOF 2
ENDMDL
MODEL 5
REMARK VINA RESULT:    -6.983      4.403      8.508
REMARK INTER + INTRA:          -7.827
REMARK INTER:                  -7.599
REMARK INTRA:                  -0.228
REMARK UNBOUND:                -0.232
REMARK SMILES C[C@H]1[C@H](C)CC[C@]2(C(=O)[O-])CC[C@@]3(C)C(=CC[C@@H]4[C@@]5(C)CC[C@@H](O)C(C)(C)[C@H]5CC[C@@]43C)[C@H]12
REMARK SMILES IDX 7 1 6 2 11 3 33 4 5 5 12 6 15 7 2 8 3 9 13 10 16 11 1 12
REMARK SMILES IDX 4 13 14 14 31 15 17 16 18 17 30 18 32 19 19 20 29 21 28 22
REMARK SMILES IDX 21 23 20 24 25 25 22 26 23 27 26 28 27 29 8 30 9 31 10 32
REMARK SMILES IDX 24 33
REMARK H PARENT 24 34
REMARK Flexibility Score: inf
ROOT
ATOM      1  C   UNL     1      89.820   4.211 -17.411  1.00  0.00     0.017 C 
ATOM      2  C   UNL     1      88.838   3.356 -16.557  1.00  0.00     0.014 C 
ATOM      3  C   UNL     1      89.007   4.902 -18.573  1.00  0.00     0.014 C 
ATOM      4  C   UNL     1      91.050   3.325 -17.926  1.00  0.00     0.030 C 
ATOM      5  C   UNL     1      88.402   2.088 -17.275  1.00  0.00     0.004 C 
ATOM      6  C   UNL     1      89.253   4.327 -19.967  1.00  0.00     0.013 C 
ATOM      7  C   UNL     1      91.515   3.524 -19.386  1.00  0.00    -0.063 C 
ATOM      8  C   UNL     1      90.998   1.790 -17.547  1.00  0.00    -0.003 C 
ATOM      9  C   UNL     1      89.579   1.121 -17.506  1.00  0.00    -0.011 C 
ATOM     10  C   UNL     1      90.745   4.342 -20.409  1.00  0.00    -0.006 C 
ATOM     11  C   UNL     1      92.775   3.162 -19.695  1.00  0.00    -0.027 C 
ATOM     12  C   UNL     1      91.758   1.525 -16.228  1.00  0.00     0.008 C 
ATOM     13  C   UNL     1      89.320   0.260 -18.747  1.00  0.00     0.008 C 
ATOM     14  C   UNL     1      91.267   5.812 -20.248  1.00  0.00     0.017 C 
ATOM     15  C   UNL     1      90.948   3.753 -21.938  1.00  0.00    -0.020 C 
ATOM     16  C   UNL     1      93.355   3.393 -21.056  1.00  0.00     0.032 C 
ATOM     17  C   UNL     1      92.342   2.985 -22.161  1.00  0.00     0.006 C 
ATOM     18  C   UNL     1      90.824   4.920 -22.950  1.00  0.00     0.008 C 
ATOM     19  C   UNL     1      89.801   2.738 -22.261  1.00  0.00     0.012 C 
ATOM     20  C   UNL     1      92.964   2.897 -23.670  1.00  0.00    -0.025 C 
ATOM     21  C   UNL     1      91.092   4.532 -24.392  1.00  0.00     0.005 C 
ATOM     22  C   UNL     1      92.567   4.121 -24.606  1.00  0.00     0.003 C 
ATOM     23  C   UNL     1      92.506   1.557 -24.337  1.00  0.00     0.010 C 
ATOM     24  C   UNL     1      94.520   2.806 -23.568  1.00  0.00     0.012 C 
ATOM     25  C   UNL     1      92.919   3.950 -26.166  1.00  0.00    -0.006 C 
ATOM     26  C   UNL     1      92.929   1.377 -25.804  1.00  0.00     0.033 C 
ATOM     27  C   UNL     1      92.493   2.545 -26.712  1.00  0.00     0.120 C 
ATOM     28  C   UNL     1      94.450   4.164 -26.425  1.00  0.00     0.014 C 
ATOM     29  C   UNL     1      92.220   5.042 -27.036  1.00  0.00     0.014 C 
ENDROOT
BRANCH   1  30
ATOM     30  C   UNL     1      90.336   5.287 -16.442  1.00  0.00     0.048 C 
ATOM     31  O   UNL     1      90.744   4.955 -15.296  1.00  0.00    -0.550 OA
ATOM     32  O   UNL     1      90.294   6.643 -16.754  1.00  0.00    -0.550 OA
ENDBRANCH   1  30
BRANCH  27  33
ATOM     33  O   UNL     1      91.117   2.487 -27.026  1.00  0.00    -0.393 OA
ATOM     34  H   UNL     1      90.851   1.552 -27.208  1.00  0.00     0.210 HD
ENDBRANCH  27  33
TORSDOF 2
ENDMDL
MODEL 6
REMARK VINA RESULT:    -6.866      1.750      3.760
REMARK INTER + INTRA:          -7.699
REMARK INTER:                  -7.482
REMARK INTRA:                  -0.218
REMARK UNBOUND:                -0.232
REMARK SMILES C[C@H]1[C@H](C)CC[C@]2(C(=O)[O-])CC[C@@]3(C)C(=CC[C@@H]4[C@@]5(C)CC[C@@H](O)C(C)(C)[C@H]5CC[C@@]43C)[C@H]12
REMARK SMILES IDX 7 1 6 2 11 3 33 4 5 5 12 6 15 7 2 8 3 9 13 10 16 11 1 12
REMARK SMILES IDX 4 13 14 14 31 15 17 16 18 17 30 18 32 19 19 20 29 21 28 22
REMARK SMILES IDX 21 23 20 24 25 25 22 26 23 27 26 28 27 29 8 30 9 31 10 32
REMARK SMILES IDX 24 33
REMARK H PARENT 24 34
REMARK Flexibility Score: inf
ROOT
ATOM      1  C   UNL     1      92.151   3.483 -24.900  1.00  0.00     0.017 C 
ATOM      2  C   UNL     1      93.379   4.119 -24.185  1.00  0.00     0.014 C 
ATOM      3  C   UNL     1      91.279   4.639 -25.526  1.00  0.00     0.014 C 
ATOM      4  C   UNL     1      91.338   2.531 -23.903  1.00  0.00     0.030 C 
ATOM      5  C   UNL     1      92.997   4.804 -22.883  1.00  0.00     0.004 C 
ATOM      6  C   UNL     1      89.956   4.912 -24.812  1.00  0.00     0.013 C 
ATOM      7  C   UNL     1      89.795   2.606 -23.940  1.00  0.00    -0.063 C 
ATOM      8  C   UNL     1      91.871   2.477 -22.415  1.00  0.00    -0.003 C 
ATOM      9  C   UNL     1      92.475   3.804 -21.834  1.00  0.00    -0.011 C 
ATOM     10  C   UNL     1      89.023   3.670 -24.703  1.00  0.00    -0.006 C 
ATOM     11  C   UNL     1      89.107   1.543 -23.482  1.00  0.00    -0.027 C 
ATOM     12  C   UNL     1      92.864   1.307 -22.231  1.00  0.00     0.008 C 
ATOM     13  C   UNL     1      91.500   4.500 -20.878  1.00  0.00     0.008 C 
ATOM     14  C   UNL     1      88.836   3.096 -26.149  1.00  0.00     0.017 C 
ATOM     15  C   UNL     1      87.591   4.030 -23.965  1.00  0.00    -0.020 C 
ATOM     16  C   UNL     1      87.613   1.474 -23.553  1.00  0.00     0.032 C 
ATOM     17  C   UNL     1      86.980   2.819 -23.102  1.00  0.00     0.006 C 
ATOM     18  C   UNL     1      86.568   4.479 -25.038  1.00  0.00     0.008 C 
ATOM     19  C   UNL     1      87.797   5.237 -22.990  1.00  0.00     0.012 C 
ATOM     20  C   UNL     1      85.367   2.770 -22.840  1.00  0.00    -0.025 C 
ATOM     21  C   UNL     1      85.172   4.744 -24.504  1.00  0.00     0.005 C 
ATOM     22  C   UNL     1      84.503   3.446 -23.993  1.00  0.00     0.003 C 
ATOM     23  C   UNL     1      85.048   3.461 -21.473  1.00  0.00     0.010 C 
ATOM     24  C   UNL     1      84.930   1.280 -22.672  1.00  0.00     0.012 C 
ATOM     25  C   UNL     1      82.946   3.670 -23.660  1.00  0.00    -0.006 C 
ATOM     26  C   UNL     1      83.553   3.585 -21.134  1.00  0.00     0.033 C 
ATOM     27  C   UNL     1      82.735   4.288 -22.237  1.00  0.00     0.120 C 
ATOM     28  C   UNL     1      82.149   2.324 -23.762  1.00  0.00     0.014 C 
ATOM     29  C   UNL     1      82.263   4.608 -24.704  1.00  0.00     0.014 C 
ENDROOT
BRANCH   1  30
ATOM     30  C   UNL     1      92.761   2.637 -26.031  1.00  0.00     0.048 C 
ATOM     31  O   UNL     1      92.240   1.530 -26.335  1.00  0.00    -0.550 OA
ATOM     32  O   UNL     1      93.931   3.013 -26.685  1.00  0.00    -0.550 OA
ENDBRANCH   1  30
BRANCH  27  33
ATOM     33  O   UNL     1      82.928   5.688 -22.227  1.00  0.00    -0.393 OA
ATOM     34  H   UNL     1      83.529   5.951 -22.967  1.00  0.00     0.210 HD
ENDBRANCH  27  33
TORSDOF 2
ENDMDL
MODEL 7
REMARK VINA RESULT:    -6.656      2.795      4.832
REMARK INTER + INTRA:          -7.471
REMARK INTER:                  -7.254
REMARK INTRA:                  -0.217
REMARK UNBOUND:                -0.232
REMARK SMILES C[C@H]1[C@H](C)CC[C@]2(C(=O)[O-])CC[C@@]3(C)C(=CC[C@@H]4[C@@]5(C)CC[C@@H](O)C(C)(C)[C@H]5CC[C@@]43C)[C@H]12
REMARK SMILES IDX 7 1 6 2 11 3 33 4 5 5 12 6 15 7 2 8 3 9 13 10 16 11 1 12
REMARK SMILES IDX 4 13 14 14 31 15 17 16 18 17 30 18 32 19 19 20 29 21 28 22
REMARK SMILES IDX 21 23 20 24 25 25 22 26 23 27 26 28 27 29 8 30 9 31 10 32
REMARK SMILES IDX 24 33
REMARK H PARENT 24 34
REMARK Flexibility Score: inf
ROOT
ATOM      1  C   UNL     1      91.616   3.788 -22.096  1.00  0.00     0.017 C 
ATOM      2  C   UNL     1      92.525   4.752 -21.279  1.00  0.00     0.014 C 
ATOM      3  C   UNL     1      91.014   4.579 -23.320  1.00  0.00     0.014 C 
ATOM      4  C   UNL     1      90.507   3.113 -21.159  1.00  0.00     0.030 C 
ATOM      5  C   UNL     1      91.720   5.766 -20.482  1.00  0.00     0.004 C 
ATOM      6  C   UNL     1      89.527   4.912 -23.210  1.00  0.00     0.013 C 
ATOM      7  C   UNL     1      89.071   2.997 -21.717  1.00  0.00    -0.063 C 
ATOM      8  C   UNL     1      90.497   3.594 -19.652  1.00  0.00    -0.003 C 
ATOM      9  C   UNL     1      90.867   5.096 -19.387  1.00  0.00    -0.011 C 
ATOM     10  C   UNL     1      88.611   3.671 -22.999  1.00  0.00    -0.006 C 
ATOM     11  C   UNL     1      88.266   2.062 -21.177  1.00  0.00    -0.027 C 
ATOM     12  C   UNL     1      91.364   2.663 -18.774  1.00  0.00     0.008 C 
ATOM     13  C   UNL     1      89.625   5.943 -19.092  1.00  0.00     0.008 C 
ATOM     14  C   UNL     1      88.930   2.651 -24.146  1.00  0.00     0.017 C 
ATOM     15  C   UNL     1      87.013   4.081 -22.932  1.00  0.00    -0.020 C 
ATOM     16  C   UNL     1      86.887   1.806 -21.702  1.00  0.00     0.032 C 
ATOM     17  C   UNL     1      86.140   3.143 -21.961  1.00  0.00     0.006 C 
ATOM     18  C   UNL     1      86.422   4.048 -24.364  1.00  0.00     0.008 C 
ATOM     19  C   UNL     1      86.874   5.549 -22.409  1.00  0.00     0.012 C 
ATOM     20  C   UNL     1      84.535   2.996 -22.235  1.00  0.00    -0.025 C 
ATOM     21  C   UNL     1      84.929   4.307 -24.433  1.00  0.00     0.005 C 
ATOM     22  C   UNL     1      84.122   3.171 -23.762  1.00  0.00     0.003 C 
ATOM     23  C   UNL     1      83.767   4.043 -21.362  1.00  0.00     0.010 C 
ATOM     24  C   UNL     1      84.064   1.597 -21.728  1.00  0.00     0.012 C 
ATOM     25  C   UNL     1      82.545   3.310 -24.047  1.00  0.00    -0.006 C 
ATOM     26  C   UNL     1      82.247   4.097 -21.589  1.00  0.00     0.033 C 
ATOM     27  C   UNL     1      81.859   4.318 -23.065  1.00  0.00     0.120 C 
ATOM     28  C   UNL     1      81.829   1.920 -23.945  1.00  0.00     0.014 C 
ATOM     29  C   UNL     1      82.265   3.786 -25.507  1.00  0.00     0.014 C 
ENDROOT
BRANCH   1  30
ATOM     30  C   UNL     1      92.575   2.702 -22.615  1.00  0.00     0.048 C 
ATOM     31  O   UNL     1      92.144   1.538 -22.834  1.00  0.00    -0.550 OA
ATOM     32  O   UNL     1      93.938   2.937 -22.775  1.00  0.00    -0.550 OA
ENDBRANCH   1  30
BRANCH  27  33
ATOM     33  O   UNL     1      82.040   5.662 -23.464  1.00  0.00    -0.393 OA
ATOM     34  H   UNL     1      81.880   5.749 -24.436  1.00  0.00     0.210 HD
ENDBRANCH  27  33
TORSDOF 2
ENDMDL
MODEL 8
REMARK VINA RESULT:    -6.591      1.745      2.498
REMARK INTER + INTRA:          -7.400
REMARK INTER:                  -7.169
REMARK INTRA:                  -0.232
REMARK UNBOUND:                -0.232
REMARK SMILES C[C@H]1[C@H](C)CC[C@]2(C(=O)[O-])CC[C@@]3(C)C(=CC[C@@H]4[C@@]5(C)CC[C@@H](O)C(C)(C)[C@H]5CC[C@@]43C)[C@H]12
REMARK SMILES IDX 7 1 6 2 11 3 33 4 5 5 12 6 15 7 2 8 3 9 13 10 16 11 1 12
REMARK SMILES IDX 4 13 14 14 31 15 17 16 18 17 30 18 32 19 19 20 29 21 28 22
REMARK SMILES IDX 21 23 20 24 25 25 22 26 23 27 26 28 27 29 8 30 9 31 10 32
REMARK SMILES IDX 24 33
REMARK H PARENT 24 34
REMARK Flexibility Score: inf
ROOT
ATOM      1  C   UNL     1      92.258   2.715 -23.486  1.00  0.00     0.017 C 
ATOM      2  C   UNL     1      93.228   2.592 -24.698  1.00  0.00     0.014 C 
ATOM      3  C   UNL     1      91.409   1.391 -23.385  1.00  0.00     0.014 C 
ATOM      4  C   UNL     1      91.370   4.042 -23.597  1.00  0.00     0.030 C 
ATOM      5  C   UNL     1      92.506   2.719 -26.030  1.00  0.00     0.004 C 
ATOM      6  C   UNL     1      89.943   1.527 -23.796  1.00  0.00     0.013 C 
ATOM      7  C   UNL     1      89.870   3.932 -23.240  1.00  0.00    -0.063 C 
ATOM      8  C   UNL     1      91.583   4.906 -24.905  1.00  0.00    -0.003 C 
ATOM      9  C   UNL     1      91.895   4.119 -26.227  1.00  0.00    -0.011 C 
ATOM     10  C   UNL     1      89.158   2.611 -23.002  1.00  0.00    -0.006 C 
ATOM     11  C   UNL     1      89.229   5.062 -22.884  1.00  0.00    -0.027 C 
ATOM     12  C   UNL     1      92.644   6.005 -24.669  1.00  0.00     0.008 C 
ATOM     13  C   UNL     1      90.669   4.038 -27.142  1.00  0.00     0.008 C 
ATOM     14  C   UNL     1      89.343   2.304 -21.477  1.00  0.00     0.017 C 
ATOM     15  C   UNL     1      87.571   2.686 -23.453  1.00  0.00    -0.020 C 
ATOM     16  C   UNL     1      87.801   5.055 -22.434  1.00  0.00     0.032 C 
ATOM     17  C   UNL     1      86.937   4.160 -23.365  1.00  0.00     0.006 C 
ATOM     18  C   UNL     1      86.750   1.708 -22.576  1.00  0.00     0.008 C 
ATOM     19  C   UNL     1      87.428   2.207 -24.936  1.00  0.00     0.012 C 
ATOM     20  C   UNL     1      85.322   4.316 -23.168  1.00  0.00    -0.025 C 
ATOM     21  C   UNL     1      85.253   1.752 -22.819  1.00  0.00     0.005 C 
ATOM     22  C   UNL     1      84.645   3.107 -22.385  1.00  0.00     0.003 C 
ATOM     23  C   UNL     1      84.646   4.475 -24.571  1.00  0.00     0.010 C 
ATOM     24  C   UNL     1      85.034   5.650 -22.409  1.00  0.00     0.012 C 
ATOM     25  C   UNL     1      83.038   3.074 -22.405  1.00  0.00    -0.006 C 
ATOM     26  C   UNL     1      83.110   4.528 -24.557  1.00  0.00     0.033 C 
ATOM     27  C   UNL     1      82.464   3.324 -23.840  1.00  0.00     0.120 C 
ATOM     28  C   UNL     1      82.440   4.133 -21.416  1.00  0.00     0.014 C 
ATOM     29  C   UNL     1      82.485   1.707 -21.893  1.00  0.00     0.014 C 
ENDROOT
BRANCH   1  30
ATOM     30  C   UNL     1      93.183   2.821 -22.262  1.00  0.00     0.048 C 
ATOM     31  O   UNL     1      93.033   2.028 -21.293  1.00  0.00    -0.550 OA
ATOM     32  O   UNL     1      94.141   3.825 -22.145  1.00  0.00    -0.550 OA
ENDBRANCH   1  30
BRANCH  27  33
ATOM     33  O   UNL     1      82.488   2.158 -24.638  1.00  0.00    -0.393 OA
ATOM     34  H   UNL     1      83.418   1.952 -24.906  1.00  0.00     0.210 HD
ENDBRANCH  27  33
TORSDOF 2
ENDMDL
MODEL 9
REMARK VINA RESULT:    -6.468      9.779     11.940
REMARK INTER + INTRA:          -7.266
REMARK INTER:                  -7.043
REMARK INTRA:                  -0.224
REMARK UNBOUND:                -0.232
REMARK SMILES C[C@H]1[C@H](C)CC[C@]2(C(=O)[O-])CC[C@@]3(C)C(=CC[C@@H]4[C@@]5(C)CC[C@@H](O)C(C)(C)[C@H]5CC[C@@]43C)[C@H]12
REMARK SMILES IDX 7 1 6 2 11 3 33 4 5 5 12 6 15 7 2 8 3 9 13 10 16 11 1 12
REMARK SMILES IDX 4 13 14 14 31 15 17 16 18 17 30 18 32 19 19 20 29 21 28 22
REMARK SMILES IDX 21 23 20 24 25 25 22 26 23 27 26 28 27 29 8 30 9 31 10 32
REMARK SMILES IDX 24 33
REMARK H PARENT 24 34
REMARK Flexibility Score: inf
ROOT
ATOM      1  C   UNL     1      87.230   3.066 -12.593  1.00  0.00     0.017 C 
ATOM      2  C   UNL     1      88.609   2.988 -11.875  1.00  0.00     0.014 C 
ATOM      3  C   UNL     1      86.246   2.041 -11.908  1.00  0.00     0.014 C 
ATOM      4  C   UNL     1      87.393   2.845 -14.171  1.00  0.00     0.030 C 
ATOM      5  C   UNL     1      89.370   1.719 -12.225  1.00  0.00     0.004 C 
ATOM      6  C   UNL     1      85.925   0.798 -12.737  1.00  0.00     0.013 C 
ATOM      7  C   UNL     1      86.352   1.949 -14.880  1.00  0.00    -0.063 C 
ATOM      8  C   UNL     1      88.859   2.525 -14.672  1.00  0.00    -0.003 C 
ATOM      9  C   UNL     1      89.762   1.671 -13.714  1.00  0.00    -0.011 C 
ATOM     10  C   UNL     1      85.327   1.105 -14.141  1.00  0.00    -0.006 C 
ATOM     11  C   UNL     1      86.188   2.113 -16.206  1.00  0.00    -0.027 C 
ATOM     12  C   UNL     1      89.590   3.821 -15.089  1.00  0.00     0.008 C 
ATOM     13  C   UNL     1      89.873   0.217 -14.186  1.00  0.00     0.008 C 
ATOM     14  C   UNL     1      84.088   2.041 -13.929  1.00  0.00     0.017 C 
ATOM     15  C   UNL     1      84.957  -0.271 -14.974  1.00  0.00    -0.020 C 
ATOM     16  C   UNL     1      85.147   1.360 -16.976  1.00  0.00     0.032 C 
ATOM     17  C   UNL     1      85.139  -0.138 -16.566  1.00  0.00     0.006 C 
ATOM     18  C   UNL     1      83.501  -0.685 -14.645  1.00  0.00     0.008 C 
ATOM     19  C   UNL     1      85.887  -1.436 -14.496  1.00  0.00     0.012 C 
ATOM     20  C   UNL     1      84.270  -1.117 -17.546  1.00  0.00    -0.025 C 
ATOM     21  C   UNL     1      82.996  -1.884 -15.426  1.00  0.00     0.005 C 
ATOM     22  C   UNL     1      82.871  -1.567 -16.935  1.00  0.00     0.003 C 
ATOM     23  C   UNL     1      85.122  -2.383 -17.892  1.00  0.00     0.010 C 
ATOM     24  C   UNL     1      84.031  -0.385 -18.904  1.00  0.00     0.012 C 
ATOM     25  C   UNL     1      82.108  -2.739 -17.729  1.00  0.00    -0.006 C 
ATOM     26  C   UNL     1      84.398  -3.452 -18.727  1.00  0.00     0.033 C 
ATOM     27  C   UNL     1      83.069  -3.918 -18.100  1.00  0.00     0.120 C 
ATOM     28  C   UNL     1      81.435  -2.190 -19.034  1.00  0.00     0.014 C 
ATOM     29  C   UNL     1      80.923  -3.321 -16.896  1.00  0.00     0.014 C 
ENDROOT
BRANCH   1  30
ATOM     30  C   UNL     1      86.738   4.499 -12.327  1.00  0.00     0.048 C 
ATOM     31  O   UNL     1      85.502   4.733 -12.250  1.00  0.00    -0.550 OA
ATOM     32  O   UNL     1      87.615   5.577 -12.248  1.00  0.00    -0.550 OA
ENDBRANCH   1  30
BRANCH  27  33
ATOM     33  O   UNL     1      83.276  -4.801 -17.016  1.00  0.00    -0.393 OA
ATOM     34  H   UNL     1      83.250  -4.301 -16.163  1.00  0.00     0.210 HD
ENDBRANCH  27  33
TORSDOF 2
ENDMDL
