MODEL 1
REMARK VINA RESULT:    -6.011      0.000      0.000
REMARK INTER + INTRA:          -7.557
REMARK INTER:                  -7.241
REMARK INTRA:                  -0.315
REMARK UNBOUND:                -0.315
REMARK SMILES Oc1cc(O)c2c(c1)O[C@H](c1ccc(O)c(O)c1)[C@@H](O)C2
REMARK SMILES IDX 21 1 19 2 10 3 9 4 7 5 8 6 2 7 3 8 4 9 6 10 20 11 11 13
REMARK SMILES IDX 18 14 12 15 16 16 13 17 14 18 17 19 15 21 5 23 1 25
REMARK H PARENT 20 12 17 20 15 22 5 24 1 26
REMARK Flexibility Score: inf
ROOT
ATOM      1  C   UNL     1       2.076  22.438  57.056  1.00  0.00     0.079 C 
ATOM      2  C   UNL     1       2.945  22.239  55.800  1.00  0.00     0.164 C 
ATOM      3  C   UNL     1       3.047  23.557  55.006  1.00  0.00     0.232 C 
ATOM      4  O   UNL     1       1.737  24.022  54.679  1.00  0.00    -0.482 OA
ATOM      5  C   UNL     1       0.661  23.913  55.566  1.00  0.00     0.131 A 
ATOM      6  C   UNL     1      -0.540  24.557  55.255  1.00  0.00     0.093 A 
ATOM      7  C   UNL     1      -1.629  24.478  56.130  1.00  0.00     0.122 A 
ATOM      8  C   UNL     1      -1.512  23.761  57.321  1.00  0.00     0.092 A 
ATOM      9  C   UNL     1      -0.318  23.109  57.650  1.00  0.00     0.126 A 
ATOM     10  C   UNL     1       0.774  23.149  56.749  1.00  0.00     0.039 A 
ENDROOT
BRANCH   2  11
ATOM     11  O   UNL     1       4.217  21.751  56.151  1.00  0.00    -0.389 OA
ATOM     12  H   UNL     1       4.143  20.768  56.261  1.00  0.00     0.211 HD
ENDBRANCH   2  11
BRANCH   3  13
ATOM     13  C   UNL     1       3.851  23.372  53.741  1.00  0.00    -0.001 A 
ATOM     14  C   UNL     1       5.192  23.791  53.679  1.00  0.00     0.057 A 
ATOM     15  C   UNL     1       3.252  22.827  52.596  1.00  0.00     0.012 A 
ATOM     16  C   UNL     1       5.930  23.647  52.499  1.00  0.00     0.157 A 
ATOM     17  C   UNL     1       3.985  22.681  51.415  1.00  0.00     0.050 A 
ATOM     18  C   UNL     1       5.324  23.088  51.361  1.00  0.00     0.157 A 
BRANCH  16  19
ATOM     19  O   UNL     1       7.260  24.067  52.476  1.00  0.00    -0.504 OA
ATOM     20  H   UNL     1       7.521  25.035  52.619  1.00  0.00     0.293 HD
ENDBRANCH  16  19
BRANCH  18  21
ATOM     21  O   UNL     1       6.054  22.940  50.182  1.00  0.00    -0.504 OA
ATOM     22  H   UNL     1       6.353  22.030  49.852  1.00  0.00     0.293 HD
ENDBRANCH  18  21
ENDBRANCH   3  13
BRANCH   9  23
ATOM     23  O   UNL     1      -0.247  22.446  58.877  1.00  0.00    -0.507 OA
ATOM     24  H   UNL     1       0.579  22.442  59.461  1.00  0.00     0.293 HD
ENDBRANCH   9  23
BRANCH   7  25
ATOM     25  O   UNL     1      -2.830  25.116  55.826  1.00  0.00    -0.508 OA
ATOM     26  H   UNL     1      -3.704  24.832  56.253  1.00  0.00     0.293 HD
ENDBRANCH   7  25
TORSDOF 6
ENDMDL
MODEL 2
REMARK VINA RESULT:    -6.009      3.219      5.744
REMARK INTER + INTRA:          -7.553
REMARK INTER:                  -7.307
REMARK INTRA:                  -0.246
REMARK UNBOUND:                -0.315
REMARK SMILES Oc1cc(O)c2c(c1)O[C@H](c1ccc(O)c(O)c1)[C@@H](O)C2
REMARK SMILES IDX 21 1 19 2 10 3 9 4 7 5 8 6 2 7 3 8 4 9 6 10 20 11 11 13
REMARK SMILES IDX 18 14 12 15 16 16 13 17 14 18 17 19 15 21 5 23 1 25
REMARK H PARENT 20 12 17 20 15 22 5 24 1 26
REMARK Flexibility Score: inf
ROOT
ATOM      1  C   UNL     1       2.758  23.619  55.574  1.00  0.00     0.079 C 
ATOM      2  C   UNL     1       3.437  22.614  56.525  1.00  0.00     0.164 C 
ATOM      3  C   UNL     1       4.720  22.053  55.881  1.00  0.00     0.232 C 
ATOM      4  O   UNL     1       4.406  21.463  54.620  1.00  0.00    -0.482 OA
ATOM      5  C   UNL     1       3.464  22.020  53.747  1.00  0.00     0.131 A 
ATOM      6  C   UNL     1       3.346  21.497  52.456  1.00  0.00     0.093 A 
ATOM      7  C   UNL     1       2.425  22.042  51.556  1.00  0.00     0.122 A 
ATOM      8  C   UNL     1       1.627  23.119  51.946  1.00  0.00     0.092 A 
ATOM      9  C   UNL     1       1.732  23.657  53.234  1.00  0.00     0.126 A 
ATOM     10  C   UNL     1       2.631  23.081  54.164  1.00  0.00     0.039 A 
ENDROOT
BRANCH   2  11
ATOM     11  O   UNL     1       3.707  23.215  57.768  1.00  0.00    -0.389 OA
ATOM     12  H   UNL     1       4.570  23.697  57.689  1.00  0.00     0.211 HD
ENDBRANCH   2  11
BRANCH   3  13
ATOM     13  C   UNL     1       5.376  21.026  56.773  1.00  0.00    -0.001 A 
ATOM     14  C   UNL     1       6.777  20.953  56.870  1.00  0.00     0.057 A 
ATOM     15  C   UNL     1       4.593  20.099  57.478  1.00  0.00     0.012 A 
ATOM     16  C   UNL     1       7.386  19.983  57.674  1.00  0.00     0.157 A 
ATOM     17  C   UNL     1       5.197  19.130  58.282  1.00  0.00     0.050 A 
ATOM     18  C   UNL     1       6.593  19.067  58.385  1.00  0.00     0.157 A 
BRANCH  16  19
ATOM     19  O   UNL     1       8.778  19.944  57.751  1.00  0.00    -0.504 OA
ATOM     20  H   UNL     1       9.289  19.072  57.822  1.00  0.00     0.293 HD
ENDBRANCH  16  19
BRANCH  18  21
ATOM     21  O   UNL     1       7.193  18.099  59.189  1.00  0.00    -0.504 OA
ATOM     22  H   UNL     1       7.677  18.345  60.045  1.00  0.00     0.293 HD
ENDBRANCH  18  21
ENDBRANCH   3  13
BRANCH   9  23
ATOM     23  O   UNL     1       0.939  24.763  53.550  1.00  0.00    -0.507 OA
ATOM     24  H   UNL     1       0.820  25.556  52.935  1.00  0.00     0.293 HD
ENDBRANCH   9  23
BRANCH   7  25
ATOM     25  O   UNL     1       2.300  21.525  50.268  1.00  0.00    -0.508 OA
ATOM     26  H   UNL     1       2.108  22.123  49.473  1.00  0.00     0.293 HD
ENDBRANCH   7  25
TORSDOF 6
ENDMDL
MODEL 3
REMARK VINA RESULT:    -5.959      3.628      5.011
REMARK INTER + INTRA:          -7.494
REMARK INTER:                  -7.145
REMARK INTRA:                  -0.348
REMARK UNBOUND:                -0.315
REMARK SMILES Oc1cc(O)c2c(c1)O[C@H](c1ccc(O)c(O)c1)[C@@H](O)C2
REMARK SMILES IDX 21 1 19 2 10 3 9 4 7 5 8 6 2 7 3 8 4 9 6 10 20 11 11 13
REMARK SMILES IDX 18 14 12 15 16 16 13 17 14 18 17 19 15 21 5 23 1 25
REMARK H PARENT 20 12 17 20 15 22 5 24 1 26
REMARK Flexibility Score: inf
ROOT
ATOM      1  C   UNL     1       3.986  24.796  57.984  1.00  0.00     0.079 C 
ATOM      2  C   UNL     1       4.817  23.555  58.366  1.00  0.00     0.164 C 
ATOM      3  C   UNL     1       4.797  22.526  57.218  1.00  0.00     0.232 C 
ATOM      4  O   UNL     1       3.447  22.185  56.902  1.00  0.00    -0.482 OA
ATOM      5  C   UNL     1       2.416  23.131  56.906  1.00  0.00     0.131 A 
ATOM      6  C   UNL     1       1.163  22.768  56.406  1.00  0.00     0.093 A 
ATOM      7  C   UNL     1       0.116  23.696  56.383  1.00  0.00     0.122 A 
ATOM      8  C   UNL     1       0.328  24.993  56.854  1.00  0.00     0.092 A 
ATOM      9  C   UNL     1       1.577  25.376  57.358  1.00  0.00     0.126 A 
ATOM     10  C   UNL     1       2.627  24.428  57.424  1.00  0.00     0.039 A 
ENDROOT
BRANCH   2  11
ATOM     11  O   UNL     1       6.132  23.926  58.700  1.00  0.00    -0.389 OA
ATOM     12  H   UNL     1       6.089  24.488  59.517  1.00  0.00     0.211 HD
ENDBRANCH   2  11
BRANCH   3  13
ATOM     13  C   UNL     1       5.563  21.278  57.589  1.00  0.00    -0.001 A 
ATOM     14  C   UNL     1       6.820  21.014  57.018  1.00  0.00     0.057 A 
ATOM     15  C   UNL     1       5.002  20.342  58.473  1.00  0.00     0.012 A 
ATOM     16  C   UNL     1       7.516  19.844  57.340  1.00  0.00     0.157 A 
ATOM     17  C   UNL     1       5.695  19.173  58.797  1.00  0.00     0.050 A 
ATOM     18  C   UNL     1       6.953  18.919  58.235  1.00  0.00     0.157 A 
BRANCH  16  19
ATOM     19  O   UNL     1       8.764  19.617  56.759  1.00  0.00    -0.504 OA
ATOM     20  H   UNL     1       9.622  19.959  57.176  1.00  0.00     0.293 HD
ENDBRANCH  16  19
BRANCH  18  21
ATOM     21  O   UNL     1       7.643  17.752  58.560  1.00  0.00    -0.504 OA
ATOM     22  H   UNL     1       7.431  16.867  58.114  1.00  0.00     0.293 HD
ENDBRANCH  18  21
ENDBRANCH   3  13
BRANCH   9  23
ATOM     23  O   UNL     1       1.741  26.700  57.772  1.00  0.00    -0.507 OA
ATOM     24  H   UNL     1       1.068  27.430  57.579  1.00  0.00     0.293 HD
ENDBRANCH   9  23
BRANCH   7  25
ATOM     25  O   UNL     1      -1.137  23.341  55.888  1.00  0.00    -0.508 OA
ATOM     26  H   UNL     1      -1.290  23.185  54.898  1.00  0.00     0.293 HD
ENDBRANCH   7  25
TORSDOF 6
ENDMDL
MODEL 4
REMARK VINA RESULT:    -5.886      4.084      7.644
REMARK INTER + INTRA:          -7.405
REMARK INTER:                  -7.116
REMARK INTRA:                  -0.290
REMARK UNBOUND:                -0.315
REMARK SMILES Oc1cc(O)c2c(c1)O[C@H](c1ccc(O)c(O)c1)[C@@H](O)C2
REMARK SMILES IDX 21 1 19 2 10 3 9 4 7 5 8 6 2 7 3 8 4 9 6 10 20 11 11 13
REMARK SMILES IDX 18 14 12 15 16 16 13 17 14 18 17 19 15 21 5 23 1 25
REMARK H PARENT 20 12 17 20 15 22 5 24 1 26
REMARK Flexibility Score: inf
ROOT
ATOM      1  C   UNL     1       3.758  19.451  60.014  1.00  0.00     0.079 C 
ATOM      2  C   UNL     1       2.841  20.683  59.897  1.00  0.00     0.164 C 
ATOM      3  C   UNL     1       2.584  21.019  58.414  1.00  0.00     0.232 C 
ATOM      4  O   UNL     1       3.829  21.217  57.744  1.00  0.00    -0.482 OA
ATOM      5  C   UNL     1       4.959  20.437  58.019  1.00  0.00     0.131 A 
ATOM      6  C   UNL     1       6.082  20.560  57.196  1.00  0.00     0.093 A 
ATOM      7  C   UNL     1       7.221  19.784  57.436  1.00  0.00     0.122 A 
ATOM      8  C   UNL     1       7.231  18.876  58.496  1.00  0.00     0.092 A 
ATOM      9  C   UNL     1       6.115  18.738  59.331  1.00  0.00     0.126 A 
ATOM     10  C   UNL     1       4.976  19.552  59.119  1.00  0.00     0.039 A 
ENDROOT
BRANCH   2  11
ATOM     11  O   UNL     1       1.636  20.471  60.591  1.00  0.00    -0.389 OA
ATOM     12  H   UNL     1       1.209  19.658  60.213  1.00  0.00     0.211 HD
ENDBRANCH   2  11
BRANCH   3  13
ATOM     13  C   UNL     1       1.729  22.256  58.273  1.00  0.00    -0.001 A 
ATOM     14  C   UNL     1       0.686  22.301  57.332  1.00  0.00     0.057 A 
ATOM     15  C   UNL     1       2.002  23.394  59.047  1.00  0.00     0.012 A 
ATOM     16  C   UNL     1      -0.087  23.457  57.181  1.00  0.00     0.157 A 
ATOM     17  C   UNL     1       1.231  24.550  58.900  1.00  0.00     0.050 A 
ATOM     18  C   UNL     1       0.184  24.588  57.969  1.00  0.00     0.157 A 
BRANCH  16  19
ATOM     19  O   UNL     1      -1.119  23.464  56.241  1.00  0.00    -0.504 OA
ATOM     20  H   UNL     1      -0.942  23.557  55.248  1.00  0.00     0.293 HD
ENDBRANCH  16  19
BRANCH  18  21
ATOM     21  O   UNL     1      -0.584  25.742  57.824  1.00  0.00    -0.504 OA
ATOM     22  H   UNL     1      -1.428  25.752  57.264  1.00  0.00     0.293 HD
ENDBRANCH  18  21
ENDBRANCH   3  13
BRANCH   9  23
ATOM     23  O   UNL     1       6.169  17.781  60.346  1.00  0.00    -0.507 OA
ATOM     24  H   UNL     1       5.705  16.884  60.291  1.00  0.00     0.293 HD
ENDBRANCH   9  23
BRANCH   7  25
ATOM     25  O   UNL     1       8.345  19.902  56.621  1.00  0.00    -0.508 OA
ATOM     26  H   UNL     1       8.715  19.109  56.110  1.00  0.00     0.293 HD
ENDBRANCH   7  25
TORSDOF 6
ENDMDL
MODEL 5
REMARK VINA RESULT:    -5.878      3.336      7.392
REMARK INTER + INTRA:          -7.396
REMARK INTER:                  -7.772
REMARK INTRA:                   0.376
REMARK UNBOUND:                -0.315
REMARK SMILES Oc1cc(O)c2c(c1)O[C@H](c1ccc(O)c(O)c1)[C@@H](O)C2
REMARK SMILES IDX 21 1 19 2 10 3 9 4 7 5 8 6 2 7 3 8 4 9 6 10 20 11 11 13
REMARK SMILES IDX 18 14 12 15 16 16 13 17 14 18 17 19 15 21 5 23 1 25
REMARK H PARENT 20 12 17 20 15 22 5 24 1 26
REMARK Flexibility Score: inf
ROOT
ATOM      1  C   UNL     1       5.621  21.909  56.443  1.00  0.00     0.079 C 
ATOM      2  C   UNL     1       4.133  22.269  56.267  1.00  0.00     0.164 C 
ATOM      3  C   UNL     1       3.442  22.366  57.642  1.00  0.00     0.232 C 
ATOM      4  O   UNL     1       3.612  21.139  58.352  1.00  0.00    -0.482 OA
ATOM      5  C   UNL     1       4.804  20.407  58.306  1.00  0.00     0.131 A 
ATOM      6  C   UNL     1       4.964  19.321  59.171  1.00  0.00     0.093 A 
ATOM      7  C   UNL     1       6.150  18.579  59.159  1.00  0.00     0.122 A 
ATOM      8  C   UNL     1       7.180  18.931  58.285  1.00  0.00     0.092 A 
ATOM      9  C   UNL     1       7.038  20.016  57.412  1.00  0.00     0.126 A 
ATOM     10  C   UNL     1       5.824  20.744  57.389  1.00  0.00     0.039 A 
ENDROOT
BRANCH   2  11
ATOM     11  O   UNL     1       3.997  23.465  55.539  1.00  0.00    -0.389 OA
ATOM     12  H   UNL     1       3.136  23.882  55.802  1.00  0.00     0.211 HD
ENDBRANCH   2  11
BRANCH   3  13
ATOM     13  C   UNL     1       1.969  22.667  57.493  1.00  0.00    -0.001 A 
ATOM     14  C   UNL     1       1.444  23.073  56.254  1.00  0.00     0.057 A 
ATOM     15  C   UNL     1       1.117  22.593  58.606  1.00  0.00     0.012 A 
ATOM     16  C   UNL     1       0.085  23.380  56.122  1.00  0.00     0.157 A 
ATOM     17  C   UNL     1      -0.240  22.898  58.478  1.00  0.00     0.050 A 
ATOM     18  C   UNL     1      -0.762  23.291  57.239  1.00  0.00     0.157 A 
BRANCH  16  19
ATOM     19  O   UNL     1      -0.402  23.774  54.876  1.00  0.00    -0.504 OA
ATOM     20  H   UNL     1      -0.547  23.113  54.122  1.00  0.00     0.293 HD
ENDBRANCH  16  19
BRANCH  18  21
ATOM     21  O   UNL     1      -2.117  23.595  57.114  1.00  0.00    -0.504 OA
ATOM     22  H   UNL     1      -2.725  23.659  57.923  1.00  0.00     0.293 HD
ENDBRANCH  18  21
ENDBRANCH   3  13
BRANCH   9  23
ATOM     23  O   UNL     1       8.121  20.347  56.594  1.00  0.00    -0.507 OA
ATOM     24  H   UNL     1       8.295  19.911  55.698  1.00  0.00     0.293 HD
ENDBRANCH   9  23
BRANCH   7  25
ATOM     25  O   UNL     1       6.317  17.494  60.017  1.00  0.00    -0.508 OA
ATOM     26  H   UNL     1       6.194  16.541  59.696  1.00  0.00     0.293 HD
ENDBRANCH   7  25
TORSDOF 6
ENDMDL
MODEL 6
REMARK VINA RESULT:    -5.824      3.097      6.992
REMARK INTER + INTRA:          -7.330
REMARK INTER:                  -6.960
REMARK INTRA:                  -0.370
REMARK UNBOUND:                -0.315
REMARK SMILES Oc1cc(O)c2c(c1)O[C@H](c1ccc(O)c(O)c1)[C@@H](O)C2
REMARK SMILES IDX 21 1 19 2 10 3 9 4 7 5 8 6 2 7 3 8 4 9 6 10 20 11 11 13
REMARK SMILES IDX 18 14 12 15 16 16 13 17 14 18 17 19 15 21 5 23 1 25
REMARK H PARENT 20 12 17 20 15 22 5 24 1 26
REMARK Flexibility Score: inf
ROOT
ATOM      1  C   UNL     1       4.310  22.501  56.502  1.00  0.00     0.079 C 
ATOM      2  C   UNL     1       2.952  23.197  56.291  1.00  0.00     0.164 C 
ATOM      3  C   UNL     1       2.225  23.369  57.640  1.00  0.00     0.232 C 
ATOM      4  O   UNL     1       2.078  22.097  58.271  1.00  0.00    -0.482 OA
ATOM      5  C   UNL     1       3.077  21.118  58.224  1.00  0.00     0.131 A 
ATOM      6  C   UNL     1       2.943  19.977  59.019  1.00  0.00     0.093 A 
ATOM      7  C   UNL     1       3.933  18.987  59.006  1.00  0.00     0.122 A 
ATOM      8  C   UNL     1       5.062  19.147  58.201  1.00  0.00     0.092 A 
ATOM      9  C   UNL     1       5.214  20.284  57.398  1.00  0.00     0.126 A 
ATOM     10  C   UNL     1       4.195  21.267  57.375  1.00  0.00     0.039 A 
ENDROOT
BRANCH   2  11
ATOM     11  O   UNL     1       3.126  24.432  55.641  1.00  0.00    -0.389 OA
ATOM     12  H   UNL     1       2.624  25.117  56.155  1.00  0.00     0.211 HD
ENDBRANCH   2  11
BRANCH   3  13
ATOM     13  C   UNL     1       0.866  24.003  57.452  1.00  0.00    -0.001 A 
ATOM     14  C   UNL     1      -0.104  23.388  56.642  1.00  0.00     0.057 A 
ATOM     15  C   UNL     1       0.577  25.241  58.045  1.00  0.00     0.012 A 
ATOM     16  C   UNL     1      -1.351  23.989  56.443  1.00  0.00     0.157 A 
ATOM     17  C   UNL     1      -0.668  25.844  57.850  1.00  0.00     0.050 A 
ATOM     18  C   UNL     1      -1.637  25.223  57.052  1.00  0.00     0.157 A 
BRANCH  16  19
ATOM     19  O   UNL     1      -2.292  23.347  55.638  1.00  0.00    -0.504 OA
ATOM     20  H   UNL     1      -3.017  22.754  56.025  1.00  0.00     0.293 HD
ENDBRANCH  16  19
BRANCH  18  21
ATOM     21  O   UNL     1      -2.879  25.826  56.859  1.00  0.00    -0.504 OA
ATOM     22  H   UNL     1      -3.672  25.307  56.501  1.00  0.00     0.293 HD
ENDBRANCH  18  21
ENDBRANCH   3  13
BRANCH   9  23
ATOM     23  O   UNL     1       6.386  20.408  56.649  1.00  0.00    -0.507 OA
ATOM     24  H   UNL     1       6.841  19.627  56.194  1.00  0.00     0.293 HD
ENDBRANCH   9  23
BRANCH   7  25
ATOM     25  O   UNL     1       3.806  17.846  59.794  1.00  0.00    -0.508 OA
ATOM     26  H   UNL     1       3.014  17.714  60.411  1.00  0.00     0.293 HD
ENDBRANCH   7  25
TORSDOF 6
ENDMDL
MODEL 7
REMARK VINA RESULT:    -5.810      2.856      6.904
REMARK INTER + INTRA:          -7.314
REMARK INTER:                  -6.993
REMARK INTRA:                  -0.321
REMARK UNBOUND:                -0.315
REMARK SMILES Oc1cc(O)c2c(c1)O[C@H](c1ccc(O)c(O)c1)[C@@H](O)C2
REMARK SMILES IDX 21 1 19 2 10 3 9 4 7 5 8 6 2 7 3 8 4 9 6 10 20 11 11 13
REMARK SMILES IDX 18 14 12 15 16 16 13 17 14 18 17 19 15 21 5 23 1 25
REMARK H PARENT 20 12 17 20 15 22 5 24 1 26
REMARK Flexibility Score: inf
ROOT
ATOM      1  C   UNL     1       1.625  22.255  53.156  1.00  0.00     0.079 C 
ATOM      2  C   UNL     1       1.151  23.067  54.376  1.00  0.00     0.164 C 
ATOM      3  C   UNL     1      -0.115  23.873  54.022  1.00  0.00     0.232 C 
ATOM      4  O   UNL     1       0.149  24.711  52.897  1.00  0.00    -0.482 OA
ATOM      5  C   UNL     1       0.939  24.292  51.821  1.00  0.00     0.131 A 
ATOM      6  C   UNL     1       0.999  25.089  50.675  1.00  0.00     0.093 A 
ATOM      7  C   UNL     1       1.769  24.689  49.577  1.00  0.00     0.122 A 
ATOM      8  C   UNL     1       2.473  23.485  49.625  1.00  0.00     0.092 A 
ATOM      9  C   UNL     1       2.425  22.673  50.765  1.00  0.00     0.126 A 
ATOM     10  C   UNL     1       1.683  23.093  51.895  1.00  0.00     0.039 A 
ENDROOT
BRANCH   2  11
ATOM     11  O   UNL     1       0.928  22.219  55.477  1.00  0.00    -0.389 OA
ATOM     12  H   UNL     1       1.814  21.951  55.835  1.00  0.00     0.211 HD
ENDBRANCH   2  11
BRANCH   3  13
ATOM     13  C   UNL     1      -0.569  24.718  55.190  1.00  0.00    -0.001 A 
ATOM     14  C   UNL     1       0.346  25.528  55.885  1.00  0.00     0.057 A 
ATOM     15  C   UNL     1      -1.902  24.663  55.624  1.00  0.00     0.012 A 
ATOM     16  C   UNL     1      -0.068  26.288  56.984  1.00  0.00     0.157 A 
ATOM     17  C   UNL     1      -2.320  25.421  56.721  1.00  0.00     0.050 A 
ATOM     18  C   UNL     1      -1.408  26.237  57.405  1.00  0.00     0.157 A 
BRANCH  16  19
ATOM     19  O   UNL     1       0.866  27.086  57.646  1.00  0.00    -0.504 OA
ATOM     20  H   UNL     1       1.130  28.002  57.304  1.00  0.00     0.293 HD
ENDBRANCH  16  19
BRANCH  18  21
ATOM     21  O   UNL     1      -1.826  26.993  58.498  1.00  0.00    -0.504 OA
ATOM     22  H   UNL     1      -2.125  27.956  58.396  1.00  0.00     0.293 HD
ENDBRANCH  18  21
ENDBRANCH   3  13
BRANCH   9  23
ATOM     23  O   UNL     1       3.115  21.459  50.735  1.00  0.00    -0.507 OA
ATOM     24  H   UNL     1       2.655  20.560  50.674  1.00  0.00     0.293 HD
ENDBRANCH   9  23
BRANCH   7  25
ATOM     25  O   UNL     1       1.834  25.479  48.431  1.00  0.00    -0.508 OA
ATOM     26  H   UNL     1       1.814  26.490  48.483  1.00  0.00     0.293 HD
ENDBRANCH   7  25
TORSDOF 6
ENDMDL
MODEL 8
REMARK VINA RESULT:    -5.765      1.275      2.811
REMARK INTER + INTRA:          -7.259
REMARK INTER:                  -7.036
REMARK INTRA:                  -0.223
REMARK UNBOUND:                -0.315
REMARK SMILES Oc1cc(O)c2c(c1)O[C@H](c1ccc(O)c(O)c1)[C@@H](O)C2
REMARK SMILES IDX 21 1 19 2 10 3 9 4 7 5 8 6 2 7 3 8 4 9 6 10 20 11 11 13
REMARK SMILES IDX 18 14 12 15 16 16 13 17 14 18 17 19 15 21 5 23 1 25
REMARK H PARENT 20 12 17 20 15 22 5 24 1 26
REMARK Flexibility Score: inf
ROOT
ATOM      1  C   UNL     1      -0.237  24.129  54.823  1.00  0.00     0.079 C 
ATOM      2  C   UNL     1       0.957  24.202  53.852  1.00  0.00     0.164 C 
ATOM      3  C   UNL     1       1.673  22.838  53.783  1.00  0.00     0.232 C 
ATOM      4  O   UNL     1       2.077  22.442  55.093  1.00  0.00    -0.482 OA
ATOM      5  C   UNL     1       1.282  22.670  56.223  1.00  0.00     0.131 A 
ATOM      6  C   UNL     1       1.653  22.089  57.439  1.00  0.00     0.093 A 
ATOM      7  C   UNL     1       0.870  22.286  58.582  1.00  0.00     0.122 A 
ATOM      8  C   UNL     1      -0.289  23.059  58.504  1.00  0.00     0.092 A 
ATOM      9  C   UNL     1      -0.676  23.649  57.295  1.00  0.00     0.126 A 
ATOM     10  C   UNL     1       0.134  23.488  56.145  1.00  0.00     0.039 A 
ENDROOT
BRANCH   2  11
ATOM     11  O   UNL     1       0.533  24.624  52.579  1.00  0.00    -0.389 OA
ATOM     12  H   UNL     1       1.296  24.512  51.954  1.00  0.00     0.211 HD
ENDBRANCH   2  11
BRANCH   3  13
ATOM     13  C   UNL     1       2.879  22.899  52.876  1.00  0.00    -0.001 A 
ATOM     14  C   UNL     1       4.130  23.304  53.375  1.00  0.00     0.057 A 
ATOM     15  C   UNL     1       2.752  22.600  51.511  1.00  0.00     0.012 A 
ATOM     16  C   UNL     1       5.241  23.390  52.530  1.00  0.00     0.157 A 
ATOM     17  C   UNL     1       3.860  22.684  50.663  1.00  0.00     0.050 A 
ATOM     18  C   UNL     1       5.107  23.076  51.167  1.00  0.00     0.157 A 
BRANCH  16  19
ATOM     19  O   UNL     1       6.467  23.789  53.061  1.00  0.00    -0.504 OA
ATOM     20  H   UNL     1       7.348  23.547  52.623  1.00  0.00     0.293 HD
ENDBRANCH  16  19
BRANCH  18  21
ATOM     21  O   UNL     1       6.211  23.158  50.319  1.00  0.00    -0.504 OA
ATOM     22  H   UNL     1       7.005  23.748  50.536  1.00  0.00     0.293 HD
ENDBRANCH  18  21
ENDBRANCH   3  13
BRANCH   9  23
ATOM     23  O   UNL     1      -1.870  24.373  57.269  1.00  0.00    -0.507 OA
ATOM     24  H   UNL     1      -2.392  24.556  56.423  1.00  0.00     0.293 HD
ENDBRANCH   9  23
BRANCH   7  25
ATOM     25  O   UNL     1       1.234  21.712  59.798  1.00  0.00    -0.508 OA
ATOM     26  H   UNL     1       1.519  20.742  59.862  1.00  0.00     0.293 HD
ENDBRANCH   7  25
TORSDOF 6
ENDMDL
MODEL 9
REMARK VINA RESULT:    -5.729      4.735      6.871
REMARK INTER + INTRA:          -7.217
REMARK INTER:                  -7.347
REMARK INTRA:                   0.130
REMARK UNBOUND:                -0.315
REMARK SMILES Oc1cc(O)c2c(c1)O[C@H](c1ccc(O)c(O)c1)[C@@H](O)C2
REMARK SMILES IDX 21 1 19 2 10 3 9 4 7 5 8 6 2 7 3 8 4 9 6 10 20 11 11 13
REMARK SMILES IDX 18 14 12 15 16 16 13 17 14 18 17 19 15 21 5 23 1 25
REMARK H PARENT 20 12 17 20 15 22 5 24 1 26
REMARK Flexibility Score: inf
ROOT
ATOM      1  C   UNL     1       0.823  25.145  51.361  1.00  0.00     0.079 C 
ATOM      2  C   UNL     1       1.276  25.643  49.975  1.00  0.00     0.164 C 
ATOM      3  C   UNL     1       1.257  24.484  48.959  1.00  0.00     0.232 C 
ATOM      4  O   UNL     1       2.076  23.416  49.433  1.00  0.00    -0.482 OA
ATOM      5  C   UNL     1       2.128  23.056  50.785  1.00  0.00     0.131 A 
ATOM      6  C   UNL     1       2.801  21.887  51.148  1.00  0.00     0.093 A 
ATOM      7  C   UNL     1       2.857  21.493  52.490  1.00  0.00     0.122 A 
ATOM      8  C   UNL     1       2.230  22.267  53.467  1.00  0.00     0.092 A 
ATOM      9  C   UNL     1       1.551  23.442  53.122  1.00  0.00     0.126 A 
ATOM     10  C   UNL     1       1.527  23.868  51.772  1.00  0.00     0.039 A 
ENDROOT
BRANCH   2  11
ATOM     11  O   UNL     1       0.471  26.714  49.548  1.00  0.00    -0.389 OA
ATOM     12  H   UNL     1       1.016  27.541  49.598  1.00  0.00     0.211 HD
ENDBRANCH   2  11
BRANCH   3  13
ATOM     13  C   UNL     1       1.747  24.937  47.603  1.00  0.00    -0.001 A 
ATOM     14  C   UNL     1       1.653  24.086  46.488  1.00  0.00     0.057 A 
ATOM     15  C   UNL     1       2.350  26.195  47.455  1.00  0.00     0.012 A 
ATOM     16  C   UNL     1       2.133  24.494  45.239  1.00  0.00     0.157 A 
ATOM     17  C   UNL     1       2.831  26.606  46.210  1.00  0.00     0.050 A 
ATOM     18  C   UNL     1       2.724  25.761  45.097  1.00  0.00     0.157 A 
BRANCH  16  19
ATOM     19  O   UNL     1       2.017  23.627  44.152  1.00  0.00    -0.504 OA
ATOM     20  H   UNL     1       2.821  23.169  43.741  1.00  0.00     0.293 HD
ENDBRANCH  16  19
BRANCH  18  21
ATOM     21  O   UNL     1       3.204  26.174  43.855  1.00  0.00    -0.504 OA
ATOM     22  H   UNL     1       3.796  26.990  43.759  1.00  0.00     0.293 HD
ENDBRANCH  18  21
ENDBRANCH   3  13
BRANCH   9  23
ATOM     23  O   UNL     1       0.905  24.150  54.138  1.00  0.00    -0.507 OA
ATOM     24  H   UNL     1       1.331  24.919  54.639  1.00  0.00     0.293 HD
ENDBRANCH   9  23
BRANCH   7  25
ATOM     25  O   UNL     1       3.528  20.329  52.860  1.00  0.00    -0.508 OA
ATOM     26  H   UNL     1       3.034  19.535  53.250  1.00  0.00     0.293 HD
ENDBRANCH   7  25
TORSDOF 6
ENDMDL
