MODEL 1
REMARK VINA RESULT:    -6.640      0.000      0.000
REMARK INTER + INTRA:          -8.040
REMARK INTER:                  -7.804
REMARK INTRA:                  -0.236
REMARK UNBOUND:                -0.236
REMARK SMILES O=c1c(O)c(-c2ccc(O)c(O)c2)oc2cc(O)ccc12
REMARK SMILES IDX 5 1 3 2 2 3 1 4 21 5 15 6 14 7 16 8 17 9 19 10 20 11 6 12
REMARK SMILES IDX 7 13 8 14 9 15 13 16 11 17 10 18 12 20 4 22 18 24
REMARK H PARENT 10 19 12 21 4 23 18 25
REMARK Flexibility Score: inf
ROOT
ATOM      1  C   UNL     1      18.374 -13.384  21.877  1.00  0.00     0.180 A 
ATOM      2  C   UNL     1      18.303 -12.170  22.590  1.00  0.00     0.208 A 
ATOM      3  C   UNL     1      18.683 -12.155  23.941  1.00  0.00     0.235 A 
ATOM      4  O   UNL     1      18.638 -11.079  24.597  1.00  0.00    -0.285 OA
ATOM      5  C   UNL     1      19.102 -13.348  24.553  1.00  0.00     0.069 A 
ATOM      6  C   UNL     1      19.122 -14.526  23.778  1.00  0.00     0.142 A 
ATOM      7  O   UNL     1      18.763 -14.496  22.499  1.00  0.00    -0.452 OA
ATOM      8  C   UNL     1      19.524 -15.736  24.353  1.00  0.00     0.094 A 
ATOM      9  C   UNL     1      19.909 -15.784  25.697  1.00  0.00     0.119 A 
ATOM     10  C   UNL     1      19.892 -14.616  26.470  1.00  0.00     0.047 A 
ATOM     11  C   UNL     1      19.491 -13.402  25.904  1.00  0.00     0.020 A 
ENDROOT
BRANCH   1  12
ATOM     12  C   UNL     1      18.009 -13.479  20.445  1.00  0.00     0.025 A 
ATOM     13  C   UNL     1      16.801 -14.072  20.036  1.00  0.00     0.016 A 
ATOM     14  C   UNL     1      16.466 -14.128  18.681  1.00  0.00     0.051 A 
ATOM     15  C   UNL     1      17.323 -13.584  17.716  1.00  0.00     0.157 A 
ATOM     16  C   UNL     1      18.854 -12.915  19.477  1.00  0.00     0.062 A 
ATOM     17  C   UNL     1      18.522 -12.970  18.118  1.00  0.00     0.158 A 
BRANCH  15  18
ATOM     18  O   UNL     1      16.987 -13.643  16.365  1.00  0.00    -0.504 OA
ATOM     19  H   UNL     1      16.828 -14.527  15.896  1.00  0.00     0.293 HD
ENDBRANCH  15  18
BRANCH  17  20
ATOM     20  O   UNL     1      19.394 -12.412  17.184  1.00  0.00    -0.504 OA
ATOM     21  H   UNL     1      19.089 -12.147  16.255  1.00  0.00     0.293 HD
ENDBRANCH  17  20
ENDBRANCH   1  12
BRANCH   2  22
ATOM     22  O   UNL     1      17.835 -11.010  21.967  1.00  0.00    -0.502 OA
ATOM     23  H   UNL     1      16.902 -10.648  22.129  1.00  0.00     0.293 HD
ENDBRANCH   2  22
BRANCH   9  24
ATOM     24  O   UNL     1      20.307 -16.998  26.255  1.00  0.00    -0.508 OA
ATOM     25  H   UNL     1      20.275 -17.157  27.256  1.00  0.00     0.293 HD
ENDBRANCH   9  24
TORSDOF 5
ENDMDL
MODEL 2
REMARK VINA RESULT:    -6.577     16.449     18.133
REMARK INTER + INTRA:          -7.967
REMARK INTER:                  -7.648
REMARK INTRA:                  -0.319
REMARK UNBOUND:                -0.236
REMARK SMILES O=c1c(O)c(-c2ccc(O)c(O)c2)oc2cc(O)ccc12
REMARK SMILES IDX 5 1 3 2 2 3 1 4 21 5 15 6 14 7 16 8 17 9 19 10 20 11 6 12
REMARK SMILES IDX 7 13 8 14 9 15 13 16 11 17 10 18 12 20 4 22 18 24
REMARK H PARENT 10 19 12 21 4 23 18 25
REMARK Flexibility Score: inf
ROOT
ATOM      1  C   UNL     1      16.112  -0.310  33.858  1.00  0.00     0.180 A 
ATOM      2  C   UNL     1      16.858   0.831  34.219  1.00  0.00     0.208 A 
ATOM      3  C   UNL     1      18.203   0.672  34.586  1.00  0.00     0.235 A 
ATOM      4  O   UNL     1      18.894   1.679  34.902  1.00  0.00    -0.285 OA
ATOM      5  C   UNL     1      18.767  -0.615  34.605  1.00  0.00     0.069 A 
ATOM      6  C   UNL     1      17.948  -1.708  34.254  1.00  0.00     0.142 A 
ATOM      7  O   UNL     1      16.681  -1.514  33.904  1.00  0.00    -0.452 OA
ATOM      8  C   UNL     1      18.468  -3.006  34.270  1.00  0.00     0.094 A 
ATOM      9  C   UNL     1      19.801  -3.227  34.632  1.00  0.00     0.119 A 
ATOM     10  C   UNL     1      20.618  -2.144  34.979  1.00  0.00     0.047 A 
ATOM     11  C   UNL     1      20.107  -0.842  34.968  1.00  0.00     0.020 A 
ENDROOT
BRANCH   1  12
ATOM     12  C   UNL     1      14.695  -0.225  33.442  1.00  0.00     0.025 A 
ATOM     13  C   UNL     1      14.339   0.081  32.116  1.00  0.00     0.016 A 
ATOM     14  C   UNL     1      12.994   0.133  31.741  1.00  0.00     0.051 A 
ATOM     15  C   UNL     1      11.986  -0.132  32.678  1.00  0.00     0.157 A 
ATOM     16  C   UNL     1      13.682  -0.511  34.372  1.00  0.00     0.062 A 
ATOM     17  C   UNL     1      12.334  -0.459  33.999  1.00  0.00     0.158 A 
BRANCH  15  18
ATOM     18  O   UNL     1      10.645  -0.078  32.300  1.00  0.00    -0.504 OA
ATOM     19  H   UNL     1      10.322   0.558  31.581  1.00  0.00     0.293 HD
ENDBRANCH  15  18
BRANCH  17  20
ATOM     20  O   UNL     1      11.356  -0.736  34.954  1.00  0.00    -0.504 OA
ATOM     21  H   UNL     1      11.122  -0.080  35.690  1.00  0.00     0.293 HD
ENDBRANCH  17  20
ENDBRANCH   1  12
BRANCH   2  22
ATOM     22  O   UNL     1      16.257   2.091  34.238  1.00  0.00    -0.502 OA
ATOM     23  H   UNL     1      15.588   2.361  34.951  1.00  0.00     0.293 HD
ENDBRANCH   2  22
BRANCH   9  24
ATOM     24  O   UNL     1      20.304  -4.526  34.642  1.00  0.00    -0.508 OA
ATOM     25  H   UNL     1      20.216  -5.135  33.836  1.00  0.00     0.293 HD
ENDBRANCH   9  24
TORSDOF 5
ENDMDL
MODEL 3
REMARK VINA RESULT:    -6.323     17.403     19.048
REMARK INTER + INTRA:          -7.669
REMARK INTER:                  -7.693
REMARK INTRA:                   0.024
REMARK UNBOUND:                -0.236
REMARK SMILES O=c1c(O)c(-c2ccc(O)c(O)c2)oc2cc(O)ccc12
REMARK SMILES IDX 5 1 3 2 2 3 1 4 21 5 15 6 14 7 16 8 17 9 19 10 20 11 6 12
REMARK SMILES IDX 7 13 8 14 9 15 13 16 11 17 10 18 12 20 4 22 18 24
REMARK H PARENT 10 19 12 21 4 23 18 25
REMARK Flexibility Score: inf
ROOT
ATOM      1  C   UNL     1      10.755  -0.484  32.824  1.00  0.00     0.180 A 
ATOM      2  C   UNL     1      10.665   0.444  33.882  1.00  0.00     0.208 A 
ATOM      3  C   UNL     1      11.785   1.231  34.189  1.00  0.00     0.235 A 
ATOM      4  O   UNL     1      11.725   2.076  35.124  1.00  0.00    -0.285 OA
ATOM      5  C   UNL     1      12.970   1.062  33.454  1.00  0.00     0.069 A 
ATOM      6  C   UNL     1      12.988   0.096  32.427  1.00  0.00     0.142 A 
ATOM      7  O   UNL     1      11.902  -0.623  32.161  1.00  0.00    -0.452 OA
ATOM      8  C   UNL     1      14.151  -0.109  31.678  1.00  0.00     0.094 A 
ATOM      9  C   UNL     1      15.301   0.642  31.942  1.00  0.00     0.119 A 
ATOM     10  C   UNL     1      15.287   1.604  32.960  1.00  0.00     0.047 A 
ATOM     11  C   UNL     1      14.129   1.816  33.715  1.00  0.00     0.020 A 
ENDROOT
BRANCH   1  12
ATOM     12  C   UNL     1       9.613  -1.338  32.426  1.00  0.00     0.025 A 
ATOM     13  C   UNL     1       9.746  -2.734  32.320  1.00  0.00     0.016 A 
ATOM     14  C   UNL     1       8.648  -3.522  31.966  1.00  0.00     0.051 A 
ATOM     15  C   UNL     1       7.400  -2.932  31.726  1.00  0.00     0.157 A 
ATOM     16  C   UNL     1       8.356  -0.754  32.207  1.00  0.00     0.062 A 
ATOM     17  C   UNL     1       7.254  -1.540  31.851  1.00  0.00     0.158 A 
BRANCH  15  18
ATOM     18  O   UNL     1       6.307  -3.721  31.372  1.00  0.00    -0.504 OA
ATOM     19  H   UNL     1       6.292  -4.250  30.507  1.00  0.00     0.293 HD
ENDBRANCH  15  18
BRANCH  17  20
ATOM     20  O   UNL     1       6.024  -0.922  31.628  1.00  0.00    -0.504 OA
ATOM     21  H   UNL     1       5.924  -0.135  30.999  1.00  0.00     0.293 HD
ENDBRANCH  17  20
ENDBRANCH   1  12
BRANCH   2  22
ATOM     22  O   UNL     1       9.488   0.554  34.627  1.00  0.00    -0.502 OA
ATOM     23  H   UNL     1       9.480   0.488  35.639  1.00  0.00     0.293 HD
ENDBRANCH   2  22
BRANCH   9  24
ATOM     24  O   UNL     1      16.452   0.426  31.187  1.00  0.00    -0.508 OA
ATOM     25  H   UNL     1      16.417   0.359  30.175  1.00  0.00     0.293 HD
ENDBRANCH   9  24
TORSDOF 5
ENDMDL
MODEL 4
REMARK VINA RESULT:    -6.301     16.723     18.328
REMARK INTER + INTRA:          -7.643
REMARK INTER:                  -7.360
REMARK INTRA:                  -0.282
REMARK UNBOUND:                -0.236
REMARK SMILES O=c1c(O)c(-c2ccc(O)c(O)c2)oc2cc(O)ccc12
REMARK SMILES IDX 5 1 3 2 2 3 1 4 21 5 15 6 14 7 16 8 17 9 19 10 20 11 6 12
REMARK SMILES IDX 7 13 8 14 9 15 13 16 11 17 10 18 12 20 4 22 18 24
REMARK H PARENT 10 19 12 21 4 23 18 25
REMARK Flexibility Score: inf
ROOT
ATOM      1  C   UNL     1      14.361  -0.308  33.524  1.00  0.00     0.180 A 
ATOM      2  C   UNL     1      15.084   0.587  32.708  1.00  0.00     0.208 A 
ATOM      3  C   UNL     1      16.456   0.366  32.511  1.00  0.00     0.235 A 
ATOM      4  O   UNL     1      17.121   1.146  31.776  1.00  0.00    -0.285 OA
ATOM      5  C   UNL     1      17.077  -0.723  33.144  1.00  0.00     0.069 A 
ATOM      6  C   UNL     1      16.290  -1.558  33.964  1.00  0.00     0.142 A 
ATOM      7  O   UNL     1      14.992  -1.319  34.117  1.00  0.00    -0.452 OA
ATOM      8  C   UNL     1      16.874  -2.647  34.620  1.00  0.00     0.094 A 
ATOM      9  C   UNL     1      18.238  -2.914  34.465  1.00  0.00     0.119 A 
ATOM     10  C   UNL     1      19.023  -2.088  33.650  1.00  0.00     0.047 A 
ATOM     11  C   UNL     1      18.449  -0.996  32.991  1.00  0.00     0.020 A 
ENDROOT
BRANCH   1  12
ATOM     12  C   UNL     1      12.909  -0.154  33.767  1.00  0.00     0.025 A 
ATOM     13  C   UNL     1      12.418   0.784  34.693  1.00  0.00     0.016 A 
ATOM     14  C   UNL     1      11.042   0.929  34.887  1.00  0.00     0.051 A 
ATOM     15  C   UNL     1      10.136   0.150  34.154  1.00  0.00     0.157 A 
ATOM     16  C   UNL     1      11.998  -0.916  33.018  1.00  0.00     0.062 A 
ATOM     17  C   UNL     1      10.619  -0.775  33.212  1.00  0.00     0.158 A 
BRANCH  15  18
ATOM     18  O   UNL     1       8.765   0.295  34.352  1.00  0.00    -0.504 OA
ATOM     19  H   UNL     1       8.142  -0.504  34.359  1.00  0.00     0.293 HD
ENDBRANCH  15  18
BRANCH  17  20
ATOM     20  O   UNL     1       9.745  -1.559  32.460  1.00  0.00    -0.504 OA
ATOM     21  H   UNL     1       9.984  -1.894  31.534  1.00  0.00     0.293 HD
ENDBRANCH  17  20
ENDBRANCH   1  12
BRANCH   2  22
ATOM     22  O   UNL     1      14.448   1.689  32.131  1.00  0.00    -0.502 OA
ATOM     23  H   UNL     1      14.097   1.675  31.180  1.00  0.00     0.293 HD
ENDBRANCH   2  22
BRANCH   9  24
ATOM     24  O   UNL     1      18.804  -4.004  35.125  1.00  0.00    -0.508 OA
ATOM     25  H   UNL     1      19.648  -4.450  34.783  1.00  0.00     0.293 HD
ENDBRANCH   9  24
TORSDOF 5
ENDMDL
MODEL 5
REMARK VINA RESULT:    -6.171      5.405     10.667
REMARK INTER + INTRA:          -7.489
REMARK INTER:                  -7.380
REMARK INTRA:                  -0.109
REMARK UNBOUND:                -0.236
REMARK SMILES O=c1c(O)c(-c2ccc(O)c(O)c2)oc2cc(O)ccc12
REMARK SMILES IDX 5 1 3 2 2 3 1 4 21 5 15 6 14 7 16 8 17 9 19 10 20 11 6 12
REMARK SMILES IDX 7 13 8 14 9 15 13 16 11 17 10 18 12 20 4 22 18 24
REMARK H PARENT 10 19 12 21 4 23 18 25
REMARK Flexibility Score: inf
ROOT
ATOM      1  C   UNL     1      19.312 -14.152  30.453  1.00  0.00     0.180 A 
ATOM      2  C   UNL     1      18.716 -15.427  30.544  1.00  0.00     0.208 A 
ATOM      3  C   UNL     1      18.419 -16.122  29.362  1.00  0.00     0.235 A 
ATOM      4  O   UNL     1      17.895 -17.268  29.419  1.00  0.00    -0.285 OA
ATOM      5  C   UNL     1      18.701 -15.526  28.122  1.00  0.00     0.069 A 
ATOM      6  C   UNL     1      19.276 -14.238  28.114  1.00  0.00     0.142 A 
ATOM      7  O   UNL     1      19.550 -13.617  29.257  1.00  0.00    -0.452 OA
ATOM      8  C   UNL     1      19.562 -13.606  26.900  1.00  0.00     0.094 A 
ATOM      9  C   UNL     1      19.283 -14.248  25.688  1.00  0.00     0.119 A 
ATOM     10  C   UNL     1      18.714 -15.528  25.692  1.00  0.00     0.047 A 
ATOM     11  C   UNL     1      18.423 -16.167  26.901  1.00  0.00     0.020 A 
ENDROOT
BRANCH   1  12
ATOM     12  C   UNL     1      19.673 -13.364  31.653  1.00  0.00     0.025 A 
ATOM     13  C   UNL     1      19.072 -12.120  31.919  1.00  0.00     0.016 A 
ATOM     14  C   UNL     1      19.411 -11.405  33.070  1.00  0.00     0.051 A 
ATOM     15  C   UNL     1      20.343 -11.924  33.978  1.00  0.00     0.157 A 
ATOM     16  C   UNL     1      20.589 -13.890  32.577  1.00  0.00     0.062 A 
ATOM     17  C   UNL     1      20.932 -13.176  33.731  1.00  0.00     0.158 A 
BRANCH  15  18
ATOM     18  O   UNL     1      20.679 -11.207  35.125  1.00  0.00    -0.504 OA
ATOM     19  H   UNL     1      20.388 -10.245  35.254  1.00  0.00     0.293 HD
ENDBRANCH  15  18
BRANCH  17  20
ATOM     20  O   UNL     1      21.857 -13.724  34.618  1.00  0.00    -0.504 OA
ATOM     21  H   UNL     1      21.603 -14.448  35.280  1.00  0.00     0.293 HD
ENDBRANCH  17  20
ENDBRANCH   1  12
BRANCH   2  22
ATOM     22  O   UNL     1      18.403 -15.972  31.792  1.00  0.00    -0.502 OA
ATOM     23  H   UNL     1      17.511 -16.419  31.979  1.00  0.00     0.293 HD
ENDBRANCH   2  22
BRANCH   9  24
ATOM     24  O   UNL     1      19.576 -13.605  24.487  1.00  0.00    -0.508 OA
ATOM     25  H   UNL     1      19.567 -14.102  23.604  1.00  0.00     0.293 HD
ENDBRANCH   9  24
TORSDOF 5
ENDMDL
MODEL 6
REMARK VINA RESULT:    -6.111      2.148      3.838
REMARK INTER + INTRA:          -7.419
REMARK INTER:                  -7.234
REMARK INTRA:                  -0.185
REMARK UNBOUND:                -0.236
REMARK SMILES O=c1c(O)c(-c2ccc(O)c(O)c2)oc2cc(O)ccc12
REMARK SMILES IDX 5 1 3 2 2 3 1 4 21 5 15 6 14 7 16 8 17 9 19 10 20 11 6 12
REMARK SMILES IDX 7 13 8 14 9 15 13 16 11 17 10 18 12 20 4 22 18 24
REMARK H PARENT 10 19 12 21 4 23 18 25
REMARK Flexibility Score: inf
ROOT
ATOM      1  C   UNL     1      19.032 -15.138  23.720  1.00  0.00     0.180 A 
ATOM      2  C   UNL     1      18.612 -16.434  24.085  1.00  0.00     0.208 A 
ATOM      3  C   UNL     1      18.440 -16.732  25.446  1.00  0.00     0.235 A 
ATOM      4  O   UNL     1      18.055 -17.881  25.796  1.00  0.00    -0.285 OA
ATOM      5  C   UNL     1      18.709 -15.744  26.408  1.00  0.00     0.069 A 
ATOM      6  C   UNL     1      19.148 -14.480  25.963  1.00  0.00     0.142 A 
ATOM      7  O   UNL     1      19.289 -14.235  24.664  1.00  0.00    -0.452 OA
ATOM      8  C   UNL     1      19.436 -13.473  26.890  1.00  0.00     0.094 A 
ATOM      9  C   UNL     1      19.289 -13.713  28.260  1.00  0.00     0.119 A 
ATOM     10  C   UNL     1      18.851 -14.966  28.706  1.00  0.00     0.047 A 
ATOM     11  C   UNL     1      18.562 -15.980  27.787  1.00  0.00     0.020 A 
ENDROOT
BRANCH   1  12
ATOM     12  C   UNL     1      19.218 -14.740  22.307  1.00  0.00     0.025 A 
ATOM     13  C   UNL     1      20.239 -15.301  21.518  1.00  0.00     0.016 A 
ATOM     14  C   UNL     1      20.381 -14.927  20.179  1.00  0.00     0.051 A 
ATOM     15  C   UNL     1      19.500 -14.001  19.604  1.00  0.00     0.157 A 
ATOM     16  C   UNL     1      18.325 -13.830  21.720  1.00  0.00     0.062 A 
ATOM     17  C   UNL     1      18.465 -13.453  20.380  1.00  0.00     0.158 A 
BRANCH  15  18
ATOM     18  O   UNL     1      19.646 -13.630  18.269  1.00  0.00    -0.504 OA
ATOM     19  H   UNL     1      20.537 -13.319  17.898  1.00  0.00     0.293 HD
ENDBRANCH  15  18
BRANCH  17  20
ATOM     20  O   UNL     1      17.567 -12.535  19.836  1.00  0.00    -0.504 OA
ATOM     21  H   UNL     1      16.671 -12.818  19.457  1.00  0.00     0.293 HD
ENDBRANCH  17  20
ENDBRANCH   1  12
BRANCH   2  22
ATOM     22  O   UNL     1      18.399 -17.410  23.108  1.00  0.00    -0.502 OA
ATOM     23  H   UNL     1      17.474 -17.755  22.880  1.00  0.00     0.293 HD
ENDBRANCH   2  22
BRANCH   9  24
ATOM     24  O   UNL     1      19.579 -12.698  29.170  1.00  0.00    -0.508 OA
ATOM     25  H   UNL     1      19.286 -12.756  30.139  1.00  0.00     0.293 HD
ENDBRANCH   9  24
TORSDOF 5
ENDMDL
MODEL 7
REMARK VINA RESULT:    -5.961      3.332      6.091
REMARK INTER + INTRA:          -7.243
REMARK INTER:                  -6.971
REMARK INTRA:                  -0.272
REMARK UNBOUND:                -0.236
REMARK SMILES O=c1c(O)c(-c2ccc(O)c(O)c2)oc2cc(O)ccc12
REMARK SMILES IDX 5 1 3 2 2 3 1 4 21 5 15 6 14 7 16 8 17 9 19 10 20 11 6 12
REMARK SMILES IDX 7 13 8 14 9 15 13 16 11 17 10 18 12 20 4 22 18 24
REMARK H PARENT 10 19 12 21 4 23 18 25
REMARK Flexibility Score: inf
ROOT
ATOM      1  C   UNL     1      19.674 -13.970  26.868  1.00  0.00     0.180 A 
ATOM      2  C   UNL     1      20.794 -14.754  27.215  1.00  0.00     0.208 A 
ATOM      3  C   UNL     1      21.309 -14.661  28.516  1.00  0.00     0.235 A 
ATOM      4  O   UNL     1      22.304 -15.360  28.853  1.00  0.00    -0.285 OA
ATOM      5  C   UNL     1      20.713 -13.779  29.433  1.00  0.00     0.069 A 
ATOM      6  C   UNL     1      19.611 -13.011  29.002  1.00  0.00     0.142 A 
ATOM      7  O   UNL     1      19.148 -13.136  27.763  1.00  0.00    -0.452 OA
ATOM      8  C   UNL     1      18.996 -12.114  29.882  1.00  0.00     0.094 A 
ATOM      9  C   UNL     1      19.468 -11.974  31.191  1.00  0.00     0.119 A 
ATOM     10  C   UNL     1      20.562 -12.736  31.623  1.00  0.00     0.047 A 
ATOM     11  C   UNL     1      21.184 -13.635  30.751  1.00  0.00     0.020 A 
ENDROOT
BRANCH   1  12
ATOM     12  C   UNL     1      19.061 -14.025  25.522  1.00  0.00     0.025 A 
ATOM     13  C   UNL     1      19.327 -13.037  24.557  1.00  0.00     0.016 A 
ATOM     14  C   UNL     1      18.756 -13.122  23.285  1.00  0.00     0.051 A 
ATOM     15  C   UNL     1      17.923 -14.199  22.952  1.00  0.00     0.157 A 
ATOM     16  C   UNL     1      18.244 -15.113  25.177  1.00  0.00     0.062 A 
ATOM     17  C   UNL     1      17.669 -15.201  23.904  1.00  0.00     0.158 A 
BRANCH  15  18
ATOM     18  O   UNL     1      17.353 -14.280  21.683  1.00  0.00    -0.504 OA
ATOM     19  H   UNL     1      16.738 -15.042  21.425  1.00  0.00     0.293 HD
ENDBRANCH  15  18
BRANCH  17  20
ATOM     20  O   UNL     1      16.852 -16.290  23.603  1.00  0.00    -0.504 OA
ATOM     21  H   UNL     1      15.841 -16.219  23.601  1.00  0.00     0.293 HD
ENDBRANCH  17  20
ENDBRANCH   1  12
BRANCH   2  22
ATOM     22  O   UNL     1      21.395 -15.586  26.266  1.00  0.00    -0.502 OA
ATOM     23  H   UNL     1      21.659 -15.254  25.345  1.00  0.00     0.293 HD
ENDBRANCH   2  22
BRANCH   9  24
ATOM     24  O   UNL     1      18.844 -11.077  32.055  1.00  0.00    -0.508 OA
ATOM     25  H   UNL     1      19.371 -10.546  32.739  1.00  0.00     0.293 HD
ENDBRANCH   9  24
TORSDOF 5
ENDMDL
MODEL 8
REMARK VINA RESULT:    -5.942      2.289      3.648
REMARK INTER + INTRA:          -7.221
REMARK INTER:                  -7.047
REMARK INTRA:                  -0.174
REMARK UNBOUND:                -0.236
REMARK SMILES O=c1c(O)c(-c2ccc(O)c(O)c2)oc2cc(O)ccc12
REMARK SMILES IDX 5 1 3 2 2 3 1 4 21 5 15 6 14 7 16 8 17 9 19 10 20 11 6 12
REMARK SMILES IDX 7 13 8 14 9 15 13 16 11 17 10 18 12 20 4 22 18 24
REMARK H PARENT 10 19 12 21 4 23 18 25
REMARK Flexibility Score: inf
ROOT
ATOM      1  C   UNL     1      20.304 -13.935  23.957  1.00  0.00     0.180 A 
ATOM      2  C   UNL     1      21.711 -13.949  24.052  1.00  0.00     0.208 A 
ATOM      3  C   UNL     1      22.303 -14.302  25.274  1.00  0.00     0.235 A 
ATOM      4  O   UNL     1      23.560 -14.332  25.380  1.00  0.00    -0.285 OA
ATOM      5  C   UNL     1      21.486 -14.613  26.373  1.00  0.00     0.069 A 
ATOM      6  C   UNL     1      20.087 -14.554  26.204  1.00  0.00     0.142 A 
ATOM      7  O   UNL     1      19.565 -14.223  25.028  1.00  0.00    -0.452 OA
ATOM      8  C   UNL     1      19.239 -14.846  27.277  1.00  0.00     0.094 A 
ATOM      9  C   UNL     1      19.772 -15.200  28.521  1.00  0.00     0.119 A 
ATOM     10  C   UNL     1      21.161 -15.262  28.693  1.00  0.00     0.047 A 
ATOM     11  C   UNL     1      22.017 -14.970  27.626  1.00  0.00     0.020 A 
ENDROOT
BRANCH   1  12
ATOM     12  C   UNL     1      19.603 -13.591  22.700  1.00  0.00     0.025 A 
ATOM     13  C   UNL     1      19.740 -14.384  21.545  1.00  0.00     0.016 A 
ATOM     14  C   UNL     1      19.050 -14.053  20.377  1.00  0.00     0.051 A 
ATOM     15  C   UNL     1      18.204 -12.936  20.345  1.00  0.00     0.157 A 
ATOM     16  C   UNL     1      18.737 -12.487  22.670  1.00  0.00     0.062 A 
ATOM     17  C   UNL     1      18.045 -12.152  21.500  1.00  0.00     0.158 A 
BRANCH  15  18
ATOM     18  O   UNL     1      17.518 -12.608  19.177  1.00  0.00    -0.504 OA
ATOM     19  H   UNL     1      17.989 -12.561  18.281  1.00  0.00     0.293 HD
ENDBRANCH  15  18
BRANCH  17  20
ATOM     20  O   UNL     1      17.205 -11.039  21.505  1.00  0.00    -0.504 OA
ATOM     21  H   UNL     1      16.574 -10.845  22.273  1.00  0.00     0.293 HD
ENDBRANCH  17  20
ENDBRANCH   1  12
BRANCH   2  22
ATOM     22  O   UNL     1      22.496 -13.587  22.955  1.00  0.00    -0.502 OA
ATOM     23  H   UNL     1      22.755 -12.625  22.768  1.00  0.00     0.293 HD
ENDBRANCH   2  22
BRANCH   9  24
ATOM     24  O   UNL     1      18.913 -15.490  29.580  1.00  0.00    -0.508 OA
ATOM     25  H   UNL     1      18.820 -14.865  30.373  1.00  0.00     0.293 HD
ENDBRANCH   9  24
TORSDOF 5
ENDMDL
MODEL 9
REMARK VINA RESULT:    -5.808     15.288     17.528
REMARK INTER + INTRA:          -7.063
REMARK INTER:                  -6.754
REMARK INTRA:                  -0.309
REMARK UNBOUND:                -0.236
REMARK SMILES O=c1c(O)c(-c2ccc(O)c(O)c2)oc2cc(O)ccc12
REMARK SMILES IDX 5 1 3 2 2 3 1 4 21 5 15 6 14 7 16 8 17 9 19 10 20 11 6 12
REMARK SMILES IDX 7 13 8 14 9 15 13 16 11 17 10 18 12 20 4 22 18 24
REMARK H PARENT 10 19 12 21 4 23 18 25
REMARK Flexibility Score: inf
ROOT
ATOM      1  C   UNL     1      19.079  -1.084  33.328  1.00  0.00     0.180 A 
ATOM      2  C   UNL     1      19.048   0.256  32.890  1.00  0.00     0.208 A 
ATOM      3  C   UNL     1      17.808   0.904  32.784  1.00  0.00     0.235 A 
ATOM      4  O   UNL     1      17.755   2.106  32.405  1.00  0.00    -0.285 OA
ATOM      5  C   UNL     1      16.632   0.201  33.095  1.00  0.00     0.069 A 
ATOM      6  C   UNL     1      16.746  -1.144  33.502  1.00  0.00     0.142 A 
ATOM      7  O   UNL     1      17.940  -1.719  33.599  1.00  0.00    -0.452 OA
ATOM      8  C   UNL     1      15.598  -1.882  33.811  1.00  0.00     0.094 A 
ATOM      9  C   UNL     1      14.334  -1.290  33.719  1.00  0.00     0.119 A 
ATOM     10  C   UNL     1      14.217   0.046  33.316  1.00  0.00     0.047 A 
ATOM     11  C   UNL     1      15.359   0.792  33.004  1.00  0.00     0.020 A 
ENDROOT
BRANCH   1  12
ATOM     12  C   UNL     1      20.347  -1.832  33.483  1.00  0.00     0.025 A 
ATOM     13  C   UNL     1      20.982  -1.944  34.734  1.00  0.00     0.016 A 
ATOM     14  C   UNL     1      22.165  -2.675  34.861  1.00  0.00     0.051 A 
ATOM     15  C   UNL     1      22.726  -3.315  33.748  1.00  0.00     0.157 A 
ATOM     16  C   UNL     1      20.901  -2.494  32.376  1.00  0.00     0.062 A 
ATOM     17  C   UNL     1      22.087  -3.226  32.500  1.00  0.00     0.158 A 
BRANCH  15  18
ATOM     18  O   UNL     1      23.908  -4.043  33.878  1.00  0.00    -0.504 OA
ATOM     19  H   UNL     1      24.229  -4.669  33.149  1.00  0.00     0.293 HD
ENDBRANCH  15  18
BRANCH  17  20
ATOM     20  O   UNL     1      22.614  -3.858  31.374  1.00  0.00    -0.504 OA
ATOM     21  H   UNL     1      23.607  -4.030  31.269  1.00  0.00     0.293 HD
ENDBRANCH  17  20
ENDBRANCH   1  12
BRANCH   2  22
ATOM     22  O   UNL     1      20.230   0.913  32.542  1.00  0.00    -0.502 OA
ATOM     23  H   UNL     1      20.905   0.510  31.901  1.00  0.00     0.293 HD
ENDBRANCH   2  22
BRANCH   9  24
ATOM     24  O   UNL     1      13.201  -2.039  34.030  1.00  0.00    -0.508 OA
ATOM     25  H   UNL     1      12.920  -2.834  33.468  1.00  0.00     0.293 HD
ENDBRANCH   9  24
TORSDOF 5
ENDMDL
