MODEL 1
REMARK VINA RESULT:    -3.815      0.000      0.000
REMARK INTER + INTRA:          -5.005
REMARK INTER:                  -4.930
REMARK INTRA:                  -0.075
REMARK UNBOUND:                -0.075
REMARK SMILES CCCCCCC=O
REMARK SMILES IDX 4 1 3 2 2 3 1 4 5 5 6 6 7 7 8 8
REMARK H PARENT
REMARK Flexibility Score: inf
ROOT
ATOM      1  C   UNL     1      25.503  58.032  -8.534  1.00  0.00     0.000 C 
ENDROOT
BRANCH   1   2
ATOM      2  C   UNL     1      26.646  58.510  -9.445  1.00  0.00    -0.000 C 
BRANCH   2   3
ATOM      3  C   UNL     1      27.146  59.915  -9.075  1.00  0.00    -0.003 C 
ATOM      4  C   UNL     1      28.455  60.282  -9.773  1.00  0.00     0.004 C 
ENDBRANCH   2   3
ENDBRANCH   1   2
BRANCH   1   5
ATOM      5  C   UNL     1      25.121  56.565  -8.788  1.00  0.00     0.008 C 
BRANCH   5   6
ATOM      6  C   UNL     1      25.407  55.660  -7.581  1.00  0.00     0.072 C 
BRANCH   6   7
ATOM      7  C   UNL     1      24.162  55.436  -6.776  1.00  0.00     0.224 C 
ATOM      8  O   UNL     1      23.157  54.985  -7.302  1.00  0.00    -0.303 OA
ENDBRANCH   6   7
ENDBRANCH   5   6
ENDBRANCH   1   5
TORSDOF 5
ENDMDL
MODEL 2
REMARK VINA RESULT:    -3.748      2.815      5.349
REMARK INTER + INTRA:          -4.918
REMARK INTER:                  -4.851
REMARK INTRA:                  -0.067
REMARK UNBOUND:                -0.075
REMARK SMILES CCCCCCC=O
REMARK SMILES IDX 4 1 3 2 2 3 1 4 5 5 6 6 7 7 8 8
REMARK H PARENT
REMARK Flexibility Score: inf
ROOT
ATOM      1  C   UNL     1      25.390  57.952  -8.462  1.00  0.00     0.000 C 
ENDROOT
BRANCH   1   2
ATOM      2  C   UNL     1      25.135  56.456  -8.710  1.00  0.00    -0.000 C 
BRANCH   2   3
ATOM      3  C   UNL     1      25.004  55.656  -7.405  1.00  0.00    -0.003 C 
ATOM      4  C   UNL     1      23.579  55.169  -7.147  1.00  0.00     0.004 C 
ENDBRANCH   2   3
ENDBRANCH   1   2
BRANCH   1   5
ATOM      5  C   UNL     1      26.571  58.493  -9.284  1.00  0.00     0.008 C 
BRANCH   5   6
ATOM      6  C   UNL     1      26.966  59.922  -8.884  1.00  0.00     0.072 C 
BRANCH   6   7
ATOM      7  C   UNL     1      28.161  60.383  -9.663  1.00  0.00     0.224 C 
ATOM      8  O   UNL     1      28.877  59.575 -10.232  1.00  0.00    -0.303 OA
ENDBRANCH   6   7
ENDBRANCH   5   6
ENDBRANCH   1   5
TORSDOF 5
ENDMDL
MODEL 3
REMARK VINA RESULT:    -3.477      1.148      1.942
REMARK INTER + INTRA:          -4.568
REMARK INTER:                  -4.462
REMARK INTRA:                  -0.107
REMARK UNBOUND:                -0.075
REMARK SMILES CCCCCCC=O
REMARK SMILES IDX 4 1 3 2 2 3 1 4 5 5 6 6 7 7 8 8
REMARK H PARENT
REMARK Flexibility Score: inf
ROOT
ATOM      1  C   UNL     1      27.005  58.798  -9.629  1.00  0.00     0.000 C 
ENDROOT
BRANCH   1   2
ATOM      2  C   UNL     1      27.523  60.197  -9.252  1.00  0.00    -0.000 C 
BRANCH   2   3
ATOM      3  C   UNL     1      28.973  60.429  -9.703  1.00  0.00    -0.003 C 
ATOM      4  C   UNL     1      29.498  59.315 -10.608  1.00  0.00     0.004 C 
ENDBRANCH   2   3
ENDBRANCH   1   2
BRANCH   1   5
ATOM      5  C   UNL     1      25.840  58.341  -8.738  1.00  0.00     0.008 C 
BRANCH   5   6
ATOM      6  C   UNL     1      25.482  56.862  -8.943  1.00  0.00     0.072 C 
BRANCH   6   7
ATOM      7  C   UNL     1      25.275  56.175  -7.626  1.00  0.00     0.224 C 
ATOM      8  O   UNL     1      25.654  55.026  -7.461  1.00  0.00    -0.303 OA
ENDBRANCH   6   7
ENDBRANCH   5   6
ENDBRANCH   1   5
TORSDOF 5
ENDMDL
MODEL 4
REMARK VINA RESULT:    -3.452     16.603     17.949
REMARK INTER + INTRA:          -4.535
REMARK INTER:                  -4.320
REMARK INTRA:                  -0.215
REMARK UNBOUND:                -0.075
REMARK SMILES CCCCCCC=O
REMARK SMILES IDX 4 1 3 2 2 3 1 4 5 5 6 6 7 7 8 8
REMARK H PARENT
REMARK Flexibility Score: inf
ROOT
ATOM      1  C   UNL     1      18.119  45.720  -0.111  1.00  0.00     0.000 C 
ENDROOT
BRANCH   1   2
ATOM      2  C   UNL     1      17.056  44.715   0.363  1.00  0.00    -0.000 C 
BRANCH   2   3
ATOM      3  C   UNL     1      15.664  45.351   0.498  1.00  0.00    -0.003 C 
ATOM      4  C   UNL     1      15.073  45.195   1.899  1.00  0.00     0.004 C 
ENDBRANCH   2   3
ENDBRANCH   1   2
BRANCH   1   5
ATOM      5  C   UNL     1      19.548  45.277   0.242  1.00  0.00     0.008 C 
BRANCH   5   6
ATOM      6  C   UNL     1      19.609  44.448   1.534  1.00  0.00     0.072 C 
BRANCH   6   7
ATOM      7  C   UNL     1      20.343  43.161   1.307  1.00  0.00     0.224 C 
ATOM      8  O   UNL     1      19.946  42.360   0.476  1.00  0.00    -0.303 OA
ENDBRANCH   6   7
ENDBRANCH   5   6
ENDBRANCH   1   5
TORSDOF 5
ENDMDL
MODEL 5
REMARK VINA RESULT:    -3.444     16.974     18.076
REMARK INTER + INTRA:          -4.526
REMARK INTER:                  -4.313
REMARK INTRA:                  -0.213
REMARK UNBOUND:                -0.075
REMARK SMILES CCCCCCC=O
REMARK SMILES IDX 4 1 3 2 2 3 1 4 5 5 6 6 7 7 8 8
REMARK H PARENT
REMARK Flexibility Score: inf
ROOT
ATOM      1  C   UNL     1      19.235  44.984   0.406  1.00  0.00     0.000 C 
ENDROOT
BRANCH   1   2
ATOM      2  C   UNL     1      17.844  45.509   0.012  1.00  0.00    -0.000 C 
BRANCH   2   3
ATOM      3  C   UNL     1      16.715  44.555   0.430  1.00  0.00    -0.003 C 
ATOM      4  C   UNL     1      15.566  45.271   1.140  1.00  0.00     0.004 C 
ENDBRANCH   2   3
ENDBRANCH   1   2
BRANCH   1   5
ATOM      5  C   UNL     1      19.250  44.345   1.804  1.00  0.00     0.008 C 
BRANCH   5   6
ATOM      6  C   UNL     1      19.714  42.882   1.782  1.00  0.00     0.072 C 
BRANCH   6   7
ATOM      7  C   UNL     1      21.069  42.761   1.152  1.00  0.00     0.224 C 
ATOM      8  O   UNL     1      21.266  41.954   0.257  1.00  0.00    -0.303 OA
ENDBRANCH   6   7
ENDBRANCH   5   6
ENDBRANCH   1   5
TORSDOF 5
ENDMDL
MODEL 6
REMARK VINA RESULT:    -3.369     18.138     18.911
REMARK INTER + INTRA:          -4.428
REMARK INTER:                  -4.127
REMARK INTRA:                  -0.302
REMARK UNBOUND:                -0.075
REMARK SMILES CCCCCCC=O
REMARK SMILES IDX 4 1 3 2 2 3 1 4 5 5 6 6 7 7 8 8
REMARK H PARENT
REMARK Flexibility Score: inf
ROOT
ATOM      1  C   UNL     1      14.068  43.206 -12.298  1.00  0.00     0.000 C 
ENDROOT
BRANCH   1   2
ATOM      2  C   UNL     1      14.454  44.139 -13.457  1.00  0.00    -0.000 C 
BRANCH   2   3
ATOM      3  C   UNL     1      14.933  43.370 -14.698  1.00  0.00    -0.003 C 
ATOM      4  C   UNL     1      16.414  43.595 -15.000  1.00  0.00     0.004 C 
ENDBRANCH   2   3
ENDBRANCH   1   2
BRANCH   1   5
ATOM      5  C   UNL     1      14.144  41.720 -12.687  1.00  0.00     0.008 C 
BRANCH   5   6
ATOM      6  C   UNL     1      15.095  40.920 -11.784  1.00  0.00     0.072 C 
BRANCH   6   7
ATOM      7  C   UNL     1      16.484  41.481 -11.841  1.00  0.00     0.224 C 
ATOM      8  O   UNL     1      17.364  41.028 -11.127  1.00  0.00    -0.303 OA
ENDBRANCH   6   7
ENDBRANCH   5   6
ENDBRANCH   1   5
TORSDOF 5
ENDMDL
MODEL 7
REMARK VINA RESULT:    -3.327      3.484      5.639
REMARK INTER + INTRA:          -4.375
REMARK INTER:                  -4.271
REMARK INTRA:                  -0.103
REMARK UNBOUND:                -0.075
REMARK SMILES CCCCCCC=O
REMARK SMILES IDX 4 1 3 2 2 3 1 4 5 5 6 6 7 7 8 8
REMARK H PARENT
REMARK Flexibility Score: inf
ROOT
ATOM      1  C   UNL     1      26.619  59.819  -8.757  1.00  0.00     0.000 C 
ENDROOT
BRANCH   1   2
ATOM      2  C   UNL     1      26.414  58.328  -9.073  1.00  0.00    -0.000 C 
BRANCH   2   3
ATOM      3  C   UNL     1      25.134  57.762  -8.439  1.00  0.00    -0.003 C 
ATOM      4  C   UNL     1      25.063  56.237  -8.507  1.00  0.00     0.004 C 
ENDBRANCH   2   3
ENDBRANCH   1   2
BRANCH   1   5
ATOM      5  C   UNL     1      28.064  60.281  -9.007  1.00  0.00     0.008 C 
BRANCH   5   6
ATOM      6  C   UNL     1      28.687  59.632 -10.251  1.00  0.00     0.072 C 
BRANCH   6   7
ATOM      7  C   UNL     1      30.183  59.627 -10.157  1.00  0.00     0.224 C 
ATOM      8  O   UNL     1      30.855  59.065 -11.008  1.00  0.00    -0.303 OA
ENDBRANCH   6   7
ENDBRANCH   5   6
ENDBRANCH   1   5
TORSDOF 5
ENDMDL
MODEL 8
REMARK VINA RESULT:    -3.249     16.368     18.267
REMARK INTER + INTRA:          -4.274
REMARK INTER:                  -3.940
REMARK INTRA:                  -0.334
REMARK UNBOUND:                -0.075
REMARK SMILES CCCCCCC=O
REMARK SMILES IDX 4 1 3 2 2 3 1 4 5 5 6 6 7 7 8 8
REMARK H PARENT
REMARK Flexibility Score: inf
ROOT
ATOM      1  C   UNL     1      17.897  42.696   1.476  1.00  0.00     0.000 C 
ENDROOT
BRANCH   1   2
ATOM      2  C   UNL     1      18.735  43.826   2.098  1.00  0.00    -0.000 C 
BRANCH   2   3
ATOM      3  C   UNL     1      19.899  44.261   1.195  1.00  0.00    -0.003 C 
ATOM      4  C   UNL     1      19.503  45.352   0.200  1.00  0.00     0.004 C 
ENDBRANCH   2   3
ENDBRANCH   1   2
BRANCH   1   5
ATOM      5  C   UNL     1      16.481  43.155   1.093  1.00  0.00     0.008 C 
BRANCH   5   6
ATOM      6  C   UNL     1      16.146  44.555   1.626  1.00  0.00     0.072 C 
BRANCH   6   7
ATOM      7  C   UNL     1      15.456  45.375   0.578  1.00  0.00     0.224 C 
ATOM      8  O   UNL     1      16.079  45.805  -0.380  1.00  0.00    -0.303 OA
ENDBRANCH   6   7
ENDBRANCH   5   6
ENDBRANCH   1   5
TORSDOF 5
ENDMDL
MODEL 9
REMARK VINA RESULT:    -3.241     17.111     18.322
REMARK INTER + INTRA:          -4.263
REMARK INTER:                  -3.925
REMARK INTRA:                  -0.338
REMARK UNBOUND:                -0.075
REMARK SMILES CCCCCCC=O
REMARK SMILES IDX 4 1 3 2 2 3 1 4 5 5 6 6 7 7 8 8
REMARK H PARENT
REMARK Flexibility Score: inf
ROOT
ATOM      1  C   UNL     1      16.753  43.248   0.878  1.00  0.00     0.000 C 
ENDROOT
BRANCH   1   2
ATOM      2  C   UNL     1      16.185  44.445   1.660  1.00  0.00    -0.000 C 
BRANCH   2   3
ATOM      3  C   UNL     1      15.415  45.423   0.761  1.00  0.00    -0.003 C 
ATOM      4  C   UNL     1      16.147  45.730  -0.546  1.00  0.00     0.004 C 
ENDBRANCH   2   3
ENDBRANCH   1   2
BRANCH   1   5
ATOM      5  C   UNL     1      18.064  42.718   1.481  1.00  0.00     0.008 C 
BRANCH   5   6
ATOM      6  C   UNL     1      19.017  43.844   1.909  1.00  0.00     0.072 C 
BRANCH   6   7
ATOM      7  C   UNL     1      19.851  44.306   0.752  1.00  0.00     0.224 C 
ATOM      8  O   UNL     1      19.552  45.317   0.138  1.00  0.00    -0.303 OA
ENDBRANCH   6   7
ENDBRANCH   5   6
ENDBRANCH   1   5
TORSDOF 5
ENDMDL
