MODEL 1
REMARK VINA RESULT:    -5.063      0.000      0.000
REMARK INTER + INTRA:          -7.525
REMARK INTER:                  -6.839
REMARK INTRA:                  -0.686
REMARK UNBOUND:                -0.686
REMARK SMILES CCCCCCC=CC(=O)[O-]
REMARK SMILES IDX 5 1 6 2 7 3 8 4 9 5 10 6 11 7 4 8 3 9 2 10 1 11
REMARK H PARENT
REMARK Flexibility Score: inf
ROOT
ATOM      1  C   UNL     1      -2.708  44.997   2.337  1.00  0.00     0.004 C 
ENDROOT
BRANCH   1   2
ATOM      2  C   UNL     1      -2.431  43.729   1.509  1.00  0.00     0.027 C 
BRANCH   2   3
ATOM      3  C   UNL     1      -1.018  43.665   1.001  1.00  0.00    -0.025 C 
ATOM      4  C   UNL     1      -0.474  44.678   0.319  1.00  0.00     0.020 C 
BRANCH   4   5
ATOM      5  C   UNL     1       0.906  44.625  -0.188  1.00  0.00     0.064 C 
ATOM      6  O   UNL     1       1.844  44.328   0.596  1.00  0.00    -0.545 OA
ATOM      7  O   UNL     1       1.190  44.897  -1.522  1.00  0.00    -0.545 OA
ENDBRANCH   4   5
ENDBRANCH   2   3
ENDBRANCH   1   2
BRANCH   1   8
ATOM      8  C   UNL     1      -2.561  44.806   3.858  1.00  0.00     0.000 C 
BRANCH   8   9
ATOM      9  C   UNL     1      -1.569  45.796   4.490  1.00  0.00    -0.000 C 
BRANCH   9  10
ATOM     10  C   UNL     1      -0.662  46.467   3.446  1.00  0.00    -0.003 C 
ATOM     11  C   UNL     1       0.819  46.158   3.660  1.00  0.00     0.004 C 
ENDBRANCH   9  10
ENDBRANCH   8   9
ENDBRANCH   1   8
TORSDOF 6
ENDMDL
MODEL 2
REMARK VINA RESULT:    -4.918      3.284      4.263
REMARK INTER + INTRA:          -7.329
REMARK INTER:                  -7.163
REMARK INTRA:                  -0.166
REMARK UNBOUND:                -0.686
REMARK SMILES CCCCCCC=CC(=O)[O-]
REMARK SMILES IDX 5 1 6 2 7 3 8 4 9 5 10 6 11 7 4 8 3 9 2 10 1 11
REMARK H PARENT
REMARK Flexibility Score: inf
ROOT
ATOM      1  C   UNL     1       2.177  44.913   1.126  1.00  0.00     0.004 C 
ENDROOT
BRANCH   1   2
ATOM      2  C   UNL     1       0.788  44.383   0.725  1.00  0.00     0.027 C 
BRANCH   2   3
ATOM      3  C   UNL     1       0.406  44.759  -0.679  1.00  0.00    -0.025 C 
ATOM      4  C   UNL     1      -0.866  44.992  -1.019  1.00  0.00     0.020 C 
BRANCH   4   5
ATOM      5  C   UNL     1      -1.252  45.356  -2.390  1.00  0.00     0.064 C 
ATOM      6  O   UNL     1      -1.711  46.504  -2.622  1.00  0.00    -0.545 OA
ATOM      7  O   UNL     1      -1.116  44.451  -3.437  1.00  0.00    -0.545 OA
ENDBRANCH   4   5
ENDBRANCH   2   3
ENDBRANCH   1   2
BRANCH   1   8
ATOM      8  C   UNL     1       2.223  45.590   2.509  1.00  0.00     0.000 C 
BRANCH   8   9
ATOM      9  C   UNL     1       3.656  45.894   2.976  1.00  0.00    -0.000 C 
BRANCH   9  10
ATOM     10  C   UNL     1       4.305  47.036   2.180  1.00  0.00    -0.003 C 
ATOM     11  C   UNL     1       5.728  47.350   2.643  1.00  0.00     0.004 C 
ENDBRANCH   9  10
ENDBRANCH   8   9
ENDBRANCH   1   8
TORSDOF 6
ENDMDL
MODEL 3
REMARK VINA RESULT:    -4.907      3.519      5.139
REMARK INTER + INTRA:          -7.314
REMARK INTER:                  -7.110
REMARK INTRA:                  -0.204
REMARK UNBOUND:                -0.686
REMARK SMILES CCCCCCC=CC(=O)[O-]
REMARK SMILES IDX 5 1 6 2 7 3 8 4 9 5 10 6 11 7 4 8 3 9 2 10 1 11
REMARK H PARENT
REMARK Flexibility Score: inf
ROOT
ATOM      1  C   UNL     1       1.346  45.734   3.823  1.00  0.00     0.004 C 
ENDROOT
BRANCH   1   2
ATOM      2  C   UNL     1       0.112  46.562   3.418  1.00  0.00     0.027 C 
BRANCH   2   3
ATOM      3  C   UNL     1      -1.081  45.706   3.098  1.00  0.00    -0.025 C 
ATOM      4  C   UNL     1      -2.014  45.436   4.016  1.00  0.00     0.020 C 
BRANCH   4   5
ATOM      5  C   UNL     1      -3.184  44.596   3.716  1.00  0.00     0.064 C 
ATOM      6  O   UNL     1      -3.681  43.878   4.621  1.00  0.00    -0.545 OA
ATOM      7  O   UNL     1      -3.751  44.584   2.446  1.00  0.00    -0.545 OA
ENDBRANCH   4   5
ENDBRANCH   2   3
ENDBRANCH   1   2
BRANCH   1   8
ATOM      8  C   UNL     1       2.433  45.642   2.736  1.00  0.00     0.000 C 
BRANCH   8   9
ATOM      9  C   UNL     1       3.855  45.591   3.318  1.00  0.00    -0.000 C 
BRANCH   9  10
ATOM     10  C   UNL     1       3.984  44.579   4.468  1.00  0.00    -0.003 C 
ATOM     11  C   UNL     1       5.337  44.652   5.175  1.00  0.00     0.004 C 
ENDBRANCH   9  10
ENDBRANCH   8   9
ENDBRANCH   1   8
TORSDOF 6
ENDMDL
MODEL 4
REMARK VINA RESULT:    -4.892      3.139      4.703
REMARK INTER + INTRA:          -7.295
REMARK INTER:                  -6.797
REMARK INTRA:                  -0.498
REMARK UNBOUND:                -0.686
REMARK SMILES CCCCCCC=CC(=O)[O-]
REMARK SMILES IDX 5 1 6 2 7 3 8 4 9 5 10 6 11 7 4 8 3 9 2 10 1 11
REMARK H PARENT
REMARK Flexibility Score: inf
ROOT
ATOM      1  C   UNL     1      -0.334  44.292   0.748  1.00  0.00     0.004 C 
ENDROOT
BRANCH   1   2
ATOM      2  C   UNL     1      -1.365  45.403   1.020  1.00  0.00     0.027 C 
BRANCH   2   3
ATOM      3  C   UNL     1      -1.529  45.697   2.485  1.00  0.00    -0.025 C 
ATOM      4  C   UNL     1      -2.392  45.012   3.243  1.00  0.00     0.020 C 
BRANCH   4   5
ATOM      5  C   UNL     1      -2.565  45.293   4.676  1.00  0.00     0.064 C 
ATOM      6  O   UNL     1      -1.605  45.770   5.335  1.00  0.00    -0.545 OA
ATOM      7  O   UNL     1      -3.774  45.043   5.315  1.00  0.00    -0.545 OA
ENDBRANCH   4   5
ENDBRANCH   2   3
ENDBRANCH   1   2
BRANCH   1   8
ATOM      8  C   UNL     1       1.048  44.806   0.302  1.00  0.00     0.000 C 
BRANCH   8   9
ATOM      9  C   UNL     1       2.170  44.426   1.282  1.00  0.00    -0.000 C 
BRANCH   9  10
ATOM     10  C   UNL     1       2.734  45.644   2.031  1.00  0.00    -0.003 C 
ATOM     11  C   UNL     1       1.980  45.946   3.326  1.00  0.00     0.004 C 
ENDBRANCH   9  10
ENDBRANCH   8   9
ENDBRANCH   1   8
TORSDOF 6
ENDMDL
MODEL 5
REMARK VINA RESULT:    -4.885      2.520      4.367
REMARK INTER + INTRA:          -7.285
REMARK INTER:                  -6.757
REMARK INTRA:                  -0.528
REMARK UNBOUND:                -0.686
REMARK SMILES CCCCCCC=CC(=O)[O-]
REMARK SMILES IDX 5 1 6 2 7 3 8 4 9 5 10 6 11 7 4 8 3 9 2 10 1 11
REMARK H PARENT
REMARK Flexibility Score: inf
ROOT
ATOM      1  C   UNL     1      -2.158  44.873  -0.233  1.00  0.00     0.004 C 
ENDROOT
BRANCH   1   2
ATOM      2  C   UNL     1      -2.688  45.995   0.679  1.00  0.00     0.027 C 
BRANCH   2   3
ATOM      3  C   UNL     1      -1.755  46.308   1.816  1.00  0.00    -0.025 C 
ATOM      4  C   UNL     1      -1.781  45.607   2.954  1.00  0.00     0.020 C 
BRANCH   4   5
ATOM      5  C   UNL     1      -0.877  45.906   4.074  1.00  0.00     0.064 C 
ATOM      6  O   UNL     1      -1.206  45.575   5.243  1.00  0.00    -0.545 OA
ATOM      7  O   UNL     1       0.338  46.548   3.863  1.00  0.00    -0.545 OA
ENDBRANCH   4   5
ENDBRANCH   2   3
ENDBRANCH   1   2
BRANCH   1   8
ATOM      8  C   UNL     1      -1.130  45.340  -1.280  1.00  0.00     0.000 C 
BRANCH   8   9
ATOM      9  C   UNL     1       0.250  44.690  -1.090  1.00  0.00    -0.000 C 
BRANCH   9  10
ATOM     10  C   UNL     1       0.452  44.144   0.332  1.00  0.00    -0.003 C 
ATOM     11  C   UNL     1       1.771  44.595   0.959  1.00  0.00     0.004 C 
ENDBRANCH   9  10
ENDBRANCH   8   9
ENDBRANCH   1   8
TORSDOF 6
ENDMDL
MODEL 6
REMARK VINA RESULT:    -4.812      1.757      2.233
REMARK INTER + INTRA:          -7.186
REMARK INTER:                  -6.740
REMARK INTRA:                  -0.446
REMARK UNBOUND:                -0.686
REMARK SMILES CCCCCCC=CC(=O)[O-]
REMARK SMILES IDX 5 1 6 2 7 3 8 4 9 5 10 6 11 7 4 8 3 9 2 10 1 11
REMARK H PARENT
REMARK Flexibility Score: inf
ROOT
ATOM      1  C   UNL     1      -2.671  44.070   1.942  1.00  0.00     0.004 C 
ENDROOT
BRANCH   1   2
ATOM      2  C   UNL     1      -3.635  44.792   0.983  1.00  0.00     0.027 C 
BRANCH   2   3
ATOM      3  C   UNL     1      -3.068  44.951  -0.399  1.00  0.00    -0.025 C 
ATOM      4  C   UNL     1      -1.785  45.269  -0.597  1.00  0.00     0.020 C 
BRANCH   4   5
ATOM      5  C   UNL     1      -1.220  45.431  -1.945  1.00  0.00     0.064 C 
ATOM      6  O   UNL     1      -1.761  46.229  -2.753  1.00  0.00    -0.545 OA
ATOM      7  O   UNL     1      -0.094  44.718  -2.340  1.00  0.00    -0.545 OA
ENDBRANCH   4   5
ENDBRANCH   2   3
ENDBRANCH   1   2
BRANCH   1   8
ATOM      8  C   UNL     1      -2.848  44.450   3.424  1.00  0.00     0.000 C 
BRANCH   8   9
ATOM      9  C   UNL     1      -1.919  45.595   3.861  1.00  0.00    -0.000 C 
BRANCH   9  10
ATOM     10  C   UNL     1      -0.719  45.772   2.917  1.00  0.00    -0.003 C 
ATOM     11  C   UNL     1       0.539  46.251   3.639  1.00  0.00     0.004 C 
ENDBRANCH   9  10
ENDBRANCH   8   9
ENDBRANCH   1   8
TORSDOF 6
ENDMDL
MODEL 7
REMARK VINA RESULT:    -4.788      3.818      5.464
REMARK INTER + INTRA:          -7.154
REMARK INTER:                  -6.996
REMARK INTRA:                  -0.158
REMARK UNBOUND:                -0.686
REMARK SMILES CCCCCCC=CC(=O)[O-]
REMARK SMILES IDX 5 1 6 2 7 3 8 4 9 5 10 6 11 7 4 8 3 9 2 10 1 11
REMARK H PARENT
REMARK Flexibility Score: inf
ROOT
ATOM      1  C   UNL     1       1.086  46.392   3.745  1.00  0.00     0.004 C 
ENDROOT
BRANCH   1   2
ATOM      2  C   UNL     1      -0.265  46.090   3.071  1.00  0.00     0.027 C 
BRANCH   2   3
ATOM      3  C   UNL     1      -1.299  45.591   4.041  1.00  0.00    -0.025 C 
ATOM      4  C   UNL     1      -2.500  45.174   3.629  1.00  0.00     0.020 C 
BRANCH   4   5
ATOM      5  C   UNL     1      -3.521  44.688   4.569  1.00  0.00     0.064 C 
ATOM      6  O   UNL     1      -3.778  43.457   4.626  1.00  0.00    -0.545 OA
ATOM      7  O   UNL     1      -4.208  45.567   5.400  1.00  0.00    -0.545 OA
ENDBRANCH   4   5
ENDBRANCH   2   3
ENDBRANCH   1   2
BRANCH   1   8
ATOM      8  C   UNL     1       2.242  45.486   3.281  1.00  0.00     0.000 C 
BRANCH   8   9
ATOM      9  C   UNL     1       3.054  46.099   2.128  1.00  0.00    -0.000 C 
BRANCH   9  10
ATOM     10  C   UNL     1       4.305  46.842   2.620  1.00  0.00    -0.003 C 
ATOM     11  C   UNL     1       5.011  47.618   1.508  1.00  0.00     0.004 C 
ENDBRANCH   9  10
ENDBRANCH   8   9
ENDBRANCH   1   8
TORSDOF 6
ENDMDL
MODEL 8
REMARK VINA RESULT:    -4.763      1.640      2.746
REMARK INTER + INTRA:          -7.120
REMARK INTER:                  -6.580
REMARK INTRA:                  -0.541
REMARK UNBOUND:                -0.686
REMARK SMILES CCCCCCC=CC(=O)[O-]
REMARK SMILES IDX 5 1 6 2 7 3 8 4 9 5 10 6 11 7 4 8 3 9 2 10 1 11
REMARK H PARENT
REMARK Flexibility Score: inf
ROOT
ATOM      1  C   UNL     1      -1.124  45.804   3.811  1.00  0.00     0.004 C 
ENDROOT
BRANCH   1   2
ATOM      2  C   UNL     1      -2.018  45.103   2.772  1.00  0.00     0.027 C 
BRANCH   2   3
ATOM      3  C   UNL     1      -1.806  45.623   1.378  1.00  0.00    -0.025 C 
ATOM      4  C   UNL     1      -1.355  44.833   0.398  1.00  0.00     0.020 C 
BRANCH   4   5
ATOM      5  C   UNL     1      -1.139  45.332  -0.968  1.00  0.00     0.064 C 
ATOM      6  O   UNL     1      -1.983  46.108  -1.487  1.00  0.00    -0.545 OA
ATOM      7  O   UNL     1      -0.015  44.960  -1.697  1.00  0.00    -0.545 OA
ENDBRANCH   4   5
ENDBRANCH   2   3
ENDBRANCH   1   2
BRANCH   1   8
ATOM      8  C   UNL     1       0.164  46.415   3.228  1.00  0.00     0.000 C 
BRANCH   8   9
ATOM      9  C   UNL     1       1.439  45.752   3.777  1.00  0.00    -0.000 C 
BRANCH   9  10
ATOM     10  C   UNL     1       2.565  45.690   2.733  1.00  0.00    -0.003 C 
ATOM     11  C   UNL     1       2.162  44.933   1.468  1.00  0.00     0.004 C 
ENDBRANCH   9  10
ENDBRANCH   8   9
ENDBRANCH   1   8
TORSDOF 6
ENDMDL
MODEL 9
REMARK VINA RESULT:    -4.762      2.956      4.857
REMARK INTER + INTRA:          -7.119
REMARK INTER:                  -6.643
REMARK INTRA:                  -0.476
REMARK UNBOUND:                -0.686
REMARK SMILES CCCCCCC=CC(=O)[O-]
REMARK SMILES IDX 5 1 6 2 7 3 8 4 9 5 10 6 11 7 4 8 3 9 2 10 1 11
REMARK H PARENT
REMARK Flexibility Score: inf
ROOT
ATOM      1  C   UNL     1      -3.234  44.954   0.191  1.00  0.00     0.004 C 
ENDROOT
BRANCH   1   2
ATOM      2  C   UNL     1      -3.094  44.145   1.494  1.00  0.00     0.027 C 
BRANCH   2   3
ATOM      3  C   UNL     1      -2.368  44.901   2.571  1.00  0.00    -0.025 C 
ATOM      4  C   UNL     1      -2.788  44.887   3.840  1.00  0.00     0.020 C 
BRANCH   4   5
ATOM      5  C   UNL     1      -2.089  45.626   4.902  1.00  0.00     0.064 C 
ATOM      6  O   UNL     1      -0.896  45.986   4.726  1.00  0.00    -0.545 OA
ATOM      7  O   UNL     1      -2.727  45.936   6.098  1.00  0.00    -0.545 OA
ENDBRANCH   4   5
ENDBRANCH   2   3
ENDBRANCH   1   2
BRANCH   1   8
ATOM      8  C   UNL     1      -1.978  45.759  -0.192  1.00  0.00     0.000 C 
BRANCH   8   9
ATOM      9  C   UNL     1      -1.294  45.227  -1.463  1.00  0.00    -0.000 C 
BRANCH   9  10
ATOM     10  C   UNL     1       0.159  44.797  -1.212  1.00  0.00    -0.003 C 
ATOM     11  C   UNL     1       0.476  44.609   0.271  1.00  0.00     0.004 C 
ENDBRANCH   9  10
ENDBRANCH   8   9
ENDBRANCH   1   8
TORSDOF 6
ENDMDL
