MODEL 1
REMARK VINA RESULT:    -3.155      0.000      0.000
REMARK INTER + INTRA:          -4.641
REMARK INTER:                  -4.261
REMARK INTRA:                  -0.379
REMARK UNBOUND:                -0.379
REMARK SMILES CCCCCCCC(=O)[O-]
REMARK SMILES IDX 5 1 6 2 7 3 8 4 9 5 10 6 4 7 3 8 2 9 1 10
REMARK H PARENT
REMARK Flexibility Score: inf
ROOT
ATOM      1  C   UNL     1       9.205 -33.601  14.744  1.00  0.00     0.000 C 
ENDROOT
BRANCH   1   2
ATOM      2  C   UNL     1       9.668 -32.157  14.513  1.00  0.00     0.006 C 
BRANCH   2   3
ATOM      3  C   UNL     1      10.989 -32.121  13.738  1.00  0.00     0.053 C 
BRANCH   3   4
ATOM      4  C   UNL     1      12.017 -31.340  14.493  1.00  0.00     0.041 C 
ATOM      5  O   UNL     1      13.173 -31.186  14.016  1.00  0.00    -0.550 OA
ATOM      6  O   UNL     1      11.715 -30.822  15.747  1.00  0.00    -0.550 OA
ENDBRANCH   3   4
ENDBRANCH   2   3
ENDBRANCH   1   2
BRANCH   1   7
ATOM      7  C   UNL     1       8.453 -33.732  16.074  1.00  0.00     0.000 C 
BRANCH   7   8
ATOM      8  C   UNL     1       8.098 -32.354  16.644  1.00  0.00    -0.000 C 
BRANCH   8   9
ATOM      9  C   UNL     1       8.427 -32.276  18.139  1.00  0.00    -0.003 C 
ATOM     10  C   UNL     1       9.459 -31.188  18.421  1.00  0.00     0.004 C 
ENDBRANCH   8   9
ENDBRANCH   7   8
ENDBRANCH   1   7
TORSDOF 6
ENDMDL
MODEL 2
REMARK VINA RESULT:    -3.155      1.780      4.073
REMARK INTER + INTRA:          -4.641
REMARK INTER:                  -4.153
REMARK INTRA:                  -0.487
REMARK UNBOUND:                -0.379
REMARK SMILES CCCCCCCC(=O)[O-]
REMARK SMILES IDX 5 1 6 2 7 3 8 4 9 5 10 6 4 7 3 8 2 9 1 10
REMARK H PARENT
REMARK Flexibility Score: inf
ROOT
ATOM      1  C   UNL     1       9.122 -33.774  14.739  1.00  0.00     0.000 C 
ENDROOT
BRANCH   1   2
ATOM      2  C   UNL     1       8.489 -33.750  16.135  1.00  0.00     0.006 C 
BRANCH   2   3
ATOM      3  C   UNL     1       8.038 -32.336  16.511  1.00  0.00     0.053 C 
BRANCH   3   4
ATOM      4  C   UNL     1       8.855 -31.811  17.649  1.00  0.00     0.041 C 
ATOM      5  O   UNL     1       8.512 -32.048  18.838  1.00  0.00    -0.550 OA
ATOM      6  O   UNL     1       9.968 -31.019  17.399  1.00  0.00    -0.550 OA
ENDBRANCH   3   4
ENDBRANCH   2   3
ENDBRANCH   1   2
BRANCH   1   7
ATOM      7  C   UNL     1       8.594 -32.623  13.875  1.00  0.00     0.000 C 
BRANCH   7   8
ATOM      8  C   UNL     1       9.740 -31.909  13.149  1.00  0.00    -0.000 C 
BRANCH   8   9
ATOM      9  C   UNL     1      11.101 -32.404  13.649  1.00  0.00    -0.003 C 
ATOM     10  C   UNL     1      11.879 -31.283  14.332  1.00  0.00     0.004 C 
ENDBRANCH   8   9
ENDBRANCH   7   8
ENDBRANCH   1   7
TORSDOF 6
ENDMDL
MODEL 3
REMARK VINA RESULT:    -3.137     15.138     16.967
REMARK INTER + INTRA:          -4.616
REMARK INTER:                  -4.278
REMARK INTRA:                  -0.338
REMARK UNBOUND:                -0.379
REMARK SMILES CCCCCCCC(=O)[O-]
REMARK SMILES IDX 5 1 6 2 7 3 8 4 9 5 10 6 4 7 3 8 2 9 1 10
REMARK H PARENT
REMARK Flexibility Score: inf
ROOT
ATOM      1  C   UNL     1      16.214 -37.009  31.140  1.00  0.00     0.000 C 
ENDROOT
BRANCH   1   2
ATOM      2  C   UNL     1      16.359 -35.641  31.815  1.00  0.00     0.006 C 
BRANCH   2   3
ATOM      3  C   UNL     1      15.081 -35.261  32.568  1.00  0.00     0.053 C 
BRANCH   3   4
ATOM      4  C   UNL     1      14.516 -33.985  32.030  1.00  0.00     0.041 C 
ATOM      5  O   UNL     1      15.106 -33.371  31.102  1.00  0.00    -0.550 OA
ATOM      6  O   UNL     1      13.363 -33.446  32.588  1.00  0.00    -0.550 OA
ENDBRANCH   3   4
ENDBRANCH   2   3
ENDBRANCH   1   2
BRANCH   1   7
ATOM      7  C   UNL     1      17.002 -37.061  29.825  1.00  0.00     0.000 C 
BRANCH   7   8
ATOM      8  C   UNL     1      17.411 -35.655  29.373  1.00  0.00    -0.000 C 
BRANCH   8   9
ATOM      9  C   UNL     1      17.669 -35.616  27.862  1.00  0.00    -0.003 C 
ATOM     10  C   UNL     1      17.377 -36.967  27.218  1.00  0.00     0.004 C 
ENDBRANCH   8   9
ENDBRANCH   7   8
ENDBRANCH   1   7
TORSDOF 6
ENDMDL
MODEL 4
REMARK VINA RESULT:    -3.046      1.069      1.547
REMARK INTER + INTRA:          -4.493
REMARK INTER:                  -4.045
REMARK INTRA:                  -0.448
REMARK UNBOUND:                -0.379
REMARK SMILES CCCCCCCC(=O)[O-]
REMARK SMILES IDX 5 1 6 2 7 3 8 4 9 5 10 6 4 7 3 8 2 9 1 10
REMARK H PARENT
REMARK Flexibility Score: inf
ROOT
ATOM      1  C   UNL     1       8.395 -33.726  15.602  1.00  0.00     0.000 C 
ENDROOT
BRANCH   1   2
ATOM      2  C   UNL     1       9.117 -33.583  14.256  1.00  0.00     0.006 C 
BRANCH   2   3
ATOM      3  C   UNL     1       9.643 -32.159  14.063  1.00  0.00     0.053 C 
BRANCH   3   4
ATOM      4  C   UNL     1      11.118 -32.175  13.813  1.00  0.00     0.041 C 
ATOM      5  O   UNL     1      11.650 -33.148  13.217  1.00  0.00    -0.550 OA
ATOM      6  O   UNL     1      11.914 -31.136  14.281  1.00  0.00    -0.550 OA
ENDBRANCH   3   4
ENDBRANCH   2   3
ENDBRANCH   1   2
BRANCH   1   7
ATOM      7  C   UNL     1       8.301 -32.375  16.322  1.00  0.00     0.000 C 
BRANCH   7   8
ATOM      8  C   UNL     1       8.549 -32.534  17.827  1.00  0.00    -0.000 C 
BRANCH   8   9
ATOM      9  C   UNL     1       9.254 -31.301  18.402  1.00  0.00    -0.003 C 
ATOM     10  C   UNL     1      10.257 -30.725  17.407  1.00  0.00     0.004 C 
ENDBRANCH   8   9
ENDBRANCH   7   8
ENDBRANCH   1   7
TORSDOF 6
ENDMDL
MODEL 5
REMARK VINA RESULT:    -2.980     15.951     16.997
REMARK INTER + INTRA:          -4.405
REMARK INTER:                  -4.021
REMARK INTRA:                  -0.384
REMARK UNBOUND:                -0.379
REMARK SMILES CCCCCCCC(=O)[O-]
REMARK SMILES IDX 5 1 6 2 7 3 8 4 9 5 10 6 4 7 3 8 2 9 1 10
REMARK H PARENT
REMARK Flexibility Score: inf
ROOT
ATOM      1  C   UNL     1      15.755 -36.954  32.504  1.00  0.00     0.000 C 
ENDROOT
BRANCH   1   2
ATOM      2  C   UNL     1      16.273 -37.092  31.067  1.00  0.00     0.006 C 
BRANCH   2   3
ATOM      3  C   UNL     1      16.749 -35.743  30.522  1.00  0.00     0.053 C 
BRANCH   3   4
ATOM      4  C   UNL     1      17.401 -35.917  29.187  1.00  0.00     0.041 C 
ATOM      5  O   UNL     1      17.204 -36.966  28.517  1.00  0.00    -0.550 OA
ATOM      6  O   UNL     1      18.265 -34.943  28.702  1.00  0.00    -0.550 OA
ENDBRANCH   3   4
ENDBRANCH   2   3
ENDBRANCH   1   2
BRANCH   1   7
ATOM      7  C   UNL     1      15.484 -35.486  32.853  1.00  0.00     0.000 C 
BRANCH   7   8
ATOM      8  C   UNL     1      13.983 -35.176  32.801  1.00  0.00    -0.000 C 
BRANCH   8   9
ATOM      9  C   UNL     1      13.733 -33.743  32.319  1.00  0.00    -0.003 C 
ATOM     10  C   UNL     1      15.024 -32.930  32.312  1.00  0.00     0.004 C 
ENDBRANCH   8   9
ENDBRANCH   7   8
ENDBRANCH   1   7
TORSDOF 6
ENDMDL
MODEL 6
REMARK VINA RESULT:    -2.891      2.620      4.464
REMARK INTER + INTRA:          -4.284
REMARK INTER:                  -3.811
REMARK INTRA:                  -0.473
REMARK UNBOUND:                -0.379
REMARK SMILES CCCCCCCC(=O)[O-]
REMARK SMILES IDX 5 1 6 2 7 3 8 4 9 5 10 6 4 7 3 8 2 9 1 10
REMARK H PARENT
REMARK Flexibility Score: inf
ROOT
ATOM      1  C   UNL     1       9.174 -32.393  14.235  1.00  0.00     0.000 C 
ENDROOT
BRANCH   1   2
ATOM      2  C   UNL     1       8.866 -33.137  15.539  1.00  0.00     0.006 C 
BRANCH   2   3
ATOM      3  C   UNL     1       7.996 -32.284  16.467  1.00  0.00     0.053 C 
BRANCH   3   4
ATOM      4  C   UNL     1       8.786 -31.827  17.652  1.00  0.00     0.041 C 
ATOM      5  O   UNL     1       8.430 -32.153  18.815  1.00  0.00    -0.550 OA
ATOM      6  O   UNL     1       9.888 -31.000  17.476  1.00  0.00    -0.550 OA
ENDBRANCH   3   4
ENDBRANCH   2   3
ENDBRANCH   1   2
BRANCH   1   7
ATOM      7  C   UNL     1       8.399 -32.999  13.059  1.00  0.00     0.000 C 
BRANCH   7   8
ATOM      8  C   UNL     1       7.045 -32.303  12.875  1.00  0.00    -0.000 C 
BRANCH   8   9
ATOM      9  C   UNL     1       5.891 -33.231  13.271  1.00  0.00    -0.003 C 
ATOM     10  C   UNL     1       6.323 -34.694  13.236  1.00  0.00     0.004 C 
ENDBRANCH   8   9
ENDBRANCH   7   8
ENDBRANCH   1   7
TORSDOF 6
ENDMDL
MODEL 7
REMARK VINA RESULT:    -2.632      2.177      4.086
REMARK INTER + INTRA:          -3.934
REMARK INTER:                  -3.487
REMARK INTRA:                  -0.448
REMARK UNBOUND:                -0.379
REMARK SMILES CCCCCCCC(=O)[O-]
REMARK SMILES IDX 5 1 6 2 7 3 8 4 9 5 10 6 4 7 3 8 2 9 1 10
REMARK H PARENT
REMARK Flexibility Score: inf
ROOT
ATOM      1  C   UNL     1       6.937 -33.403  15.236  1.00  0.00     0.000 C 
ENDROOT
BRANCH   1   2
ATOM      2  C   UNL     1       7.444 -32.275  16.143  1.00  0.00     0.006 C 
BRANCH   2   3
ATOM      3  C   UNL     1       8.882 -32.539  16.596  1.00  0.00     0.053 C 
BRANCH   3   4
ATOM      4  C   UNL     1       9.290 -31.552  17.644  1.00  0.00     0.041 C 
ATOM      5  O   UNL     1      10.200 -30.714  17.407  1.00  0.00    -0.550 OA
ATOM      6  O   UNL     1       8.699 -31.589  18.901  1.00  0.00    -0.550 OA
ENDBRANCH   3   4
ENDBRANCH   2   3
ENDBRANCH   1   2
BRANCH   1   7
ATOM      7  C   UNL     1       6.998 -32.992  13.760  1.00  0.00     0.000 C 
BRANCH   7   8
ATOM      8  C   UNL     1       7.892 -33.945  12.958  1.00  0.00    -0.000 C 
BRANCH   8   9
ATOM      9  C   UNL     1       9.372 -33.585  13.130  1.00  0.00    -0.003 C 
ATOM     10  C   UNL     1       9.612 -32.101  12.875  1.00  0.00     0.004 C 
ENDBRANCH   8   9
ENDBRANCH   7   8
ENDBRANCH   1   7
TORSDOF 6
ENDMDL
MODEL 8
REMARK VINA RESULT:    -2.620      3.450      5.066
REMARK INTER + INTRA:          -3.918
REMARK INTER:                  -3.695
REMARK INTRA:                  -0.223
REMARK UNBOUND:                -0.379
REMARK SMILES CCCCCCCC(=O)[O-]
REMARK SMILES IDX 5 1 6 2 7 3 8 4 9 5 10 6 4 7 3 8 2 9 1 10
REMARK H PARENT
REMARK Flexibility Score: inf
ROOT
ATOM      1  C   UNL     1       9.491 -32.059  15.573  1.00  0.00     0.000 C 
ENDROOT
BRANCH   1   2
ATOM      2  C   UNL     1       8.336 -32.909  16.115  1.00  0.00     0.006 C 
BRANCH   2   3
ATOM      3  C   UNL     1       6.988 -32.405  15.591  1.00  0.00     0.053 C 
BRANCH   3   4
ATOM      4  C   UNL     1       6.339 -33.444  14.732  1.00  0.00     0.041 C 
ATOM      5  O   UNL     1       6.238 -34.631  15.140  1.00  0.00    -0.550 OA
ATOM      6  O   UNL     1       5.888 -33.112  13.461  1.00  0.00    -0.550 OA
ENDBRANCH   3   4
ENDBRANCH   2   3
ENDBRANCH   1   2
BRANCH   1   7
ATOM      7  C   UNL     1       9.665 -32.264  14.063  1.00  0.00     0.000 C 
BRANCH   7   8
ATOM      8  C   UNL     1      11.148 -32.259  13.674  1.00  0.00    -0.000 C 
BRANCH   8   9
ATOM      9  C   UNL     1      11.920 -31.197  14.465  1.00  0.00    -0.003 C 
ATOM     10  C   UNL     1      13.409 -31.236  14.133  1.00  0.00     0.004 C 
ENDBRANCH   8   9
ENDBRANCH   7   8
ENDBRANCH   1   7
TORSDOF 6
ENDMDL
MODEL 9
REMARK VINA RESULT:    -2.601      2.125      4.234
REMARK INTER + INTRA:          -3.893
REMARK INTER:                  -3.672
REMARK INTRA:                  -0.221
REMARK UNBOUND:                -0.379
REMARK SMILES CCCCCCCC(=O)[O-]
REMARK SMILES IDX 5 1 6 2 7 3 8 4 9 5 10 6 4 7 3 8 2 9 1 10
REMARK H PARENT
REMARK Flexibility Score: inf
ROOT
ATOM      1  C   UNL     1       9.176 -33.475  14.082  1.00  0.00     0.000 C 
ENDROOT
BRANCH   1   2
ATOM      2  C   UNL     1       7.956 -32.549  14.148  1.00  0.00     0.006 C 
BRANCH   2   3
ATOM      3  C   UNL     1       7.331 -32.561  15.546  1.00  0.00     0.053 C 
BRANCH   3   4
ATOM      4  C   UNL     1       8.397 -32.577  16.595  1.00  0.00     0.041 C 
ATOM      5  O   UNL     1       8.512 -33.566  17.367  1.00  0.00    -0.550 OA
ATOM      6  O   UNL     1       9.232 -31.479  16.754  1.00  0.00    -0.550 OA
ENDBRANCH   3   4
ENDBRANCH   2   3
ENDBRANCH   1   2
BRANCH   1   7
ATOM      7  C   UNL     1      10.059 -33.137  12.875  1.00  0.00     0.000 C 
BRANCH   7   8
ATOM      8  C   UNL     1      11.507 -32.876  13.308  1.00  0.00    -0.000 C 
BRANCH   8   9
ATOM      9  C   UNL     1      11.612 -31.584  14.126  1.00  0.00    -0.003 C 
ATOM     10  C   UNL     1      13.058 -31.110  14.225  1.00  0.00     0.004 C 
ENDBRANCH   8   9
ENDBRANCH   7   8
ENDBRANCH   1   7
TORSDOF 6
ENDMDL
