MODEL 1
REMARK VINA RESULT:    -3.557      0.000      0.000
REMARK INTER + INTRA:          -4.295
REMARK INTER:                  -4.181
REMARK INTRA:                  -0.115
REMARK UNBOUND:                -0.115
REMARK SMILES O=C([O-])CCC(=O)[O-]
REMARK SMILES IDX 4 1 2 2 1 3 3 4 5 5 6 6 7 7 8 8
REMARK H PARENT
REMARK Flexibility Score: inf
ROOT
ATOM      1  C   UNL     1      -2.472  56.626  47.297  1.00  0.00     0.059 C 
ENDROOT
BRANCH   1   2
ATOM      2  C   UNL     1      -2.637  57.194  48.674  1.00  0.00     0.042 C 
ATOM      3  O   UNL     1      -2.648  56.433  49.678  1.00  0.00    -0.550 OA
ATOM      4  O   UNL     1      -2.817  58.560  48.845  1.00  0.00    -0.550 OA
ENDBRANCH   1   2
BRANCH   1   5
ATOM      5  C   UNL     1      -3.742  56.805  46.459  1.00  0.00     0.059 C 
BRANCH   5   6
ATOM      6  C   UNL     1      -3.591  57.910  45.458  1.00  0.00     0.042 C 
ATOM      7  O   UNL     1      -2.971  57.709  44.380  1.00  0.00    -0.550 OA
ATOM      8  O   UNL     1      -4.100  59.172  45.734  1.00  0.00    -0.550 OA
ENDBRANCH   5   6
ENDBRANCH   1   5
TORSDOF 3
ENDMDL
MODEL 2
REMARK VINA RESULT:    -3.550      0.229      3.872
REMARK INTER + INTRA:          -4.287
REMARK INTER:                  -4.175
REMARK INTRA:                  -0.112
REMARK UNBOUND:                -0.115
REMARK SMILES O=C([O-])CCC(=O)[O-]
REMARK SMILES IDX 4 1 2 2 1 3 3 4 5 5 6 6 7 7 8 8
REMARK H PARENT
REMARK Flexibility Score: inf
ROOT
ATOM      1  C   UNL     1      -3.766  56.793  46.589  1.00  0.00     0.059 C 
ENDROOT
BRANCH   1   2
ATOM      2  C   UNL     1      -3.604  57.907  45.599  1.00  0.00     0.042 C 
ATOM      3  O   UNL     1      -4.125  59.032  45.819  1.00  0.00    -0.550 OA
ATOM      4  O   UNL     1      -2.912  57.689  44.415  1.00  0.00    -0.550 OA
ENDBRANCH   1   2
BRANCH   1   5
ATOM      5  C   UNL     1      -2.469  56.534  47.363  1.00  0.00     0.059 C 
BRANCH   5   6
ATOM      6  C   UNL     1      -2.506  57.159  48.725  1.00  0.00     0.042 C 
ATOM      7  O   UNL     1      -2.316  58.396  48.861  1.00  0.00    -0.550 OA
ATOM      8  O   UNL     1      -2.710  56.366  49.846  1.00  0.00    -0.550 OA
ENDBRANCH   5   6
ENDBRANCH   1   5
TORSDOF 3
ENDMDL
MODEL 3
REMARK VINA RESULT:    -3.521      0.451      1.190
REMARK INTER + INTRA:          -4.253
REMARK INTER:                  -4.166
REMARK INTRA:                  -0.088
REMARK UNBOUND:                -0.115
REMARK SMILES O=C([O-])CCC(=O)[O-]
REMARK SMILES IDX 4 1 2 2 1 3 3 4 5 5 6 6 7 7 8 8
REMARK H PARENT
REMARK Flexibility Score: inf
ROOT
ATOM      1  C   UNL     1      -2.410  56.624  47.233  1.00  0.00     0.059 C 
ENDROOT
BRANCH   1   2
ATOM      2  C   UNL     1      -2.570  57.196  48.609  1.00  0.00     0.042 C 
ATOM      3  O   UNL     1      -2.587  56.436  49.613  1.00  0.00    -0.550 OA
ATOM      4  O   UNL     1      -2.738  58.564  48.778  1.00  0.00    -0.550 OA
ENDBRANCH   1   2
BRANCH   1   5
ATOM      5  C   UNL     1      -3.569  57.032  46.317  1.00  0.00     0.059 C 
BRANCH   5   6
ATOM      6  C   UNL     1      -3.143  58.058  45.311  1.00  0.00     0.042 C 
ATOM      7  O   UNL     1      -3.787  59.134  45.191  1.00  0.00    -0.550 OA
ATOM      8  O   UNL     1      -2.059  57.808  44.481  1.00  0.00    -0.550 OA
ENDBRANCH   5   6
ENDBRANCH   1   5
TORSDOF 3
ENDMDL
MODEL 4
REMARK VINA RESULT:    -3.366     13.884     14.530
REMARK INTER + INTRA:          -4.072
REMARK INTER:                  -3.953
REMARK INTRA:                  -0.119
REMARK UNBOUND:                -0.115
REMARK SMILES O=C([O-])CCC(=O)[O-]
REMARK SMILES IDX 4 1 2 2 1 3 3 4 5 5 6 6 7 7 8 8
REMARK H PARENT
REMARK Flexibility Score: inf
ROOT
ATOM      1  C   UNL     1       4.088  61.347  57.870  1.00  0.00     0.059 C 
ENDROOT
BRANCH   1   2
ATOM      2  C   UNL     1       4.382  62.723  58.385  1.00  0.00     0.042 C 
ATOM      3  O   UNL     1       5.450  62.951  59.012  1.00  0.00    -0.550 OA
ATOM      4  O   UNL     1       3.457  63.743  58.207  1.00  0.00    -0.550 OA
ENDBRANCH   1   2
BRANCH   1   5
ATOM      5  C   UNL     1       5.255  60.794  57.044  1.00  0.00     0.059 C 
BRANCH   5   6
ATOM      6  C   UNL     1       5.960  59.682  57.761  1.00  0.00     0.042 C 
ATOM      7  O   UNL     1       6.725  58.905  57.130  1.00  0.00    -0.550 OA
ATOM      8  O   UNL     1       5.739  59.480  59.117  1.00  0.00    -0.550 OA
ENDBRANCH   5   6
ENDBRANCH   1   5
TORSDOF 3
ENDMDL
MODEL 5
REMARK VINA RESULT:    -3.355     13.815     14.448
REMARK INTER + INTRA:          -4.058
REMARK INTER:                  -3.936
REMARK INTRA:                  -0.122
REMARK UNBOUND:                -0.115
REMARK SMILES O=C([O-])CCC(=O)[O-]
REMARK SMILES IDX 4 1 2 2 1 3 3 4 5 5 6 6 7 7 8 8
REMARK H PARENT
REMARK Flexibility Score: inf
ROOT
ATOM      1  C   UNL     1       5.234  60.776  57.040  1.00  0.00     0.059 C 
ENDROOT
BRANCH   1   2
ATOM      2  C   UNL     1       5.909  59.624  57.721  1.00  0.00     0.042 C 
ATOM      3  O   UNL     1       6.550  58.776  57.047  1.00  0.00    -0.550 OA
ATOM      4  O   UNL     1       5.796  59.468  59.096  1.00  0.00    -0.550 OA
ENDBRANCH   1   2
BRANCH   1   5
ATOM      5  C   UNL     1       4.029  61.278  57.844  1.00  0.00     0.059 C 
BRANCH   5   6
ATOM      6  C   UNL     1       4.274  62.643  58.411  1.00  0.00     0.042 C 
ATOM      7  O   UNL     1       3.412  63.551  58.274  1.00  0.00    -0.550 OA
ATOM      8  O   UNL     1       5.473  62.923  59.054  1.00  0.00    -0.550 OA
ENDBRANCH   5   6
ENDBRANCH   1   5
TORSDOF 3
ENDMDL
MODEL 6
REMARK VINA RESULT:    -3.272     13.697     14.243
REMARK INTER + INTRA:          -3.961
REMARK INTER:                  -3.911
REMARK INTRA:                  -0.050
REMARK UNBOUND:                -0.115
REMARK SMILES O=C([O-])CCC(=O)[O-]
REMARK SMILES IDX 4 1 2 2 1 3 3 4 5 5 6 6 7 7 8 8
REMARK H PARENT
REMARK Flexibility Score: inf
ROOT
ATOM      1  C   UNL     1       7.591  60.615  56.991  1.00  0.00     0.059 C 
ENDROOT
BRANCH   1   2
ATOM      2  C   UNL     1       6.205  60.271  57.446  1.00  0.00     0.042 C 
ATOM      3  O   UNL     1       6.031  59.451  58.386  1.00  0.00    -0.550 OA
ATOM      4  O   UNL     1       5.106  60.828  56.806  1.00  0.00    -0.550 OA
ENDBRANCH   1   2
BRANCH   1   5
ATOM      5  C   UNL     1       7.917  59.965  55.642  1.00  0.00     0.059 C 
BRANCH   5   6
ATOM      6  C   UNL     1       8.395  60.977  54.645  1.00  0.00     0.042 C 
ATOM      7  O   UNL     1       7.837  61.072  53.520  1.00  0.00    -0.550 OA
ATOM      8  O   UNL     1       9.484  61.786  54.944  1.00  0.00    -0.550 OA
ENDBRANCH   5   6
ENDBRANCH   1   5
TORSDOF 3
ENDMDL
MODEL 7
REMARK VINA RESULT:    -3.249     13.725     14.596
REMARK INTER + INTRA:          -3.933
REMARK INTER:                  -3.885
REMARK INTRA:                  -0.049
REMARK UNBOUND:                -0.115
REMARK SMILES O=C([O-])CCC(=O)[O-]
REMARK SMILES IDX 4 1 2 2 1 3 3 4 5 5 6 6 7 7 8 8
REMARK H PARENT
REMARK Flexibility Score: inf
ROOT
ATOM      1  C   UNL     1       7.890  60.035  55.606  1.00  0.00     0.059 C 
ENDROOT
BRANCH   1   2
ATOM      2  C   UNL     1       8.452  61.025  54.631  1.00  0.00     0.042 C 
ATOM      3  O   UNL     1       7.978  61.108  53.467  1.00  0.00    -0.550 OA
ATOM      4  O   UNL     1       9.524  61.828  54.996  1.00  0.00    -0.550 OA
ENDBRANCH   1   2
BRANCH   1   5
ATOM      5  C   UNL     1       7.559  60.694  56.949  1.00  0.00     0.059 C 
BRANCH   5   6
ATOM      6  C   UNL     1       6.176  60.345  57.409  1.00  0.00     0.042 C 
ATOM      7  O   UNL     1       5.172  60.805  56.805  1.00  0.00    -0.550 OA
ATOM      8  O   UNL     1       5.999  59.544  58.530  1.00  0.00    -0.550 OA
ENDBRANCH   5   6
ENDBRANCH   1   5
TORSDOF 3
ENDMDL
MODEL 8
REMARK VINA RESULT:    -3.155     13.493     14.390
REMARK INTER + INTRA:          -3.823
REMARK INTER:                  -3.788
REMARK INTRA:                  -0.035
REMARK UNBOUND:                -0.115
REMARK SMILES O=C([O-])CCC(=O)[O-]
REMARK SMILES IDX 4 1 2 2 1 3 3 4 5 5 6 6 7 7 8 8
REMARK H PARENT
REMARK Flexibility Score: inf
ROOT
ATOM      1  C   UNL     1       6.708  60.670  57.492  1.00  0.00     0.059 C 
ENDROOT
BRANCH   1   2
ATOM      2  C   UNL     1       7.605  60.250  56.367  1.00  0.00     0.042 C 
ATOM      3  O   UNL     1       7.782  59.028  56.118  1.00  0.00    -0.550 OA
ATOM      4  O   UNL     1       8.276  61.209  55.618  1.00  0.00    -0.550 OA
ENDBRANCH   1   2
BRANCH   1   5
ATOM      5  C   UNL     1       5.255  60.814  57.029  1.00  0.00     0.059 C 
BRANCH   5   6
ATOM      6  C   UNL     1       4.460  61.671  57.967  1.00  0.00     0.042 C 
ATOM      7  O   UNL     1       5.027  62.578  58.632  1.00  0.00    -0.550 OA
ATOM      8  O   UNL     1       3.101  61.441  58.135  1.00  0.00    -0.550 OA
ENDBRANCH   5   6
ENDBRANCH   1   5
TORSDOF 3
ENDMDL
MODEL 9
REMARK VINA RESULT:    -2.868      0.144      3.738
REMARK INTER + INTRA:          -3.486
REMARK INTER:                  -3.379
REMARK INTRA:                  -0.107
REMARK UNBOUND:                -0.115
REMARK SMILES O=C([O-])CCC(=O)[O-]
REMARK SMILES IDX 4 1 2 2 1 3 3 4 5 5 6 6 7 7 8 8
REMARK H PARENT
REMARK Flexibility Score: inf
ROOT
ATOM      1  C   UNL     1      -3.898  56.979  46.545  1.00  0.00     0.059 C 
ENDROOT
BRANCH   1   2
ATOM      2  C   UNL     1      -3.648  58.026  45.503  1.00  0.00     0.042 C 
ATOM      3  O   UNL     1      -2.975  57.751  44.475  1.00  0.00    -0.550 OA
ATOM      4  O   UNL     1      -4.125  59.317  45.688  1.00  0.00    -0.550 OA
ENDBRANCH   1   2
BRANCH   1   5
ATOM      5  C   UNL     1      -2.616  56.624  47.306  1.00  0.00     0.059 C 
BRANCH   5   6
ATOM      6  C   UNL     1      -2.617  57.202  48.689  1.00  0.00     0.042 C 
ATOM      7  O   UNL     1      -2.622  56.442  49.693  1.00  0.00    -0.550 OA
ATOM      8  O   UNL     1      -2.652  58.578  48.866  1.00  0.00    -0.550 OA
ENDBRANCH   5   6
ENDBRANCH   1   5
TORSDOF 3
ENDMDL
