MODEL 1
REMARK VINA RESULT:    -3.917      0.000      0.000
REMARK INTER + INTRA:          -9.829
REMARK INTER:                  -7.581
REMARK INTRA:                  -2.248
REMARK UNBOUND:                -2.248
REMARK SMILES CCCCCCCCCCCCCCCCCC(=O)[O-]
REMARK SMILES IDX 10 1 11 2 12 3 13 4 14 5 15 6 16 7 17 8 18 9 19 10 20 11
REMARK SMILES IDX 9 12 8 13 7 14 6 15 5 16 4 17 3 18 2 19 1 20
REMARK H PARENT
REMARK Flexibility Score: inf
ROOT
ATOM      1  C   UNL     1     -13.367   9.015  28.661  1.00  0.00     0.000 C 
ENDROOT
BRANCH   1   2
ATOM      2  C   UNL     1     -14.484   7.997  28.373  1.00  0.00     0.000 C 
BRANCH   2   3
ATOM      3  C   UNL     1     -14.699   7.005  29.529  1.00  0.00     0.000 C 
BRANCH   3   4
ATOM      4  C   UNL     1     -16.069   7.171  30.212  1.00  0.00     0.000 C 
BRANCH   4   5
ATOM      5  C   UNL     1     -16.388   6.122  31.291  1.00  0.00     0.000 C 
BRANCH   5   6
ATOM      6  C   UNL     1     -15.728   4.761  31.013  1.00  0.00     0.000 C 
BRANCH   6   7
ATOM      7  C   UNL     1     -15.184   4.085  32.285  1.00  0.00     0.006 C 
BRANCH   7   8
ATOM      8  C   UNL     1     -15.313   2.552  32.281  1.00  0.00     0.053 C 
BRANCH   8   9
ATOM      9  C   UNL     1     -15.723   2.002  33.613  1.00  0.00     0.041 C 
ATOM     10  O   UNL     1     -15.729   2.742  34.631  1.00  0.00    -0.550 OA
ATOM     11  O   UNL     1     -16.123   0.676  33.724  1.00  0.00    -0.550 OA
ENDBRANCH   8   9
ENDBRANCH   7   8
ENDBRANCH   6   7
ENDBRANCH   5   6
ENDBRANCH   4   5
ENDBRANCH   3   4
ENDBRANCH   2   3
ENDBRANCH   1   2
BRANCH   1  12
ATOM     12  C   UNL     1     -11.969   8.612  28.154  1.00  0.00     0.000 C 
BRANCH  12  13
ATOM     13  C   UNL     1     -10.920   8.460  29.277  1.00  0.00    -0.000 C 
BRANCH  13  14
ATOM     14  C   UNL     1     -10.328   7.040  29.330  1.00  0.00    -0.000 C 
BRANCH  14  15
ATOM     15  C   UNL     1     -10.085   6.550  30.767  1.00  0.00    -0.000 C 
BRANCH  15  16
ATOM     16  C   UNL     1     -10.569   5.107  30.988  1.00  0.00    -0.000 C 
BRANCH  16  17
ATOM     17  C   UNL     1     -12.025   4.898  30.539  1.00  0.00    -0.000 C 
BRANCH  17  18
ATOM     18  C   UNL     1     -12.302   3.462  30.068  1.00  0.00    -0.000 C 
BRANCH  18  19
ATOM     19  C   UNL     1     -13.094   3.460  28.756  1.00  0.00    -0.003 C 
ATOM     20  C   UNL     1     -12.581   4.536  27.801  1.00  0.00     0.004 C 
ENDBRANCH  18  19
ENDBRANCH  17  18
ENDBRANCH  16  17
ENDBRANCH  15  16
ENDBRANCH  14  15
ENDBRANCH  13  14
ENDBRANCH  12  13
ENDBRANCH   1  12
TORSDOF 16
ENDMDL
MODEL 2
REMARK VINA RESULT:    -3.899      3.185      6.278
REMARK INTER + INTRA:          -9.794
REMARK INTER:                  -7.814
REMARK INTRA:                  -1.980
REMARK UNBOUND:                -2.248
REMARK SMILES CCCCCCCCCCCCCCCCCC(=O)[O-]
REMARK SMILES IDX 10 1 11 2 12 3 13 4 14 5 15 6 16 7 17 8 18 9 19 10 20 11
REMARK SMILES IDX 9 12 8 13 7 14 6 15 5 16 4 17 3 18 2 19 1 20
REMARK H PARENT
REMARK Flexibility Score: inf
ROOT
ATOM      1  C   UNL     1     -14.922   4.644  30.618  1.00  0.00     0.000 C 
ENDROOT
BRANCH   1   2
ATOM      2  C   UNL     1     -14.181   3.802  31.671  1.00  0.00     0.000 C 
BRANCH   2   3
ATOM      3  C   UNL     1     -12.678   3.664  31.373  1.00  0.00     0.000 C 
BRANCH   3   4
ATOM      4  C   UNL     1     -12.064   4.949  30.790  1.00  0.00     0.000 C 
BRANCH   4   5
ATOM      5  C   UNL     1     -11.446   4.796  29.389  1.00  0.00     0.000 C 
BRANCH   5   6
ATOM      6  C   UNL     1     -10.006   5.329  29.310  1.00  0.00     0.000 C 
BRANCH   6   7
ATOM      7  C   UNL     1      -9.330   5.442  30.689  1.00  0.00     0.006 C 
BRANCH   7   8
ATOM      8  C   UNL     1      -7.815   5.174  30.665  1.00  0.00     0.053 C 
BRANCH   8   9
ATOM      9  C   UNL     1      -7.368   4.277  31.779  1.00  0.00     0.041 C 
ATOM     10  O   UNL     1      -7.057   4.761  32.898  1.00  0.00    -0.550 OA
ATOM     11  O   UNL     1      -7.319   2.902  31.587  1.00  0.00    -0.550 OA
ENDBRANCH   8   9
ENDBRANCH   7   8
ENDBRANCH   6   7
ENDBRANCH   5   6
ENDBRANCH   4   5
ENDBRANCH   3   4
ENDBRANCH   2   3
ENDBRANCH   1   2
BRANCH   1  12
ATOM     12  C   UNL     1     -16.050   5.538  31.171  1.00  0.00     0.000 C 
BRANCH  12  13
ATOM     13  C   UNL     1     -16.168   6.902  30.460  1.00  0.00    -0.000 C 
BRANCH  13  14
ATOM     14  C   UNL     1     -14.915   7.234  29.628  1.00  0.00    -0.000 C 
BRANCH  14  15
ATOM     15  C   UNL     1     -14.946   8.656  29.047  1.00  0.00    -0.000 C 
BRANCH  15  16
ATOM     16  C   UNL     1     -13.679   8.992  28.242  1.00  0.00    -0.000 C 
BRANCH  16  17
ATOM     17  C   UNL     1     -12.437   8.243  28.755  1.00  0.00    -0.000 C 
BRANCH  17  18
ATOM     18  C   UNL     1     -11.137   9.035  28.547  1.00  0.00    -0.000 C 
BRANCH  18  19
ATOM     19  C   UNL     1     -10.261   8.987  29.804  1.00  0.00    -0.003 C 
ATOM     20  C   UNL     1      -8.778   8.951  29.441  1.00  0.00     0.004 C 
ENDBRANCH  18  19
ENDBRANCH  17  18
ENDBRANCH  16  17
ENDBRANCH  15  16
ENDBRANCH  14  15
ENDBRANCH  13  14
ENDBRANCH  12  13
ENDBRANCH   1  12
TORSDOF 16
ENDMDL
MODEL 3
REMARK VINA RESULT:    -3.854      1.860      3.140
REMARK INTER + INTRA:          -9.707
REMARK INTER:                  -8.348
REMARK INTRA:                  -1.359
REMARK UNBOUND:                -2.248
REMARK SMILES CCCCCCCCCCCCCCCCCC(=O)[O-]
REMARK SMILES IDX 10 1 11 2 12 3 13 4 14 5 15 6 16 7 17 8 18 9 19 10 20 11
REMARK SMILES IDX 9 12 8 13 7 14 6 15 5 16 4 17 3 18 2 19 1 20
REMARK H PARENT
REMARK Flexibility Score: inf
ROOT
ATOM      1  C   UNL     1     -12.081   8.395  28.663  1.00  0.00     0.000 C 
ENDROOT
BRANCH   1   2
ATOM      2  C   UNL     1     -13.550   8.851  28.654  1.00  0.00     0.000 C 
BRANCH   2   3
ATOM      3  C   UNL     1     -14.536   7.681  28.484  1.00  0.00     0.000 C 
BRANCH   3   4
ATOM      4  C   UNL     1     -14.695   6.843  29.765  1.00  0.00     0.000 C 
BRANCH   4   5
ATOM      5  C   UNL     1     -16.078   6.938  30.435  1.00  0.00     0.000 C 
BRANCH   5   6
ATOM      6  C   UNL     1     -16.421   5.695  31.273  1.00  0.00     0.000 C 
BRANCH   6   7
ATOM      7  C   UNL     1     -15.182   4.858  31.643  1.00  0.00     0.006 C 
BRANCH   7   8
ATOM      8  C   UNL     1     -15.291   3.375  31.247  1.00  0.00     0.053 C 
BRANCH   8   9
ATOM      9  C   UNL     1     -15.319   2.460  32.434  1.00  0.00     0.041 C 
ATOM     10  O   UNL     1     -15.449   2.929  33.594  1.00  0.00    -0.550 OA
ATOM     11  O   UNL     1     -15.226   1.086  32.254  1.00  0.00    -0.550 OA
ENDBRANCH   8   9
ENDBRANCH   7   8
ENDBRANCH   6   7
ENDBRANCH   5   6
ENDBRANCH   4   5
ENDBRANCH   3   4
ENDBRANCH   2   3
ENDBRANCH   1   2
BRANCH   1  12
ATOM     12  C   UNL     1     -11.790   7.113  27.856  1.00  0.00     0.000 C 
BRANCH  12  13
ATOM     13  C   UNL     1     -10.787   6.161  28.542  1.00  0.00    -0.000 C 
BRANCH  13  14
ATOM     14  C   UNL     1     -10.756   6.354  30.070  1.00  0.00    -0.000 C 
BRANCH  14  15
ATOM     15  C   UNL     1     -11.409   5.188  30.829  1.00  0.00    -0.000 C 
BRANCH  15  16
ATOM     16  C   UNL     1     -10.379   4.305  31.555  1.00  0.00    -0.000 C 
BRANCH  16  17
ATOM     17  C   UNL     1      -8.937   4.806  31.366  1.00  0.00    -0.000 C 
BRANCH  17  18
ATOM     18  C   UNL     1      -7.933   4.085  32.279  1.00  0.00    -0.000 C 
BRANCH  18  19
ATOM     19  C   UNL     1      -6.503   4.562  32.004  1.00  0.00    -0.003 C 
ATOM     20  C   UNL     1      -5.929   5.307  33.207  1.00  0.00     0.004 C 
ENDBRANCH  18  19
ENDBRANCH  17  18
ENDBRANCH  16  17
ENDBRANCH  15  16
ENDBRANCH  14  15
ENDBRANCH  13  14
ENDBRANCH  12  13
ENDBRANCH   1  12
TORSDOF 16
ENDMDL
MODEL 4
REMARK VINA RESULT:    -3.852      2.450      5.142
REMARK INTER + INTRA:          -9.704
REMARK INTER:                  -7.504
REMARK INTRA:                  -2.199
REMARK UNBOUND:                -2.248
REMARK SMILES CCCCCCCCCCCCCCCCCC(=O)[O-]
REMARK SMILES IDX 10 1 11 2 12 3 13 4 14 5 15 6 16 7 17 8 18 9 19 10 20 11
REMARK SMILES IDX 9 12 8 13 7 14 6 15 5 16 4 17 3 18 2 19 1 20
REMARK H PARENT
REMARK Flexibility Score: inf
ROOT
ATOM      1  C   UNL     1     -14.507   8.313  28.968  1.00  0.00     0.000 C 
ENDROOT
BRANCH   1   2
ATOM      2  C   UNL     1     -13.330   8.922  28.186  1.00  0.00     0.000 C 
BRANCH   2   3
ATOM      3  C   UNL     1     -12.107   7.990  28.130  1.00  0.00     0.000 C 
BRANCH   3   4
ATOM      4  C   UNL     1     -11.004   8.390  29.127  1.00  0.00     0.000 C 
BRANCH   4   5
ATOM      5  C   UNL     1     -10.377   7.219  29.904  1.00  0.00     0.000 C 
BRANCH   5   6
ATOM      6  C   UNL     1      -9.853   6.105  28.983  1.00  0.00     0.000 C 
BRANCH   6   7
ATOM      7  C   UNL     1      -9.220   4.932  29.756  1.00  0.00     0.006 C 
BRANCH   7   8
ATOM      8  C   UNL     1      -9.402   5.021  31.281  1.00  0.00     0.053 C 
BRANCH   8   9
ATOM      9  C   UNL     1      -9.262   3.693  31.959  1.00  0.00     0.041 C 
ATOM     10  O   UNL     1      -8.400   3.528  32.861  1.00  0.00    -0.550 OA
ATOM     11  O   UNL     1     -10.102   2.642  31.612  1.00  0.00    -0.550 OA
ENDBRANCH   8   9
ENDBRANCH   7   8
ENDBRANCH   6   7
ENDBRANCH   5   6
ENDBRANCH   4   5
ENDBRANCH   3   4
ENDBRANCH   2   3
ENDBRANCH   1   2
BRANCH   1  12
ATOM     12  C   UNL     1     -14.330   6.834  29.366  1.00  0.00     0.000 C 
BRANCH  12  13
ATOM     13  C   UNL     1     -15.663   6.086  29.587  1.00  0.00    -0.000 C 
BRANCH  13  14
ATOM     14  C   UNL     1     -16.354   6.507  30.897  1.00  0.00    -0.000 C 
BRANCH  14  15
ATOM     15  C   UNL     1     -16.696   5.311  31.800  1.00  0.00    -0.000 C 
BRANCH  15  16
ATOM     16  C   UNL     1     -15.916   4.041  31.418  1.00  0.00    -0.000 C 
BRANCH  16  17
ATOM     17  C   UNL     1     -14.653   3.846  32.274  1.00  0.00    -0.000 C 
BRANCH  17  18
ATOM     18  C   UNL     1     -13.361   3.875  31.443  1.00  0.00    -0.000 C 
BRANCH  18  19
ATOM     19  C   UNL     1     -13.519   3.054  30.158  1.00  0.00    -0.003 C 
ATOM     20  C   UNL     1     -12.536   3.516  29.085  1.00  0.00     0.004 C 
ENDBRANCH  18  19
ENDBRANCH  17  18
ENDBRANCH  16  17
ENDBRANCH  15  16
ENDBRANCH  14  15
ENDBRANCH  13  14
ENDBRANCH  12  13
ENDBRANCH   1  12
TORSDOF 16
ENDMDL
MODEL 5
REMARK VINA RESULT:    -3.843     19.797     22.210
REMARK INTER + INTRA:          -9.686
REMARK INTER:                  -7.548
REMARK INTRA:                  -2.137
REMARK UNBOUND:                -2.248
REMARK SMILES CCCCCCCCCCCCCCCCCC(=O)[O-]
REMARK SMILES IDX 10 1 11 2 12 3 13 4 14 5 15 6 16 7 17 8 18 9 19 10 20 11
REMARK SMILES IDX 9 12 8 13 7 14 6 15 5 16 4 17 3 18 2 19 1 20
REMARK H PARENT
REMARK Flexibility Score: inf
ROOT
ATOM      1  C   UNL     1      -0.721  -7.348  18.439  1.00  0.00     0.000 C 
ENDROOT
BRANCH   1   2
ATOM      2  C   UNL     1       0.548  -6.479  18.468  1.00  0.00     0.000 C 
BRANCH   2   3
ATOM      3  C   UNL     1       0.444  -5.304  19.456  1.00  0.00     0.000 C 
BRANCH   3   4
ATOM      4  C   UNL     1       1.645  -5.222  20.415  1.00  0.00     0.000 C 
BRANCH   4   5
ATOM      5  C   UNL     1       2.391  -3.876  20.407  1.00  0.00     0.000 C 
BRANCH   5   6
ATOM      6  C   UNL     1       1.573  -2.737  21.040  1.00  0.00     0.000 C 
BRANCH   6   7
ATOM      7  C   UNL     1       1.576  -1.451  20.192  1.00  0.00     0.006 C 
BRANCH   7   8
ATOM      8  C   UNL     1       0.519  -1.440  19.075  1.00  0.00     0.053 C 
BRANCH   8   9
ATOM      9  C   UNL     1      -0.876  -1.606  19.595  1.00  0.00     0.041 C 
ATOM     10  O   UNL     1      -1.656  -2.441  19.067  1.00  0.00    -0.550 OA
ATOM     11  O   UNL     1      -1.307  -0.855  20.682  1.00  0.00    -0.550 OA
ENDBRANCH   8   9
ENDBRANCH   7   8
ENDBRANCH   6   7
ENDBRANCH   5   6
ENDBRANCH   4   5
ENDBRANCH   3   4
ENDBRANCH   2   3
ENDBRANCH   1   2
BRANCH   1  12
ATOM     12  C   UNL     1      -0.568  -8.704  17.723  1.00  0.00     0.000 C 
BRANCH  12  13
ATOM     13  C   UNL     1      -0.556  -9.915  18.681  1.00  0.00    -0.000 C 
BRANCH  13  14
ATOM     14  C   UNL     1       0.617 -10.871  18.395  1.00  0.00    -0.000 C 
BRANCH  14  15
ATOM     15  C   UNL     1       1.920 -10.128  18.058  1.00  0.00    -0.000 C 
BRANCH  15  16
ATOM     16  C   UNL     1       2.851  -9.988  19.274  1.00  0.00    -0.000 C 
BRANCH  16  17
ATOM     17  C   UNL     1       2.535  -8.741  20.117  1.00  0.00    -0.000 C 
BRANCH  17  18
ATOM     18  C   UNL     1       2.973  -8.888  21.583  1.00  0.00    -0.000 C 
BRANCH  18  19
ATOM     19  C   UNL     1       1.756  -9.020  22.506  1.00  0.00    -0.003 C 
ATOM     20  C   UNL     1       0.498  -8.465  21.842  1.00  0.00     0.004 C 
ENDBRANCH  18  19
ENDBRANCH  17  18
ENDBRANCH  16  17
ENDBRANCH  15  16
ENDBRANCH  14  15
ENDBRANCH  13  14
ENDBRANCH  12  13
ENDBRANCH   1  12
TORSDOF 16
ENDMDL
MODEL 6
REMARK VINA RESULT:    -3.826     20.092     22.594
REMARK INTER + INTRA:          -9.653
REMARK INTER:                  -7.318
REMARK INTRA:                  -2.335
REMARK UNBOUND:                -2.248
REMARK SMILES CCCCCCCCCCCCCCCCCC(=O)[O-]
REMARK SMILES IDX 10 1 11 2 12 3 13 4 14 5 15 6 16 7 17 8 18 9 19 10 20 11
REMARK SMILES IDX 9 12 8 13 7 14 6 15 5 16 4 17 3 18 2 19 1 20
REMARK H PARENT
REMARK Flexibility Score: inf
ROOT
ATOM      1  C   UNL     1       2.743  -8.904  20.181  1.00  0.00     0.000 C 
ENDROOT
BRANCH   1   2
ATOM      2  C   UNL     1       1.855  -8.918  21.438  1.00  0.00     0.000 C 
BRANCH   2   3
ATOM      3  C   UNL     1       1.659  -7.518  22.045  1.00  0.00     0.000 C 
BRANCH   3   4
ATOM      4  C   UNL     1       2.386  -6.416  21.253  1.00  0.00     0.000 C 
BRANCH   4   5
ATOM      5  C   UNL     1       2.344  -5.019  21.896  1.00  0.00     0.000 C 
BRANCH   5   6
ATOM      6  C   UNL     1       2.656  -3.892  20.897  1.00  0.00     0.000 C 
BRANCH   6   7
ATOM      7  C   UNL     1       1.513  -3.644  19.895  1.00  0.00     0.006 C 
BRANCH   7   8
ATOM      8  C   UNL     1       0.715  -2.357  20.166  1.00  0.00     0.053 C 
BRANCH   8   9
ATOM      9  C   UNL     1       1.476  -1.118  19.806  1.00  0.00     0.041 C 
ATOM     10  O   UNL     1       1.533  -0.733  18.608  1.00  0.00    -0.550 OA
ATOM     11  O   UNL     1       2.100  -0.372  20.798  1.00  0.00    -0.550 OA
ENDBRANCH   8   9
ENDBRANCH   7   8
ENDBRANCH   6   7
ENDBRANCH   5   6
ENDBRANCH   4   5
ENDBRANCH   3   4
ENDBRANCH   2   3
ENDBRANCH   1   2
BRANCH   1  12
ATOM     12  C   UNL     1       2.826 -10.244  19.425  1.00  0.00     0.000 C 
BRANCH  12  13
ATOM     13  C   UNL     1       2.054 -10.252  18.088  1.00  0.00    -0.000 C 
BRANCH  13  14
ATOM     14  C   UNL     1       0.580 -10.656  18.271  1.00  0.00    -0.000 C 
BRANCH  14  15
ATOM     15  C   UNL     1      -0.366  -9.445  18.321  1.00  0.00    -0.000 C 
BRANCH  15  16
ATOM     16  C   UNL     1       0.056  -8.326  17.353  1.00  0.00    -0.000 C 
BRANCH  16  17
ATOM     17  C   UNL     1       0.403  -7.017  18.082  1.00  0.00    -0.000 C 
BRANCH  17  18
ATOM     18  C   UNL     1      -0.583  -6.686  19.213  1.00  0.00    -0.000 C 
BRANCH  18  19
ATOM     19  C   UNL     1      -1.557  -5.583  18.785  1.00  0.00    -0.003 C 
ATOM     20  C   UNL     1      -2.905  -6.167  18.372  1.00  0.00     0.004 C 
ENDBRANCH  18  19
ENDBRANCH  17  18
ENDBRANCH  16  17
ENDBRANCH  15  16
ENDBRANCH  14  15
ENDBRANCH  13  14
ENDBRANCH  12  13
ENDBRANCH   1  12
TORSDOF 16
ENDMDL
MODEL 7
REMARK VINA RESULT:    -3.796      1.256      3.455
REMARK INTER + INTRA:          -9.595
REMARK INTER:                  -7.422
REMARK INTRA:                  -2.173
REMARK UNBOUND:                -2.248
REMARK SMILES CCCCCCCCCCCCCCCCCC(=O)[O-]
REMARK SMILES IDX 10 1 11 2 12 3 13 4 14 5 15 6 16 7 17 8 18 9 19 10 20 11
REMARK SMILES IDX 9 12 8 13 7 14 6 15 5 16 4 17 3 18 2 19 1 20
REMARK H PARENT
REMARK Flexibility Score: inf
ROOT
ATOM      1  C   UNL     1     -13.118   3.775  30.868  1.00  0.00     0.000 C 
ENDROOT
BRANCH   1   2
ATOM      2  C   UNL     1     -13.769   3.531  29.496  1.00  0.00     0.000 C 
BRANCH   2   3
ATOM      3  C   UNL     1     -14.549   4.753  28.981  1.00  0.00     0.000 C 
BRANCH   3   4
ATOM      4  C   UNL     1     -14.830   5.791  30.083  1.00  0.00     0.000 C 
BRANCH   4   5
ATOM      5  C   UNL     1     -16.320   6.011  30.401  1.00  0.00     0.000 C 
BRANCH   5   6
ATOM      6  C   UNL     1     -16.717   5.485  31.791  1.00  0.00     0.000 C 
BRANCH   6   7
ATOM      7  C   UNL     1     -16.771   3.947  31.858  1.00  0.00     0.006 C 
BRANCH   7   8
ATOM      8  C   UNL     1     -17.024   3.393  33.271  1.00  0.00     0.053 C 
BRANCH   8   9
ATOM      9  C   UNL     1     -16.036   2.339  33.666  1.00  0.00     0.041 C 
ATOM     10  O   UNL     1     -15.937   1.980  34.868  1.00  0.00    -0.550 OA
ATOM     11  O   UNL     1     -15.240   1.734  32.700  1.00  0.00    -0.550 OA
ENDBRANCH   8   9
ENDBRANCH   7   8
ENDBRANCH   6   7
ENDBRANCH   5   6
ENDBRANCH   4   5
ENDBRANCH   3   4
ENDBRANCH   2   3
ENDBRANCH   1   2
BRANCH   1  12
ATOM     12  C   UNL     1     -12.019   2.767  31.258  1.00  0.00     0.000 C 
BRANCH  12  13
ATOM     13  C   UNL     1     -10.610   3.390  31.354  1.00  0.00    -0.000 C 
BRANCH  13  14
ATOM     14  C   UNL     1     -10.651   4.928  31.314  1.00  0.00    -0.000 C 
BRANCH  14  15
ATOM     15  C   UNL     1      -9.479   5.534  30.526  1.00  0.00    -0.000 C 
BRANCH  15  16
ATOM     16  C   UNL     1      -9.861   6.842  29.811  1.00  0.00    -0.000 C 
BRANCH  16  17
ATOM     17  C   UNL     1     -11.383   7.012  29.669  1.00  0.00    -0.000 C 
BRANCH  17  18
ATOM     18  C   UNL     1     -11.826   7.199  28.210  1.00  0.00    -0.000 C 
BRANCH  18  19
ATOM     19  C   UNL     1     -12.249   8.649  27.948  1.00  0.00    -0.003 C 
ATOM     20  C   UNL     1     -13.568   8.973  28.646  1.00  0.00     0.004 C 
ENDBRANCH  18  19
ENDBRANCH  17  18
ENDBRANCH  16  17
ENDBRANCH  15  16
ENDBRANCH  14  15
ENDBRANCH  13  14
ENDBRANCH  12  13
ENDBRANCH   1  12
TORSDOF 16
ENDMDL
MODEL 8
REMARK VINA RESULT:    -3.743     20.646     22.908
REMARK INTER + INTRA:          -9.492
REMARK INTER:                  -6.780
REMARK INTRA:                  -2.712
REMARK UNBOUND:                -2.248
REMARK SMILES CCCCCCCCCCCCCCCCCC(=O)[O-]
REMARK SMILES IDX 10 1 11 2 12 3 13 4 14 5 15 6 16 7 17 8 18 9 19 10 20 11
REMARK SMILES IDX 9 12 8 13 7 14 6 15 5 16 4 17 3 18 2 19 1 20
REMARK H PARENT
REMARK Flexibility Score: inf
ROOT
ATOM      1  C   UNL     1       1.570 -10.304  18.818  1.00  0.00     0.000 C 
ENDROOT
BRANCH   1   2
ATOM      2  C   UNL     1       2.992  -9.997  19.317  1.00  0.00     0.000 C 
BRANCH   2   3
ATOM      3  C   UNL     1       3.009  -9.008  20.496  1.00  0.00     0.000 C 
BRANCH   3   4
ATOM      4  C   UNL     1       1.640  -8.880  21.188  1.00  0.00     0.000 C 
BRANCH   4   5
ATOM      5  C   UNL     1       1.322  -7.479  21.742  1.00  0.00     0.000 C 
BRANCH   5   6
ATOM      6  C   UNL     1       2.565  -6.760  22.293  1.00  0.00     0.000 C 
BRANCH   6   7
ATOM      7  C   UNL     1       2.751  -5.347  21.707  1.00  0.00     0.006 C 
BRANCH   7   8
ATOM      8  C   UNL     1       1.999  -5.117  20.386  1.00  0.00     0.053 C 
BRANCH   8   9
ATOM      9  C   UNL     1       1.568  -3.693  20.206  1.00  0.00     0.041 C 
ATOM     10  O   UNL     1       2.209  -2.761  20.759  1.00  0.00    -0.550 OA
ATOM     11  O   UNL     1       0.473  -3.393  19.404  1.00  0.00    -0.550 OA
ENDBRANCH   8   9
ENDBRANCH   7   8
ENDBRANCH   6   7
ENDBRANCH   5   6
ENDBRANCH   4   5
ENDBRANCH   3   4
ENDBRANCH   2   3
ENDBRANCH   1   2
BRANCH   1  12
ATOM     12  C   UNL     1       1.358 -10.127  17.301  1.00  0.00     0.000 C 
BRANCH  12  13
ATOM     13  C   UNL     1       0.530  -8.879  16.931  1.00  0.00    -0.000 C 
BRANCH  13  14
ATOM     14  C   UNL     1       0.863  -7.673  17.828  1.00  0.00    -0.000 C 
BRANCH  14  15
ATOM     15  C   UNL     1      -0.365  -6.801  18.133  1.00  0.00    -0.000 C 
BRANCH  15  16
ATOM     16  C   UNL     1      -1.615  -7.250  17.358  1.00  0.00    -0.000 C 
BRANCH  16  17
ATOM     17  C   UNL     1      -2.673  -7.895  18.269  1.00  0.00    -0.000 C 
BRANCH  17  18
ATOM     18  C   UNL     1      -2.197  -8.041  19.722  1.00  0.00    -0.000 C 
BRANCH  18  19
ATOM     19  C   UNL     1      -1.878  -9.505  20.048  1.00  0.00    -0.003 C 
ATOM     20  C   UNL     1      -2.247 -10.422  18.885  1.00  0.00     0.004 C 
ENDBRANCH  18  19
ENDBRANCH  17  18
ENDBRANCH  16  17
ENDBRANCH  15  16
ENDBRANCH  14  15
ENDBRANCH  13  14
ENDBRANCH  12  13
ENDBRANCH   1  12
TORSDOF 16
ENDMDL
MODEL 9
REMARK VINA RESULT:    -3.743     20.343     22.707
REMARK INTER + INTRA:          -9.491
REMARK INTER:                  -7.043
REMARK INTRA:                  -2.448
REMARK UNBOUND:                -2.248
REMARK SMILES CCCCCCCCCCCCCCCCCC(=O)[O-]
REMARK SMILES IDX 10 1 11 2 12 3 13 4 14 5 15 6 16 7 17 8 18 9 19 10 20 11
REMARK SMILES IDX 9 12 8 13 7 14 6 15 5 16 4 17 3 18 2 19 1 20
REMARK H PARENT
REMARK Flexibility Score: inf
ROOT
ATOM      1  C   UNL     1      -0.506  -9.335  17.802  1.00  0.00     0.000 C 
ENDROOT
BRANCH   1   2
ATOM      2  C   UNL     1       0.336  -8.328  17.001  1.00  0.00     0.000 C 
BRANCH   2   3
ATOM      3  C   UNL     1       0.526  -6.990  17.738  1.00  0.00     0.000 C 
BRANCH   3   4
ATOM      4  C   UNL     1      -0.301  -6.900  19.034  1.00  0.00     0.000 C 
BRANCH   4   5
ATOM      5  C   UNL     1       0.092  -5.747  19.974  1.00  0.00     0.000 C 
BRANCH   5   6
ATOM      6  C   UNL     1       1.582  -5.380  19.878  1.00  0.00     0.000 C 
BRANCH   6   7
ATOM      7  C   UNL     1       1.892  -3.973  20.425  1.00  0.00     0.006 C 
BRANCH   7   8
ATOM      8  C   UNL     1       1.110  -2.847  19.728  1.00  0.00     0.053 C 
BRANCH   8   9
ATOM      9  C   UNL     1       1.702  -1.493  19.974  1.00  0.00     0.041 C 
ATOM     10  O   UNL     1       2.268  -1.236  21.069  1.00  0.00    -0.550 OA
ATOM     11  O   UNL     1       1.652  -0.522  18.981  1.00  0.00    -0.550 OA
ENDBRANCH   8   9
ENDBRANCH   7   8
ENDBRANCH   6   7
ENDBRANCH   5   6
ENDBRANCH   4   5
ENDBRANCH   3   4
ENDBRANCH   2   3
ENDBRANCH   1   2
BRANCH   1  12
ATOM     12  C   UNL     1       0.297 -10.454  18.494  1.00  0.00     0.000 C 
BRANCH  12  13
ATOM     13  C   UNL     1       1.776 -10.518  18.059  1.00  0.00    -0.000 C 
BRANCH  13  14
ATOM     14  C   UNL     1       2.740 -10.375  19.251  1.00  0.00    -0.000 C 
BRANCH  14  15
ATOM     15  C   UNL     1       2.741  -8.959  19.849  1.00  0.00    -0.000 C 
BRANCH  15  16
ATOM     16  C   UNL     1       2.037  -8.894  21.216  1.00  0.00    -0.000 C 
BRANCH  16  17
ATOM     17  C   UNL     1       3.018  -8.630  22.371  1.00  0.00    -0.000 C 
BRANCH  17  18
ATOM     18  C   UNL     1       3.102  -7.143  22.750  1.00  0.00    -0.000 C 
BRANCH  18  19
ATOM     19  C   UNL     1       1.774  -6.653  23.338  1.00  0.00    -0.003 C 
ATOM     20  C   UNL     1       1.911  -5.245  23.913  1.00  0.00     0.004 C 
ENDBRANCH  18  19
ENDBRANCH  17  18
ENDBRANCH  16  17
ENDBRANCH  15  16
ENDBRANCH  14  15
ENDBRANCH  13  14
ENDBRANCH  12  13
ENDBRANCH   1  12
TORSDOF 16
ENDMDL
