MODEL 1
REMARK VINA RESULT:    -3.449      0.000      0.000
REMARK INTER + INTRA:          -4.413
REMARK INTER:                  -4.256
REMARK INTRA:                  -0.157
REMARK UNBOUND:                -0.157
REMARK SMILES CCCCCC(=O)[O-]
REMARK SMILES IDX 4 1 5 2 6 3 7 4 8 5 3 6 2 7 1 8
REMARK H PARENT
REMARK Flexibility Score: inf
ROOT
ATOM      1  C   UNL     1     125.407 122.859 128.241  1.00  0.00     0.006 C 
ENDROOT
BRANCH   1   2
ATOM      2  C   UNL     1     124.675 122.821 129.592  1.00  0.00     0.053 C 
BRANCH   2   3
ATOM      3  C   UNL     1     124.756 121.472 130.237  1.00  0.00     0.041 C 
ATOM      4  O   UNL     1     123.735 120.961 130.767  1.00  0.00    -0.550 OA
ATOM      5  O   UNL     1     125.951 120.764 130.220  1.00  0.00    -0.550 OA
ENDBRANCH   2   3
ENDBRANCH   1   2
BRANCH   1   6
ATOM      6  C   UNL     1     126.231 124.140 127.995  1.00  0.00     0.000 C 
BRANCH   6   7
ATOM      7  C   UNL     1     127.693 123.899 127.576  1.00  0.00    -0.003 C 
ATOM      8  C   UNL     1     128.214 122.524 127.990  1.00  0.00     0.004 C 
ENDBRANCH   6   7
ENDBRANCH   1   6
TORSDOF 4
ENDMDL
MODEL 2
REMARK VINA RESULT:    -3.410     11.007     12.027
REMARK INTER + INTRA:          -4.365
REMARK INTER:                  -4.224
REMARK INTRA:                  -0.141
REMARK UNBOUND:                -0.157
REMARK SMILES CCCCCC(=O)[O-]
REMARK SMILES IDX 4 1 5 2 6 3 7 4 8 5 3 6 2 7 1 8
REMARK H PARENT
REMARK Flexibility Score: inf
ROOT
ATOM      1  C   UNL     1     130.425 132.831 128.209  1.00  0.00     0.006 C 
ENDROOT
BRANCH   1   2
ATOM      2  C   UNL     1     131.387 132.456 129.348  1.00  0.00     0.053 C 
BRANCH   2   3
ATOM      3  C   UNL     1     131.387 133.479 130.442  1.00  0.00     0.041 C 
ATOM      4  O   UNL     1     131.998 133.254 131.520  1.00  0.00    -0.550 OA
ATOM      5  O   UNL     1     130.742 134.696 130.257  1.00  0.00    -0.550 OA
ENDBRANCH   2   3
ENDBRANCH   1   2
BRANCH   1   6
ATOM      6  C   UNL     1     129.266 131.836 127.998  1.00  0.00     0.000 C 
BRANCH   6   7
ATOM      7  C   UNL     1     127.944 132.470 127.529  1.00  0.00    -0.003 C 
ATOM      8  C   UNL     1     127.636 133.793 128.230  1.00  0.00     0.004 C 
ENDBRANCH   6   7
ENDBRANCH   1   6
TORSDOF 4
ENDMDL
MODEL 3
REMARK VINA RESULT:    -3.403     10.935     12.029
REMARK INTER + INTRA:          -4.356
REMARK INTER:                  -4.228
REMARK INTRA:                  -0.128
REMARK UNBOUND:                -0.157
REMARK SMILES CCCCCC(=O)[O-]
REMARK SMILES IDX 4 1 5 2 6 3 7 4 8 5 3 6 2 7 1 8
REMARK H PARENT
REMARK Flexibility Score: inf
ROOT
ATOM      1  C   UNL     1     130.797 133.236 128.323  1.00  0.00     0.006 C 
ENDROOT
BRANCH   1   2
ATOM      2  C   UNL     1     129.885 132.000 128.368  1.00  0.00     0.053 C 
BRANCH   2   3
ATOM      3  C   UNL     1     128.634 132.196 127.568  1.00  0.00     0.041 C 
ATOM      4  O   UNL     1     128.415 131.489 126.550  1.00  0.00    -0.550 OA
ATOM      5  O   UNL     1     127.692 133.136 127.970  1.00  0.00    -0.550 OA
ENDBRANCH   2   3
ENDBRANCH   1   2
BRANCH   1   6
ATOM      6  C   UNL     1     131.038 133.903 129.693  1.00  0.00     0.000 C 
BRANCH   6   7
ATOM      7  C   UNL     1     130.042 135.019 130.055  1.00  0.00    -0.003 C 
ATOM      8  C   UNL     1     130.726 136.295 130.542  1.00  0.00     0.004 C 
ENDBRANCH   6   7
ENDBRANCH   1   6
TORSDOF 4
ENDMDL
MODEL 4
REMARK VINA RESULT:    -3.385      2.539      4.109
REMARK INTER + INTRA:          -4.334
REMARK INTER:                  -4.233
REMARK INTRA:                  -0.101
REMARK UNBOUND:                -0.157
REMARK SMILES CCCCCC(=O)[O-]
REMARK SMILES IDX 4 1 5 2 6 3 7 4 8 5 3 6 2 7 1 8
REMARK H PARENT
REMARK Flexibility Score: inf
ROOT
ATOM      1  C   UNL     1     125.172 122.888 128.393  1.00  0.00     0.006 C 
ENDROOT
BRANCH   1   2
ATOM      2  C   UNL     1     126.029 124.144 128.169  1.00  0.00     0.053 C 
BRANCH   2   3
ATOM      3  C   UNL     1     127.257 123.849 127.364  1.00  0.00     0.041 C 
ATOM      4  O   UNL     1     127.457 124.443 126.272  1.00  0.00    -0.550 OA
ATOM      5  O   UNL     1     128.200 122.946 127.839  1.00  0.00    -0.550 OA
ENDBRANCH   2   3
ENDBRANCH   1   2
BRANCH   1   6
ATOM      6  C   UNL     1     124.568 122.769 129.808  1.00  0.00     0.000 C 
BRANCH   6   7
ATOM      7  C   UNL     1     124.464 121.332 130.350  1.00  0.00    -0.003 C 
ATOM      8  C   UNL     1     125.784 120.567 130.271  1.00  0.00     0.004 C 
ENDBRANCH   6   7
ENDBRANCH   1   6
TORSDOF 4
ENDMDL
MODEL 5
REMARK VINA RESULT:    -3.383      2.355      3.895
REMARK INTER + INTRA:          -4.331
REMARK INTER:                  -4.184
REMARK INTRA:                  -0.147
REMARK UNBOUND:                -0.157
REMARK SMILES CCCCCC(=O)[O-]
REMARK SMILES IDX 4 1 5 2 6 3 7 4 8 5 3 6 2 7 1 8
REMARK H PARENT
REMARK Flexibility Score: inf
ROOT
ATOM      1  C   UNL     1     124.635 122.758 129.771  1.00  0.00     0.006 C 
ENDROOT
BRANCH   1   2
ATOM      2  C   UNL     1     124.975 122.706 128.273  1.00  0.00     0.053 C 
BRANCH   2   3
ATOM      3  C   UNL     1     126.247 123.432 127.961  1.00  0.00     0.041 C 
ATOM      4  O   UNL     1     126.231 124.673 127.745  1.00  0.00    -0.550 OA
ATOM      5  O   UNL     1     127.454 122.745 127.944  1.00  0.00    -0.550 OA
ENDBRANCH   2   3
ENDBRANCH   1   2
BRANCH   1   6
ATOM      6  C   UNL     1     124.567 121.380 130.460  1.00  0.00     0.000 C 
BRANCH   6   7
ATOM      7  C   UNL     1     125.783 120.470 130.212  1.00  0.00    -0.003 C 
ATOM      8  C   UNL     1     125.481 118.991 130.450  1.00  0.00     0.004 C 
ENDBRANCH   6   7
ENDBRANCH   1   6
TORSDOF 4
ENDMDL
MODEL 6
REMARK VINA RESULT:    -3.367      0.976      1.815
REMARK INTER + INTRA:          -4.312
REMARK INTER:                  -4.191
REMARK INTRA:                  -0.121
REMARK UNBOUND:                -0.157
REMARK SMILES CCCCCC(=O)[O-]
REMARK SMILES IDX 4 1 5 2 6 3 7 4 8 5 3 6 2 7 1 8
REMARK H PARENT
REMARK Flexibility Score: inf
ROOT
ATOM      1  C   UNL     1     124.869 122.543 128.473  1.00  0.00     0.006 C 
ENDROOT
BRANCH   1   2
ATOM      2  C   UNL     1     124.602 122.418 129.981  1.00  0.00     0.053 C 
BRANCH   2   3
ATOM      3  C   UNL     1     124.551 120.988 130.426  1.00  0.00     0.041 C 
ATOM      4  O   UNL     1     125.546 120.236 130.255  1.00  0.00    -0.550 OA
ATOM      5  O   UNL     1     123.417 120.497 131.062  1.00  0.00    -0.550 OA
ENDBRANCH   2   3
ENDBRANCH   1   2
BRANCH   1   6
ATOM      6  C   UNL     1     126.323 122.906 128.109  1.00  0.00     0.000 C 
BRANCH   6   7
ATOM      7  C   UNL     1     126.503 124.289 127.458  1.00  0.00    -0.003 C 
ATOM      8  C   UNL     1     126.692 125.409 128.479  1.00  0.00     0.004 C 
ENDBRANCH   6   7
ENDBRANCH   1   6
TORSDOF 4
ENDMDL
MODEL 7
REMARK VINA RESULT:    -3.281      9.804     10.876
REMARK INTER + INTRA:          -4.205
REMARK INTER:                  -4.130
REMARK INTRA:                  -0.076
REMARK UNBOUND:                -0.157
REMARK SMILES CCCCCC(=O)[O-]
REMARK SMILES IDX 4 1 5 2 6 3 7 4 8 5 3 6 2 7 1 8
REMARK H PARENT
REMARK Flexibility Score: inf
ROOT
ATOM      1  C   UNL     1     129.326 133.528 128.624  1.00  0.00     0.006 C 
ENDROOT
BRANCH   1   2
ATOM      2  C   UNL     1     128.250 132.789 127.812  1.00  0.00     0.053 C 
BRANCH   2   3
ATOM      3  C   UNL     1     128.674 131.398 127.454  1.00  0.00     0.041 C 
ATOM      4  O   UNL     1     128.783 130.519 128.349  1.00  0.00    -0.550 OA
ATOM      5  O   UNL     1     128.912 131.063 126.127  1.00  0.00    -0.550 OA
ENDBRANCH   2   3
ENDBRANCH   1   2
BRANCH   1   6
ATOM      6  C   UNL     1     130.776 133.157 128.252  1.00  0.00     0.000 C 
BRANCH   6   7
ATOM      7  C   UNL     1     131.567 132.442 129.362  1.00  0.00    -0.003 C 
ATOM      8  C   UNL     1     131.560 133.204 130.686  1.00  0.00     0.004 C 
ENDBRANCH   6   7
ENDBRANCH   1   6
TORSDOF 4
ENDMDL
MODEL 8
REMARK VINA RESULT:    -3.250      1.883      2.636
REMARK INTER + INTRA:          -4.167
REMARK INTER:                  -4.094
REMARK INTRA:                  -0.073
REMARK UNBOUND:                -0.157
REMARK SMILES CCCCCC(=O)[O-]
REMARK SMILES IDX 4 1 5 2 6 3 7 4 8 5 3 6 2 7 1 8
REMARK H PARENT
REMARK Flexibility Score: inf
ROOT
ATOM      1  C   UNL     1     124.620 121.353 129.840  1.00  0.00     0.006 C 
ENDROOT
BRANCH   1   2
ATOM      2  C   UNL     1     125.772 120.656 130.579  1.00  0.00     0.053 C 
BRANCH   2   3
ATOM      3  C   UNL     1     125.832 119.191 130.272  1.00  0.00     0.041 C 
ATOM      4  O   UNL     1     124.810 118.470 130.420  1.00  0.00    -0.550 OA
ATOM      5  O   UNL     1     127.006 118.629 129.786  1.00  0.00    -0.550 OA
ENDBRANCH   2   3
ENDBRANCH   1   2
BRANCH   1   6
ATOM      6  C   UNL     1     125.067 122.312 128.717  1.00  0.00     0.000 C 
BRANCH   6   7
ATOM      7  C   UNL     1     125.017 123.806 129.083  1.00  0.00    -0.003 C 
ATOM      8  C   UNL     1     126.129 124.619 128.422  1.00  0.00     0.004 C 
ENDBRANCH   6   7
ENDBRANCH   1   6
TORSDOF 4
ENDMDL
MODEL 9
REMARK VINA RESULT:    -3.172     12.708     13.723
REMARK INTER + INTRA:          -4.071
REMARK INTER:                  -3.958
REMARK INTRA:                  -0.113
REMARK UNBOUND:                -0.157
REMARK SMILES CCCCCC(=O)[O-]
REMARK SMILES IDX 4 1 5 2 6 3 7 4 8 5 3 6 2 7 1 8
REMARK H PARENT
REMARK Flexibility Score: inf
ROOT
ATOM      1  C   UNL     1     131.261 134.513 130.371  1.00  0.00     0.006 C 
ENDROOT
BRANCH   1   2
ATOM      2  C   UNL     1     129.886 135.173 130.181  1.00  0.00     0.053 C 
BRANCH   2   3
ATOM      3  C   UNL     1     129.963 136.666 130.269  1.00  0.00     0.041 C 
ATOM      4  O   UNL     1     131.074 137.234 130.446  1.00  0.00    -0.550 OA
ATOM      5  O   UNL     1     128.814 137.433 130.120  1.00  0.00    -0.550 OA
ENDBRANCH   2   3
ENDBRANCH   1   2
BRANCH   1   6
ATOM      6  C   UNL     1     131.353 133.064 129.849  1.00  0.00     0.000 C 
BRANCH   6   7
ATOM      7  C   UNL     1     130.866 132.864 128.403  1.00  0.00    -0.003 C 
ATOM      8  C   UNL     1     129.775 131.801 128.282  1.00  0.00     0.004 C 
ENDBRANCH   6   7
ENDBRANCH   1   6
TORSDOF 4
ENDMDL
