MODEL 1
REMARK VINA RESULT:    -7.333      0.000      0.000
REMARK INTER + INTRA:          -8.911
REMARK INTER:                  -8.833
REMARK INTRA:                  -0.078
REMARK UNBOUND:                -0.078
REMARK SMILES O=c1c(O)c(-c2ccc(O)c(O)c2)oc2cc(O)cc(O)c12
REMARK SMILES IDX 5 1 3 2 2 3 1 4 22 5 20 6 19 7 17 8 16 9 15 10 14 11 6 12
REMARK SMILES IDX 7 13 8 14 9 15 13 16 11 17 10 18 12 20 4 22 21 24 18 26
REMARK H PARENT 10 19 12 21 4 23 21 25 18 27
REMARK Flexibility Score: inf
ROOT
ATOM      1  C   UNL     1     -13.266 -29.392 -10.318  1.00  0.00     0.180 A 
ATOM      2  C   UNL     1     -14.139 -30.406 -10.748  1.00  0.00     0.208 A 
ATOM      3  C   UNL     1     -14.995 -30.153 -11.833  1.00  0.00     0.238 A 
ATOM      4  O   UNL     1     -15.735 -31.082 -12.248  1.00  0.00    -0.285 OA
ATOM      5  C   UNL     1     -14.979 -28.885 -12.461  1.00  0.00     0.111 A 
ATOM      6  C   UNL     1     -15.831 -28.504 -13.542  1.00  0.00     0.134 A 
ATOM      7  C   UNL     1     -15.638 -27.268 -14.172  1.00  0.00     0.093 A 
ATOM      8  C   UNL     1     -14.667 -26.372 -13.717  1.00  0.00     0.123 A 
ATOM      9  C   UNL     1     -13.871 -26.709 -12.626  1.00  0.00     0.094 A 
ATOM     10  C   UNL     1     -14.015 -27.950 -12.000  1.00  0.00     0.146 A 
ATOM     11  O   UNL     1     -13.228 -28.237 -10.969  1.00  0.00    -0.452 OA
ENDROOT
BRANCH   1  12
ATOM     12  C   UNL     1     -12.352 -29.576  -9.167  1.00  0.00     0.025 A 
ATOM     13  C   UNL     1     -12.385 -28.710  -8.062  1.00  0.00     0.016 A 
ATOM     14  C   UNL     1     -11.498 -28.889  -7.000  1.00  0.00     0.051 A 
ATOM     15  C   UNL     1     -10.555 -29.922  -7.022  1.00  0.00     0.157 A 
ATOM     16  C   UNL     1     -11.392 -30.600  -9.202  1.00  0.00     0.062 A 
ATOM     17  C   UNL     1     -10.499 -30.787  -8.141  1.00  0.00     0.158 A 
BRANCH  15  18
ATOM     18  O   UNL     1      -9.698 -30.049  -5.926  1.00  0.00    -0.504 OA
ATOM     19  H   UNL     1      -8.864 -29.496  -5.794  1.00  0.00     0.293 HD
ENDBRANCH  15  18
BRANCH  17  20
ATOM     20  O   UNL     1      -9.579 -31.833  -8.239  1.00  0.00    -0.504 OA
ATOM     21  H   UNL     1      -8.796 -31.839  -8.876  1.00  0.00     0.293 HD
ENDBRANCH  17  20
ENDBRANCH   1  12
BRANCH   2  22
ATOM     22  O   UNL     1     -14.124 -31.658 -10.128  1.00  0.00    -0.502 OA
ATOM     23  H   UNL     1     -13.381 -32.330 -10.277  1.00  0.00     0.293 HD
ENDBRANCH   2  22
BRANCH   6  24
ATOM     24  O   UNL     1     -16.891 -29.286 -14.012  1.00  0.00    -0.507 OA
ATOM     25  H   UNL     1     -17.055 -29.505 -14.983  1.00  0.00     0.293 HD
ENDBRANCH   6  24
BRANCH   8  26
ATOM     26  O   UNL     1     -14.493 -25.139 -14.340  1.00  0.00    -0.508 OA
ATOM     27  H   UNL     1     -14.564 -24.269 -13.824  1.00  0.00     0.293 HD
ENDBRANCH   8  26
TORSDOF 6
ENDMDL
MODEL 2
REMARK VINA RESULT:    -7.177      1.549      3.033
REMARK INTER + INTRA:          -8.723
REMARK INTER:                  -9.048
REMARK INTRA:                   0.326
REMARK UNBOUND:                -0.078
REMARK SMILES O=c1c(O)c(-c2ccc(O)c(O)c2)oc2cc(O)cc(O)c12
REMARK SMILES IDX 5 1 3 2 2 3 1 4 22 5 20 6 19 7 17 8 16 9 15 10 14 11 6 12
REMARK SMILES IDX 7 13 8 14 9 15 13 16 11 17 10 18 12 20 4 22 21 24 18 26
REMARK H PARENT 10 19 12 21 4 23 21 25 18 27
REMARK Flexibility Score: inf
ROOT
ATOM      1  C   UNL     1     -12.885 -29.735  -9.700  1.00  0.00     0.180 A 
ATOM      2  C   UNL     1     -13.265 -28.411  -9.980  1.00  0.00     0.208 A 
ATOM      3  C   UNL     1     -14.177 -28.170 -11.022  1.00  0.00     0.238 A 
ATOM      4  O   UNL     1     -14.555 -26.988 -11.231  1.00  0.00    -0.285 OA
ATOM      5  C   UNL     1     -14.682 -29.252 -11.780  1.00  0.00     0.111 A 
ATOM      6  C   UNL     1     -15.578 -29.121 -12.883  1.00  0.00     0.134 A 
ATOM      7  C   UNL     1     -16.115 -30.270 -13.478  1.00  0.00     0.093 A 
ATOM      8  C   UNL     1     -15.737 -31.546 -13.051  1.00  0.00     0.123 A 
ATOM      9  C   UNL     1     -14.818 -31.684 -12.014  1.00  0.00     0.094 A 
ATOM     10  C   UNL     1     -14.293 -30.557 -11.378  1.00  0.00     0.146 A 
ATOM     11  O   UNL     1     -13.427 -30.734 -10.386  1.00  0.00    -0.452 OA
ENDROOT
BRANCH   1  12
ATOM     12  C   UNL     1     -11.911 -30.067  -8.634  1.00  0.00     0.025 A 
ATOM     13  C   UNL     1     -11.724 -29.223  -7.528  1.00  0.00     0.016 A 
ATOM     14  C   UNL     1     -10.783 -29.545  -6.548  1.00  0.00     0.051 A 
ATOM     15  C   UNL     1     -10.004 -30.701  -6.657  1.00  0.00     0.157 A 
ATOM     16  C   UNL     1     -11.116 -31.216  -8.757  1.00  0.00     0.062 A 
ATOM     17  C   UNL     1     -10.171 -31.547  -7.779  1.00  0.00     0.158 A 
BRANCH  15  18
ATOM     18  O   UNL     1      -9.084 -30.968  -5.640  1.00  0.00    -0.504 OA
ATOM     19  H   UNL     1      -8.131 -30.636  -5.641  1.00  0.00     0.293 HD
ENDBRANCH  15  18
BRANCH  17  20
ATOM     20  O   UNL     1      -9.423 -32.712  -7.962  1.00  0.00    -0.504 OA
ATOM     21  H   UNL     1      -9.449 -33.504  -7.338  1.00  0.00     0.293 HD
ENDBRANCH  17  20
ENDBRANCH   1  12
BRANCH   2  22
ATOM     22  O   UNL     1     -12.772 -27.358  -9.205  1.00  0.00    -0.502 OA
ATOM     23  H   UNL     1     -13.037 -27.224  -8.237  1.00  0.00     0.293 HD
ENDBRANCH   2  22
BRANCH   6  24
ATOM     24  O   UNL     1     -15.948 -27.896 -13.447  1.00  0.00    -0.507 OA
ATOM     25  H   UNL     1     -16.127 -27.747 -14.428  1.00  0.00     0.293 HD
ENDBRANCH   6  24
BRANCH   8  26
ATOM     26  O   UNL     1     -16.265 -32.683 -13.658  1.00  0.00    -0.508 OA
ATOM     27  H   UNL     1     -16.849 -33.334 -13.146  1.00  0.00     0.293 HD
ENDBRANCH   8  26
TORSDOF 6
ENDMDL
MODEL 3
REMARK VINA RESULT:    -6.939      1.455      7.347
REMARK INTER + INTRA:          -8.437
REMARK INTER:                  -8.634
REMARK INTRA:                   0.197
REMARK UNBOUND:                -0.078
REMARK SMILES O=c1c(O)c(-c2ccc(O)c(O)c2)oc2cc(O)cc(O)c12
REMARK SMILES IDX 5 1 3 2 2 3 1 4 22 5 20 6 19 7 17 8 16 9 15 10 14 11 6 12
REMARK SMILES IDX 7 13 8 14 9 15 13 16 11 17 10 18 12 20 4 22 21 24 18 26
REMARK H PARENT 10 19 12 21 4 23 21 25 18 27
REMARK Flexibility Score: inf
ROOT
ATOM      1  C   UNL     1     -13.205 -29.820  -9.973  1.00  0.00     0.180 A 
ATOM      2  C   UNL     1     -12.866 -28.717  -9.170  1.00  0.00     0.208 A 
ATOM      3  C   UNL     1     -11.884 -28.875  -8.178  1.00  0.00     0.238 A 
ATOM      4  O   UNL     1     -11.545 -27.870  -7.499  1.00  0.00    -0.285 OA
ATOM      5  C   UNL     1     -11.268 -30.135  -7.990  1.00  0.00     0.111 A 
ATOM      6  C   UNL     1     -10.290 -30.419  -6.989  1.00  0.00     0.134 A 
ATOM      7  C   UNL     1      -9.653 -31.666  -6.980  1.00  0.00     0.093 A 
ATOM      8  C   UNL     1     -10.004 -32.661  -7.895  1.00  0.00     0.123 A 
ATOM      9  C   UNL     1     -10.999 -32.414  -8.838  1.00  0.00     0.094 A 
ATOM     10  C   UNL     1     -11.627 -31.168  -8.895  1.00  0.00     0.146 A 
ATOM     11  O   UNL     1     -12.563 -30.970  -9.817  1.00  0.00    -0.452 OA
ENDROOT
BRANCH   1  12
ATOM     12  C   UNL     1     -14.247 -29.738 -11.023  1.00  0.00     0.025 A 
ATOM     13  C   UNL     1     -15.123 -30.808 -11.267  1.00  0.00     0.016 A 
ATOM     14  C   UNL     1     -16.081 -30.716 -12.278  1.00  0.00     0.051 A 
ATOM     15  C   UNL     1     -16.178 -29.568 -13.070  1.00  0.00     0.157 A 
ATOM     16  C   UNL     1     -14.327 -28.593 -11.831  1.00  0.00     0.062 A 
ATOM     17  C   UNL     1     -15.285 -28.493 -12.846  1.00  0.00     0.158 A 
BRANCH  15  18
ATOM     18  O   UNL     1     -17.162 -29.539 -14.062  1.00  0.00    -0.504 OA
ATOM     19  H   UNL     1     -17.085 -30.018 -14.947  1.00  0.00     0.293 HD
ENDBRANCH  15  18
BRANCH  17  20
ATOM     20  O   UNL     1     -15.314 -27.320 -13.603  1.00  0.00    -0.504 OA
ATOM     21  H   UNL     1     -16.159 -26.822 -13.842  1.00  0.00     0.293 HD
ENDBRANCH  17  20
ENDBRANCH   1  12
BRANCH   2  22
ATOM     22  O   UNL     1     -13.470 -27.476  -9.385  1.00  0.00    -0.502 OA
ATOM     23  H   UNL     1     -14.196 -27.338 -10.077  1.00  0.00     0.293 HD
ENDBRANCH   2  22
BRANCH   6  24
ATOM     24  O   UNL     1      -9.933 -29.528  -5.973  1.00  0.00    -0.507 OA
ATOM     25  H   UNL     1     -10.408 -28.660  -5.777  1.00  0.00     0.293 HD
ENDBRANCH   6  24
BRANCH   8  26
ATOM     26  O   UNL     1      -9.376 -33.904  -7.869  1.00  0.00    -0.508 OA
ATOM     27  H   UNL     1      -8.656 -34.148  -8.539  1.00  0.00     0.293 HD
ENDBRANCH   8  26
TORSDOF 6
ENDMDL
MODEL 4
REMARK VINA RESULT:    -6.717      1.888      7.691
REMARK INTER + INTRA:          -8.169
REMARK INTER:                  -8.527
REMARK INTRA:                   0.358
REMARK UNBOUND:                -0.078
REMARK SMILES O=c1c(O)c(-c2ccc(O)c(O)c2)oc2cc(O)cc(O)c12
REMARK SMILES IDX 5 1 3 2 2 3 1 4 22 5 20 6 19 7 17 8 16 9 15 10 14 11 6 12
REMARK SMILES IDX 7 13 8 14 9 15 13 16 11 17 10 18 12 20 4 22 21 24 18 26
REMARK H PARENT 10 19 12 21 4 23 21 25 18 27
REMARK Flexibility Score: inf
ROOT
ATOM      1  C   UNL     1     -12.002 -29.947  -8.916  1.00  0.00     0.180 A 
ATOM      2  C   UNL     1     -11.355 -29.074  -8.025  1.00  0.00     0.208 A 
ATOM      3  C   UNL     1     -10.514 -29.611  -7.035  1.00  0.00     0.238 A 
ATOM      4  O   UNL     1      -9.896 -28.821  -6.275  1.00  0.00    -0.285 OA
ATOM      5  C   UNL     1     -10.347 -31.013  -6.938  1.00  0.00     0.111 A 
ATOM      6  C   UNL     1      -9.552 -31.668  -5.950  1.00  0.00     0.134 A 
ATOM      7  C   UNL     1      -9.353 -33.052  -6.029  1.00  0.00     0.093 A 
ATOM      8  C   UNL     1      -9.973 -33.813  -7.024  1.00  0.00     0.123 A 
ATOM      9  C   UNL     1     -10.798 -33.191  -7.957  1.00  0.00     0.094 A 
ATOM     10  C   UNL     1     -10.986 -31.807  -7.926  1.00  0.00     0.146 A 
ATOM     11  O   UNL     1     -11.772 -31.252  -8.842  1.00  0.00    -0.452 OA
ENDROOT
BRANCH   1  12
ATOM     12  C   UNL     1     -12.921 -29.458  -9.970  1.00  0.00     0.025 A 
ATOM     13  C   UNL     1     -12.844 -28.142 -10.453  1.00  0.00     0.016 A 
ATOM     14  C   UNL     1     -13.737 -27.698 -11.429  1.00  0.00     0.051 A 
ATOM     15  C   UNL     1     -14.728 -28.547 -11.933  1.00  0.00     0.157 A 
ATOM     16  C   UNL     1     -13.928 -30.306 -10.457  1.00  0.00     0.062 A 
ATOM     17  C   UNL     1     -14.827 -29.869 -11.437  1.00  0.00     0.158 A 
BRANCH  15  18
ATOM     18  O   UNL     1     -15.587 -28.041 -12.912  1.00  0.00    -0.504 OA
ATOM     19  H   UNL     1     -15.921 -27.089 -12.933  1.00  0.00     0.293 HD
ENDBRANCH  15  18
BRANCH  17  20
ATOM     20  O   UNL     1     -15.795 -30.771 -11.883  1.00  0.00    -0.504 OA
ATOM     21  H   UNL     1     -15.832 -31.142 -12.821  1.00  0.00     0.293 HD
ENDBRANCH  17  20
ENDBRANCH   1  12
BRANCH   2  22
ATOM     22  O   UNL     1     -11.517 -27.692  -8.151  1.00  0.00    -0.502 OA
ATOM     23  H   UNL     1     -11.471 -27.218  -9.044  1.00  0.00     0.293 HD
ENDBRANCH   2  22
BRANCH   6  24
ATOM     24  O   UNL     1      -8.965 -31.014  -4.862  1.00  0.00    -0.507 OA
ATOM     25  H   UNL     1      -9.471 -30.484  -4.169  1.00  0.00     0.293 HD
ENDBRANCH   6  24
BRANCH   8  26
ATOM     26  O   UNL     1      -9.781 -35.191  -7.086  1.00  0.00    -0.508 OA
ATOM     27  H   UNL     1      -8.858 -35.593  -7.198  1.00  0.00     0.293 HD
ENDBRANCH   8  26
TORSDOF 6
ENDMDL
MODEL 5
REMARK VINA RESULT:    -6.714      3.587      6.319
REMARK INTER + INTRA:          -8.166
REMARK INTER:                  -7.913
REMARK INTRA:                  -0.252
REMARK UNBOUND:                -0.078
REMARK SMILES O=c1c(O)c(-c2ccc(O)c(O)c2)oc2cc(O)cc(O)c12
REMARK SMILES IDX 5 1 3 2 2 3 1 4 22 5 20 6 19 7 17 8 16 9 15 10 14 11 6 12
REMARK SMILES IDX 7 13 8 14 9 15 13 16 11 17 10 18 12 20 4 22 21 24 18 26
REMARK H PARENT 10 19 12 21 4 23 21 25 18 27
REMARK Flexibility Score: inf
ROOT
ATOM      1  C   UNL     1     -14.956 -32.026 -13.124  1.00  0.00     0.180 A 
ATOM      2  C   UNL     1     -15.114 -31.878 -11.735  1.00  0.00     0.208 A 
ATOM      3  C   UNL     1     -15.088 -30.588 -11.180  1.00  0.00     0.238 A 
ATOM      4  O   UNL     1     -15.285 -30.458  -9.944  1.00  0.00    -0.285 OA
ATOM      5  C   UNL     1     -14.888 -29.465 -12.018  1.00  0.00     0.111 A 
ATOM      6  C   UNL     1     -14.804 -28.116 -11.559  1.00  0.00     0.134 A 
ATOM      7  C   UNL     1     -14.735 -27.072 -12.491  1.00  0.00     0.093 A 
ATOM      8  C   UNL     1     -14.681 -27.334 -13.862  1.00  0.00     0.123 A 
ATOM      9  C   UNL     1     -14.702 -28.650 -14.317  1.00  0.00     0.094 A 
ATOM     10  C   UNL     1     -14.808 -29.710 -13.414  1.00  0.00     0.146 A 
ATOM     11  O   UNL     1     -14.836 -30.949 -13.890  1.00  0.00    -0.452 OA
ENDROOT
BRANCH   1  12
ATOM     12  C   UNL     1     -14.947 -33.355 -13.779  1.00  0.00     0.025 A 
ATOM     13  C   UNL     1     -13.760 -33.916 -14.277  1.00  0.00     0.016 A 
ATOM     14  C   UNL     1     -13.781 -35.159 -14.911  1.00  0.00     0.051 A 
ATOM     15  C   UNL     1     -14.981 -35.859 -15.073  1.00  0.00     0.157 A 
ATOM     16  C   UNL     1     -16.156 -34.045 -13.960  1.00  0.00     0.062 A 
ATOM     17  C   UNL     1     -16.185 -35.292 -14.594  1.00  0.00     0.158 A 
BRANCH  15  18
ATOM     18  O   UNL     1     -14.932 -37.100 -15.713  1.00  0.00    -0.504 OA
ATOM     19  H   UNL     1     -14.222 -37.364 -16.380  1.00  0.00     0.293 HD
ENDBRANCH  15  18
BRANCH  17  20
ATOM     20  O   UNL     1     -17.423 -35.926 -14.729  1.00  0.00    -0.504 OA
ATOM     21  H   UNL     1     -18.214 -35.525 -15.210  1.00  0.00     0.293 HD
ENDBRANCH  17  20
ENDBRANCH   1  12
BRANCH   2  22
ATOM     22  O   UNL     1     -15.332 -32.998 -10.928  1.00  0.00    -0.502 OA
ATOM     23  H   UNL     1     -15.638 -32.925  -9.966  1.00  0.00     0.293 HD
ENDBRANCH   2  22
BRANCH   6  24
ATOM     24  O   UNL     1     -14.757 -27.752 -10.210  1.00  0.00    -0.507 OA
ATOM     25  H   UNL     1     -14.552 -28.385  -9.452  1.00  0.00     0.293 HD
ENDBRANCH   6  24
BRANCH   8  26
ATOM     26  O   UNL     1     -14.597 -26.291 -14.781  1.00  0.00    -0.508 OA
ATOM     27  H   UNL     1     -14.112 -26.400 -15.664  1.00  0.00     0.293 HD
ENDBRANCH   8  26
TORSDOF 6
ENDMDL
MODEL 6
REMARK VINA RESULT:    -6.206      1.744      3.352
REMARK INTER + INTRA:          -7.554
REMARK INTER:                  -7.909
REMARK INTRA:                   0.355
REMARK UNBOUND:                -0.078
REMARK SMILES O=c1c(O)c(-c2ccc(O)c(O)c2)oc2cc(O)cc(O)c12
REMARK SMILES IDX 5 1 3 2 2 3 1 4 22 5 20 6 19 7 17 8 16 9 15 10 14 11 6 12
REMARK SMILES IDX 7 13 8 14 9 15 13 16 11 17 10 18 12 20 4 22 21 24 18 26
REMARK H PARENT 10 19 12 21 4 23 21 25 18 27
REMARK Flexibility Score: inf
ROOT
ATOM      1  C   UNL     1     -13.127 -29.330  -9.961  1.00  0.00     0.180 A 
ATOM      2  C   UNL     1     -13.888 -28.271 -10.487  1.00  0.00     0.208 A 
ATOM      3  C   UNL     1     -14.815 -28.540 -11.508  1.00  0.00     0.238 A 
ATOM      4  O   UNL     1     -15.532 -27.598 -11.936  1.00  0.00    -0.285 OA
ATOM      5  C   UNL     1     -14.957 -29.859 -12.001  1.00  0.00     0.111 A 
ATOM      6  C   UNL     1     -15.835 -30.239 -13.060  1.00  0.00     0.134 A 
ATOM      7  C   UNL     1     -15.989 -31.594 -13.378  1.00  0.00     0.093 A 
ATOM      8  C   UNL     1     -15.247 -32.577 -12.718  1.00  0.00     0.123 A 
ATOM      9  C   UNL     1     -14.343 -32.211 -11.724  1.00  0.00     0.094 A 
ATOM     10  C   UNL     1     -14.195 -30.871 -11.360  1.00  0.00     0.146 A 
ATOM     11  O   UNL     1     -13.330 -30.566 -10.399  1.00  0.00    -0.452 OA
ENDROOT
BRANCH   1  12
ATOM     12  C   UNL     1     -12.114 -29.120  -8.902  1.00  0.00     0.025 A 
ATOM     13  C   UNL     1     -11.562 -27.852  -8.658  1.00  0.00     0.016 A 
ATOM     14  C   UNL     1     -10.591 -27.685  -7.670  1.00  0.00     0.051 A 
ATOM     15  C   UNL     1     -10.142 -28.774  -6.916  1.00  0.00     0.157 A 
ATOM     16  C   UNL     1     -11.649 -30.219  -8.162  1.00  0.00     0.062 A 
ATOM     17  C   UNL     1     -10.676 -30.060  -7.169  1.00  0.00     0.158 A 
BRANCH  15  18
ATOM     18  O   UNL     1      -9.171 -28.538  -5.940  1.00  0.00    -0.504 OA
ATOM     19  H   UNL     1      -9.348 -28.052  -5.073  1.00  0.00     0.293 HD
ENDBRANCH  15  18
BRANCH  17  20
ATOM     20  O   UNL     1     -10.269 -31.196  -6.466  1.00  0.00    -0.504 OA
ATOM     21  H   UNL     1     -10.590 -31.431  -5.538  1.00  0.00     0.293 HD
ENDBRANCH  17  20
ENDBRANCH   1  12
BRANCH   2  22
ATOM     22  O   UNL     1     -13.749 -26.980  -9.971  1.00  0.00    -0.502 OA
ATOM     23  H   UNL     1     -12.861 -26.494  -9.954  1.00  0.00     0.293 HD
ENDBRANCH   2  22
BRANCH   6  24
ATOM     24  O   UNL     1     -16.552 -29.329 -13.843  1.00  0.00    -0.507 OA
ATOM     25  H   UNL     1     -16.819 -28.403 -13.547  1.00  0.00     0.293 HD
ENDBRANCH   6  24
BRANCH   8  26
ATOM     26  O   UNL     1     -15.395 -33.921 -13.051  1.00  0.00    -0.508 OA
ATOM     27  H   UNL     1     -15.038 -34.294 -13.923  1.00  0.00     0.293 HD
ENDBRANCH   8  26
TORSDOF 6
ENDMDL
MODEL 7
REMARK VINA RESULT:    -6.200      3.553      6.560
REMARK INTER + INTRA:          -7.546
REMARK INTER:                  -7.280
REMARK INTRA:                  -0.266
REMARK UNBOUND:                -0.078
REMARK SMILES O=c1c(O)c(-c2ccc(O)c(O)c2)oc2cc(O)cc(O)c12
REMARK SMILES IDX 5 1 3 2 2 3 1 4 22 5 20 6 19 7 17 8 16 9 15 10 14 11 6 12
REMARK SMILES IDX 7 13 8 14 9 15 13 16 11 17 10 18 12 20 4 22 21 24 18 26
REMARK H PARENT 10 19 12 21 4 23 21 25 18 27
REMARK Flexibility Score: inf
ROOT
ATOM      1  C   UNL     1     -14.660 -31.544 -13.294  1.00  0.00     0.180 A 
ATOM      2  C   UNL     1     -14.411 -30.483 -14.182  1.00  0.00     0.208 A 
ATOM      3  C   UNL     1     -14.370 -29.171 -13.682  1.00  0.00     0.238 A 
ATOM      4  O   UNL     1     -14.094 -28.232 -14.473  1.00  0.00    -0.285 OA
ATOM      5  C   UNL     1     -14.596 -28.935 -12.305  1.00  0.00     0.111 A 
ATOM      6  C   UNL     1     -14.617 -27.644 -11.697  1.00  0.00     0.134 A 
ATOM      7  C   UNL     1     -14.720 -27.538 -10.304  1.00  0.00     0.093 A 
ATOM      8  C   UNL     1     -14.866 -28.674  -9.504  1.00  0.00     0.123 A 
ATOM      9  C   UNL     1     -14.905 -29.935 -10.094  1.00  0.00     0.094 A 
ATOM     10  C   UNL     1     -14.769 -30.075 -11.476  1.00  0.00     0.146 A 
ATOM     11  O   UNL     1     -14.801 -31.296 -11.998  1.00  0.00    -0.452 OA
ENDROOT
BRANCH   1  12
ATOM     12  C   UNL     1     -14.742 -32.951 -13.750  1.00  0.00     0.025 A 
ATOM     13  C   UNL     1     -13.589 -33.678 -14.086  1.00  0.00     0.016 A 
ATOM     14  C   UNL     1     -13.694 -34.995 -14.536  1.00  0.00     0.051 A 
ATOM     15  C   UNL     1     -14.944 -35.607 -14.672  1.00  0.00     0.157 A 
ATOM     16  C   UNL     1     -15.999 -33.554 -13.907  1.00  0.00     0.062 A 
ATOM     17  C   UNL     1     -16.113 -34.875 -14.357  1.00  0.00     0.158 A 
BRANCH  15  18
ATOM     18  O   UNL     1     -14.980 -36.929 -15.124  1.00  0.00    -0.504 OA
ATOM     19  H   UNL     1     -15.117 -37.192 -16.089  1.00  0.00     0.293 HD
ENDBRANCH  15  18
BRANCH  17  20
ATOM     20  O   UNL     1     -17.396 -35.414 -14.478  1.00  0.00    -0.504 OA
ATOM     21  H   UNL     1     -17.690 -36.006 -15.240  1.00  0.00     0.293 HD
ENDBRANCH  17  20
ENDBRANCH   1  12
BRANCH   2  22
ATOM     22  O   UNL     1     -14.170 -30.739 -15.535  1.00  0.00    -0.502 OA
ATOM     23  H   UNL     1     -14.850 -31.194 -16.132  1.00  0.00     0.293 HD
ENDBRANCH   2  22
BRANCH   6  24
ATOM     24  O   UNL     1     -14.571 -26.443 -12.412  1.00  0.00    -0.507 OA
ATOM     25  H   UNL     1     -14.350 -26.368 -13.393  1.00  0.00     0.293 HD
ENDBRANCH   6  24
BRANCH   8  26
ATOM     26  O   UNL     1     -14.982 -28.559  -8.121  1.00  0.00    -0.508 OA
ATOM     27  H   UNL     1     -14.649 -29.286  -7.498  1.00  0.00     0.293 HD
ENDBRANCH   8  26
TORSDOF 6
ENDMDL
MODEL 8
REMARK VINA RESULT:    -6.004      2.948      6.243
REMARK INTER + INTRA:          -7.310
REMARK INTER:                  -7.380
REMARK INTRA:                   0.070
REMARK UNBOUND:                -0.078
REMARK SMILES O=c1c(O)c(-c2ccc(O)c(O)c2)oc2cc(O)cc(O)c12
REMARK SMILES IDX 5 1 3 2 2 3 1 4 22 5 20 6 19 7 17 8 16 9 15 10 14 11 6 12
REMARK SMILES IDX 7 13 8 14 9 15 13 16 11 17 10 18 12 20 4 22 21 24 18 26
REMARK H PARENT 10 19 12 21 4 23 21 25 18 27
REMARK Flexibility Score: inf
ROOT
ATOM      1  C   UNL     1     -14.734 -31.051 -12.137  1.00  0.00     0.180 A 
ATOM      2  C   UNL     1     -15.380 -29.888 -12.593  1.00  0.00     0.208 A 
ATOM      3  C   UNL     1     -15.234 -28.697 -11.863  1.00  0.00     0.238 A 
ATOM      4  O   UNL     1     -15.769 -27.648 -12.306  1.00  0.00    -0.285 OA
ATOM      5  C   UNL     1     -14.460 -28.688 -10.678  1.00  0.00     0.111 A 
ATOM      6  C   UNL     1     -14.277 -27.548  -9.838  1.00  0.00     0.134 A 
ATOM      7  C   UNL     1     -13.384 -27.619  -8.761  1.00  0.00     0.093 A 
ATOM      8  C   UNL     1     -12.717 -28.809  -8.457  1.00  0.00     0.123 A 
ATOM      9  C   UNL     1     -12.934 -29.943  -9.235  1.00  0.00     0.094 A 
ATOM     10  C   UNL     1     -13.790 -29.893 -10.337  1.00  0.00     0.146 A 
ATOM     11  O   UNL     1     -13.961 -30.994 -11.059  1.00  0.00    -0.452 OA
ENDROOT
BRANCH   1  12
ATOM     12  C   UNL     1     -14.860 -32.349 -12.839  1.00  0.00     0.025 A 
ATOM     13  C   UNL     1     -14.728 -32.441 -14.234  1.00  0.00     0.016 A 
ATOM     14  C   UNL     1     -14.875 -33.672 -14.875  1.00  0.00     0.051 A 
ATOM     15  C   UNL     1     -15.167 -34.829 -14.145  1.00  0.00     0.157 A 
ATOM     16  C   UNL     1     -15.175 -33.504 -12.106  1.00  0.00     0.062 A 
ATOM     17  C   UNL     1     -15.323 -34.742 -12.741  1.00  0.00     0.158 A 
BRANCH  15  18
ATOM     18  O   UNL     1     -15.297 -36.030 -14.847  1.00  0.00    -0.504 OA
ATOM     19  H   UNL     1     -14.540 -36.483 -15.336  1.00  0.00     0.293 HD
ENDBRANCH  15  18
BRANCH  17  20
ATOM     20  O   UNL     1     -15.625 -35.851 -11.947  1.00  0.00    -0.504 OA
ATOM     21  H   UNL     1     -16.108 -35.798 -11.062  1.00  0.00     0.293 HD
ENDBRANCH  17  20
ENDBRANCH   1  12
BRANCH   2  22
ATOM     22  O   UNL     1     -16.121 -29.914 -13.777  1.00  0.00    -0.502 OA
ATOM     23  H   UNL     1     -15.774 -30.339 -14.628  1.00  0.00     0.293 HD
ENDBRANCH   2  22
BRANCH   6  24
ATOM     24  O   UNL     1     -14.964 -26.341 -10.000  1.00  0.00    -0.507 OA
ATOM     25  H   UNL     1     -15.723 -26.195 -10.648  1.00  0.00     0.293 HD
ENDBRANCH   6  24
BRANCH   8  26
ATOM     26  O   UNL     1     -11.842 -28.875  -7.375  1.00  0.00    -0.508 OA
ATOM     27  H   UNL     1     -11.668 -29.746  -6.886  1.00  0.00     0.293 HD
ENDBRANCH   8  26
TORSDOF 6
ENDMDL
MODEL 9
REMARK VINA RESULT:    -5.877      2.246      6.510
REMARK INTER + INTRA:          -7.157
REMARK INTER:                  -6.953
REMARK INTRA:                  -0.205
REMARK UNBOUND:                -0.078
REMARK SMILES O=c1c(O)c(-c2ccc(O)c(O)c2)oc2cc(O)cc(O)c12
REMARK SMILES IDX 5 1 3 2 2 3 1 4 22 5 20 6 19 7 17 8 16 9 15 10 14 11 6 12
REMARK SMILES IDX 7 13 8 14 9 15 13 16 11 17 10 18 12 20 4 22 21 24 18 26
REMARK H PARENT 10 19 12 21 4 23 21 25 18 27
REMARK Flexibility Score: inf
ROOT
ATOM      1  C   UNL     1     -13.909 -30.052 -10.785  1.00  0.00     0.180 A 
ATOM      2  C   UNL     1     -14.393 -28.732 -10.756  1.00  0.00     0.208 A 
ATOM      3  C   UNL     1     -13.811 -27.812  -9.868  1.00  0.00     0.238 A 
ATOM      4  O   UNL     1     -14.212 -26.619  -9.887  1.00  0.00    -0.285 OA
ATOM      5  C   UNL     1     -12.767 -28.227  -9.009  1.00  0.00     0.111 A 
ATOM      6  C   UNL     1     -12.132 -27.391  -8.042  1.00  0.00     0.134 A 
ATOM      7  C   UNL     1     -11.021 -27.870  -7.336  1.00  0.00     0.093 A 
ATOM      8  C   UNL     1     -10.563 -29.178  -7.517  1.00  0.00     0.123 A 
ATOM      9  C   UNL     1     -11.212 -30.021  -8.415  1.00  0.00     0.094 A 
ATOM     10  C   UNL     1     -12.300 -29.560  -9.159  1.00  0.00     0.146 A 
ATOM     11  O   UNL     1     -12.884 -30.393 -10.013  1.00  0.00    -0.452 OA
ENDROOT
BRANCH   1  12
ATOM     12  C   UNL     1     -14.487 -31.084 -11.676  1.00  0.00     0.025 A 
ATOM     13  C   UNL     1     -15.208 -32.173 -11.160  1.00  0.00     0.016 A 
ATOM     14  C   UNL     1     -15.723 -33.146 -12.019  1.00  0.00     0.051 A 
ATOM     15  C   UNL     1     -15.520 -33.062 -13.400  1.00  0.00     0.157 A 
ATOM     16  C   UNL     1     -14.263 -31.008 -13.059  1.00  0.00     0.062 A 
ATOM     17  C   UNL     1     -14.776 -31.979 -13.927  1.00  0.00     0.158 A 
BRANCH  15  18
ATOM     18  O   UNL     1     -16.065 -34.066 -14.204  1.00  0.00    -0.504 OA
ATOM     19  H   UNL     1     -16.211 -33.976 -15.198  1.00  0.00     0.293 HD
ENDBRANCH  15  18
BRANCH  17  20
ATOM     20  O   UNL     1     -14.523 -31.833 -15.293  1.00  0.00    -0.504 OA
ATOM     21  H   UNL     1     -13.612 -31.643 -15.682  1.00  0.00     0.293 HD
ENDBRANCH  17  20
ENDBRANCH   1  12
BRANCH   2  22
ATOM     22  O   UNL     1     -15.411 -28.337 -11.629  1.00  0.00    -0.502 OA
ATOM     23  H   UNL     1     -15.329 -27.526 -12.229  1.00  0.00     0.293 HD
ENDBRANCH   2  22
BRANCH   6  24
ATOM     24  O   UNL     1     -12.568 -26.102  -7.718  1.00  0.00    -0.507 OA
ATOM     25  H   UNL     1     -13.027 -25.474  -8.360  1.00  0.00     0.293 HD
ENDBRANCH   6  24
BRANCH   8  26
ATOM     26  O   UNL     1      -9.467 -29.651  -6.800  1.00  0.00    -0.508 OA
ATOM     27  H   UNL     1      -9.033 -30.541  -7.020  1.00  0.00     0.293 HD
ENDBRANCH   8  26
TORSDOF 6
ENDMDL
