MODEL 1
REMARK VINA RESULT:    -4.820      0.000      0.000
REMARK INTER + INTRA:          -7.125
REMARK INTER:                  -6.511
REMARK INTRA:                  -0.614
REMARK UNBOUND:                -0.614
REMARK SMILES O=C[C@H](O)[C@H](O)[C@H](O)CO
REMARK SMILES IDX 7 1 9 2 10 3 5 5 3 6 2 7 1 8 4 9 6 11 8 13
REMARK H PARENT 10 4 4 10 6 12 8 14
REMARK Flexibility Score: inf
ROOT
ATOM      1  C   UNL     1      -5.062  -1.896   1.710  1.00  0.00     0.171 C 
ENDROOT
BRANCH   1   2
ATOM      2  C   UNL     1      -5.383  -2.411   0.295  1.00  0.00     0.190 C 
BRANCH   2   3
ATOM      3  O   UNL     1      -5.701  -1.344  -0.555  1.00  0.00    -0.394 OA
ATOM      4  H   UNL     1      -5.534  -1.667  -1.479  1.00  0.00     0.210 HD
ENDBRANCH   2   3
ENDBRANCH   1   2
BRANCH   1   5
ATOM      5  C   UNL     1      -3.664  -1.221   1.775  1.00  0.00     0.181 C 
BRANCH   5   6
ATOM      6  C   UNL     1      -3.641  -0.004   2.745  1.00  0.00     0.209 C 
BRANCH   6   7
ATOM      7  C   UNL     1      -2.267   0.222   3.325  1.00  0.00     0.258 C 
ATOM      8  O   UNL     1      -1.342   0.575   2.611  1.00  0.00    -0.300 OA
ENDBRANCH   6   7
BRANCH   6   9
ATOM      9  O   UNL     1      -4.571  -0.162   3.787  1.00  0.00    -0.383 OA
ATOM     10  H   UNL     1      -4.201  -0.830   4.424  1.00  0.00     0.211 HD
ENDBRANCH   6   9
ENDBRANCH   5   6
BRANCH   5  11
ATOM     11  O   UNL     1      -3.248  -0.825   0.490  1.00  0.00    -0.387 OA
ATOM     12  H   UNL     1      -2.680  -1.551   0.123  1.00  0.00     0.211 HD
ENDBRANCH   5  11
ENDBRANCH   1   5
BRANCH   1  13
ATOM     13  O   UNL     1      -5.099  -2.983   2.600  1.00  0.00    -0.388 OA
ATOM     14  H   UNL     1      -4.178  -3.101   2.951  1.00  0.00     0.211 HD
ENDBRANCH   1  13
TORSDOF 8
ENDMDL
MODEL 2
REMARK VINA RESULT:    -4.097      1.139      4.251
REMARK INTER + INTRA:          -6.148
REMARK INTER:                  -5.931
REMARK INTRA:                  -0.217
REMARK UNBOUND:                -0.614
REMARK SMILES O=C[C@H](O)[C@H](O)[C@H](O)CO
REMARK SMILES IDX 7 1 9 2 10 3 5 5 3 6 2 7 1 8 4 9 6 11 8 13
REMARK H PARENT 10 4 4 10 6 12 8 14
REMARK Flexibility Score: inf
ROOT
ATOM      1  C   UNL     1      -3.611   0.002   3.083  1.00  0.00     0.171 C 
ENDROOT
BRANCH   1   2
ATOM      2  C   UNL     1      -2.122   0.099   3.460  1.00  0.00     0.190 C 
BRANCH   2   3
ATOM      3  O   UNL     1      -1.385   0.659   2.409  1.00  0.00    -0.394 OA
ATOM      4  H   UNL     1      -0.739  -0.039   2.121  1.00  0.00     0.210 HD
ENDBRANCH   2   3
ENDBRANCH   1   2
BRANCH   1   5
ATOM      5  C   UNL     1      -4.013  -1.446   2.686  1.00  0.00     0.181 C 
BRANCH   5   6
ATOM      6  C   UNL     1      -4.593  -1.523   1.244  1.00  0.00     0.209 C 
BRANCH   6   7
ATOM      7  C   UNL     1      -5.070  -2.914   0.908  1.00  0.00     0.258 C 
ATOM      8  O   UNL     1      -5.696  -3.125  -0.119  1.00  0.00    -0.300 OA
ENDBRANCH   6   7
BRANCH   6   9
ATOM      9  O   UNL     1      -3.648  -1.106   0.289  1.00  0.00    -0.383 OA
ATOM     10  H   UNL     1      -2.753  -1.133   0.719  1.00  0.00     0.211 HD
ENDBRANCH   6   9
ENDBRANCH   5   6
BRANCH   5  11
ATOM     11  O   UNL     1      -4.936  -1.971   3.609  1.00  0.00    -0.387 OA
ATOM     12  H   UNL     1      -5.754  -2.219   3.105  1.00  0.00     0.211 HD
ENDBRANCH   5  11
ENDBRANCH   1   5
BRANCH   1  13
ATOM     13  O   UNL     1      -3.857   0.868   2.005  1.00  0.00    -0.388 OA
ATOM     14  H   UNL     1      -3.227   0.616   1.281  1.00  0.00     0.211 HD
ENDBRANCH   1  13
TORSDOF 8
ENDMDL
MODEL 3
REMARK VINA RESULT:    -3.882      0.736      1.709
REMARK INTER + INTRA:          -5.858
REMARK INTER:                  -5.880
REMARK INTRA:                   0.022
REMARK UNBOUND:                -0.614
REMARK SMILES O=C[C@H](O)[C@H](O)[C@H](O)CO
REMARK SMILES IDX 7 1 9 2 10 3 5 5 3 6 2 7 1 8 4 9 6 11 8 13
REMARK H PARENT 10 4 4 10 6 12 8 14
REMARK Flexibility Score: inf
ROOT
ATOM      1  C   UNL     1      -4.276  -1.928   1.224  1.00  0.00     0.171 C 
ENDROOT
BRANCH   1   2
ATOM      2  C   UNL     1      -5.408  -2.374   0.280  1.00  0.00     0.190 C 
BRANCH   2   3
ATOM      3  O   UNL     1      -5.717  -1.356  -0.632  1.00  0.00    -0.394 OA
ATOM      4  H   UNL     1      -5.352  -1.650  -1.507  1.00  0.00     0.210 HD
ENDBRANCH   2   3
ENDBRANCH   1   2
BRANCH   1   5
ATOM      5  C   UNL     1      -4.830  -1.350   2.556  1.00  0.00     0.181 C 
BRANCH   5   6
ATOM      6  C   UNL     1      -4.129  -0.020   2.958  1.00  0.00     0.209 C 
BRANCH   6   7
ATOM      7  C   UNL     1      -2.681  -0.239   3.322  1.00  0.00     0.258 C 
ATOM      8  O   UNL     1      -1.790   0.238   2.637  1.00  0.00    -0.300 OA
ENDBRANCH   6   7
BRANCH   6   9
ATOM      9  O   UNL     1      -4.793   0.605   4.029  1.00  0.00    -0.383 OA
ATOM     10  H   UNL     1      -5.586   1.076   3.659  1.00  0.00     0.211 HD
ENDBRANCH   6   9
ENDBRANCH   5   6
BRANCH   5  11
ATOM     11  O   UNL     1      -4.707  -2.295   3.591  1.00  0.00    -0.387 OA
ATOM     12  H   UNL     1      -4.310  -1.832   4.374  1.00  0.00     0.211 HD
ENDBRANCH   5  11
ENDBRANCH   1   5
BRANCH   1  13
ATOM     13  O   UNL     1      -3.509  -0.948   0.571  1.00  0.00    -0.388 OA
ATOM     14  H   UNL     1      -2.646  -0.885   1.058  1.00  0.00     0.211 HD
ENDBRANCH   1  13
TORSDOF 8
ENDMDL
MODEL 4
REMARK VINA RESULT:    -3.841      0.855      4.025
REMARK INTER + INTRA:          -5.802
REMARK INTER:                  -5.339
REMARK INTRA:                  -0.463
REMARK UNBOUND:                -0.614
REMARK SMILES O=C[C@H](O)[C@H](O)[C@H](O)CO
REMARK SMILES IDX 7 1 9 2 10 3 5 5 3 6 2 7 1 8 4 9 6 11 8 13
REMARK H PARENT 10 4 4 10 6 12 8 14
REMARK Flexibility Score: inf
ROOT
ATOM      1  C   UNL     1      -3.681  -0.730   2.917  1.00  0.00     0.171 C 
ENDROOT
BRANCH   1   2
ATOM      2  C   UNL     1      -2.535   0.289   2.789  1.00  0.00     0.190 C 
BRANCH   2   3
ATOM      3  O   UNL     1      -1.725   0.264   3.932  1.00  0.00    -0.394 OA
ATOM      4  H   UNL     1      -2.314   0.508   4.694  1.00  0.00     0.210 HD
ENDBRANCH   2   3
ENDBRANCH   1   2
BRANCH   1   5
ATOM      5  C   UNL     1      -4.249  -1.138   1.530  1.00  0.00     0.181 C 
BRANCH   5   6
ATOM      6  C   UNL     1      -4.645  -2.642   1.473  1.00  0.00     0.209 C 
BRANCH   6   7
ATOM      7  C   UNL     1      -5.521  -2.943   0.282  1.00  0.00     0.258 C 
ATOM      8  O   UNL     1      -5.073  -2.873  -0.852  1.00  0.00    -0.300 OA
ENDBRANCH   6   7
BRANCH   6   9
ATOM      9  O   UNL     1      -5.299  -3.044   2.651  1.00  0.00    -0.383 OA
ATOM     10  H   UNL     1      -5.296  -2.272   3.277  1.00  0.00     0.211 HD
ENDBRANCH   6   9
ENDBRANCH   5   6
BRANCH   5  11
ATOM     11  O   UNL     1      -3.322  -0.842   0.513  1.00  0.00    -0.387 OA
ATOM     12  H   UNL     1      -3.806  -0.882  -0.353  1.00  0.00     0.211 HD
ENDBRANCH   5  11
ENDBRANCH   1   5
BRANCH   1  13
ATOM     13  O   UNL     1      -4.704  -0.159   3.692  1.00  0.00    -0.388 OA
ATOM     14  H   UNL     1      -5.534  -0.194   3.148  1.00  0.00     0.211 HD
ENDBRANCH   1  13
TORSDOF 8
ENDMDL
MODEL 5
REMARK VINA RESULT:    -3.470      1.000      4.126
REMARK INTER + INTRA:          -5.301
REMARK INTER:                  -4.821
REMARK INTRA:                  -0.480
REMARK UNBOUND:                -0.614
REMARK SMILES O=C[C@H](O)[C@H](O)[C@H](O)CO
REMARK SMILES IDX 7 1 9 2 10 3 5 5 3 6 2 7 1 8 4 9 6 11 8 13
REMARK H PARENT 10 4 4 10 6 12 8 14
REMARK Flexibility Score: inf
ROOT
ATOM      1  C   UNL     1      -3.843  -0.489   1.917  1.00  0.00     0.171 C 
ENDROOT
BRANCH   1   2
ATOM      2  C   UNL     1      -2.943  -0.123   3.111  1.00  0.00     0.190 C 
BRANCH   2   3
ATOM      3  O   UNL     1      -1.702   0.350   2.663  1.00  0.00    -0.394 OA
ATOM      4  H   UNL     1      -1.516   1.174   3.186  1.00  0.00     0.210 HD
ENDBRANCH   2   3
ENDBRANCH   1   2
BRANCH   1   5
ATOM      5  C   UNL     1      -4.528  -1.870   2.112  1.00  0.00     0.181 C 
BRANCH   5   6
ATOM      6  C   UNL     1      -5.676  -2.109   1.089  1.00  0.00     0.209 C 
BRANCH   6   7
ATOM      7  C   UNL     1      -5.288  -3.125   0.042  1.00  0.00     0.258 C 
ATOM      8  O   UNL     1      -4.562  -2.811  -0.888  1.00  0.00    -0.300 OA
ENDBRANCH   6   7
BRANCH   6   9
ATOM      9  O   UNL     1      -6.061  -0.912   0.462  1.00  0.00    -0.383 OA
ATOM     10  H   UNL     1      -5.314  -0.264   0.563  1.00  0.00     0.211 HD
ENDBRANCH   6   9
ENDBRANCH   5   6
BRANCH   5  11
ATOM     11  O   UNL     1      -5.015  -1.997   3.426  1.00  0.00    -0.387 OA
ATOM     12  H   UNL     1      -5.086  -1.083   3.809  1.00  0.00     0.211 HD
ENDBRANCH   5  11
ENDBRANCH   1   5
BRANCH   1  13
ATOM     13  O   UNL     1      -3.056  -0.516   0.754  1.00  0.00    -0.388 OA
ATOM     14  H   UNL     1      -2.678   0.395   0.638  1.00  0.00     0.211 HD
ENDBRANCH   1  13
TORSDOF 8
ENDMDL
MODEL 6
REMARK VINA RESULT:    -1.961      1.055      2.385
REMARK INTER + INTRA:          -3.262
REMARK INTER:                  -2.750
REMARK INTRA:                  -0.512
REMARK UNBOUND:                -0.614
REMARK SMILES O=C[C@H](O)[C@H](O)[C@H](O)CO
REMARK SMILES IDX 7 1 9 2 10 3 5 5 3 6 2 7 1 8 4 9 6 11 8 13
REMARK H PARENT 10 4 4 10 6 12 8 14
REMARK Flexibility Score: inf
ROOT
ATOM      1  C   UNL     1      -3.691  -1.264   1.843  1.00  0.00     0.171 C 
ENDROOT
BRANCH   1   2
ATOM      2  C   UNL     1      -4.984  -2.089   1.974  1.00  0.00     0.190 C 
BRANCH   2   3
ATOM      3  O   UNL     1      -5.014  -2.765   3.200  1.00  0.00    -0.394 OA
ATOM      4  H   UNL     1      -4.510  -3.609   3.062  1.00  0.00     0.210 HD
ENDBRANCH   2   3
ENDBRANCH   1   2
BRANCH   1   5
ATOM      5  C   UNL     1      -3.738   0.026   2.708  1.00  0.00     0.181 C 
BRANCH   5   6
ATOM      6  C   UNL     1      -2.656   0.027   3.826  1.00  0.00     0.209 C 
BRANCH   6   7
ATOM      7  C   UNL     1      -1.333   0.551   3.322  1.00  0.00     0.258 C 
ATOM      8  O   UNL     1      -1.039   0.459   2.141  1.00  0.00    -0.300 OA
ENDBRANCH   6   7
BRANCH   6   9
ATOM      9  O   UNL     1      -2.477  -1.258   4.367  1.00  0.00    -0.383 OA
ATOM     10  H   UNL     1      -1.688  -1.225   4.970  1.00  0.00     0.211 HD
ENDBRANCH   6   9
ENDBRANCH   5   6
BRANCH   5  11
ATOM     11  O   UNL     1      -5.017   0.194   3.271  1.00  0.00    -0.387 OA
ATOM     12  H   UNL     1      -5.682   0.076   2.543  1.00  0.00     0.211 HD
ENDBRANCH   5  11
ENDBRANCH   1   5
BRANCH   1  13
ATOM     13  O   UNL     1      -3.516  -0.917   0.493  1.00  0.00    -0.388 OA
ATOM     14  H   UNL     1      -3.841   0.016   0.389  1.00  0.00     0.211 HD
ENDBRANCH   1  13
TORSDOF 8
ENDMDL
