MODEL 1
REMARK VINA RESULT:     6.061      0.000      0.000
REMARK INTER + INTRA:           7.149
REMARK INTER:                   7.301
REMARK INTRA:                  -0.152
REMARK UNBOUND:                -0.152
REMARK SMILES O=c1c(O)c(-c2ccc(O)cc2O)oc2cc(O)cc(O)c12
REMARK SMILES IDX 5 1 3 2 2 3 1 4 22 5 20 6 19 7 17 8 16 9 15 10 14 11 6 12
REMARK SMILES IDX 8 13 7 14 9 15 11 16 12 17 10 18 13 20 4 22 21 24 18 26
REMARK H PARENT 10 19 13 21 4 23 21 25 18 27
REMARK Flexibility Score: inf
ROOT
ATOM      1  C   UNL     1       0.969  -0.994  -0.226  1.00  0.00     0.184 A 
ATOM      2  C   UNL     1       0.359  -2.230   0.039  1.00  0.00     0.208 A 
ATOM      3  C   UNL     1      -1.014  -2.264   0.328  1.00  0.00     0.238 A 
ATOM      4  O   UNL     1      -1.544  -3.368   0.617  1.00  0.00    -0.285 OA
ATOM      5  C   UNL     1      -1.762  -1.061   0.330  1.00  0.00     0.111 A 
ATOM      6  C   UNL     1      -3.166  -0.981   0.569  1.00  0.00     0.134 A 
ATOM      7  C   UNL     1      -3.778   0.274   0.677  1.00  0.00     0.093 A 
ATOM      8  C   UNL     1      -3.048   1.450   0.488  1.00  0.00     0.123 A 
ATOM      9  C   UNL     1      -1.689   1.380   0.196  1.00  0.00     0.094 A 
ATOM     10  C   UNL     1      -1.042   0.144   0.119  1.00  0.00     0.146 A 
ATOM     11  O   UNL     1       0.258   0.124  -0.152  1.00  0.00    -0.451 OA
ENDROOT
BRANCH   1  12
ATOM     12  C   UNL     1       2.407  -0.891  -0.553  1.00  0.00     0.063 A 
ATOM     13  C   UNL     1       4.707  -1.464  -0.010  1.00  0.00     0.047 A 
ATOM     14  C   UNL     1       3.340  -1.544   0.267  1.00  0.00     0.020 A 
ATOM     15  C   UNL     1       5.159  -0.716  -1.104  1.00  0.00     0.119 A 
ATOM     16  C   UNL     1       4.239  -0.043  -1.913  1.00  0.00     0.093 A 
ATOM     17  C   UNL     1       2.865  -0.115  -1.638  1.00  0.00     0.130 A 
BRANCH  15  18
ATOM     18  O   UNL     1       6.519  -0.631  -1.393  1.00  0.00    -0.508 OA
ATOM     19  H   UNL     1       7.028   0.240  -1.295  1.00  0.00     0.293 HD
ENDBRANCH  15  18
BRANCH  17  20
ATOM     20  O   UNL     1       1.961   0.601  -2.424  1.00  0.00    -0.507 OA
ATOM     21  H   UNL     1       2.260   1.378  -3.003  1.00  0.00     0.293 HD
ENDBRANCH  17  20
ENDBRANCH   1  12
BRANCH   2  22
ATOM     22  O   UNL     1       1.125  -3.399   0.047  1.00  0.00    -0.502 OA
ATOM     23  H   UNL     1       0.919  -4.188  -0.553  1.00  0.00     0.293 HD
ENDBRANCH   2  22
BRANCH   6  24
ATOM     24  O   UNL     1      -4.003  -2.094   0.681  1.00  0.00    -0.507 OA
ATOM     25  H   UNL     1      -4.706  -2.356   0.005  1.00  0.00     0.293 HD
ENDBRANCH   6  24
BRANCH   8  26
ATOM     26  O   UNL     1      -3.668   2.695   0.581  1.00  0.00    -0.508 OA
ATOM     27  H   UNL     1      -4.677   2.787   0.554  1.00  0.00     0.293 HD
ENDBRANCH   8  26
TORSDOF 6
ENDMDL
MODEL 2
REMARK VINA RESULT:     7.031      0.935      1.545
REMARK INTER + INTRA:           8.317
REMARK INTER:                   8.036
REMARK INTRA:                   0.281
REMARK UNBOUND:                -0.152
REMARK SMILES O=c1c(O)c(-c2ccc(O)cc2O)oc2cc(O)cc(O)c12
REMARK SMILES IDX 5 1 3 2 2 3 1 4 22 5 20 6 19 7 17 8 16 9 15 10 14 11 6 12
REMARK SMILES IDX 8 13 7 14 9 15 11 16 12 17 10 18 13 20 4 22 21 24 18 26
REMARK H PARENT 10 19 13 21 4 23 21 25 18 27
REMARK Flexibility Score: inf
ROOT
ATOM      1  C   UNL     1       1.181  -0.612  -0.600  1.00  0.00     0.184 A 
ATOM      2  C   UNL     1       0.753  -1.908  -0.272  1.00  0.00     0.208 A 
ATOM      3  C   UNL     1      -0.570  -2.100   0.154  1.00  0.00     0.238 A 
ATOM      4  O   UNL     1      -0.933  -3.255   0.498  1.00  0.00    -0.285 OA
ATOM      5  C   UNL     1      -1.452  -0.995   0.230  1.00  0.00     0.111 A 
ATOM      6  C   UNL     1      -2.825  -1.078   0.611  1.00  0.00     0.134 A 
ATOM      7  C   UNL     1      -3.568   0.098   0.778  1.00  0.00     0.093 A 
ATOM      8  C   UNL     1      -3.006   1.349   0.514  1.00  0.00     0.123 A 
ATOM      9  C   UNL     1      -1.684   1.437   0.086  1.00  0.00     0.094 A 
ATOM     10  C   UNL     1      -0.905   0.285  -0.055  1.00  0.00     0.146 A 
ATOM     11  O   UNL     1       0.353   0.415  -0.456  1.00  0.00    -0.451 OA
ENDROOT
BRANCH   1  12
ATOM     12  C   UNL     1       2.557  -0.344  -1.071  1.00  0.00     0.063 A 
ATOM     13  C   UNL     1       4.025   0.630  -2.747  1.00  0.00     0.047 A 
ATOM     14  C   UNL     1       2.740   0.364  -2.269  1.00  0.00     0.020 A 
ATOM     15  C   UNL     1       5.145   0.178  -2.038  1.00  0.00     0.119 A 
ATOM     16  C   UNL     1       4.973  -0.548  -0.856  1.00  0.00     0.093 A 
ATOM     17  C   UNL     1       3.685  -0.824  -0.373  1.00  0.00     0.130 A 
BRANCH  15  18
ATOM     18  O   UNL     1       6.432   0.441  -2.502  1.00  0.00    -0.508 OA
ATOM     19  H   UNL     1       7.226  -0.116  -2.206  1.00  0.00     0.293 HD
ENDBRANCH  15  18
BRANCH  17  20
ATOM     20  O   UNL     1       3.526  -1.591   0.781  1.00  0.00    -0.507 OA
ATOM     21  H   UNL     1       4.321  -1.986   1.270  1.00  0.00     0.293 HD
ENDBRANCH  17  20
ENDBRANCH   1  12
BRANCH   2  22
ATOM     22  O   UNL     1       1.650  -2.978  -0.340  1.00  0.00    -0.502 OA
ATOM     23  H   UNL     1       2.608  -2.905  -0.019  1.00  0.00     0.293 HD
ENDBRANCH   2  22
BRANCH   6  24
ATOM     24  O   UNL     1      -3.508  -2.281   0.809  1.00  0.00    -0.507 OA
ATOM     25  H   UNL     1      -3.096  -3.121   1.187  1.00  0.00     0.293 HD
ENDBRANCH   6  24
BRANCH   8  26
ATOM     26  O   UNL     1      -3.757   2.512   0.668  1.00  0.00    -0.508 OA
ATOM     27  H   UNL     1      -4.535   2.726   0.054  1.00  0.00     0.293 HD
ENDBRANCH   8  26
TORSDOF 6
ENDMDL
MODEL 3
REMARK VINA RESULT:     8.829      2.927      5.802
REMARK INTER + INTRA:          10.484
REMARK INTER:                  10.821
REMARK INTRA:                  -0.337
REMARK UNBOUND:                -0.152
REMARK SMILES O=c1c(O)c(-c2ccc(O)cc2O)oc2cc(O)cc(O)c12
REMARK SMILES IDX 5 1 3 2 2 3 1 4 22 5 20 6 19 7 17 8 16 9 15 10 14 11 6 12
REMARK SMILES IDX 8 13 7 14 9 15 11 16 12 17 10 18 13 20 4 22 21 24 18 26
REMARK H PARENT 10 19 13 21 4 23 21 25 18 27
REMARK Flexibility Score: inf
ROOT
ATOM      1  C   UNL     1      -0.696   2.110   0.827  1.00  0.00     0.184 A 
ATOM      2  C   UNL     1      -2.030   1.675   0.805  1.00  0.00     0.208 A 
ATOM      3  C   UNL     1      -2.298   0.313   0.594  1.00  0.00     0.238 A 
ATOM      4  O   UNL     1      -3.497  -0.063   0.521  1.00  0.00    -0.285 OA
ATOM      5  C   UNL     1      -1.226  -0.597   0.426  1.00  0.00     0.111 A 
ATOM      6  C   UNL     1      -1.380  -2.004   0.246  1.00  0.00     0.134 A 
ATOM      7  C   UNL     1      -0.256  -2.790  -0.041  1.00  0.00     0.093 A 
ATOM      8  C   UNL     1       1.023  -2.229  -0.090  1.00  0.00     0.123 A 
ATOM      9  C   UNL     1       1.189  -0.866   0.143  1.00  0.00     0.094 A 
ATOM     10  C   UNL     1       0.083  -0.049   0.395  1.00  0.00     0.146 A 
ATOM     11  O   UNL     1       0.286   1.246   0.601  1.00  0.00    -0.451 OA
ENDROOT
BRANCH   1  12
ATOM     12  C   UNL     1      -0.345   3.527   1.061  1.00  0.00     0.063 A 
ATOM     13  C   UNL     1      -0.454   5.842   0.327  1.00  0.00     0.047 A 
ATOM     14  C   UNL     1      -0.772   4.495   0.139  1.00  0.00     0.020 A 
ATOM     15  C   UNL     1       0.310   6.236   1.432  1.00  0.00     0.119 A 
ATOM     16  C   UNL     1       0.760   5.276   2.343  1.00  0.00     0.093 A 
ATOM     17  C   UNL     1       0.448   3.921   2.159  1.00  0.00     0.130 A 
BRANCH  15  18
ATOM     18  O   UNL     1       0.630   7.577   1.632  1.00  0.00    -0.508 OA
ATOM     19  H   UNL     1       0.196   8.121   2.369  1.00  0.00     0.293 HD
ENDBRANCH  15  18
BRANCH  17  20
ATOM     20  O   UNL     1       0.945   2.967   3.048  1.00  0.00    -0.507 OA
ATOM     21  H   UNL     1       1.409   2.127   2.723  1.00  0.00     0.293 HD
ENDBRANCH  17  20
ENDBRANCH   1  12
BRANCH   2  22
ATOM     22  O   UNL     1      -3.069   2.597   0.956  1.00  0.00    -0.502 OA
ATOM     23  H   UNL     1      -2.965   3.576   0.718  1.00  0.00     0.293 HD
ENDBRANCH   2  22
BRANCH   6  24
ATOM     24  O   UNL     1      -2.598  -2.678   0.365  1.00  0.00    -0.507 OA
ATOM     25  H   UNL     1      -3.251  -2.556   1.124  1.00  0.00     0.293 HD
ENDBRANCH   6  24
BRANCH   8  26
ATOM     26  O   UNL     1       2.137  -3.020  -0.361  1.00  0.00    -0.508 OA
ATOM     27  H   UNL     1       3.030  -2.611  -0.608  1.00  0.00     0.293 HD
ENDBRANCH   8  26
TORSDOF 6
ENDMDL
MODEL 4
REMARK VINA RESULT:     8.948      3.034      6.085
REMARK INTER + INTRA:          10.627
REMARK INTER:                  10.026
REMARK INTRA:                   0.600
REMARK UNBOUND:                -0.152
REMARK SMILES O=c1c(O)c(-c2ccc(O)cc2O)oc2cc(O)cc(O)c12
REMARK SMILES IDX 5 1 3 2 2 3 1 4 22 5 20 6 19 7 17 8 16 9 15 10 14 11 6 12
REMARK SMILES IDX 8 13 7 14 9 15 11 16 12 17 10 18 13 20 4 22 21 24 18 26
REMARK H PARENT 10 19 13 21 4 23 21 25 18 27
REMARK Flexibility Score: inf
ROOT
ATOM      1  C   UNL     1      -0.694  -3.861   0.744  1.00  0.00     0.184 A 
ATOM      2  C   UNL     1      -1.776  -3.006   1.004  1.00  0.00     0.208 A 
ATOM      3  C   UNL     1      -1.680  -1.655   0.634  1.00  0.00     0.238 A 
ATOM      4  O   UNL     1      -2.632  -0.882   0.918  1.00  0.00    -0.285 OA
ATOM      5  C   UNL     1      -0.510  -1.182  -0.007  1.00  0.00     0.111 A 
ATOM      6  C   UNL     1      -0.319   0.157  -0.462  1.00  0.00     0.134 A 
ATOM      7  C   UNL     1       0.929   0.545  -0.965  1.00  0.00     0.093 A 
ATOM      8  C   UNL     1       1.973  -0.376  -1.090  1.00  0.00     0.123 A 
ATOM      9  C   UNL     1       1.778  -1.699  -0.703  1.00  0.00     0.094 A 
ATOM     10  C   UNL     1       0.556  -2.108  -0.163  1.00  0.00     0.146 A 
ATOM     11  O   UNL     1       0.417  -3.377   0.202  1.00  0.00    -0.451 OA
ENDROOT
BRANCH   1  12
ATOM     12  C   UNL     1      -0.736  -5.297   1.093  1.00  0.00     0.063 A 
ATOM     13  C   UNL     1      -1.986  -7.180   1.988  1.00  0.00     0.047 A 
ATOM     14  C   UNL     1      -1.913  -5.829   1.642  1.00  0.00     0.020 A 
ATOM     15  C   UNL     1      -0.877  -8.014   1.803  1.00  0.00     0.119 A 
ATOM     16  C   UNL     1       0.307  -7.488   1.278  1.00  0.00     0.093 A 
ATOM     17  C   UNL     1       0.390  -6.130   0.933  1.00  0.00     0.130 A 
BRANCH  15  18
ATOM     18  O   UNL     1      -0.939  -9.364   2.140  1.00  0.00    -0.508 OA
ATOM     19  H   UNL     1      -0.225  -9.800   2.713  1.00  0.00     0.293 HD
ENDBRANCH  15  18
BRANCH  17  20
ATOM     20  O   UNL     1       1.592  -5.608   0.456  1.00  0.00    -0.507 OA
ATOM     21  H   UNL     1       1.613  -4.838  -0.202  1.00  0.00     0.293 HD
ENDBRANCH  17  20
ENDBRANCH   1  12
BRANCH   2  22
ATOM     22  O   UNL     1      -2.912  -3.495   1.654  1.00  0.00    -0.502 OA
ATOM     23  H   UNL     1      -3.251  -3.104   2.524  1.00  0.00     0.293 HD
ENDBRANCH   2  22
BRANCH   6  24
ATOM     24  O   UNL     1      -1.323   1.129  -0.468  1.00  0.00    -0.507 OA
ATOM     25  H   UNL     1      -1.581   1.684  -1.270  1.00  0.00     0.293 HD
ENDBRANCH   6  24
BRANCH   8  26
ATOM     26  O   UNL     1       3.207   0.015  -1.605  1.00  0.00    -0.508 OA
ATOM     27  H   UNL     1       3.484   0.990  -1.635  1.00  0.00     0.293 HD
ENDBRANCH   8  26
TORSDOF 6
ENDMDL
