MODEL 1
REMARK VINA RESULT:    -3.579      0.000      0.000
REMARK INTER + INTRA:          -7.563
REMARK INTER:                  -5.880
REMARK INTRA:                  -1.682
REMARK UNBOUND:                -1.682
REMARK SMILES CCCCCCCCCCCCCC
REMARK SMILES IDX 7 1 6 2 5 3 4 4 3 5 2 6 1 7 8 8 9 9 10 10 11 11 12 12 13 13
REMARK SMILES IDX 14 14
REMARK H PARENT
REMARK Flexibility Score: inf
ROOT
ATOM      1  C   UNL     1     -26.819 -53.069  54.284  1.00  0.00    -0.000 C 
ENDROOT
BRANCH   1   2
ATOM      2  C   UNL     1     -26.311 -51.857  53.483  1.00  0.00    -0.000 C 
BRANCH   2   3
ATOM      3  C   UNL     1     -27.247 -51.446  52.327  1.00  0.00    -0.000 C 
BRANCH   3   4
ATOM      4  C   UNL     1     -27.852 -52.667  51.609  1.00  0.00    -0.000 C 
BRANCH   4   5
ATOM      5  C   UNL     1     -29.388 -52.672  51.642  1.00  0.00    -0.000 C 
BRANCH   5   6
ATOM      6  C   UNL     1     -29.967 -54.035  52.045  1.00  0.00    -0.003 C 
ATOM      7  C   UNL     1     -28.888 -55.114  52.043  1.00  0.00     0.004 C 
ENDBRANCH   5   6
ENDBRANCH   4   5
ENDBRANCH   3   4
ENDBRANCH   2   3
ENDBRANCH   1   2
BRANCH   1   8
ATOM      8  C   UNL     1     -26.585 -52.924  55.796  1.00  0.00    -0.000 C 
BRANCH   8   9
ATOM      9  C   UNL     1     -27.668 -53.625  56.630  1.00  0.00    -0.000 C 
BRANCH   9  10
ATOM     10  C   UNL     1     -28.670 -54.404  55.759  1.00  0.00    -0.000 C 
BRANCH  10  11
ATOM     11  C   UNL     1     -28.853 -55.856  56.228  1.00  0.00    -0.000 C 
BRANCH  11  12
ATOM     12  C   UNL     1     -28.194 -56.871  55.277  1.00  0.00    -0.000 C 
BRANCH  12  13
ATOM     13  C   UNL     1     -26.695 -57.056  55.562  1.00  0.00    -0.003 C 
ATOM     14  C   UNL     1     -25.811 -56.559  54.420  1.00  0.00     0.004 C 
ENDBRANCH  12  13
ENDBRANCH  11  12
ENDBRANCH  10  11
ENDBRANCH   9  10
ENDBRANCH   8   9
ENDBRANCH   1   8
TORSDOF 11
ENDMDL
MODEL 2
REMARK VINA RESULT:    -3.526      1.024      1.946
REMARK INTER + INTRA:          -7.475
REMARK INTER:                  -5.901
REMARK INTRA:                  -1.574
REMARK UNBOUND:                -1.682
REMARK SMILES CCCCCCCCCCCCCC
REMARK SMILES IDX 7 1 6 2 5 3 4 4 3 5 2 6 1 7 8 8 9 9 10 10 11 11 12 12 13 13
REMARK SMILES IDX 14 14
REMARK H PARENT
REMARK Flexibility Score: inf
ROOT
ATOM      1  C   UNL     1     -26.402 -53.504  56.092  1.00  0.00    -0.000 C 
ENDROOT
BRANCH   1   2
ATOM      2  C   UNL     1     -26.009 -52.017  56.145  1.00  0.00    -0.000 C 
BRANCH   2   3
ATOM      3  C   UNL     1     -25.920 -51.354  54.755  1.00  0.00    -0.000 C 
BRANCH   3   4
ATOM      4  C   UNL     1     -26.361 -52.306  53.628  1.00  0.00    -0.000 C 
BRANCH   4   5
ATOM      5  C   UNL     1     -27.109 -51.580  52.499  1.00  0.00    -0.000 C 
BRANCH   5   6
ATOM      6  C   UNL     1     -27.801 -52.549  51.530  1.00  0.00    -0.003 C 
ATOM      7  C   UNL     1     -27.592 -53.999  51.957  1.00  0.00     0.004 C 
ENDBRANCH   5   6
ENDBRANCH   4   5
ENDBRANCH   3   4
ENDBRANCH   2   3
ENDBRANCH   1   2
BRANCH   1   8
ATOM      8  C   UNL     1     -27.773 -53.781  56.729  1.00  0.00    -0.000 C 
BRANCH   8   9
ATOM      9  C   UNL     1     -28.848 -54.126  55.686  1.00  0.00    -0.000 C 
BRANCH   9  10
ATOM     10  C   UNL     1     -29.373 -55.565  55.835  1.00  0.00    -0.000 C 
BRANCH  10  11
ATOM     11  C   UNL     1     -28.805 -56.513  54.767  1.00  0.00    -0.000 C 
BRANCH  11  12
ATOM     12  C   UNL     1     -27.910 -57.611  55.368  1.00  0.00    -0.000 C 
BRANCH  12  13
ATOM     13  C   UNL     1     -26.429 -57.203  55.413  1.00  0.00    -0.003 C 
ATOM     14  C   UNL     1     -25.932 -56.637  54.084  1.00  0.00     0.004 C 
ENDBRANCH  12  13
ENDBRANCH  11  12
ENDBRANCH  10  11
ENDBRANCH   9  10
ENDBRANCH   8   9
ENDBRANCH   1   8
TORSDOF 11
ENDMDL
MODEL 3
REMARK VINA RESULT:    -3.432      1.344      4.521
REMARK INTER + INTRA:          -7.321
REMARK INTER:                  -5.691
REMARK INTRA:                  -1.630
REMARK UNBOUND:                -1.682
REMARK SMILES CCCCCCCCCCCCCC
REMARK SMILES IDX 7 1 6 2 5 3 4 4 3 5 2 6 1 7 8 8 9 9 10 10 11 11 12 12 13 13
REMARK SMILES IDX 14 14
REMARK H PARENT
REMARK Flexibility Score: inf
ROOT
ATOM      1  C   UNL     1     -26.669 -51.793  53.100  1.00  0.00    -0.000 C 
ENDROOT
BRANCH   1   2
ATOM      2  C   UNL     1     -26.659 -53.305  52.810  1.00  0.00    -0.000 C 
BRANCH   2   3
ATOM      3  C   UNL     1     -26.942 -54.172  54.054  1.00  0.00    -0.000 C 
BRANCH   3   4
ATOM      4  C   UNL     1     -26.959 -53.340  55.349  1.00  0.00    -0.000 C 
BRANCH   4   5
ATOM      5  C   UNL     1     -27.854 -53.956  56.436  1.00  0.00    -0.000 C 
BRANCH   5   6
ATOM      6  C   UNL     1     -29.094 -54.653  55.858  1.00  0.00    -0.003 C 
ATOM      7  C   UNL     1     -29.178 -56.103  56.326  1.00  0.00     0.004 C 
ENDBRANCH   5   6
ENDBRANCH   4   5
ENDBRANCH   3   4
ENDBRANCH   2   3
ENDBRANCH   1   2
BRANCH   1   8
ATOM      8  C   UNL     1     -27.448 -50.990  52.046  1.00  0.00    -0.000 C 
BRANCH   8   9
ATOM      9  C   UNL     1     -28.157 -51.892  51.023  1.00  0.00    -0.000 C 
BRANCH   9  10
ATOM     10  C   UNL     1     -29.656 -51.568  50.892  1.00  0.00    -0.000 C 
BRANCH  10  11
ATOM     11  C   UNL     1     -30.550 -52.674  51.474  1.00  0.00    -0.000 C 
BRANCH  11  12
ATOM     12  C   UNL     1     -29.961 -54.080  51.266  1.00  0.00    -0.000 C 
BRANCH  12  13
ATOM     13  C   UNL     1     -30.275 -55.029  52.433  1.00  0.00    -0.003 C 
ATOM     14  C   UNL     1     -29.448 -56.313  52.389  1.00  0.00     0.004 C 
ENDBRANCH  12  13
ENDBRANCH  11  12
ENDBRANCH  10  11
ENDBRANCH   9  10
ENDBRANCH   8   9
ENDBRANCH   1   8
TORSDOF 11
ENDMDL
MODEL 4
REMARK VINA RESULT:    -3.337      1.116      2.125
REMARK INTER + INTRA:          -7.166
REMARK INTER:                  -5.831
REMARK INTRA:                  -1.335
REMARK UNBOUND:                -1.682
REMARK SMILES CCCCCCCCCCCCCC
REMARK SMILES IDX 7 1 6 2 5 3 4 4 3 5 2 6 1 7 8 8 9 9 10 10 11 11 12 12 13 13
REMARK SMILES IDX 14 14
REMARK H PARENT
REMARK Flexibility Score: inf
ROOT
ATOM      1  C   UNL     1     -26.338 -51.885  53.315  1.00  0.00    -0.000 C 
ENDROOT
BRANCH   1   2
ATOM      2  C   UNL     1     -27.318 -51.202  52.345  1.00  0.00    -0.000 C 
BRANCH   2   3
ATOM      3  C   UNL     1     -27.818 -52.132  51.219  1.00  0.00    -0.000 C 
BRANCH   3   4
ATOM      4  C   UNL     1     -29.312 -51.922  50.915  1.00  0.00    -0.000 C 
BRANCH   4   5
ATOM      5  C   UNL     1     -30.105 -53.238  50.910  1.00  0.00    -0.000 C 
BRANCH   5   6
ATOM      6  C   UNL     1     -30.118 -53.926  52.283  1.00  0.00    -0.003 C 
ATOM      7  C   UNL     1     -29.538 -55.335  52.198  1.00  0.00     0.004 C 
ENDBRANCH   5   6
ENDBRANCH   4   5
ENDBRANCH   3   4
ENDBRANCH   2   3
ENDBRANCH   1   2
BRANCH   1   8
ATOM      8  C   UNL     1     -26.986 -53.028  54.111  1.00  0.00    -0.000 C 
BRANCH   8   9
ATOM      9  C   UNL     1     -26.611 -52.996  55.601  1.00  0.00    -0.000 C 
BRANCH   9  10
ATOM     10  C   UNL     1     -27.697 -53.620  56.496  1.00  0.00    -0.000 C 
BRANCH  10  11
ATOM     11  C   UNL     1     -28.705 -54.463  55.698  1.00  0.00    -0.000 C 
BRANCH  11  12
ATOM     12  C   UNL     1     -28.445 -55.974  55.830  1.00  0.00    -0.000 C 
BRANCH  12  13
ATOM     13  C   UNL     1     -29.716 -56.760  56.188  1.00  0.00    -0.003 C 
ATOM     14  C   UNL     1     -30.979 -55.902  56.122  1.00  0.00     0.004 C 
ENDBRANCH  12  13
ENDBRANCH  11  12
ENDBRANCH  10  11
ENDBRANCH   9  10
ENDBRANCH   8   9
ENDBRANCH   1   8
TORSDOF 11
ENDMDL
MODEL 5
REMARK VINA RESULT:    -3.312      1.454      3.281
REMARK INTER + INTRA:          -7.124
REMARK INTER:                  -5.062
REMARK INTRA:                  -2.062
REMARK UNBOUND:                -1.682
REMARK SMILES CCCCCCCCCCCCCC
REMARK SMILES IDX 7 1 6 2 5 3 4 4 3 5 2 6 1 7 8 8 9 9 10 10 11 11 12 12 13 13
REMARK SMILES IDX 14 14
REMARK H PARENT
REMARK Flexibility Score: inf
ROOT
ATOM      1  C   UNL     1     -29.683 -53.995  53.015  1.00  0.00    -0.000 C 
ENDROOT
BRANCH   1   2
ATOM      2  C   UNL     1     -29.173 -54.271  51.589  1.00  0.00    -0.000 C 
BRANCH   2   3
ATOM      3  C   UNL     1     -27.923 -53.448  51.211  1.00  0.00    -0.000 C 
BRANCH   3   4
ATOM      4  C   UNL     1     -28.204 -51.934  51.213  1.00  0.00    -0.000 C 
BRANCH   4   5
ATOM      5  C   UNL     1     -27.320 -51.170  52.211  1.00  0.00    -0.000 C 
BRANCH   5   6
ATOM      6  C   UNL     1     -26.353 -52.090  52.970  1.00  0.00    -0.003 C 
ATOM      7  C   UNL     1     -26.101 -51.576  54.385  1.00  0.00     0.004 C 
ENDBRANCH   5   6
ENDBRANCH   4   5
ENDBRANCH   3   4
ENDBRANCH   2   3
ENDBRANCH   1   2
BRANCH   1   8
ATOM      8  C   UNL     1     -29.222 -55.054  54.028  1.00  0.00    -0.000 C 
BRANCH   8   9
ATOM      9  C   UNL     1     -28.217 -54.496  55.048  1.00  0.00    -0.000 C 
BRANCH   9  10
ATOM     10  C   UNL     1     -27.146 -55.527  55.445  1.00  0.00    -0.000 C 
BRANCH  10  11
ATOM     11  C   UNL     1     -26.751 -56.445  54.278  1.00  0.00    -0.000 C 
BRANCH  11  12
ATOM     12  C   UNL     1     -25.717 -55.798  53.340  1.00  0.00    -0.000 C 
BRANCH  12  13
ATOM     13  C   UNL     1     -25.887 -56.242  51.879  1.00  0.00    -0.003 C 
ATOM     14  C   UNL     1     -26.979 -57.297  51.707  1.00  0.00     0.004 C 
ENDBRANCH  12  13
ENDBRANCH  11  12
ENDBRANCH  10  11
ENDBRANCH   9  10
ENDBRANCH   8   9
ENDBRANCH   1   8
TORSDOF 11
ENDMDL
MODEL 6
REMARK VINA RESULT:    -3.286      1.488      4.514
REMARK INTER + INTRA:          -7.082
REMARK INTER:                  -5.040
REMARK INTRA:                  -2.042
REMARK UNBOUND:                -1.682
REMARK SMILES CCCCCCCCCCCCCC
REMARK SMILES IDX 7 1 6 2 5 3 4 4 3 5 2 6 1 7 8 8 9 9 10 10 11 11 12 12 13 13
REMARK SMILES IDX 14 14
REMARK H PARENT
REMARK Flexibility Score: inf
ROOT
ATOM      1  C   UNL     1     -30.390 -52.597  51.692  1.00  0.00    -0.000 C 
ENDROOT
BRANCH   1   2
ATOM      2  C   UNL     1     -30.290 -53.979  51.021  1.00  0.00    -0.000 C 
BRANCH   2   3
ATOM      3  C   UNL     1     -30.001 -55.126  52.013  1.00  0.00    -0.000 C 
BRANCH   3   4
ATOM      4  C   UNL     1     -29.889 -54.623  53.464  1.00  0.00    -0.000 C 
BRANCH   4   5
ATOM      5  C   UNL     1     -29.908 -55.767  54.490  1.00  0.00    -0.000 C 
BRANCH   5   6
ATOM      6  C   UNL     1     -29.093 -55.444  55.751  1.00  0.00    -0.003 C 
ATOM      7  C   UNL     1     -28.497 -54.042  55.677  1.00  0.00     0.004 C 
ENDBRANCH   5   6
ENDBRANCH   4   5
ENDBRANCH   3   4
ENDBRANCH   2   3
ENDBRANCH   1   2
BRANCH   1   8
ATOM      8  C   UNL     1     -29.546 -51.528  50.981  1.00  0.00    -0.000 C 
BRANCH   8   9
ATOM      9  C   UNL     1     -28.049 -51.877  50.960  1.00  0.00    -0.000 C 
BRANCH   9  10
ATOM     10  C   UNL     1     -27.332 -51.469  52.260  1.00  0.00    -0.000 C 
BRANCH  10  11
ATOM     11  C   UNL     1     -26.606 -52.648  52.926  1.00  0.00    -0.000 C 
BRANCH  11  12
ATOM     12  C   UNL     1     -26.569 -53.900  52.033  1.00  0.00    -0.000 C 
BRANCH  12  13
ATOM     13  C   UNL     1     -26.249 -55.178  52.824  1.00  0.00    -0.003 C 
ATOM     14  C   UNL     1     -26.558 -56.452  52.038  1.00  0.00     0.004 C 
ENDBRANCH  12  13
ENDBRANCH  11  12
ENDBRANCH  10  11
ENDBRANCH   9  10
ENDBRANCH   8   9
ENDBRANCH   1   8
TORSDOF 11
ENDMDL
MODEL 7
REMARK VINA RESULT:    -3.284      1.082      4.277
REMARK INTER + INTRA:          -7.079
REMARK INTER:                  -5.282
REMARK INTRA:                  -1.797
REMARK UNBOUND:                -1.682
REMARK SMILES CCCCCCCCCCCCCC
REMARK SMILES IDX 7 1 6 2 5 3 4 4 3 5 2 6 1 7 8 8 9 9 10 10 11 11 12 12 13 13
REMARK SMILES IDX 14 14
REMARK H PARENT
REMARK Flexibility Score: inf
ROOT
ATOM      1  C   UNL     1     -26.491 -52.582  53.270  1.00  0.00    -0.000 C 
ENDROOT
BRANCH   1   2
ATOM      2  C   UNL     1     -26.275 -52.007  54.681  1.00  0.00    -0.000 C 
BRANCH   2   3
ATOM      3  C   UNL     1     -26.651 -52.988  55.811  1.00  0.00    -0.000 C 
BRANCH   3   4
ATOM      4  C   UNL     1     -27.942 -53.765  55.498  1.00  0.00    -0.000 C 
BRANCH   4   5
ATOM      5  C   UNL     1     -27.772 -55.284  55.658  1.00  0.00    -0.000 C 
BRANCH   5   6
ATOM      6  C   UNL     1     -26.331 -55.749  55.400  1.00  0.00    -0.003 C 
ATOM      7  C   UNL     1     -26.167 -56.266  53.974  1.00  0.00     0.004 C 
ENDBRANCH   5   6
ENDBRANCH   4   5
ENDBRANCH   3   4
ENDBRANCH   2   3
ENDBRANCH   1   2
BRANCH   1   8
ATOM      8  C   UNL     1     -27.277 -51.633  52.353  1.00  0.00    -0.000 C 
BRANCH   8   9
ATOM      9  C   UNL     1     -27.823 -52.339  51.102  1.00  0.00    -0.000 C 
BRANCH   9  10
ATOM     10  C   UNL     1     -29.349 -52.532  51.155  1.00  0.00    -0.000 C 
BRANCH  10  11
ATOM     11  C   UNL     1     -29.778 -53.545  52.228  1.00  0.00    -0.000 C 
BRANCH  11  12
ATOM     12  C   UNL     1     -29.125 -54.925  52.032  1.00  0.00    -0.000 C 
BRANCH  12  13
ATOM     13  C   UNL     1     -29.937 -56.058  52.679  1.00  0.00    -0.003 C 
ATOM     14  C   UNL     1     -30.959 -55.547  53.693  1.00  0.00     0.004 C 
ENDBRANCH  12  13
ENDBRANCH  11  12
ENDBRANCH  10  11
ENDBRANCH   9  10
ENDBRANCH   8   9
ENDBRANCH   1   8
TORSDOF 11
ENDMDL
MODEL 8
REMARK VINA RESULT:    -3.278      1.190      4.777
REMARK INTER + INTRA:          -7.068
REMARK INTER:                  -5.523
REMARK INTRA:                  -1.545
REMARK UNBOUND:                -1.682
REMARK SMILES CCCCCCCCCCCCCC
REMARK SMILES IDX 7 1 6 2 5 3 4 4 3 5 2 6 1 7 8 8 9 9 10 10 11 11 12 12 13 13
REMARK SMILES IDX 14 14
REMARK H PARENT
REMARK Flexibility Score: inf
ROOT
ATOM      1  C   UNL     1     -26.572 -52.815  55.746  1.00  0.00    -0.000 C 
ENDROOT
BRANCH   1   2
ATOM      2  C   UNL     1     -27.842 -53.627  55.431  1.00  0.00    -0.000 C 
BRANCH   2   3
ATOM      3  C   UNL     1     -27.699 -55.134  55.729  1.00  0.00    -0.000 C 
BRANCH   3   4
ATOM      4  C   UNL     1     -26.374 -55.708  55.195  1.00  0.00    -0.000 C 
BRANCH   4   5
ATOM      5  C   UNL     1     -26.586 -56.805  54.141  1.00  0.00    -0.000 C 
BRANCH   5   6
ATOM      6  C   UNL     1     -27.551 -56.377  53.026  1.00  0.00    -0.003 C 
ATOM      7  C   UNL     1     -26.800 -55.720  51.871  1.00  0.00     0.004 C 
ENDBRANCH   5   6
ENDBRANCH   4   5
ENDBRANCH   3   4
ENDBRANCH   2   3
ENDBRANCH   1   2
BRANCH   1   8
ATOM      8  C   UNL     1     -26.194 -51.839  54.621  1.00  0.00    -0.000 C 
BRANCH   8   9
ATOM      9  C   UNL     1     -26.503 -52.402  53.224  1.00  0.00    -0.000 C 
BRANCH   9  10
ATOM     10  C   UNL     1     -27.215 -51.379  52.321  1.00  0.00    -0.000 C 
BRANCH  10  11
ATOM     11  C   UNL     1     -28.037 -52.046  51.208  1.00  0.00    -0.000 C 
BRANCH  11  12
ATOM     12  C   UNL     1     -29.482 -51.521  51.145  1.00  0.00    -0.000 C 
BRANCH  12  13
ATOM     13  C   UNL     1     -30.521 -52.629  51.375  1.00  0.00    -0.003 C 
ATOM     14  C   UNL     1     -30.040 -53.695  52.358  1.00  0.00     0.004 C 
ENDBRANCH  12  13
ENDBRANCH  11  12
ENDBRANCH  10  11
ENDBRANCH   9  10
ENDBRANCH   8   9
ENDBRANCH   1   8
TORSDOF 11
ENDMDL
MODEL 9
REMARK VINA RESULT:    -3.269      1.198      2.579
REMARK INTER + INTRA:          -7.053
REMARK INTER:                  -5.207
REMARK INTRA:                  -1.846
REMARK UNBOUND:                -1.682
REMARK SMILES CCCCCCCCCCCCCC
REMARK SMILES IDX 7 1 6 2 5 3 4 4 3 5 2 6 1 7 8 8 9 9 10 10 11 11 12 12 13 13
REMARK SMILES IDX 14 14
REMARK H PARENT
REMARK Flexibility Score: inf
ROOT
ATOM      1  C   UNL     1     -26.996 -52.724  53.171  1.00  0.00    -0.000 C 
ENDROOT
BRANCH   1   2
ATOM      2  C   UNL     1     -27.337 -51.553  52.232  1.00  0.00    -0.000 C 
BRANCH   2   3
ATOM      3  C   UNL     1     -27.920 -52.001  50.875  1.00  0.00    -0.000 C 
BRANCH   3   4
ATOM      4  C   UNL     1     -29.451 -52.152  50.924  1.00  0.00    -0.000 C 
BRANCH   4   5
ATOM      5  C   UNL     1     -29.901 -53.622  50.941  1.00  0.00    -0.000 C 
BRANCH   5   6
ATOM      6  C   UNL     1     -30.392 -54.075  52.323  1.00  0.00    -0.003 C 
ATOM      7  C   UNL     1     -30.601 -55.586  52.365  1.00  0.00     0.004 C 
ENDBRANCH   5   6
ENDBRANCH   4   5
ENDBRANCH   3   4
ENDBRANCH   2   3
ENDBRANCH   1   2
BRANCH   1   8
ATOM      8  C   UNL     1     -26.294 -53.883  52.447  1.00  0.00    -0.000 C 
BRANCH   8   9
ATOM      9  C   UNL     1     -26.925 -55.247  52.769  1.00  0.00    -0.000 C 
BRANCH   9  10
ATOM     10  C   UNL     1     -26.131 -56.027  53.832  1.00  0.00    -0.000 C 
BRANCH  10  11
ATOM     11  C   UNL     1     -26.707 -55.850  55.246  1.00  0.00    -0.000 C 
BRANCH  11  12
ATOM     12  C   UNL     1     -28.240 -55.706  55.244  1.00  0.00    -0.000 C 
BRANCH  12  13
ATOM     13  C   UNL     1     -28.709 -54.401  55.906  1.00  0.00    -0.003 C 
ATOM     14  C   UNL     1     -27.593 -53.696  56.676  1.00  0.00     0.004 C 
ENDBRANCH  12  13
ENDBRANCH  11  12
ENDBRANCH  10  11
ENDBRANCH   9  10
ENDBRANCH   8   9
ENDBRANCH   1   8
TORSDOF 11
ENDMDL
