MODEL 1
REMARK VINA RESULT:    -6.115      0.000      0.000
REMARK INTER + INTRA:          -7.454
REMARK INTER:                  -7.188
REMARK INTRA:                  -0.266
REMARK UNBOUND:                -0.266
REMARK SMILES O=c1cc(-c2ccc(O)c(O)c2)oc2cc(O)cc(O)c12
REMARK SMILES IDX 4 1 3 2 2 3 1 4 21 5 19 6 18 7 16 8 15 9 14 10 13 11 5 12
REMARK SMILES IDX 6 13 7 14 8 15 12 16 10 17 9 18 11 20 20 22 17 24
REMARK H PARENT 9 19 11 21 20 23 17 25
REMARK Flexibility Score: inf
ROOT
ATOM      1  C   UNL     1      -8.934  -3.088  -5.712  1.00  0.00     0.138 A 
ATOM      2  C   UNL     1      -9.419  -2.204  -6.685  1.00  0.00     0.100 A 
ATOM      3  C   UNL     1      -9.346  -0.828  -6.464  1.00  0.00     0.197 A 
ATOM      4  O   UNL     1      -9.846  -0.060  -7.327  1.00  0.00    -0.289 OA
ATOM      5  C   UNL     1      -8.756  -0.335  -5.276  1.00  0.00     0.107 A 
ATOM      6  C   UNL     1      -8.592   1.047  -4.962  1.00  0.00     0.134 A 
ATOM      7  C   UNL     1      -8.099   1.415  -3.703  1.00  0.00     0.093 A 
ATOM      8  C   UNL     1      -7.710   0.453  -2.771  1.00  0.00     0.123 A 
ATOM      9  C   UNL     1      -7.817  -0.903  -3.088  1.00  0.00     0.094 A 
ATOM     10  C   UNL     1      -8.336  -1.302  -4.323  1.00  0.00     0.146 A 
ATOM     11  O   UNL     1      -8.434  -2.602  -4.580  1.00  0.00    -0.456 OA
ENDROOT
BRANCH   1  12
ATOM     12  C   UNL     1      -8.985  -4.561  -5.896  1.00  0.00     0.021 A 
ATOM     13  C   UNL     1      -9.842  -5.328  -5.088  1.00  0.00     0.016 A 
ATOM     14  C   UNL     1      -9.902  -6.717  -5.236  1.00  0.00     0.051 A 
ATOM     15  C   UNL     1      -9.101  -7.363  -6.186  1.00  0.00     0.157 A 
ATOM     16  C   UNL     1      -8.173  -5.218  -6.840  1.00  0.00     0.062 A 
ATOM     17  C   UNL     1      -8.229  -6.608  -6.989  1.00  0.00     0.158 A 
BRANCH  15  18
ATOM     18  O   UNL     1      -9.165  -8.747  -6.332  1.00  0.00    -0.504 OA
ATOM     19  H   UNL     1      -9.168  -9.366  -5.530  1.00  0.00     0.293 HD
ENDBRANCH  15  18
BRANCH  17  20
ATOM     20  O   UNL     1      -7.411  -7.223  -7.936  1.00  0.00    -0.504 OA
ATOM     21  H   UNL     1      -7.773  -7.885  -8.611  1.00  0.00     0.293 HD
ENDBRANCH  17  20
ENDBRANCH   1  12
BRANCH   6  22
ATOM     22  O   UNL     1      -8.870   2.088  -5.852  1.00  0.00    -0.507 OA
ATOM     23  H   UNL     1      -9.722   2.182  -6.381  1.00  0.00     0.293 HD
ENDBRANCH   6  22
BRANCH   8  24
ATOM     24  O   UNL     1      -7.210   0.856  -1.535  1.00  0.00    -0.508 OA
ATOM     25  H   UNL     1      -7.822   1.018  -0.744  1.00  0.00     0.293 HD
ENDBRANCH   8  24
TORSDOF 5
ENDMDL
MODEL 2
REMARK VINA RESULT:    -6.044     15.300     17.015
REMARK INTER + INTRA:          -7.370
REMARK INTER:                  -7.052
REMARK INTRA:                  -0.318
REMARK UNBOUND:                -0.266
REMARK SMILES O=c1cc(-c2ccc(O)c(O)c2)oc2cc(O)cc(O)c12
REMARK SMILES IDX 4 1 3 2 2 3 1 4 21 5 19 6 18 7 16 8 15 9 14 10 13 11 5 12
REMARK SMILES IDX 6 13 7 14 8 15 12 16 10 17 9 18 11 20 20 22 17 24
REMARK H PARENT 9 19 11 21 20 23 17 25
REMARK Flexibility Score: inf
ROOT
ATOM      1  C   UNL     1      -1.761   5.697   7.072  1.00  0.00     0.138 A 
ATOM      2  C   UNL     1      -3.109   5.586   7.438  1.00  0.00     0.100 A 
ATOM      3  C   UNL     1      -4.086   6.226   6.674  1.00  0.00     0.197 A 
ATOM      4  O   UNL     1      -5.281   6.161   7.062  1.00  0.00    -0.289 OA
ATOM      5  C   UNL     1      -3.712   6.954   5.519  1.00  0.00     0.107 A 
ATOM      6  C   UNL     1      -4.624   7.612   4.642  1.00  0.00     0.134 A 
ATOM      7  C   UNL     1      -4.129   8.399   3.595  1.00  0.00     0.093 A 
ATOM      8  C   UNL     1      -2.759   8.504   3.357  1.00  0.00     0.123 A 
ATOM      9  C   UNL     1      -1.859   7.821   4.176  1.00  0.00     0.094 A 
ATOM     10  C   UNL     1      -2.320   7.055   5.250  1.00  0.00     0.146 A 
ATOM     11  O   UNL     1      -1.430   6.432   6.015  1.00  0.00    -0.456 OA
ENDROOT
BRANCH   1  12
ATOM     12  C   UNL     1      -0.681   5.037   7.849  1.00  0.00     0.021 A 
ATOM     13  C   UNL     1      -1.013   4.267   8.977  1.00  0.00     0.016 A 
ATOM     14  C   UNL     1      -0.015   3.642   9.730  1.00  0.00     0.051 A 
ATOM     15  C   UNL     1       1.332   3.783   9.373  1.00  0.00     0.157 A 
ATOM     16  C   UNL     1       0.677   5.185   7.504  1.00  0.00     0.062 A 
ATOM     17  C   UNL     1       1.678   4.562   8.257  1.00  0.00     0.158 A 
BRANCH  15  18
ATOM     18  O   UNL     1       2.325   3.157  10.125  1.00  0.00    -0.504 OA
ATOM     19  H   UNL     1       2.579   3.487  11.048  1.00  0.00     0.293 HD
ENDBRANCH  15  18
BRANCH  17  20
ATOM     20  O   UNL     1       3.011   4.731   7.883  1.00  0.00    -0.504 OA
ATOM     21  H   UNL     1       3.539   5.559   8.128  1.00  0.00     0.293 HD
ENDBRANCH  17  20
ENDBRANCH   1  12
BRANCH   6  22
ATOM     22  O   UNL     1      -6.015   7.506   4.738  1.00  0.00    -0.507 OA
ATOM     23  H   UNL     1      -6.527   6.638   4.750  1.00  0.00     0.293 HD
ENDBRANCH   6  22
BRANCH   8  24
ATOM     24  O   UNL     1      -2.303   9.284   2.297  1.00  0.00    -0.508 OA
ATOM     25  H   UNL     1      -2.818  10.095   1.975  1.00  0.00     0.293 HD
ENDBRANCH   8  24
TORSDOF 5
ENDMDL
MODEL 3
REMARK VINA RESULT:    -5.988     14.977     17.091
REMARK INTER + INTRA:          -7.304
REMARK INTER:                  -7.011
REMARK INTRA:                  -0.292
REMARK UNBOUND:                -0.266
REMARK SMILES O=c1cc(-c2ccc(O)c(O)c2)oc2cc(O)cc(O)c12
REMARK SMILES IDX 4 1 3 2 2 3 1 4 21 5 19 6 18 7 16 8 15 9 14 10 13 11 5 12
REMARK SMILES IDX 6 13 7 14 8 15 12 16 10 17 9 18 11 20 20 22 17 24
REMARK H PARENT 9 19 11 21 20 23 17 25
REMARK Flexibility Score: inf
ROOT
ATOM      1  C   UNL     1      -1.035   6.311   6.561  1.00  0.00     0.138 A 
ATOM      2  C   UNL     1      -0.474   7.356   5.814  1.00  0.00     0.100 A 
ATOM      3  C   UNL     1      -1.297   8.149   5.013  1.00  0.00     0.197 A 
ATOM      4  O   UNL     1      -0.758   9.039   4.306  1.00  0.00    -0.289 OA
ATOM      5  C   UNL     1      -2.693   7.914   4.986  1.00  0.00     0.107 A 
ATOM      6  C   UNL     1      -3.632   8.684   4.238  1.00  0.00     0.134 A 
ATOM      7  C   UNL     1      -4.974   8.285   4.197  1.00  0.00     0.093 A 
ATOM      8  C   UNL     1      -5.421   7.181   4.923  1.00  0.00     0.123 A 
ATOM      9  C   UNL     1      -4.520   6.452   5.700  1.00  0.00     0.094 A 
ATOM     10  C   UNL     1      -3.168   6.804   5.735  1.00  0.00     0.146 A 
ATOM     11  O   UNL     1      -2.341   6.075   6.476  1.00  0.00    -0.456 OA
ENDROOT
BRANCH   1  12
ATOM     12  C   UNL     1      -0.207   5.437   7.431  1.00  0.00     0.021 A 
ATOM     13  C   UNL     1      -0.821   4.705   8.461  1.00  0.00     0.016 A 
ATOM     14  C   UNL     1      -0.063   3.881   9.297  1.00  0.00     0.051 A 
ATOM     15  C   UNL     1       1.323   3.782   9.125  1.00  0.00     0.157 A 
ATOM     16  C   UNL     1       1.190   5.343   7.271  1.00  0.00     0.062 A 
ATOM     17  C   UNL     1       1.952   4.521   8.109  1.00  0.00     0.158 A 
BRANCH  15  18
ATOM     18  O   UNL     1       2.076   2.959   9.960  1.00  0.00    -0.504 OA
ATOM     19  H   UNL     1       3.071   2.827   9.818  1.00  0.00     0.293 HD
ENDBRANCH  15  18
BRANCH  17  20
ATOM     20  O   UNL     1       3.332   4.453   7.918  1.00  0.00    -0.504 OA
ATOM     21  H   UNL     1       3.836   3.576   7.947  1.00  0.00     0.293 HD
ENDBRANCH  17  20
ENDBRANCH   1  12
BRANCH   6  22
ATOM     22  O   UNL     1      -3.308   9.855   3.546  1.00  0.00    -0.507 OA
ATOM     23  H   UNL     1      -3.933  10.354   2.933  1.00  0.00     0.293 HD
ENDBRANCH   6  22
BRANCH   8  24
ATOM     24  O   UNL     1      -6.766   6.822   4.870  1.00  0.00    -0.508 OA
ATOM     25  H   UNL     1      -7.199   6.280   5.608  1.00  0.00     0.293 HD
ENDBRANCH   8  24
TORSDOF 5
ENDMDL
MODEL 4
REMARK VINA RESULT:    -5.926      2.426      7.120
REMARK INTER + INTRA:          -7.232
REMARK INTER:                  -6.968
REMARK INTRA:                  -0.264
REMARK UNBOUND:                -0.266
REMARK SMILES O=c1cc(-c2ccc(O)c(O)c2)oc2cc(O)cc(O)c12
REMARK SMILES IDX 4 1 3 2 2 3 1 4 21 5 19 6 18 7 16 8 15 9 14 10 13 11 5 12
REMARK SMILES IDX 6 13 7 14 8 15 12 16 10 17 9 18 11 20 20 22 17 24
REMARK H PARENT 9 19 11 21 20 23 17 25
REMARK Flexibility Score: inf
ROOT
ATOM      1  C   UNL     1      -7.864  -1.659  -5.879  1.00  0.00     0.138 A 
ATOM      2  C   UNL     1      -8.771  -2.727  -5.888  1.00  0.00     0.100 A 
ATOM      3  C   UNL     1      -8.519  -3.839  -6.692  1.00  0.00     0.197 A 
ATOM      4  O   UNL     1      -9.382  -4.754  -6.728  1.00  0.00    -0.289 OA
ATOM      5  C   UNL     1      -7.335  -3.895  -7.467  1.00  0.00     0.107 A 
ATOM      6  C   UNL     1      -6.954  -4.995  -8.292  1.00  0.00     0.134 A 
ATOM      7  C   UNL     1      -5.817  -4.887  -9.102  1.00  0.00     0.093 A 
ATOM      8  C   UNL     1      -5.016  -3.746  -9.074  1.00  0.00     0.123 A 
ATOM      9  C   UNL     1      -5.350  -2.685  -8.231  1.00  0.00     0.094 A 
ATOM     10  C   UNL     1      -6.497  -2.748  -7.435  1.00  0.00     0.146 A 
ATOM     11  O   UNL     1      -6.787  -1.711  -6.657  1.00  0.00    -0.456 OA
ENDROOT
BRANCH   1  12
ATOM     12  C   UNL     1      -8.082  -0.452  -5.041  1.00  0.00     0.021 A 
ATOM     13  C   UNL     1      -8.780   0.644  -5.578  1.00  0.00     0.016 A 
ATOM     14  C   UNL     1      -8.992   1.794  -4.812  1.00  0.00     0.051 A 
ATOM     15  C   UNL     1      -8.503   1.873  -3.503  1.00  0.00     0.157 A 
ATOM     16  C   UNL     1      -7.581  -0.362  -3.728  1.00  0.00     0.062 A 
ATOM     17  C   UNL     1      -7.790   0.790  -2.961  1.00  0.00     0.158 A 
BRANCH  15  18
ATOM     18  O   UNL     1      -8.717   3.020  -2.743  1.00  0.00    -0.504 OA
ATOM     19  H   UNL     1      -9.370   3.030  -1.968  1.00  0.00     0.293 HD
ENDBRANCH  15  18
BRANCH  17  20
ATOM     20  O   UNL     1      -7.280   0.842  -1.663  1.00  0.00    -0.504 OA
ATOM     21  H   UNL     1      -6.679   0.117  -1.292  1.00  0.00     0.293 HD
ENDBRANCH  17  20
ENDBRANCH   1  12
BRANCH   6  22
ATOM     22  O   UNL     1      -7.637  -6.214  -8.332  1.00  0.00    -0.507 OA
ATOM     23  H   UNL     1      -7.302  -7.075  -7.929  1.00  0.00     0.293 HD
ENDBRANCH   6  22
BRANCH   8  24
ATOM     24  O   UNL     1      -3.884  -3.681  -9.884  1.00  0.00    -0.508 OA
ATOM     25  H   UNL     1      -3.903  -3.218 -10.784  1.00  0.00     0.293 HD
ENDBRANCH   8  24
TORSDOF 5
ENDMDL
MODEL 5
REMARK VINA RESULT:    -5.921      1.967      7.213
REMARK INTER + INTRA:          -7.225
REMARK INTER:                  -6.961
REMARK INTRA:                  -0.264
REMARK UNBOUND:                -0.266
REMARK SMILES O=c1cc(-c2ccc(O)c(O)c2)oc2cc(O)cc(O)c12
REMARK SMILES IDX 4 1 3 2 2 3 1 4 21 5 19 6 18 7 16 8 15 9 14 10 13 11 5 12
REMARK SMILES IDX 6 13 7 14 8 15 12 16 10 17 9 18 11 20 20 22 17 24
REMARK H PARENT 9 19 11 21 20 23 17 25
REMARK Flexibility Score: inf
ROOT
ATOM      1  C   UNL     1      -7.922  -0.641  -5.696  1.00  0.00     0.138 A 
ATOM      2  C   UNL     1      -7.049  -0.895  -6.762  1.00  0.00     0.100 A 
ATOM      3  C   UNL     1      -6.966  -2.183  -7.292  1.00  0.00     0.197 A 
ATOM      4  O   UNL     1      -6.128  -2.395  -8.207  1.00  0.00    -0.289 OA
ATOM      5  C   UNL     1      -7.784  -3.214  -6.773  1.00  0.00     0.107 A 
ATOM      6  C   UNL     1      -7.813  -4.554  -7.261  1.00  0.00     0.134 A 
ATOM      7  C   UNL     1      -8.579  -5.516  -6.591  1.00  0.00     0.093 A 
ATOM      8  C   UNL     1      -9.361  -5.176  -5.488  1.00  0.00     0.123 A 
ATOM      9  C   UNL     1      -9.382  -3.856  -5.034  1.00  0.00     0.094 A 
ATOM     10  C   UNL     1      -8.603  -2.880  -5.660  1.00  0.00     0.146 A 
ATOM     11  O   UNL     1      -8.640  -1.638  -5.188  1.00  0.00    -0.456 OA
ENDROOT
BRANCH   1  12
ATOM     12  C   UNL     1      -8.051   0.710  -5.093  1.00  0.00     0.021 A 
ATOM     13  C   UNL     1      -7.197   1.083  -4.042  1.00  0.00     0.016 A 
ATOM     14  C   UNL     1      -7.303   2.346  -3.453  1.00  0.00     0.051 A 
ATOM     15  C   UNL     1      -8.272   3.255  -3.898  1.00  0.00     0.157 A 
ATOM     16  C   UNL     1      -9.032   1.624  -5.528  1.00  0.00     0.062 A 
ATOM     17  C   UNL     1      -9.143   2.888  -4.938  1.00  0.00     0.158 A 
BRANCH  15  18
ATOM     18  O   UNL     1      -8.375   4.513  -3.310  1.00  0.00    -0.504 OA
ATOM     19  H   UNL     1      -8.988   5.227  -3.686  1.00  0.00     0.293 HD
ENDBRANCH  15  18
BRANCH  17  20
ATOM     20  O   UNL     1     -10.125   3.766  -5.396  1.00  0.00    -0.504 OA
ATOM     21  H   UNL     1     -10.138   4.744  -5.133  1.00  0.00     0.293 HD
ENDBRANCH  17  20
ENDBRANCH   1  12
BRANCH   6  22
ATOM     22  O   UNL     1      -7.135  -4.982  -8.406  1.00  0.00    -0.507 OA
ATOM     23  H   UNL     1      -7.422  -4.787  -9.353  1.00  0.00     0.293 HD
ENDBRANCH   6  22
BRANCH   8  24
ATOM     24  O   UNL     1     -10.122  -6.156  -4.856  1.00  0.00    -0.508 OA
ATOM     25  H   UNL     1     -10.330  -7.039  -5.307  1.00  0.00     0.293 HD
ENDBRANCH   8  24
TORSDOF 5
ENDMDL
MODEL 6
REMARK VINA RESULT:    -5.905      2.409      2.953
REMARK INTER + INTRA:          -7.207
REMARK INTER:                  -6.938
REMARK INTRA:                  -0.269
REMARK UNBOUND:                -0.266
REMARK SMILES O=c1cc(-c2ccc(O)c(O)c2)oc2cc(O)cc(O)c12
REMARK SMILES IDX 4 1 3 2 2 3 1 4 21 5 19 6 18 7 16 8 15 9 14 10 13 11 5 12
REMARK SMILES IDX 6 13 7 14 8 15 12 16 10 17 9 18 11 20 20 22 17 24
REMARK H PARENT 9 19 11 21 20 23 17 25
REMARK Flexibility Score: inf
ROOT
ATOM      1  C   UNL     1      -7.561  -1.397  -6.893  1.00  0.00     0.138 A 
ATOM      2  C   UNL     1      -8.546  -0.659  -7.562  1.00  0.00     0.100 A 
ATOM      3  C   UNL     1      -9.061   0.496  -6.973  1.00  0.00     0.197 A 
ATOM      4  O   UNL     1      -9.989   1.103  -7.568  1.00  0.00    -0.289 OA
ATOM      5  C   UNL     1      -8.563   0.931  -5.721  1.00  0.00     0.107 A 
ATOM      6  C   UNL     1      -8.985   2.114  -5.045  1.00  0.00     0.134 A 
ATOM      7  C   UNL     1      -8.505   2.381  -3.757  1.00  0.00     0.093 A 
ATOM      8  C   UNL     1      -7.576   1.540  -3.145  1.00  0.00     0.123 A 
ATOM      9  C   UNL     1      -7.116   0.408  -3.819  1.00  0.00     0.094 A 
ATOM     10  C   UNL     1      -7.602   0.096  -5.091  1.00  0.00     0.146 A 
ATOM     11  O   UNL     1      -7.149  -0.999  -5.693  1.00  0.00    -0.456 OA
ENDROOT
BRANCH   1  12
ATOM     12  C   UNL     1      -6.977  -2.633  -7.474  1.00  0.00     0.021 A 
ATOM     13  C   UNL     1      -7.762  -3.796  -7.554  1.00  0.00     0.016 A 
ATOM     14  C   UNL     1      -7.233  -4.974  -8.089  1.00  0.00     0.051 A 
ATOM     15  C   UNL     1      -5.910  -5.013  -8.545  1.00  0.00     0.157 A 
ATOM     16  C   UNL     1      -5.642  -2.682  -7.922  1.00  0.00     0.062 A 
ATOM     17  C   UNL     1      -5.110  -3.861  -8.456  1.00  0.00     0.158 A 
BRANCH  15  18
ATOM     18  O   UNL     1      -5.387  -6.189  -9.079  1.00  0.00    -0.504 OA
ATOM     19  H   UNL     1      -5.016  -6.922  -8.487  1.00  0.00     0.293 HD
ENDBRANCH  15  18
BRANCH  17  20
ATOM     20  O   UNL     1      -3.785  -3.870  -8.892  1.00  0.00    -0.504 OA
ATOM     21  H   UNL     1      -3.012  -3.675  -8.268  1.00  0.00     0.293 HD
ENDBRANCH  17  20
ENDBRANCH   1  12
BRANCH   6  22
ATOM     22  O   UNL     1      -9.845   3.067  -5.600  1.00  0.00    -0.507 OA
ATOM     23  H   UNL     1      -9.780   4.061  -5.447  1.00  0.00     0.293 HD
ENDBRANCH   6  22
BRANCH   8  24
ATOM     24  O   UNL     1      -7.109   1.845  -1.868  1.00  0.00    -0.508 OA
ATOM     25  H   UNL     1      -6.666   2.733  -1.664  1.00  0.00     0.293 HD
ENDBRANCH   8  24
TORSDOF 5
ENDMDL
MODEL 7
REMARK VINA RESULT:    -5.795     14.587     17.138
REMARK INTER + INTRA:          -7.078
REMARK INTER:                  -6.764
REMARK INTRA:                  -0.313
REMARK UNBOUND:                -0.266
REMARK SMILES O=c1cc(-c2ccc(O)c(O)c2)oc2cc(O)cc(O)c12
REMARK SMILES IDX 4 1 3 2 2 3 1 4 21 5 19 6 18 7 16 8 15 9 14 10 13 11 5 12
REMARK SMILES IDX 6 13 7 14 8 15 12 16 10 17 9 18 11 20 20 22 17 24
REMARK H PARENT 9 19 11 21 20 23 17 25
REMARK Flexibility Score: inf
ROOT
ATOM      1  C   UNL     1      -0.778   6.162   6.658  1.00  0.00     0.138 A 
ATOM      2  C   UNL     1      -0.250   7.299   6.033  1.00  0.00     0.100 A 
ATOM      3  C   UNL     1      -1.068   8.077   5.214  1.00  0.00     0.197 A 
ATOM      4  O   UNL     1      -0.551   9.057   4.616  1.00  0.00    -0.289 OA
ATOM      5  C   UNL     1      -2.431   7.732   5.045  1.00  0.00     0.107 A 
ATOM      6  C   UNL     1      -3.368   8.474   4.267  1.00  0.00     0.134 A 
ATOM      7  C   UNL     1      -4.661   7.970   4.079  1.00  0.00     0.093 A 
ATOM      8  C   UNL     1      -5.069   6.784   4.689  1.00  0.00     0.123 A 
ATOM      9  C   UNL     1      -4.176   6.078   5.497  1.00  0.00     0.094 A 
ATOM     10  C   UNL     1      -2.869   6.536   5.676  1.00  0.00     0.146 A 
ATOM     11  O   UNL     1      -2.046   5.827   6.441  1.00  0.00    -0.456 OA
ENDROOT
BRANCH   1  12
ATOM     12  C   UNL     1       0.047   5.299   7.541  1.00  0.00     0.021 A 
ATOM     13  C   UNL     1       1.449   5.372   7.466  1.00  0.00     0.016 A 
ATOM     14  C   UNL     1       2.248   4.565   8.280  1.00  0.00     0.051 A 
ATOM     15  C   UNL     1       1.661   3.663   9.176  1.00  0.00     0.157 A 
ATOM     16  C   UNL     1      -0.537   4.380   8.436  1.00  0.00     0.062 A 
ATOM     17  C   UNL     1       0.261   3.568   9.250  1.00  0.00     0.158 A 
BRANCH  15  18
ATOM     18  O   UNL     1       2.460   2.861   9.988  1.00  0.00    -0.504 OA
ATOM     19  H   UNL     1       3.459   2.780   9.835  1.00  0.00     0.293 HD
ENDBRANCH  15  18
BRANCH  17  20
ATOM     20  O   UNL     1      -0.354   2.673  10.125  1.00  0.00    -0.504 OA
ATOM     21  H   UNL     1      -0.746   2.969  11.010  1.00  0.00     0.293 HD
ENDBRANCH  17  20
ENDBRANCH   1  12
BRANCH   6  22
ATOM     22  O   UNL     1      -3.090   9.713   3.682  1.00  0.00    -0.507 OA
ATOM     23  H   UNL     1      -2.674   9.841   2.773  1.00  0.00     0.293 HD
ENDBRANCH   6  22
BRANCH   8  24
ATOM     24  O   UNL     1      -6.368   6.321   4.493  1.00  0.00    -0.508 OA
ATOM     25  H   UNL     1      -6.685   6.000   3.586  1.00  0.00     0.293 HD
ENDBRANCH   8  24
TORSDOF 5
ENDMDL
MODEL 8
REMARK VINA RESULT:    -5.784      1.143      1.912
REMARK INTER + INTRA:          -7.064
REMARK INTER:                  -6.792
REMARK INTRA:                  -0.272
REMARK UNBOUND:                -0.266
REMARK SMILES O=c1cc(-c2ccc(O)c(O)c2)oc2cc(O)cc(O)c12
REMARK SMILES IDX 4 1 3 2 2 3 1 4 21 5 19 6 18 7 16 8 15 9 14 10 13 11 5 12
REMARK SMILES IDX 6 13 7 14 8 15 12 16 10 17 9 18 11 20 20 22 17 24
REMARK H PARENT 9 19 11 21 20 23 17 25
REMARK Flexibility Score: inf
ROOT
ATOM      1  C   UNL     1      -8.279  -1.994  -6.122  1.00  0.00     0.138 A 
ATOM      2  C   UNL     1      -8.877  -0.991  -6.896  1.00  0.00     0.100 A 
ATOM      3  C   UNL     1      -9.000   0.299  -6.378  1.00  0.00     0.197 A 
ATOM      4  O   UNL     1      -9.597   1.163  -7.071  1.00  0.00    -0.289 OA
ATOM      5  C   UNL     1      -8.493   0.592  -5.090  1.00  0.00     0.107 A 
ATOM      6  C   UNL     1      -8.526   1.880  -4.476  1.00  0.00     0.134 A 
ATOM      7  C   UNL     1      -8.098   2.023  -3.151  1.00  0.00     0.093 A 
ATOM      8  C   UNL     1      -7.584   0.941  -2.437  1.00  0.00     0.123 A 
ATOM      9  C   UNL     1      -7.497  -0.312  -3.046  1.00  0.00     0.094 A 
ATOM     10  C   UNL     1      -7.947  -0.495  -4.355  1.00  0.00     0.146 A 
ATOM     11  O   UNL     1      -7.860  -1.707  -4.893  1.00  0.00    -0.456 OA
ENDROOT
BRANCH   1  12
ATOM     12  C   UNL     1      -8.122  -3.383  -6.624  1.00  0.00     0.021 A 
ATOM     13  C   UNL     1      -7.204  -3.646  -7.655  1.00  0.00     0.016 A 
ATOM     14  C   UNL     1      -7.044  -4.943  -8.150  1.00  0.00     0.051 A 
ATOM     15  C   UNL     1      -7.804  -5.997  -7.631  1.00  0.00     0.157 A 
ATOM     16  C   UNL     1      -8.894  -4.446  -6.114  1.00  0.00     0.062 A 
ATOM     17  C   UNL     1      -8.737  -5.746  -6.611  1.00  0.00     0.158 A 
BRANCH  15  18
ATOM     18  O   UNL     1      -7.641  -7.289  -8.126  1.00  0.00    -0.504 OA
ATOM     19  H   UNL     1      -8.131  -8.079  -7.722  1.00  0.00     0.293 HD
ENDBRANCH  15  18
BRANCH  17  20
ATOM     20  O   UNL     1      -9.517  -6.772  -6.080  1.00  0.00    -0.504 OA
ATOM     21  H   UNL     1      -9.548  -7.695  -6.495  1.00  0.00     0.293 HD
ENDBRANCH  17  20
ENDBRANCH   1  12
BRANCH   6  22
ATOM     22  O   UNL     1      -8.942   3.045  -5.128  1.00  0.00    -0.507 OA
ATOM     23  H   UNL     1      -9.428   3.069  -6.010  1.00  0.00     0.293 HD
ENDBRANCH   6  22
BRANCH   8  24
ATOM     24  O   UNL     1      -7.153   1.125  -1.125  1.00  0.00    -0.508 OA
ATOM     25  H   UNL     1      -7.211   2.028  -0.670  1.00  0.00     0.293 HD
ENDBRANCH   8  24
TORSDOF 5
ENDMDL
MODEL 9
REMARK VINA RESULT:    -5.750      1.795      7.118
REMARK INTER + INTRA:          -7.025
REMARK INTER:                  -6.715
REMARK INTRA:                  -0.309
REMARK UNBOUND:                -0.266
REMARK SMILES O=c1cc(-c2ccc(O)c(O)c2)oc2cc(O)cc(O)c12
REMARK SMILES IDX 4 1 3 2 2 3 1 4 21 5 19 6 18 7 16 8 15 9 14 10 13 11 5 12
REMARK SMILES IDX 6 13 7 14 8 15 12 16 10 17 9 18 11 20 20 22 17 24
REMARK H PARENT 9 19 11 21 20 23 17 25
REMARK Flexibility Score: inf
ROOT
ATOM      1  C   UNL     1      -8.625  -2.232  -5.099  1.00  0.00     0.138 A 
ATOM      2  C   UNL     1      -9.356  -3.271  -4.509  1.00  0.00     0.100 A 
ATOM      3  C   UNL     1      -9.349  -4.538  -5.094  1.00  0.00     0.197 A 
ATOM      4  O   UNL     1     -10.065  -5.435  -4.578  1.00  0.00    -0.289 OA
ATOM      5  C   UNL     1      -8.580  -4.771  -6.259  1.00  0.00     0.107 A 
ATOM      6  C   UNL     1      -8.465  -6.031  -6.919  1.00  0.00     0.134 A 
ATOM      7  C   UNL     1      -7.768  -6.115  -8.130  1.00  0.00     0.093 A 
ATOM      8  C   UNL     1      -7.132  -4.999  -8.675  1.00  0.00     0.123 A 
ATOM      9  C   UNL     1      -7.193  -3.773  -8.010  1.00  0.00     0.094 A 
ATOM     10  C   UNL     1      -7.909  -3.650  -6.817  1.00  0.00     0.146 A 
ATOM     11  O   UNL     1      -7.954  -2.462  -6.223  1.00  0.00    -0.456 OA
ENDROOT
BRANCH   1  12
ATOM     12  C   UNL     1      -8.597  -0.865  -4.518  1.00  0.00     0.021 A 
ATOM     13  C   UNL     1      -9.662  -0.437  -3.708  1.00  0.00     0.016 A 
ATOM     14  C   UNL     1      -9.663   0.847  -3.156  1.00  0.00     0.051 A 
ATOM     15  C   UNL     1      -8.604   1.728  -3.411  1.00  0.00     0.157 A 
ATOM     16  C   UNL     1      -7.541   0.030  -4.782  1.00  0.00     0.062 A 
ATOM     17  C   UNL     1      -7.541   1.318  -4.233  1.00  0.00     0.158 A 
BRANCH  15  18
ATOM     18  O   UNL     1      -8.608   3.007  -2.858  1.00  0.00    -0.504 OA
ATOM     19  H   UNL     1      -9.221   3.251  -2.089  1.00  0.00     0.293 HD
ENDBRANCH  15  18
BRANCH  17  20
ATOM     20  O   UNL     1      -6.478   2.175  -4.515  1.00  0.00    -0.504 OA
ATOM     21  H   UNL     1      -5.979   2.141  -5.395  1.00  0.00     0.293 HD
ENDBRANCH  17  20
ENDBRANCH   1  12
BRANCH   6  22
ATOM     22  O   UNL     1      -8.990  -7.226  -6.418  1.00  0.00    -0.507 OA
ATOM     23  H   UNL     1      -9.949  -7.361  -6.135  1.00  0.00     0.293 HD
ENDBRANCH   6  22
BRANCH   8  24
ATOM     24  O   UNL     1      -6.434  -5.123  -9.875  1.00  0.00    -0.508 OA
ATOM     25  H   UNL     1      -5.533  -5.583  -9.918  1.00  0.00     0.293 HD
ENDBRANCH   8  24
TORSDOF 5
ENDMDL
