MODEL 1
REMARK VINA RESULT:    -3.282      0.000      0.000
REMARK INTER + INTRA:          -5.410
REMARK INTER:                  -4.817
REMARK INTRA:                  -0.593
REMARK UNBOUND:                -0.593
REMARK SMILES O=C([O-])CCCCCCCC(=O)[O-]
REMARK SMILES IDX 7 1 6 2 5 3 4 4 2 5 1 6 3 7 8 8 9 9 10 10 11 11 12 12 13 13
REMARK H PARENT
REMARK Flexibility Score: inf
ROOT
ATOM      1  C   UNL     1      23.373   7.352  27.871  1.00  0.00     0.000 C 
ENDROOT
BRANCH   1   2
ATOM      2  C   UNL     1      23.539   8.836  27.511  1.00  0.00     0.000 C 
BRANCH   2   3
ATOM      3  C   UNL     1      24.980   9.336  27.699  1.00  0.00     0.006 C 
BRANCH   3   4
ATOM      4  C   UNL     1      25.689   9.481  26.350  1.00  0.00     0.053 C 
BRANCH   4   5
ATOM      5  C   UNL     1      26.413   8.219  25.999  1.00  0.00     0.041 C 
ATOM      6  O   UNL     1      26.417   7.800  24.812  1.00  0.00    -0.550 OA
ATOM      7  O   UNL     1      27.126   7.532  26.974  1.00  0.00    -0.550 OA
ENDBRANCH   4   5
ENDBRANCH   3   4
ENDBRANCH   2   3
ENDBRANCH   1   2
BRANCH   1   8
ATOM      8  C   UNL     1      23.342   6.443  26.630  1.00  0.00     0.000 C 
BRANCH   8   9
ATOM      9  C   UNL     1      24.290   5.235  26.752  1.00  0.00     0.006 C 
BRANCH   9  10
ATOM     10  C   UNL     1      23.639   3.881  26.427  1.00  0.00     0.053 C 
BRANCH  10  11
ATOM     11  C   UNL     1      22.535   3.543  27.382  1.00  0.00     0.041 C 
ATOM     12  O   UNL     1      21.332   3.683  27.036  1.00  0.00    -0.550 OA
ATOM     13  O   UNL     1      22.836   3.105  28.666  1.00  0.00    -0.550 OA
ENDBRANCH  10  11
ENDBRANCH   9  10
ENDBRANCH   8   9
ENDBRANCH   1   8
TORSDOF 8
ENDMDL
MODEL 2
REMARK VINA RESULT:    -3.248      9.715     11.178
REMARK INTER + INTRA:          -5.361
REMARK INTER:                  -4.520
REMARK INTRA:                  -0.841
REMARK UNBOUND:                -0.593
REMARK SMILES O=C([O-])CCCCCCCC(=O)[O-]
REMARK SMILES IDX 7 1 6 2 5 3 4 4 2 5 1 6 3 7 8 8 9 9 10 10 11 11 12 12 13 13
REMARK H PARENT
REMARK Flexibility Score: inf
ROOT
ATOM      1  C   UNL     1      22.369   9.716  37.703  1.00  0.00     0.000 C 
ENDROOT
BRANCH   1   2
ATOM      2  C   UNL     1      20.853   9.746  37.455  1.00  0.00     0.000 C 
BRANCH   2   3
ATOM      3  C   UNL     1      20.496   9.760  35.961  1.00  0.00     0.006 C 
BRANCH   3   4
ATOM      4  C   UNL     1      21.111   8.557  35.241  1.00  0.00     0.053 C 
BRANCH   4   5
ATOM      5  C   UNL     1      20.054   7.555  34.896  1.00  0.00     0.041 C 
ATOM      6  O   UNL     1      20.342   6.545  34.201  1.00  0.00    -0.550 OA
ATOM      7  O   UNL     1      18.763   7.710  35.383  1.00  0.00    -0.550 OA
ENDBRANCH   4   5
ENDBRANCH   3   4
ENDBRANCH   2   3
ENDBRANCH   1   2
BRANCH   1   8
ATOM      8  C   UNL     1      22.744   8.945  38.981  1.00  0.00     0.000 C 
BRANCH   8   9
ATOM      9  C   UNL     1      21.600   8.049  39.493  1.00  0.00     0.006 C 
BRANCH   9  10
ATOM     10  C   UNL     1      21.862   6.541  39.350  1.00  0.00     0.053 C 
BRANCH  10  11
ATOM     11  C   UNL     1      21.320   5.995  38.065  1.00  0.00     0.041 C 
ATOM     12  O   UNL     1      20.091   5.741  37.952  1.00  0.00    -0.550 OA
ATOM     13  O   UNL     1      22.177   5.732  37.004  1.00  0.00    -0.550 OA
ENDBRANCH  10  11
ENDBRANCH   9  10
ENDBRANCH   8   9
ENDBRANCH   1   8
TORSDOF 8
ENDMDL
MODEL 3
REMARK VINA RESULT:    -3.245      1.951      5.334
REMARK INTER + INTRA:          -5.356
REMARK INTER:                  -4.733
REMARK INTRA:                  -0.622
REMARK UNBOUND:                -0.593
REMARK SMILES O=C([O-])CCCCCCCC(=O)[O-]
REMARK SMILES IDX 7 1 6 2 5 3 4 4 2 5 1 6 3 7 8 8 9 9 10 10 11 11 12 12 13 13
REMARK H PARENT
REMARK Flexibility Score: inf
ROOT
ATOM      1  C   UNL     1      26.011   6.124  26.981  1.00  0.00     0.000 C 
ENDROOT
BRANCH   1   2
ATOM      2  C   UNL     1      24.656   6.121  26.255  1.00  0.00     0.000 C 
BRANCH   2   3
ATOM      3  C   UNL     1      23.463   6.139  27.224  1.00  0.00     0.006 C 
BRANCH   3   4
ATOM      4  C   UNL     1      22.939   4.721  27.472  1.00  0.00     0.053 C 
BRANCH   4   5
ATOM      5  C   UNL     1      22.364   4.147  26.215  1.00  0.00     0.041 C 
ATOM      6  O   UNL     1      21.391   4.711  25.649  1.00  0.00    -0.550 OA
ATOM      7  O   UNL     1      22.935   3.018  25.641  1.00  0.00    -0.550 OA
ENDBRANCH   4   5
ENDBRANCH   3   4
ENDBRANCH   2   3
ENDBRANCH   1   2
BRANCH   1   8
ATOM      8  C   UNL     1      26.830   7.395  26.696  1.00  0.00     0.000 C 
BRANCH   8   9
ATOM      9  C   UNL     1      26.146   8.331  25.682  1.00  0.00     0.006 C 
BRANCH   9  10
ATOM     10  C   UNL     1      25.804   9.724  26.234  1.00  0.00     0.053 C 
BRANCH  10  11
ATOM     11  C   UNL     1      24.805   9.659  27.348  1.00  0.00     0.041 C 
ATOM     12  O   UNL     1      23.573   9.611  27.092  1.00  0.00    -0.550 OA
ATOM     13  O   UNL     1      25.233   9.686  28.669  1.00  0.00    -0.550 OA
ENDBRANCH  10  11
ENDBRANCH   9  10
ENDBRANCH   8   9
ENDBRANCH   1   8
TORSDOF 8
ENDMDL
MODEL 4
REMARK VINA RESULT:    -3.207      9.802     11.583
REMARK INTER + INTRA:          -5.301
REMARK INTER:                  -4.732
REMARK INTRA:                  -0.569
REMARK UNBOUND:                -0.593
REMARK SMILES O=C([O-])CCCCCCCC(=O)[O-]
REMARK SMILES IDX 7 1 6 2 5 3 4 4 2 5 1 6 3 7 8 8 9 9 10 10 11 11 12 12 13 13
REMARK H PARENT
REMARK Flexibility Score: inf
ROOT
ATOM      1  C   UNL     1      22.635   9.008  38.949  1.00  0.00     0.000 C 
ENDROOT
BRANCH   1   2
ATOM      2  C   UNL     1      21.592   7.929  39.284  1.00  0.00     0.000 C 
BRANCH   2   3
ATOM      3  C   UNL     1      22.121   6.504  39.062  1.00  0.00     0.006 C 
BRANCH   3   4
ATOM      4  C   UNL     1      21.728   5.985  37.675  1.00  0.00     0.053 C 
BRANCH   4   5
ATOM      5  C   UNL     1      21.909   4.501  37.599  1.00  0.00     0.041 C 
ATOM      6  O   UNL     1      22.659   4.000  36.721  1.00  0.00    -0.550 OA
ATOM      7  O   UNL     1      21.290   3.676  38.529  1.00  0.00    -0.550 OA
ENDBRANCH   4   5
ENDBRANCH   3   4
ENDBRANCH   2   3
ENDBRANCH   1   2
BRANCH   1   8
ATOM      8  C   UNL     1      22.333   9.730  37.625  1.00  0.00     0.000 C 
BRANCH   8   9
ATOM      9  C   UNL     1      20.845   9.661  37.234  1.00  0.00     0.006 C 
BRANCH   9  10
ATOM     10  C   UNL     1      20.587   9.623  35.719  1.00  0.00     0.053 C 
BRANCH  10  11
ATOM     11  C   UNL     1      19.958   8.334  35.287  1.00  0.00     0.041 C 
ATOM     12  O   UNL     1      18.792   8.041  35.660  1.00  0.00    -0.550 OA
ATOM     13  O   UNL     1      20.673   7.441  34.499  1.00  0.00    -0.550 OA
ENDBRANCH  10  11
ENDBRANCH   9  10
ENDBRANCH   8   9
ENDBRANCH   1   8
TORSDOF 8
ENDMDL
MODEL 5
REMARK VINA RESULT:    -3.146     10.645     12.383
REMARK INTER + INTRA:          -5.211
REMARK INTER:                  -4.424
REMARK INTRA:                  -0.787
REMARK UNBOUND:                -0.593
REMARK SMILES O=C([O-])CCCCCCCC(=O)[O-]
REMARK SMILES IDX 7 1 6 2 5 3 4 4 2 5 1 6 3 7 8 8 9 9 10 10 11 11 12 12 13 13
REMARK H PARENT
REMARK Flexibility Score: inf
ROOT
ATOM      1  C   UNL     1      20.152   8.421  39.718  1.00  0.00     0.000 C 
ENDROOT
BRANCH   1   2
ATOM      2  C   UNL     1      19.801   6.943  39.949  1.00  0.00     0.000 C 
BRANCH   2   3
ATOM      3  C   UNL     1      21.036   6.028  39.924  1.00  0.00     0.006 C 
BRANCH   3   4
ATOM      4  C   UNL     1      21.991   6.430  38.796  1.00  0.00     0.053 C 
BRANCH   4   5
ATOM      5  C   UNL     1      21.669   5.679  37.543  1.00  0.00     0.041 C 
ATOM      6  O   UNL     1      21.115   4.550  37.606  1.00  0.00    -0.550 OA
ATOM      7  O   UNL     1      21.934   6.247  36.303  1.00  0.00    -0.550 OA
ENDBRANCH   4   5
ENDBRANCH   3   4
ENDBRANCH   2   3
ENDBRANCH   1   2
BRANCH   1   8
ATOM      8  C   UNL     1      19.228   9.093  38.687  1.00  0.00     0.000 C 
BRANCH   8   9
ATOM      9  C   UNL     1      19.740   8.946  37.242  1.00  0.00     0.006 C 
BRANCH   9  10
ATOM     10  C   UNL     1      20.624  10.107  36.760  1.00  0.00     0.053 C 
BRANCH  10  11
ATOM     11  C   UNL     1      22.074   9.734  36.725  1.00  0.00     0.041 C 
ATOM     12  O   UNL     1      22.761   9.761  37.780  1.00  0.00    -0.550 OA
ATOM     13  O   UNL     1      22.675   9.391  35.521  1.00  0.00    -0.550 OA
ENDBRANCH  10  11
ENDBRANCH   9  10
ENDBRANCH   8   9
ENDBRANCH   1   8
TORSDOF 8
ENDMDL
MODEL 6
REMARK VINA RESULT:    -3.130     10.640     11.999
REMARK INTER + INTRA:          -5.188
REMARK INTER:                  -4.571
REMARK INTRA:                  -0.617
REMARK UNBOUND:                -0.593
REMARK SMILES O=C([O-])CCCCCCCC(=O)[O-]
REMARK SMILES IDX 7 1 6 2 5 3 4 4 2 5 1 6 3 7 8 8 9 9 10 10 11 11 12 12 13 13
REMARK H PARENT
REMARK Flexibility Score: inf
ROOT
ATOM      1  C   UNL     1      22.742   9.417  38.391  1.00  0.00     0.000 C 
ENDROOT
BRANCH   1   2
ATOM      2  C   UNL     1      21.839   9.832  37.218  1.00  0.00     0.000 C 
BRANCH   2   3
ATOM      3  C   UNL     1      22.240   9.163  35.895  1.00  0.00     0.006 C 
BRANCH   3   4
ATOM      4  C   UNL     1      21.028   8.514  35.221  1.00  0.00     0.053 C 
BRANCH   4   5
ATOM      5  C   UNL     1      21.318   7.086  34.881  1.00  0.00     0.041 C 
ATOM      6  O   UNL     1      21.267   6.696  33.684  1.00  0.00    -0.550 OA
ATOM      7  O   UNL     1      21.694   6.195  35.878  1.00  0.00    -0.550 OA
ENDBRANCH   4   5
ENDBRANCH   3   4
ENDBRANCH   2   3
ENDBRANCH   1   2
BRANCH   1   8
ATOM      8  C   UNL     1      21.941   8.885  39.593  1.00  0.00     0.000 C 
BRANCH   8   9
ATOM      9  C   UNL     1      20.962   7.761  39.206  1.00  0.00     0.006 C 
BRANCH   9  10
ATOM     10  C   UNL     1      19.613   7.812  39.940  1.00  0.00     0.053 C 
BRANCH  10  11
ATOM     11  C   UNL     1      18.972   9.163  39.847  1.00  0.00     0.041 C 
ATOM     12  O   UNL     1      18.739   9.828  40.892  1.00  0.00    -0.550 OA
ATOM     13  O   UNL     1      18.601   9.673  38.610  1.00  0.00    -0.550 OA
ENDBRANCH  10  11
ENDBRANCH   9  10
ENDBRANCH   8   9
ENDBRANCH   1   8
TORSDOF 8
ENDMDL
MODEL 7
REMARK VINA RESULT:    -3.113      8.715     10.331
REMARK INTER + INTRA:          -5.163
REMARK INTER:                  -4.509
REMARK INTRA:                  -0.654
REMARK UNBOUND:                -0.593
REMARK SMILES O=C([O-])CCCCCCCC(=O)[O-]
REMARK SMILES IDX 7 1 6 2 5 3 4 4 2 5 1 6 3 7 8 8 9 9 10 10 11 11 12 12 13 13
REMARK H PARENT
REMARK Flexibility Score: inf
ROOT
ATOM      1  C   UNL     1      20.408   9.255  35.270  1.00  0.00     0.000 C 
ENDROOT
BRANCH   1   2
ATOM      2  C   UNL     1      19.394   8.125  35.509  1.00  0.00     0.000 C 
BRANCH   2   3
ATOM      3  C   UNL     1      19.751   6.837  34.751  1.00  0.00     0.006 C 
BRANCH   3   4
ATOM      4  C   UNL     1      21.194   6.886  34.241  1.00  0.00     0.053 C 
BRANCH   4   5
ATOM      5  C   UNL     1      21.317   6.151  32.943  1.00  0.00     0.041 C 
ATOM      6  O   UNL     1      20.394   5.386  32.559  1.00  0.00    -0.550 OA
ATOM      7  O   UNL     1      22.428   6.349  32.134  1.00  0.00    -0.550 OA
ENDBRANCH   4   5
ENDBRANCH   3   4
ENDBRANCH   2   3
ENDBRANCH   1   2
BRANCH   1   8
ATOM      8  C   UNL     1      20.627  10.125  36.521  1.00  0.00     0.000 C 
BRANCH   8   9
ATOM      9  C   UNL     1      20.518   9.323  37.831  1.00  0.00     0.006 C 
BRANCH   9  10
ATOM     10  C   UNL     1      21.853   8.763  38.347  1.00  0.00     0.053 C 
BRANCH  10  11
ATOM     11  C   UNL     1      21.815   7.274  38.504  1.00  0.00     0.041 C 
ATOM     12  O   UNL     1      22.052   6.526  37.518  1.00  0.00    -0.550 OA
ATOM     13  O   UNL     1      21.485   6.711  39.731  1.00  0.00    -0.550 OA
ENDBRANCH  10  11
ENDBRANCH   9  10
ENDBRANCH   8   9
ENDBRANCH   1   8
TORSDOF 8
ENDMDL
MODEL 8
REMARK VINA RESULT:    -3.088      1.581      2.032
REMARK INTER + INTRA:          -5.125
REMARK INTER:                  -4.631
REMARK INTRA:                  -0.494
REMARK UNBOUND:                -0.593
REMARK SMILES O=C([O-])CCCCCCCC(=O)[O-]
REMARK SMILES IDX 7 1 6 2 5 3 4 4 2 5 1 6 3 7 8 8 9 9 10 10 11 11 12 12 13 13
REMARK H PARENT
REMARK Flexibility Score: inf
ROOT
ATOM      1  C   UNL     1      23.408   7.115  27.942  1.00  0.00     0.000 C 
ENDROOT
BRANCH   1   2
ATOM      2  C   UNL     1      23.489   8.599  27.551  1.00  0.00     0.000 C 
BRANCH   2   3
ATOM      3  C   UNL     1      24.912   9.167  27.670  1.00  0.00     0.006 C 
BRANCH   3   4
ATOM      4  C   UNL     1      25.799   8.663  26.528  1.00  0.00     0.053 C 
BRANCH   4   5
ATOM      5  C   UNL     1      26.825   7.703  27.044  1.00  0.00     0.041 C 
ATOM      6  O   UNL     1      26.819   7.362  28.256  1.00  0.00    -0.550 OA
ATOM      7  O   UNL     1      27.756   7.147  26.176  1.00  0.00    -0.550 OA
ENDBRANCH   4   5
ENDBRANCH   3   4
ENDBRANCH   2   3
ENDBRANCH   1   2
BRANCH   1   8
ATOM      8  C   UNL     1      22.929   6.224  26.782  1.00  0.00     0.000 C 
BRANCH   8   9
ATOM      9  C   UNL     1      24.082   5.469  26.095  1.00  0.00     0.006 C 
BRANCH   9  10
ATOM     10  C   UNL     1      24.253   4.013  26.558  1.00  0.00     0.053 C 
BRANCH  10  11
ATOM     11  C   UNL     1      23.845   3.034  25.499  1.00  0.00     0.041 C 
ATOM     12  O   UNL     1      24.652   2.148  25.111  1.00  0.00    -0.550 OA
ATOM     13  O   UNL     1      22.587   3.123  24.918  1.00  0.00    -0.550 OA
ENDBRANCH  10  11
ENDBRANCH   9  10
ENDBRANCH   8   9
ENDBRANCH   1   8
TORSDOF 8
ENDMDL
MODEL 9
REMARK VINA RESULT:    -3.078      1.870      5.700
REMARK INTER + INTRA:          -5.111
REMARK INTER:                  -4.616
REMARK INTRA:                  -0.495
REMARK UNBOUND:                -0.593
REMARK SMILES O=C([O-])CCCCCCCC(=O)[O-]
REMARK SMILES IDX 7 1 6 2 5 3 4 4 2 5 1 6 3 7 8 8 9 9 10 10 11 11 12 12 13 13
REMARK H PARENT
REMARK Flexibility Score: inf
ROOT
ATOM      1  C   UNL     1      24.697   6.720  25.454  1.00  0.00     0.000 C 
ENDROOT
BRANCH   1   2
ATOM      2  C   UNL     1      24.737   6.022  26.823  1.00  0.00     0.000 C 
BRANCH   2   3
ATOM      3  C   UNL     1      23.337   5.674  27.352  1.00  0.00     0.006 C 
BRANCH   3   4
ATOM      4  C   UNL     1      22.974   4.222  27.026  1.00  0.00     0.053 C 
BRANCH   4   5
ATOM      5  C   UNL     1      22.121   3.639  28.108  1.00  0.00     0.041 C 
ATOM      6  O   UNL     1      22.647   2.986  29.047  1.00  0.00    -0.550 OA
ATOM      7  O   UNL     1      20.749   3.858  28.106  1.00  0.00    -0.550 OA
ENDBRANCH   4   5
ENDBRANCH   3   4
ENDBRANCH   2   3
ENDBRANCH   1   2
BRANCH   1   8
ATOM      8  C   UNL     1      25.931   7.607  25.208  1.00  0.00     0.000 C 
BRANCH   8   9
ATOM      9  C   UNL     1      26.269   8.506  26.412  1.00  0.00     0.006 C 
BRANCH   9  10
ATOM     10  C   UNL     1      25.365   9.741  26.556  1.00  0.00     0.053 C 
BRANCH  10  11
ATOM     11  C   UNL     1      24.476   9.650  27.759  1.00  0.00     0.041 C 
ATOM     12  O   UNL     1      24.973   9.650  28.916  1.00  0.00    -0.550 OA
ATOM     13  O   UNL     1      23.101   9.530  27.600  1.00  0.00    -0.550 OA
ENDBRANCH  10  11
ENDBRANCH   9  10
ENDBRANCH   8   9
ENDBRANCH   1   8
TORSDOF 8
ENDMDL
