MODEL 1
REMARK VINA RESULT:    -8.457      0.000      0.000
REMARK INTER + INTRA:          -9.434
REMARK INTER:                  -9.198
REMARK INTRA:                  -0.236
REMARK UNBOUND:                -0.236
REMARK SMILES C[C@H]1[C@@H](C)CC[C@@]2(C(=O)[O-])CC[C@]3(C)C(=CC[C@H]4[C@]5(C)CC[C@@H](O)C(C)(C)[C@H]5CC[C@@]43C)[C@@H]12
REMARK SMILES IDX 7 1 6 2 11 3 33 4 5 5 12 6 15 7 2 8 3 9 13 10 16 11 1 12
REMARK SMILES IDX 4 13 14 14 31 15 17 16 18 17 30 18 32 19 19 20 29 21 28 22
REMARK SMILES IDX 21 23 20 24 25 25 22 26 23 27 26 28 27 29 8 30 9 31 10 32
REMARK SMILES IDX 24 33
REMARK H PARENT 24 34
REMARK Flexibility Score: inf
ROOT
ATOM      1  C   UNL     1      25.691   6.353 -11.061  1.00  0.00     0.017 C 
ATOM      2  C   UNL     1      25.673   7.852 -10.604  1.00  0.00     0.014 C 
ATOM      3  C   UNL     1      25.954   6.352 -12.609  1.00  0.00     0.014 C 
ATOM      4  C   UNL     1      26.751   5.494 -10.231  1.00  0.00     0.030 C 
ATOM      5  C   UNL     1      25.785   8.129  -9.097  1.00  0.00     0.004 C 
ATOM      6  C   UNL     1      27.383   5.965 -13.005  1.00  0.00     0.013 C 
ATOM      7  C   UNL     1      27.585   4.463 -11.014  1.00  0.00    -0.063 C 
ATOM      8  C   UNL     1      27.640   6.318  -9.244  1.00  0.00    -0.003 C 
ATOM      9  C   UNL     1      26.739   7.184  -8.334  1.00  0.00    -0.011 C 
ATOM     10  C   UNL     1      27.793   4.539 -12.534  1.00  0.00    -0.006 C 
ATOM     11  C   UNL     1      28.109   3.409 -10.344  1.00  0.00    -0.027 C 
ATOM     12  C   UNL     1      28.798   7.098  -9.903  1.00  0.00     0.008 C 
ATOM     13  C   UNL     1      27.529   7.943  -7.254  1.00  0.00     0.008 C 
ATOM     14  C   UNL     1      26.735   3.527 -13.105  1.00  0.00     0.017 C 
ATOM     15  C   UNL     1      29.336   4.150 -12.980  1.00  0.00    -0.020 C 
ATOM     16  C   UNL     1      29.207   2.577 -10.958  1.00  0.00     0.032 C 
ATOM     17  C   UNL     1      30.119   3.549 -11.736  1.00  0.00     0.006 C 
ATOM     18  C   UNL     1      30.190   5.377 -13.454  1.00  0.00     0.008 C 
ATOM     19  C   UNL     1      29.285   3.174 -14.202  1.00  0.00     0.012 C 
ATOM     20  C   UNL     1      31.638   3.142 -11.941  1.00  0.00    -0.025 C 
ATOM     21  C   UNL     1      31.686   5.063 -13.710  1.00  0.00     0.005 C 
ATOM     22  C   UNL     1      32.379   4.439 -12.469  1.00  0.00     0.003 C 
ATOM     23  C   UNL     1      32.273   2.776 -10.557  1.00  0.00     0.010 C 
ATOM     24  C   UNL     1      31.762   1.901 -12.875  1.00  0.00     0.012 C 
ATOM     25  C   UNL     1      33.956   4.358 -12.537  1.00  0.00    -0.006 C 
ATOM     26  C   UNL     1      33.808   2.664 -10.578  1.00  0.00     0.033 C 
ATOM     27  C   UNL     1      34.483   3.934 -11.127  1.00  0.00     0.120 C 
ATOM     28  C   UNL     1      34.545   5.763 -12.841  1.00  0.00     0.014 C 
ATOM     29  C   UNL     1      34.473   3.403 -13.643  1.00  0.00     0.014 C 
ENDROOT
BRANCH   1  30
ATOM     30  C   UNL     1      24.293   5.758 -10.856  1.00  0.00     0.048 C 
ATOM     31  O   UNL     1      23.378   5.994 -11.686  1.00  0.00    -0.550 OA
ATOM     32  O   UNL     1      23.976   5.027  -9.714  1.00  0.00    -0.550 OA
ENDBRANCH   1  30
BRANCH  27  33
ATOM     33  O   UNL     1      35.886   3.806 -11.107  1.00  0.00    -0.393 OA
ATOM     34  H   UNL     1      36.226   3.936 -12.029  1.00  0.00     0.210 HD
ENDBRANCH  27  33
TORSDOF 2
ENDMDL
MODEL 2
REMARK VINA RESULT:    -8.435      3.814      6.737
REMARK INTER + INTRA:          -9.411
REMARK INTER:                  -9.178
REMARK INTRA:                  -0.232
REMARK UNBOUND:                -0.236
REMARK SMILES C[C@H]1[C@@H](C)CC[C@@]2(C(=O)[O-])CC[C@]3(C)C(=CC[C@H]4[C@]5(C)CC[C@@H](O)C(C)(C)[C@H]5CC[C@@]43C)[C@@H]12
REMARK SMILES IDX 7 1 6 2 11 3 33 4 5 5 12 6 15 7 2 8 3 9 13 10 16 11 1 12
REMARK SMILES IDX 4 13 14 14 31 15 17 16 18 17 30 18 32 19 19 20 29 21 28 22
REMARK SMILES IDX 21 23 20 24 25 25 22 26 23 27 26 28 27 29 8 30 9 31 10 32
REMARK SMILES IDX 24 33
REMARK H PARENT 24 34
REMARK Flexibility Score: inf
ROOT
ATOM      1  C   UNL     1      27.096   4.643 -10.457  1.00  0.00     0.017 C 
ATOM      2  C   UNL     1      25.963   4.966  -9.424  1.00  0.00     0.014 C 
ATOM      3  C   UNL     1      26.430   3.827 -11.622  1.00  0.00     0.014 C 
ATOM      4  C   UNL     1      27.845   5.965 -10.947  1.00  0.00     0.030 C 
ATOM      5  C   UNL     1      26.260   6.045  -8.371  1.00  0.00     0.004 C 
ATOM      6  C   UNL     1      26.191   4.637 -12.900  1.00  0.00     0.013 C 
ATOM      7  C   UNL     1      28.200   6.056 -12.443  1.00  0.00    -0.063 C 
ATOM      8  C   UNL     1      27.232   7.304 -10.423  1.00  0.00    -0.003 C 
ATOM      9  C   UNL     1      27.090   7.241  -8.884  1.00  0.00    -0.011 C 
ATOM     10  C   UNL     1      27.494   5.219 -13.521  1.00  0.00    -0.006 C 
ATOM     11  C   UNL     1      29.220   6.864 -12.820  1.00  0.00    -0.027 C 
ATOM     12  C   UNL     1      25.952   7.767 -11.151  1.00  0.00     0.008 C 
ATOM     13  C   UNL     1      26.600   8.564  -8.272  1.00  0.00     0.008 C 
ATOM     14  C   UNL     1      28.480   4.021 -13.766  1.00  0.00     0.017 C 
ATOM     15  C   UNL     1      27.202   6.083 -14.899  1.00  0.00    -0.020 C 
ATOM     16  C   UNL     1      29.386   7.270 -14.263  1.00  0.00     0.032 C 
ATOM     17  C   UNL     1      27.966   7.474 -14.833  1.00  0.00     0.006 C 
ATOM     18  C   UNL     1      25.692   6.448 -15.114  1.00  0.00     0.008 C 
ATOM     19  C   UNL     1      27.608   5.219 -16.140  1.00  0.00     0.012 C 
ATOM     20  C   UNL     1      27.789   8.477 -16.049  1.00  0.00    -0.025 C 
ATOM     21  C   UNL     1      25.421   7.403 -16.305  1.00  0.00     0.005 C 
ATOM     22  C   UNL     1      26.231   8.723 -16.199  1.00  0.00     0.003 C 
ATOM     23  C   UNL     1      28.444   9.853 -15.691  1.00  0.00     0.010 C 
ATOM     24  C   UNL     1      28.483   7.927 -17.331  1.00  0.00     0.012 C 
ATOM     25  C   UNL     1      25.803   9.868 -17.202  1.00  0.00    -0.006 C 
ATOM     26  C   UNL     1      28.074  10.996 -16.654  1.00  0.00     0.033 C 
ATOM     27  C   UNL     1      26.552  11.178 -16.792  1.00  0.00     0.120 C 
ATOM     28  C   UNL     1      24.281  10.149 -17.064  1.00  0.00     0.014 C 
ATOM     29  C   UNL     1      26.064   9.509 -18.688  1.00  0.00     0.014 C 
ENDROOT
BRANCH   1  30
ATOM     30  C   UNL     1      28.114   3.706  -9.795  1.00  0.00     0.048 C 
ATOM     31  O   UNL     1      29.332   3.776 -10.105  1.00  0.00    -0.550 OA
ATOM     32  O   UNL     1      27.713   2.705  -8.914  1.00  0.00    -0.550 OA
ENDBRANCH   1  30
BRANCH  27  33
ATOM     33  O   UNL     1      26.250  12.248 -17.659  1.00  0.00    -0.393 OA
ATOM     34  H   UNL     1      26.595  13.085 -17.258  1.00  0.00     0.210 HD
ENDBRANCH  27  33
TORSDOF 2
ENDMDL
MODEL 3
REMARK VINA RESULT:    -8.282      3.663      7.344
REMARK INTER + INTRA:          -9.244
REMARK INTER:                  -9.024
REMARK INTRA:                  -0.220
REMARK UNBOUND:                -0.236
REMARK SMILES C[C@H]1[C@@H](C)CC[C@@]2(C(=O)[O-])CC[C@]3(C)C(=CC[C@H]4[C@]5(C)CC[C@@H](O)C(C)(C)[C@H]5CC[C@@]43C)[C@@H]12
REMARK SMILES IDX 7 1 6 2 11 3 33 4 5 5 12 6 15 7 2 8 3 9 13 10 16 11 1 12
REMARK SMILES IDX 4 13 14 14 31 15 17 16 18 17 30 18 32 19 19 20 29 21 28 22
REMARK SMILES IDX 21 23 20 24 25 25 22 26 23 27 26 28 27 29 8 30 9 31 10 32
REMARK SMILES IDX 24 33
REMARK H PARENT 24 34
REMARK Flexibility Score: inf
ROOT
ATOM      1  C   UNL     1      29.170   5.344 -10.804  1.00  0.00     0.017 C 
ATOM      2  C   UNL     1      28.275   4.874  -9.606  1.00  0.00     0.014 C 
ATOM      3  C   UNL     1      29.484   4.068 -11.665  1.00  0.00     0.014 C 
ATOM      4  C   UNL     1      28.479   6.522 -11.633  1.00  0.00     0.030 C 
ATOM      5  C   UNL     1      27.538   5.963  -8.812  1.00  0.00     0.004 C 
ATOM      6  C   UNL     1      28.677   3.971 -12.963  1.00  0.00     0.013 C 
ATOM      7  C   UNL     1      28.600   6.463 -13.167  1.00  0.00    -0.063 C 
ATOM      8  C   UNL     1      27.024   6.877 -11.187  1.00  0.00    -0.003 C 
ATOM      9  C   UNL     1      26.997   7.133  -9.662  1.00  0.00    -0.011 C 
ATOM     10  C   UNL     1      28.909   5.167 -13.931  1.00  0.00    -0.006 C 
ATOM     11  C   UNL     1      28.488   7.615 -13.871  1.00  0.00    -0.027 C 
ATOM     12  C   UNL     1      25.933   5.901 -11.677  1.00  0.00     0.008 C 
ATOM     13  C   UNL     1      25.623   7.602  -9.156  1.00  0.00     0.008 C 
ATOM     14  C   UNL     1      30.453   5.260 -14.210  1.00  0.00     0.017 C 
ATOM     15  C   UNL     1      28.029   5.029 -15.323  1.00  0.00    -0.020 C 
ATOM     16  C   UNL     1      28.241   7.586 -15.358  1.00  0.00     0.032 C 
ATOM     17  C   UNL     1      27.289   6.401 -15.628  1.00  0.00     0.006 C 
ATOM     18  C   UNL     1      26.892   3.951 -15.253  1.00  0.00     0.008 C 
ATOM     19  C   UNL     1      28.974   4.571 -16.484  1.00  0.00     0.012 C 
ATOM     20  C   UNL     1      26.355   6.472 -16.908  1.00  0.00    -0.025 C 
ATOM     21  C   UNL     1      25.947   3.928 -16.481  1.00  0.00     0.005 C 
ATOM     22  C   UNL     1      25.291   5.309 -16.748  1.00  0.00     0.003 C 
ATOM     23  C   UNL     1      25.568   7.826 -16.906  1.00  0.00     0.010 C 
ATOM     24  C   UNL     1      27.198   6.403 -18.217  1.00  0.00     0.012 C 
ATOM     25  C   UNL     1      24.101   5.310 -17.789  1.00  0.00    -0.006 C 
ATOM     26  C   UNL     1      24.411   7.883 -17.920  1.00  0.00     0.033 C 
ATOM     27  C   UNL     1      23.420   6.718 -17.747  1.00  0.00     0.120 C 
ATOM     28  C   UNL     1      23.027   4.271 -17.364  1.00  0.00     0.014 C 
ATOM     29  C   UNL     1      24.545   4.940 -19.227  1.00  0.00     0.014 C 
ENDROOT
BRANCH   1  30
ATOM     30  C   UNL     1      30.512   5.840 -10.253  1.00  0.00     0.048 C 
ATOM     31  O   UNL     1      30.638   7.034  -9.877  1.00  0.00    -0.550 OA
ATOM     32  O   UNL     1      31.638   5.019 -10.238  1.00  0.00    -0.550 OA
ENDBRANCH   1  30
BRANCH  27  33
ATOM     33  O   UNL     1      22.362   6.816 -18.673  1.00  0.00    -0.393 OA
ATOM     34  H   UNL     1      21.765   6.034 -18.553  1.00  0.00     0.210 HD
ENDBRANCH  27  33
TORSDOF 2
ENDMDL
MODEL 4
REMARK VINA RESULT:    -8.145      4.532      7.335
REMARK INTER + INTRA:          -9.095
REMARK INTER:                  -8.856
REMARK INTRA:                  -0.240
REMARK UNBOUND:                -0.236
REMARK SMILES C[C@H]1[C@@H](C)CC[C@@]2(C(=O)[O-])CC[C@]3(C)C(=CC[C@H]4[C@]5(C)CC[C@@H](O)C(C)(C)[C@H]5CC[C@@]43C)[C@@H]12
REMARK SMILES IDX 7 1 6 2 11 3 33 4 5 5 12 6 15 7 2 8 3 9 13 10 16 11 1 12
REMARK SMILES IDX 4 13 14 14 31 15 17 16 18 17 30 18 32 19 19 20 29 21 28 22
REMARK SMILES IDX 21 23 20 24 25 25 22 26 23 27 26 28 27 29 8 30 9 31 10 32
REMARK SMILES IDX 24 33
REMARK H PARENT 24 34
REMARK Flexibility Score: inf
ROOT
ATOM      1  C   UNL     1      27.964   9.274 -17.940  1.00  0.00     0.017 C 
ATOM      2  C   UNL     1      28.346  10.786 -17.780  1.00  0.00     0.014 C 
ATOM      3  C   UNL     1      29.260   8.443 -17.630  1.00  0.00     0.014 C 
ATOM      4  C   UNL     1      26.716   8.879 -17.025  1.00  0.00     0.030 C 
ATOM      5  C   UNL     1      27.191  11.795 -17.682  1.00  0.00     0.004 C 
ATOM      6  C   UNL     1      29.265   7.776 -16.251  1.00  0.00     0.013 C 
ATOM      7  C   UNL     1      26.777   7.519 -16.306  1.00  0.00    -0.063 C 
ATOM      8  C   UNL     1      26.213  10.009 -16.070  1.00  0.00    -0.003 C 
ATOM      9  C   UNL     1      25.966  11.302 -16.882  1.00  0.00    -0.011 C 
ATOM     10  C   UNL     1      28.093   6.773 -16.041  1.00  0.00    -0.006 C 
ATOM     11  C   UNL     1      25.615   6.924 -15.943  1.00  0.00    -0.027 C 
ATOM     12  C   UNL     1      27.067  10.221 -14.801  1.00  0.00     0.008 C 
ATOM     13  C   UNL     1      25.359  12.435 -16.036  1.00  0.00     0.008 C 
ATOM     14  C   UNL     1      28.160   5.715 -17.202  1.00  0.00     0.017 C 
ATOM     15  C   UNL     1      28.130   6.067 -14.547  1.00  0.00    -0.020 C 
ATOM     16  C   UNL     1      25.609   5.797 -14.942  1.00  0.00     0.032 C 
ATOM     17  C   UNL     1      26.686   6.132 -13.888  1.00  0.00     0.006 C 
ATOM     18  C   UNL     1      29.084   6.782 -13.528  1.00  0.00     0.008 C 
ATOM     19  C   UNL     1      28.676   4.607 -14.684  1.00  0.00     0.012 C 
ATOM     20  C   UNL     1      26.510   5.539 -12.428  1.00  0.00    -0.025 C 
ATOM     21  C   UNL     1      29.000   6.244 -12.078  1.00  0.00     0.005 C 
ATOM     22  C   UNL     1      27.557   6.296 -11.511  1.00  0.00     0.003 C 
ATOM     23  C   UNL     1      25.081   5.889 -11.890  1.00  0.00     0.010 C 
ATOM     24  C   UNL     1      26.658   3.988 -12.435  1.00  0.00     0.012 C 
ATOM     25  C   UNL     1      27.425   6.045  -9.955  1.00  0.00    -0.006 C 
ATOM     26  C   UNL     1      24.898   5.641 -10.382  1.00  0.00     0.033 C 
ATOM     27  C   UNL     1      25.955   6.370  -9.533  1.00  0.00     0.120 C 
ATOM     28  C   UNL     1      28.350   7.025  -9.182  1.00  0.00     0.014 C 
ATOM     29  C   UNL     1      27.830   4.610  -9.530  1.00  0.00     0.014 C 
ENDROOT
BRANCH   1  30
ATOM     30  C   UNL     1      27.615   9.006 -19.409  1.00  0.00     0.048 C 
ATOM     31  O   UNL     1      26.419   8.813 -19.748  1.00  0.00    -0.550 OA
ATOM     32  O   UNL     1      28.606   8.878 -20.378  1.00  0.00    -0.550 OA
ENDBRANCH   1  30
BRANCH  27  33
ATOM     33  O   UNL     1      25.741   6.141  -8.159  1.00  0.00    -0.393 OA
ATOM     34  H   UNL     1      24.765   6.147  -7.987  1.00  0.00     0.210 HD
ENDBRANCH  27  33
TORSDOF 2
ENDMDL
MODEL 5
REMARK VINA RESULT:    -8.101      8.285     10.742
REMARK INTER + INTRA:          -9.048
REMARK INTER:                  -8.810
REMARK INTRA:                  -0.237
REMARK UNBOUND:                -0.236
REMARK SMILES C[C@H]1[C@@H](C)CC[C@@]2(C(=O)[O-])CC[C@]3(C)C(=CC[C@H]4[C@]5(C)CC[C@@H](O)C(C)(C)[C@H]5CC[C@@]43C)[C@@H]12
REMARK SMILES IDX 7 1 6 2 11 3 33 4 5 5 12 6 15 7 2 8 3 9 13 10 16 11 1 12
REMARK SMILES IDX 4 13 14 14 31 15 17 16 18 17 30 18 32 19 19 20 29 21 28 22
REMARK SMILES IDX 21 23 20 24 25 25 22 26 23 27 26 28 27 29 8 30 9 31 10 32
REMARK SMILES IDX 24 33
REMARK H PARENT 24 34
REMARK Flexibility Score: inf
ROOT
ATOM      1  C   UNL     1      25.414   5.374 -16.938  1.00  0.00     0.017 C 
ATOM      2  C   UNL     1      24.201   4.384 -17.013  1.00  0.00     0.014 C 
ATOM      3  C   UNL     1      26.709   4.526 -17.205  1.00  0.00     0.014 C 
ATOM      4  C   UNL     1      25.237   6.605 -17.939  1.00  0.00     0.030 C 
ATOM      5  C   UNL     1      22.799   5.001 -17.137  1.00  0.00     0.004 C 
ATOM      6  C   UNL     1      27.299   4.704 -18.608  1.00  0.00     0.013 C 
ATOM      7  C   UNL     1      26.487   7.068 -18.709  1.00  0.00    -0.063 C 
ATOM      8  C   UNL     1      23.988   6.520 -18.875  1.00  0.00    -0.003 C 
ATOM      9  C   UNL     1      22.721   6.260 -18.026  1.00  0.00    -0.011 C 
ATOM     10  C   UNL     1      27.714   6.170 -18.927  1.00  0.00    -0.006 C 
ATOM     11  C   UNL     1      26.533   8.343 -19.164  1.00  0.00    -0.027 C 
ATOM     12  C   UNL     1      24.138   5.569 -20.082  1.00  0.00     0.008 C 
ATOM     13  C   UNL     1      21.428   6.275 -18.859  1.00  0.00     0.008 C 
ATOM     14  C   UNL     1      28.717   6.634 -17.809  1.00  0.00     0.017 C 
ATOM     15  C   UNL     1      28.350   6.327 -20.443  1.00  0.00    -0.020 C 
ATOM     16  C   UNL     1      27.541   8.750 -20.209  1.00  0.00     0.032 C 
ATOM     17  C   UNL     1      27.676   7.560 -21.183  1.00  0.00     0.006 C 
ATOM     18  C   UNL     1      28.090   5.092 -21.374  1.00  0.00     0.008 C 
ATOM     19  C   UNL     1      29.907   6.453 -20.336  1.00  0.00     0.012 C 
ATOM     20  C   UNL     1      28.122   7.865 -22.674  1.00  0.00    -0.025 C 
ATOM     21  C   UNL     1      28.525   5.291 -22.848  1.00  0.00     0.005 C 
ATOM     22  C   UNL     1      27.863   6.536 -23.497  1.00  0.00     0.003 C 
ATOM     23  C   UNL     1      27.197   8.974 -23.280  1.00  0.00     0.010 C 
ATOM     24  C   UNL     1      29.592   8.381 -22.723  1.00  0.00     0.012 C 
ATOM     25  C   UNL     1      28.016   6.651 -25.066  1.00  0.00    -0.006 C 
ATOM     26  C   UNL     1      27.326   9.138 -24.805  1.00  0.00     0.033 C 
ATOM     27  C   UNL     1      27.097   7.816 -25.560  1.00  0.00     0.120 C 
ATOM     28  C   UNL     1      27.506   5.349 -25.743  1.00  0.00     0.014 C 
ATOM     29  C   UNL     1      29.483   6.855 -25.525  1.00  0.00     0.014 C 
ENDROOT
BRANCH   1  30
ATOM     30  C   UNL     1      25.529   5.906 -15.504  1.00  0.00     0.048 C 
ATOM     31  O   UNL     1      25.624   7.143 -15.295  1.00  0.00    -0.550 OA
ATOM     32  O   UNL     1      25.624   5.043 -14.415  1.00  0.00    -0.550 OA
ENDBRANCH   1  30
BRANCH  27  33
ATOM     33  O   UNL     1      27.198   8.009 -26.953  1.00  0.00    -0.393 OA
ATOM     34  H   UNL     1      27.009   7.148 -27.404  1.00  0.00     0.210 HD
ENDBRANCH  27  33
TORSDOF 2
ENDMDL
MODEL 6
REMARK VINA RESULT:    -7.938      8.739     11.996
REMARK INTER + INTRA:          -8.870
REMARK INTER:                  -8.656
REMARK INTRA:                  -0.214
REMARK UNBOUND:                -0.236
REMARK SMILES C[C@H]1[C@@H](C)CC[C@@]2(C(=O)[O-])CC[C@]3(C)C(=CC[C@H]4[C@]5(C)CC[C@@H](O)C(C)(C)[C@H]5CC[C@@]43C)[C@@H]12
REMARK SMILES IDX 7 1 6 2 11 3 33 4 5 5 12 6 15 7 2 8 3 9 13 10 16 11 1 12
REMARK SMILES IDX 4 13 14 14 31 15 17 16 18 17 30 18 32 19 19 20 29 21 28 22
REMARK SMILES IDX 21 23 20 24 25 25 22 26 23 27 26 28 27 29 8 30 9 31 10 32
REMARK SMILES IDX 24 33
REMARK H PARENT 24 34
REMARK Flexibility Score: inf
ROOT
ATOM      1  C   UNL     1      29.564   6.088 -24.051  1.00  0.00     0.017 C 
ATOM      2  C   UNL     1      29.401   7.040 -25.285  1.00  0.00     0.014 C 
ATOM      3  C   UNL     1      30.821   6.589 -23.253  1.00  0.00     0.014 C 
ATOM      4  C   UNL     1      28.232   6.024 -23.173  1.00  0.00     0.030 C 
ATOM      5  C   UNL     1      28.060   6.996 -26.033  1.00  0.00     0.004 C 
ATOM      6  C   UNL     1      30.487   7.363 -21.974  1.00  0.00     0.013 C 
ATOM      7  C   UNL     1      28.401   6.023 -21.642  1.00  0.00    -0.063 C 
ATOM      8  C   UNL     1      27.098   7.001 -23.622  1.00  0.00    -0.003 C 
ATOM      9  C   UNL     1      26.820   6.814 -25.132  1.00  0.00    -0.011 C 
ATOM     10  C   UNL     1      29.668   6.534 -20.942  1.00  0.00    -0.006 C 
ATOM     11  C   UNL     1      27.414   5.491 -20.881  1.00  0.00    -0.027 C 
ATOM     12  C   UNL     1      27.297   8.473 -23.200  1.00  0.00     0.008 C 
ATOM     13  C   UNL     1      25.636   7.658 -25.633  1.00  0.00     0.008 C 
ATOM     14  C   UNL     1      30.479   5.223 -20.635  1.00  0.00     0.017 C 
ATOM     15  C   UNL     1      29.329   7.395 -19.573  1.00  0.00    -0.020 C 
ATOM     16  C   UNL     1      27.349   5.773 -19.401  1.00  0.00     0.032 C 
ATOM     17  C   UNL     1      27.791   7.240 -19.208  1.00  0.00     0.006 C 
ATOM     18  C   UNL     1      29.567   8.939 -19.716  1.00  0.00     0.008 C 
ATOM     19  C   UNL     1      30.282   6.926 -18.423  1.00  0.00     0.012 C 
ATOM     20  C   UNL     1      27.246   8.021 -17.941  1.00  0.00    -0.025 C 
ATOM     21  C   UNL     1      29.091   9.781 -18.505  1.00  0.00     0.005 C 
ATOM     22  C   UNL     1      27.592   9.549 -18.177  1.00  0.00     0.003 C 
ATOM     23  C   UNL     1      25.685   7.902 -17.884  1.00  0.00     0.010 C 
ATOM     24  C   UNL     1      27.826   7.423 -16.624  1.00  0.00     0.012 C 
ATOM     25  C   UNL     1      26.951  10.572 -17.156  1.00  0.00    -0.006 C 
ATOM     26  C   UNL     1      25.016   8.865 -16.887  1.00  0.00     0.033 C 
ATOM     27  C   UNL     1      25.405  10.333 -17.135  1.00  0.00     0.120 C 
ATOM     28  C   UNL     1      27.181  12.027 -17.651  1.00  0.00     0.014 C 
ATOM     29  C   UNL     1      27.556  10.477 -15.732  1.00  0.00     0.014 C 
ENDROOT
BRANCH   1  30
ATOM     30  C   UNL     1      29.900   4.679 -24.556  1.00  0.00     0.048 C 
ATOM     31  O   UNL     1      28.979   3.896 -24.903  1.00  0.00    -0.550 OA
ATOM     32  O   UNL     1      31.209   4.203 -24.557  1.00  0.00    -0.550 OA
ENDBRANCH   1  30
BRANCH  27  33
ATOM     33  O   UNL     1      24.755  11.187 -16.221  1.00  0.00    -0.393 OA
ATOM     34  H   UNL     1      25.252  12.044 -16.183  1.00  0.00     0.210 HD
ENDBRANCH  27  33
TORSDOF 2
ENDMDL
MODEL 7
REMARK VINA RESULT:    -7.832      4.169      7.258
REMARK INTER + INTRA:          -8.755
REMARK INTER:                  -8.515
REMARK INTRA:                  -0.240
REMARK UNBOUND:                -0.236
REMARK SMILES C[C@H]1[C@@H](C)CC[C@@]2(C(=O)[O-])CC[C@]3(C)C(=CC[C@H]4[C@]5(C)CC[C@@H](O)C(C)(C)[C@H]5CC[C@@]43C)[C@@H]12
REMARK SMILES IDX 7 1 6 2 11 3 33 4 5 5 12 6 15 7 2 8 3 9 13 10 16 11 1 12
REMARK SMILES IDX 4 13 14 14 31 15 17 16 18 17 30 18 32 19 19 20 29 21 28 22
REMARK SMILES IDX 21 23 20 24 25 25 22 26 23 27 26 28 27 29 8 30 9 31 10 32
REMARK SMILES IDX 24 33
REMARK H PARENT 24 34
REMARK Flexibility Score: inf
ROOT
ATOM      1  C   UNL     1      26.138   7.104 -18.167  1.00  0.00     0.017 C 
ATOM      2  C   UNL     1      24.608   7.107 -18.512  1.00  0.00     0.014 C 
ATOM      3  C   UNL     1      26.428   8.430 -17.378  1.00  0.00     0.014 C 
ATOM      4  C   UNL     1      26.564   5.783 -17.378  1.00  0.00     0.030 C 
ATOM      5  C   UNL     1      23.989   5.777 -18.969  1.00  0.00     0.004 C 
ATOM      6  C   UNL     1      26.603   8.238 -15.868  1.00  0.00     0.013 C 
ATOM      7  C   UNL     1      27.556   5.952 -16.213  1.00  0.00    -0.063 C 
ATOM      8  C   UNL     1      25.383   4.835 -16.991  1.00  0.00    -0.003 C 
ATOM      9  C   UNL     1      24.533   4.526 -18.246  1.00  0.00    -0.011 C 
ATOM     10  C   UNL     1      27.778   7.290 -15.493  1.00  0.00    -0.006 C 
ATOM     11  C   UNL     1      28.311   4.889 -15.845  1.00  0.00    -0.027 C 
ATOM     12  C   UNL     1      24.554   5.288 -15.770  1.00  0.00     0.008 C 
ATOM     13  C   UNL     1      23.414   3.507 -17.977  1.00  0.00     0.008 C 
ATOM     14  C   UNL     1      29.081   7.860 -16.163  1.00  0.00     0.017 C 
ATOM     15  C   UNL     1      27.942   7.108 -13.859  1.00  0.00    -0.020 C 
ATOM     16  C   UNL     1      29.023   4.876 -14.516  1.00  0.00     0.032 C 
ATOM     17  C   UNL     1      28.086   5.567 -13.502  1.00  0.00     0.006 C 
ATOM     18  C   UNL     1      26.707   7.611 -13.035  1.00  0.00     0.008 C 
ATOM     19  C   UNL     1      29.155   7.967 -13.367  1.00  0.00     0.012 C 
ATOM     20  C   UNL     1      28.219   5.168 -11.973  1.00  0.00    -0.025 C 
ATOM     21  C   UNL     1      26.766   7.291 -11.520  1.00  0.00     0.005 C 
ATOM     22  C   UNL     1      26.950   5.775 -11.243  1.00  0.00     0.003 C 
ATOM     23  C   UNL     1      28.137   3.611 -11.829  1.00  0.00     0.010 C 
ATOM     24  C   UNL     1      29.586   5.638 -11.391  1.00  0.00     0.012 C 
ATOM     25  C   UNL     1      26.731   5.323  -9.744  1.00  0.00    -0.006 C 
ATOM     26  C   UNL     1      27.944   3.121 -10.383  1.00  0.00     0.033 C 
ATOM     27  C   UNL     1      26.719   3.760  -9.704  1.00  0.00     0.120 C 
ATOM     28  C   UNL     1      25.339   5.803  -9.247  1.00  0.00     0.014 C 
ATOM     29  C   UNL     1      27.785   5.905  -8.768  1.00  0.00     0.014 C 
ENDROOT
BRANCH   1  30
ATOM     30  C   UNL     1      26.938   7.189 -19.473  1.00  0.00     0.048 C 
ATOM     31  O   UNL     1      27.525   6.171 -19.921  1.00  0.00    -0.550 OA
ATOM     32  O   UNL     1      27.110   8.399 -20.140  1.00  0.00    -0.550 OA
ENDBRANCH   1  30
BRANCH  27  33
ATOM     33  O   UNL     1      26.559   3.270  -8.392  1.00  0.00    -0.393 OA
ATOM     34  H   UNL     1      25.658   2.865  -8.315  1.00  0.00     0.210 HD
ENDBRANCH  27  33
TORSDOF 2
ENDMDL
MODEL 8
REMARK VINA RESULT:    -7.701      4.468      7.274
REMARK INTER + INTRA:          -8.612
REMARK INTER:                  -8.377
REMARK INTRA:                  -0.236
REMARK UNBOUND:                -0.236
REMARK SMILES C[C@H]1[C@@H](C)CC[C@@]2(C(=O)[O-])CC[C@]3(C)C(=CC[C@H]4[C@]5(C)CC[C@@H](O)C(C)(C)[C@H]5CC[C@@]43C)[C@@H]12
REMARK SMILES IDX 7 1 6 2 11 3 33 4 5 5 12 6 15 7 2 8 3 9 13 10 16 11 1 12
REMARK SMILES IDX 4 13 14 14 31 15 17 16 18 17 30 18 32 19 19 20 29 21 28 22
REMARK SMILES IDX 21 23 20 24 25 25 22 26 23 27 26 28 27 29 8 30 9 31 10 32
REMARK SMILES IDX 24 33
REMARK H PARENT 24 34
REMARK Flexibility Score: inf
ROOT
ATOM      1  C   UNL     1      28.249   7.038 -18.744  1.00  0.00     0.017 C 
ATOM      2  C   UNL     1      29.421   8.017 -19.101  1.00  0.00     0.014 C 
ATOM      3  C   UNL     1      28.905   5.655 -18.392  1.00  0.00     0.014 C 
ATOM      4  C   UNL     1      27.323   7.622 -17.582  1.00  0.00     0.030 C 
ATOM      5  C   UNL     1      29.093   9.517 -19.142  1.00  0.00     0.004 C 
ATOM      6  C   UNL     1      28.950   5.344 -16.892  1.00  0.00     0.013 C 
ATOM      7  C   UNL     1      26.841   6.632 -16.506  1.00  0.00    -0.063 C 
ATOM      8  C   UNL     1      27.826   8.959 -16.946  1.00  0.00    -0.003 C 
ATOM      9  C   UNL     1      28.098   9.994 -18.063  1.00  0.00    -0.011 C 
ATOM     10  C   UNL     1      27.544   5.297 -16.225  1.00  0.00    -0.006 C 
ATOM     11  C   UNL     1      25.711   6.923 -15.817  1.00  0.00    -0.027 C 
ATOM     12  C   UNL     1      28.984   8.807 -15.937  1.00  0.00     0.008 C 
ATOM     13  C   UNL     1      28.488  11.377 -17.516  1.00  0.00     0.008 C 
ATOM     14  C   UNL     1      26.679   4.248 -17.012  1.00  0.00     0.017 C 
ATOM     15  C   UNL     1      27.627   4.955 -14.610  1.00  0.00    -0.020 C 
ATOM     16  C   UNL     1      25.385   6.199 -14.535  1.00  0.00     0.032 C 
ATOM     17  C   UNL     1      26.723   5.977 -13.797  1.00  0.00     0.006 C 
ATOM     18  C   UNL     1      29.065   5.098 -14.001  1.00  0.00     0.008 C 
ATOM     19  C   UNL     1      27.219   3.461 -14.381  1.00  0.00     0.012 C 
ATOM     20  C   UNL     1      26.690   5.846 -12.218  1.00  0.00    -0.025 C 
ATOM     21  C   UNL     1      29.132   4.952 -12.460  1.00  0.00     0.005 C 
ATOM     22  C   UNL     1      28.194   5.951 -11.731  1.00  0.00     0.003 C 
ATOM     23  C   UNL     1      25.918   7.064 -11.607  1.00  0.00     0.010 C 
ATOM     24  C   UNL     1      25.959   4.541 -11.782  1.00  0.00     0.012 C 
ATOM     25  C   UNL     1      28.411   6.075 -10.170  1.00  0.00    -0.006 C 
ATOM     26  C   UNL     1      26.082   7.215 -10.085  1.00  0.00     0.033 C 
ATOM     27  C   UNL     1      27.559   7.282  -9.655  1.00  0.00     0.120 C 
ATOM     28  C   UNL     1      29.899   6.406  -9.868  1.00  0.00     0.014 C 
ATOM     29  C   UNL     1      28.072   4.774  -9.399  1.00  0.00     0.014 C 
ENDROOT
BRANCH   1  30
ATOM     30  C   UNL     1      27.397   6.810 -19.999  1.00  0.00     0.048 C 
ATOM     31  O   UNL     1      27.769   5.985 -20.873  1.00  0.00    -0.550 OA
ATOM     32  O   UNL     1      26.253   7.564 -20.245  1.00  0.00    -0.550 OA
ENDBRANCH   1  30
BRANCH  27  33
ATOM     33  O   UNL     1      27.670   7.444  -8.260  1.00  0.00    -0.393 OA
ATOM     34  H   UNL     1      28.119   6.645  -7.884  1.00  0.00     0.210 HD
ENDBRANCH  27  33
TORSDOF 2
ENDMDL
MODEL 9
REMARK VINA RESULT:    -7.691      3.910      6.398
REMARK INTER + INTRA:          -8.602
REMARK INTER:                  -8.364
REMARK INTRA:                  -0.238
REMARK UNBOUND:                -0.236
REMARK SMILES C[C@H]1[C@@H](C)CC[C@@]2(C(=O)[O-])CC[C@]3(C)C(=CC[C@H]4[C@]5(C)CC[C@@H](O)C(C)(C)[C@H]5CC[C@@]43C)[C@@H]12
REMARK SMILES IDX 7 1 6 2 11 3 33 4 5 5 12 6 15 7 2 8 3 9 13 10 16 11 1 12
REMARK SMILES IDX 4 13 14 14 31 15 17 16 18 17 30 18 32 19 19 20 29 21 28 22
REMARK SMILES IDX 21 23 20 24 25 25 22 26 23 27 26 28 27 29 8 30 9 31 10 32
REMARK SMILES IDX 24 33
REMARK H PARENT 24 34
REMARK Flexibility Score: inf
ROOT
ATOM      1  C   UNL     1      27.067   4.449 -10.819  1.00  0.00     0.017 C 
ATOM      2  C   UNL     1      25.615   4.622 -10.254  1.00  0.00     0.014 C 
ATOM      3  C   UNL     1      27.038   3.200 -11.770  1.00  0.00     0.014 C 
ATOM      4  C   UNL     1      27.590   5.781 -11.527  1.00  0.00     0.030 C 
ATOM      5  C   UNL     1      25.280   5.962  -9.580  1.00  0.00     0.004 C 
ATOM      6  C   UNL     1      27.040   3.545 -13.263  1.00  0.00     0.013 C 
ATOM      7  C   UNL     1      28.380   5.614 -12.838  1.00  0.00    -0.063 C 
ATOM      8  C   UNL     1      26.533   6.927 -11.639  1.00  0.00    -0.003 C 
ATOM      9  C   UNL     1      25.915   7.200 -10.248  1.00  0.00    -0.011 C 
ATOM     10  C   UNL     1      28.292   4.354 -13.712  1.00  0.00    -0.006 C 
ATOM     11  C   UNL     1      29.239   6.595 -13.207  1.00  0.00    -0.027 C 
ATOM     12  C   UNL     1      25.489   6.747 -12.763  1.00  0.00     0.008 C 
ATOM     13  C   UNL     1      24.945   8.394 -10.246  1.00  0.00     0.008 C 
ATOM     14  C   UNL     1      29.564   3.528 -13.302  1.00  0.00     0.017 C 
ATOM     15  C   UNL     1      28.266   4.706 -15.326  1.00  0.00    -0.020 C 
ATOM     16  C   UNL     1      29.763   6.666 -14.619  1.00  0.00     0.032 C 
ATOM     17  C   UNL     1      28.603   6.243 -15.546  1.00  0.00     0.006 C 
ATOM     18  C   UNL     1      26.869   4.488 -16.004  1.00  0.00     0.008 C 
ATOM     19  C   UNL     1      29.253   3.749 -16.075  1.00  0.00     0.012 C 
ATOM     20  C   UNL     1      28.595   6.800 -17.031  1.00  0.00    -0.025 C 
ATOM     21  C   UNL     1      26.779   4.976 -17.472  1.00  0.00     0.005 C 
ATOM     22  C   UNL     1      27.162   6.472 -17.621  1.00  0.00     0.003 C 
ATOM     23  C   UNL     1      28.743   8.359 -17.006  1.00  0.00     0.010 C 
ATOM     24  C   UNL     1      29.783   6.213 -17.852  1.00  0.00     0.012 C 
ATOM     25  C   UNL     1      26.821   7.128 -19.019  1.00  0.00    -0.006 C 
ATOM     26  C   UNL     1      28.441   9.041 -18.352  1.00  0.00     0.033 C 
ATOM     27  C   UNL     1      27.052   8.670 -18.901  1.00  0.00     0.120 C 
ATOM     28  C   UNL     1      25.318   6.915 -19.349  1.00  0.00     0.014 C 
ATOM     29  C   UNL     1      27.633   6.523 -20.193  1.00  0.00     0.014 C 
ENDROOT
BRANCH   1  30
ATOM     30  C   UNL     1      28.008   4.094  -9.661  1.00  0.00     0.048 C 
ATOM     31  O   UNL     1      29.079   4.734  -9.499  1.00  0.00    -0.550 OA
ATOM     32  O   UNL     1      27.753   3.011  -8.825  1.00  0.00    -0.550 OA
ENDBRANCH   1  30
BRANCH  27  33
ATOM     33  O   UNL     1      26.801   9.332 -20.120  1.00  0.00    -0.393 OA
ATOM     34  H   UNL     1      26.467  10.244 -19.920  1.00  0.00     0.210 HD
ENDBRANCH  27  33
TORSDOF 2
ENDMDL
