MODEL 1
REMARK VINA RESULT:    16.926      0.000      0.000
REMARK INTER + INTRA:          26.612
REMARK INTER:                  24.842
REMARK INTRA:                   1.770
REMARK UNBOUND:                 1.770
REMARK SMILES CC(C)(O)CC[C@@H](O)[C@](C)(O)[C@@H]1CC[C@@]2(O)C3=CC(=O)[C@H]4C[C@@H](O)[C@H](O)C[C@@]4(C)[C@@H]3CC[C@@]12C
REMARK SMILES IDX 6 1 7 2 9 3 10 4 12 5 34 6 33 7 32 8 15 9 31 10 17 11 14 12
REMARK SMILES IDX 13 13 30 14 18 15 28 16 19 17 21 18 27 19 29 20 20 21 22 22
REMARK SMILES IDX 25 23 23 24 16 25 26 27 24 29 11 31 8 33 5 35 2 36 1 37 3 38
REMARK SMILES IDX 4 39
REMARK H PARENT 16 26 26 28 24 30 11 32 8 34 4 40
REMARK Flexibility Score: inf
ROOT
ATOM      1  C   UNL     1      15.197 -28.039  14.680  1.00  0.00     0.038 C 
ENDROOT
BRANCH   1   2
ATOM      2  C   UNL     1      14.174 -29.170  14.351  1.00  0.00     0.146 C 
BRANCH   2   3
ATOM      3  C   UNL     1      14.471 -30.614  14.920  1.00  0.00     0.091 C 
ATOM      4  C   UNL     1      14.940 -30.455  16.400  1.00  0.00     0.045 C 
BRANCH   3   5
ATOM      5  C   UNL     1      13.154 -31.530  14.887  1.00  0.00     0.032 C 
ATOM      6  C   UNL     1      11.553 -29.427  14.703  1.00  0.00     0.015 C 
ATOM      7  C   UNL     1      11.686 -30.936  15.054  1.00  0.00     0.006 C 
ATOM      8  C   UNL     1      11.202 -31.109  16.534  1.00  0.00     0.011 C 
ATOM      9  C   UNL     1      10.782 -31.778  14.054  1.00  0.00     0.092 C 
ATOM     10  C   UNL     1      10.735 -32.533  16.870  1.00  0.00     0.009 C 
ATOM     11  C   UNL     1       9.454 -32.231  14.696  1.00  0.00    -0.031 C 
ATOM     12  C   UNL     1      11.649 -32.987  13.672  1.00  0.00     0.041 C 
ATOM     13  C   UNL     1      13.057 -32.444  13.656  1.00  0.00     0.010 C 
ATOM     14  C   UNL     1       9.502 -32.981  16.034  1.00  0.00     0.025 C 
ATOM     15  C   UNL     1       8.274 -32.037  14.067  1.00  0.00     0.050 C 
ATOM     16  C   UNL     1       8.131 -32.951  16.828  1.00  0.00    -0.013 C 
ATOM     17  C   UNL     1       6.996 -32.495  14.624  1.00  0.00     0.159 C 
ATOM     18  C   UNL     1       6.958 -33.332  15.868  1.00  0.00     0.070 C 
ATOM     19  C   UNL     1       8.107 -33.945  18.036  1.00  0.00     0.042 C 
ATOM     20  C   UNL     1       7.867 -31.528  17.393  1.00  0.00     0.013 C 
ATOM     21  O   UNL     1       5.923 -32.222  14.023  1.00  0.00    -0.295 OA
ATOM     22  C   UNL     1       6.966 -34.824  15.467  1.00  0.00     0.047 C 
ATOM     23  C   UNL     1       8.117 -35.429  17.633  1.00  0.00     0.143 C 
ATOM     24  C   UNL     1       6.936 -35.739  16.697  1.00  0.00     0.143 C 
BRANCH   9  25
ATOM     25  O   UNL     1      10.542 -31.023  12.877  1.00  0.00    -0.385 OA
ATOM     26  H   UNL     1      10.453 -30.062  13.112  1.00  0.00     0.211 HD
ENDBRANCH   9  25
BRANCH  23  27
ATOM     27  O   UNL     1       8.012 -36.206  18.799  1.00  0.00    -0.390 OA
ATOM     28  H   UNL     1       8.937 -36.424  19.087  1.00  0.00     0.211 HD
ENDBRANCH  23  27
BRANCH  24  29
ATOM     29  O   UNL     1       7.014 -37.078  16.280  1.00  0.00    -0.390 OA
ATOM     30  H   UNL     1       6.878 -37.642  17.085  1.00  0.00     0.211 HD
ENDBRANCH  24  29
ENDBRANCH   3   5
BRANCH   3  31
ATOM     31  O   UNL     1      15.516 -31.190  14.178  1.00  0.00    -0.387 OA
ATOM     32  H   UNL     1      15.148 -31.959  13.671  1.00  0.00     0.211 HD
ENDBRANCH   3  31
ENDBRANCH   2   3
BRANCH   2  33
ATOM     33  O   UNL     1      13.913 -29.184  12.973  1.00  0.00    -0.390 OA
ATOM     34  H   UNL     1      13.807 -30.124  12.685  1.00  0.00     0.211 HD
ENDBRANCH   2  33
ENDBRANCH   1   2
BRANCH   1  35
ATOM     35  C   UNL     1      15.757 -28.040  16.125  1.00  0.00     0.037 C 
BRANCH  35  36
ATOM     36  C   UNL     1      16.535 -26.748  16.511  1.00  0.00     0.059 C 
ATOM     37  C   UNL     1      18.056 -26.912  16.280  1.00  0.00     0.042 C 
ATOM     38  C   UNL     1      16.305 -26.465  18.006  1.00  0.00     0.042 C 
BRANCH  36  39
ATOM     39  O   UNL     1      16.039 -25.641  15.793  1.00  0.00    -0.390 OA
ATOM     40  H   UNL     1      15.056 -25.592  15.925  1.00  0.00     0.211 HD
ENDBRANCH  36  39
ENDBRANCH  35  36
ENDBRANCH   1  35
TORSDOF 11
ENDMDL
