MODEL 1
REMARK VINA RESULT:    -4.314      0.000      0.000
REMARK INTER + INTRA:         -14.775
REMARK INTER:                 -10.871
REMARK INTRA:                  -3.904
REMARK UNBOUND:                -3.904
REMARK SMILES CCCCCCCCCCCCCCCCCCCCCCCCCCCC(=O)[O-]
REMARK SMILES IDX 15 1 16 2 17 3 18 4 19 5 20 6 21 7 22 8 23 9 24 10 25 11
REMARK SMILES IDX 26 12 27 13 28 14 29 15 30 16 14 17 13 18 12 19 11 20 10 21
REMARK SMILES IDX 9 22 8 23 7 24 6 25 5 26 4 27 3 28 2 29 1 30
REMARK H PARENT
REMARK Flexibility Score: inf
ROOT
ATOM      1  C   UNL     1      96.081   3.343 -27.165  1.00  0.00     0.000 C 
ENDROOT
BRANCH   1   2
ATOM      2  C   UNL     1      94.571   3.412 -26.870  1.00  0.00     0.000 C 
BRANCH   2   3
ATOM      3  C   UNL     1      94.166   4.416 -25.771  1.00  0.00     0.000 C 
BRANCH   3   4
ATOM      4  C   UNL     1      93.707   5.794 -26.280  1.00  0.00     0.000 C 
BRANCH   4   5
ATOM      5  C   UNL     1      92.183   5.903 -26.421  1.00  0.00     0.000 C 
BRANCH   5   6
ATOM      6  C   UNL     1      91.783   6.152 -27.883  1.00  0.00     0.000 C 
BRANCH   6   7
ATOM      7  C   UNL     1      91.739   4.856 -28.709  1.00  0.00     0.000 C 
BRANCH   7   8
ATOM      8  C   UNL     1      90.432   4.070 -28.505  1.00  0.00     0.000 C 
BRANCH   8   9
ATOM      9  C   UNL     1      90.563   2.956 -27.449  1.00  0.00     0.000 C 
BRANCH   9  10
ATOM     10  C   UNL     1      89.712   3.166 -26.183  1.00  0.00     0.000 C 
BRANCH  10  11
ATOM     11  C   UNL     1      90.428   2.706 -24.901  1.00  0.00     0.000 C 
BRANCH  11  12
ATOM     12  C   UNL     1      91.641   1.811 -25.203  1.00  0.00     0.006 C 
BRANCH  12  13
ATOM     13  C   UNL     1      92.610   1.728 -24.016  1.00  0.00     0.053 C 
BRANCH  13  14
ATOM     14  C   UNL     1      92.285   0.553 -23.150  1.00  0.00     0.041 C 
ATOM     15  O   UNL     1      91.334   0.616 -22.326  1.00  0.00    -0.550 OA
ATOM     16  O   UNL     1      93.053  -0.603 -23.227  1.00  0.00    -0.550 OA
ENDBRANCH  13  14
ENDBRANCH  12  13
ENDBRANCH  11  12
ENDBRANCH  10  11
ENDBRANCH   9  10
ENDBRANCH   8   9
ENDBRANCH   7   8
ENDBRANCH   6   7
ENDBRANCH   5   6
ENDBRANCH   4   5
ENDBRANCH   3   4
ENDBRANCH   2   3
ENDBRANCH   1   2
BRANCH   1  17
ATOM     17  C   UNL     1      96.912   2.957 -25.930  1.00  0.00     0.000 C 
BRANCH  17  18
ATOM     18  C   UNL     1      98.264   3.685 -25.880  1.00  0.00     0.000 C 
BRANCH  18  19
ATOM     19  C   UNL     1      98.473   4.622 -27.085  1.00  0.00     0.000 C 
BRANCH  19  20
ATOM     20  C   UNL     1      99.659   4.192 -27.962  1.00  0.00     0.000 C 
BRANCH  20  21
ATOM     21  C   UNL     1      99.210   3.662 -29.334  1.00  0.00     0.000 C 
BRANCH  21  22
ATOM     22  C   UNL     1      99.023   2.136 -29.353  1.00  0.00    -0.000 C 
BRANCH  22  23
ATOM     23  C   UNL     1      99.784   1.368 -28.251  1.00  0.00    -0.000 C 
BRANCH  23  24
ATOM     24  C   UNL     1      98.981   0.257 -27.549  1.00  0.00    -0.000 C 
BRANCH  24  25
ATOM     25  C   UNL     1      99.366   0.080 -26.074  1.00  0.00    -0.000 C 
BRANCH  25  26
ATOM     26  C   UNL     1      98.517  -1.018 -25.416  1.00  0.00    -0.000 C 
BRANCH  26  27
ATOM     27  C   UNL     1      97.588  -0.478 -24.317  1.00  0.00    -0.000 C 
BRANCH  27  28
ATOM     28  C   UNL     1      96.441  -1.423 -23.910  1.00  0.00    -0.000 C 
BRANCH  28  29
ATOM     29  C   UNL     1      96.735  -2.915 -24.171  1.00  0.00    -0.003 C 
ATOM     30  C   UNL     1      97.311  -3.623 -22.944  1.00  0.00     0.004 C 
ENDBRANCH  28  29
ENDBRANCH  27  28
ENDBRANCH  26  27
ENDBRANCH  25  26
ENDBRANCH  24  25
ENDBRANCH  23  24
ENDBRANCH  22  23
ENDBRANCH  21  22
ENDBRANCH  20  21
ENDBRANCH  19  20
ENDBRANCH  18  19
ENDBRANCH  17  18
ENDBRANCH   1  17
TORSDOF 26
ENDMDL
MODEL 2
REMARK VINA RESULT:    -4.309      2.225      7.127
REMARK INTER + INTRA:         -14.763
REMARK INTER:                 -10.506
REMARK INTRA:                  -4.257
REMARK UNBOUND:                -3.904
REMARK SMILES CCCCCCCCCCCCCCCCCCCCCCCCCCCC(=O)[O-]
REMARK SMILES IDX 15 1 16 2 17 3 18 4 19 5 20 6 21 7 22 8 23 9 24 10 25 11
REMARK SMILES IDX 26 12 27 13 28 14 29 15 30 16 14 17 13 18 12 19 11 20 10 21
REMARK SMILES IDX 9 22 8 23 7 24 6 25 5 26 4 27 3 28 2 29 1 30
REMARK H PARENT
REMARK Flexibility Score: inf
ROOT
ATOM      1  C   UNL     1      97.318   3.208 -25.699  1.00  0.00     0.000 C 
ENDROOT
BRANCH   1   2
ATOM      2  C   UNL     1      98.588   4.040 -25.953  1.00  0.00     0.000 C 
BRANCH   2   3
ATOM      3  C   UNL     1      98.625   4.778 -27.308  1.00  0.00     0.000 C 
BRANCH   3   4
ATOM      4  C   UNL     1      99.998   4.803 -28.003  1.00  0.00     0.000 C 
BRANCH   4   5
ATOM      5  C   UNL     1     100.107   3.789 -29.150  1.00  0.00     0.000 C 
BRANCH   5   6
ATOM      6  C   UNL     1      98.746   3.581 -29.831  1.00  0.00     0.000 C 
BRANCH   6   7
ATOM      7  C   UNL     1      98.202   2.157 -29.635  1.00  0.00     0.000 C 
BRANCH   7   8
ATOM      8  C   UNL     1      99.300   1.155 -29.237  1.00  0.00     0.000 C 
BRANCH   8   9
ATOM      9  C   UNL     1      99.060   0.526 -27.852  1.00  0.00     0.000 C 
BRANCH   9  10
ATOM     10  C   UNL     1     100.098   0.911 -26.781  1.00  0.00     0.000 C 
BRANCH  10  11
ATOM     11  C   UNL     1      99.919   0.126 -25.470  1.00  0.00     0.000 C 
BRANCH  11  12
ATOM     12  C   UNL     1      99.982   1.038 -24.233  1.00  0.00     0.006 C 
BRANCH  12  13
ATOM     13  C   UNL     1      99.470   0.336 -22.969  1.00  0.00     0.053 C 
BRANCH  13  14
ATOM     14  C   UNL     1      97.989   0.135 -23.039  1.00  0.00     0.041 C 
ATOM     15  O   UNL     1      97.310   0.048 -21.982  1.00  0.00    -0.550 OA
ATOM     16  O   UNL     1      97.361   0.011 -24.273  1.00  0.00    -0.550 OA
ENDBRANCH  13  14
ENDBRANCH  12  13
ENDBRANCH  11  12
ENDBRANCH  10  11
ENDBRANCH   9  10
ENDBRANCH   8   9
ENDBRANCH   7   8
ENDBRANCH   6   7
ENDBRANCH   5   6
ENDBRANCH   4   5
ENDBRANCH   3   4
ENDBRANCH   2   3
ENDBRANCH   1   2
BRANCH   1  17
ATOM     17  C   UNL     1      96.317   3.278 -26.864  1.00  0.00     0.000 C 
BRANCH  17  18
ATOM     18  C   UNL     1      95.064   4.096 -26.514  1.00  0.00     0.000 C 
BRANCH  18  19
ATOM     19  C   UNL     1      93.762   3.381 -26.922  1.00  0.00     0.000 C 
BRANCH  19  20
ATOM     20  C   UNL     1      92.547   3.871 -26.120  1.00  0.00     0.000 C 
BRANCH  20  21
ATOM     21  C   UNL     1      92.477   5.405 -26.043  1.00  0.00     0.000 C 
BRANCH  21  22
ATOM     22  C   UNL     1      92.606   5.937 -24.605  1.00  0.00    -0.000 C 
BRANCH  22  23
ATOM     23  C   UNL     1      92.145   4.963 -23.501  1.00  0.00    -0.000 C 
BRANCH  23  24
ATOM     24  C   UNL     1      92.800   5.173 -22.123  1.00  0.00    -0.000 C 
BRANCH  24  25
ATOM     25  C   UNL     1      93.731   4.022 -21.720  1.00  0.00    -0.000 C 
BRANCH  25  26
ATOM     26  C   UNL     1      94.521   3.509 -22.933  1.00  0.00    -0.000 C 
BRANCH  26  27
ATOM     27  C   UNL     1      94.460   1.980 -23.083  1.00  0.00    -0.000 C 
BRANCH  27  28
ATOM     28  C   UNL     1      93.162   1.326 -22.570  1.00  0.00    -0.000 C 
BRANCH  28  29
ATOM     29  C   UNL     1      92.136   1.012 -23.679  1.00  0.00    -0.003 C 
ATOM     30  C   UNL     1      90.771   1.648 -23.413  1.00  0.00     0.004 C 
ENDBRANCH  28  29
ENDBRANCH  27  28
ENDBRANCH  26  27
ENDBRANCH  25  26
ENDBRANCH  24  25
ENDBRANCH  23  24
ENDBRANCH  22  23
ENDBRANCH  21  22
ENDBRANCH  20  21
ENDBRANCH  19  20
ENDBRANCH  18  19
ENDBRANCH  17  18
ENDBRANCH   1  17
TORSDOF 26
ENDMDL
MODEL 3
REMARK VINA RESULT:    -4.203      1.760      6.868
REMARK INTER + INTRA:         -14.495
REMARK INTER:                 -10.283
REMARK INTRA:                  -4.212
REMARK UNBOUND:                -3.904
REMARK SMILES CCCCCCCCCCCCCCCCCCCCCCCCCCCC(=O)[O-]
REMARK SMILES IDX 15 1 16 2 17 3 18 4 19 5 20 6 21 7 22 8 23 9 24 10 25 11
REMARK SMILES IDX 26 12 27 13 28 14 29 15 30 16 14 17 13 18 12 19 11 20 10 21
REMARK SMILES IDX 9 22 8 23 7 24 6 25 5 26 4 27 3 28 2 29 1 30
REMARK H PARENT
REMARK Flexibility Score: inf
ROOT
ATOM      1  C   UNL     1      98.765   1.534 -28.953  1.00  0.00     0.000 C 
ENDROOT
BRANCH   1   2
ATOM      2  C   UNL     1      99.701   0.767 -28.002  1.00  0.00     0.000 C 
BRANCH   2   3
ATOM      3  C   UNL     1      99.014   0.153 -26.764  1.00  0.00     0.000 C 
BRANCH   3   4
ATOM      4  C   UNL     1      99.833   0.216 -25.462  1.00  0.00     0.000 C 
BRANCH   4   5
ATOM      5  C   UNL     1      98.962   0.430 -24.217  1.00  0.00     0.000 C 
BRANCH   5   6
ATOM      6  C   UNL     1      99.044  -0.780 -23.275  1.00  0.00     0.000 C 
BRANCH   6   7
ATOM      7  C   UNL     1      98.491  -2.063 -23.916  1.00  0.00     0.000 C 
BRANCH   7   8
ATOM      8  C   UNL     1      97.025  -1.915 -24.362  1.00  0.00     0.000 C 
BRANCH   8   9
ATOM      9  C   UNL     1      96.028  -2.094 -23.201  1.00  0.00     0.000 C 
BRANCH   9  10
ATOM     10  C   UNL     1      94.935  -1.012 -23.119  1.00  0.00     0.000 C 
BRANCH  10  11
ATOM     11  C   UNL     1      95.296   0.260 -23.907  1.00  0.00     0.000 C 
BRANCH  11  12
ATOM     12  C   UNL     1      95.180   1.529 -23.047  1.00  0.00     0.006 C 
BRANCH  12  13
ATOM     13  C   UNL     1      93.842   2.250 -23.255  1.00  0.00     0.053 C 
BRANCH  13  14
ATOM     14  C   UNL     1      93.765   3.477 -22.403  1.00  0.00     0.041 C 
ATOM     15  O   UNL     1      94.276   3.482 -21.252  1.00  0.00    -0.550 OA
ATOM     16  O   UNL     1      93.101   4.607 -22.867  1.00  0.00    -0.550 OA
ENDBRANCH  13  14
ENDBRANCH  12  13
ENDBRANCH  11  12
ENDBRANCH  10  11
ENDBRANCH   9  10
ENDBRANCH   8   9
ENDBRANCH   7   8
ENDBRANCH   6   7
ENDBRANCH   5   6
ENDBRANCH   4   5
ENDBRANCH   3   4
ENDBRANCH   2   3
ENDBRANCH   1   2
BRANCH   1  17
ATOM     17  C   UNL     1      99.510   2.557 -29.826  1.00  0.00     0.000 C 
BRANCH  17  18
ATOM     18  C   UNL     1      99.156   4.008 -29.465  1.00  0.00     0.000 C 
BRANCH  18  19
ATOM     19  C   UNL     1      99.757   4.442 -28.115  1.00  0.00     0.000 C 
BRANCH  19  20
ATOM     20  C   UNL     1      98.679   4.821 -27.087  1.00  0.00     0.000 C 
BRANCH  20  21
ATOM     21  C   UNL     1      98.597   3.815 -25.927  1.00  0.00     0.000 C 
BRANCH  21  22
ATOM     22  C   UNL     1      97.180   3.251 -25.726  1.00  0.00    -0.000 C 
BRANCH  22  23
ATOM     23  C   UNL     1      96.266   3.315 -26.968  1.00  0.00    -0.000 C 
BRANCH  23  24
ATOM     24  C   UNL     1      94.758   3.185 -26.682  1.00  0.00    -0.000 C 
BRANCH  24  25
ATOM     25  C   UNL     1      94.122   4.499 -26.211  1.00  0.00    -0.000 C 
BRANCH  25  26
ATOM     26  C   UNL     1      92.773   4.733 -26.907  1.00  0.00    -0.000 C 
BRANCH  26  27
ATOM     27  C   UNL     1      92.559   3.814 -28.120  1.00  0.00    -0.000 C 
BRANCH  27  28
ATOM     28  C   UNL     1      91.341   2.874 -28.020  1.00  0.00    -0.000 C 
BRANCH  28  29
ATOM     29  C   UNL     1      90.065   3.557 -27.484  1.00  0.00    -0.003 C 
ATOM     30  C   UNL     1      89.116   3.989 -28.604  1.00  0.00     0.004 C 
ENDBRANCH  28  29
ENDBRANCH  27  28
ENDBRANCH  26  27
ENDBRANCH  25  26
ENDBRANCH  24  25
ENDBRANCH  23  24
ENDBRANCH  22  23
ENDBRANCH  21  22
ENDBRANCH  20  21
ENDBRANCH  19  20
ENDBRANCH  18  19
ENDBRANCH  17  18
ENDBRANCH   1  17
TORSDOF 26
ENDMDL
MODEL 4
REMARK VINA RESULT:    -4.201      2.420      6.748
REMARK INTER + INTRA:         -14.489
REMARK INTER:                 -10.190
REMARK INTRA:                  -4.300
REMARK UNBOUND:                -3.904
REMARK SMILES CCCCCCCCCCCCCCCCCCCCCCCCCCCC(=O)[O-]
REMARK SMILES IDX 15 1 16 2 17 3 18 4 19 5 20 6 21 7 22 8 23 9 24 10 25 11
REMARK SMILES IDX 26 12 27 13 28 14 29 15 30 16 14 17 13 18 12 19 11 20 10 21
REMARK SMILES IDX 9 22 8 23 7 24 6 25 5 26 4 27 3 28 2 29 1 30
REMARK H PARENT
REMARK Flexibility Score: inf
ROOT
ATOM      1  C   UNL     1     100.120   1.112 -27.157  1.00  0.00     0.000 C 
ENDROOT
BRANCH   1   2
ATOM      2  C   UNL     1      99.092   0.731 -28.238  1.00  0.00     0.000 C 
BRANCH   2   3
ATOM      3  C   UNL     1      98.964   1.738 -29.399  1.00  0.00     0.000 C 
BRANCH   3   4
ATOM      4  C   UNL     1      99.865   2.981 -29.292  1.00  0.00     0.000 C 
BRANCH   4   5
ATOM      5  C   UNL     1      99.079   4.267 -29.001  1.00  0.00     0.000 C 
BRANCH   5   6
ATOM      6  C   UNL     1      99.495   4.871 -27.652  1.00  0.00     0.000 C 
BRANCH   6   7
ATOM      7  C   UNL     1      98.654   4.333 -26.483  1.00  0.00     0.000 C 
BRANCH   7   8
ATOM      8  C   UNL     1      97.181   4.111 -26.867  1.00  0.00     0.000 C 
BRANCH   8   9
ATOM      9  C   UNL     1      96.667   2.712 -26.477  1.00  0.00     0.000 C 
BRANCH   9  10
ATOM     10  C   UNL     1      95.685   2.695 -25.290  1.00  0.00     0.000 C 
BRANCH  10  11
ATOM     11  C   UNL     1      94.227   2.930 -25.722  1.00  0.00     0.000 C 
BRANCH  11  12
ATOM     12  C   UNL     1      93.619   4.177 -25.060  1.00  0.00     0.006 C 
BRANCH  12  13
ATOM     13  C   UNL     1      93.480   5.346 -26.045  1.00  0.00     0.053 C 
BRANCH  13  14
ATOM     14  C   UNL     1      92.188   5.254 -26.794  1.00  0.00     0.041 C 
ATOM     15  O   UNL     1      91.096   5.191 -26.170  1.00  0.00    -0.550 OA
ATOM     16  O   UNL     1      92.191   5.204 -28.183  1.00  0.00    -0.550 OA
ENDBRANCH  13  14
ENDBRANCH  12  13
ENDBRANCH  11  12
ENDBRANCH  10  11
ENDBRANCH   9  10
ENDBRANCH   8   9
ENDBRANCH   7   8
ENDBRANCH   6   7
ENDBRANCH   5   6
ENDBRANCH   4   5
ENDBRANCH   3   4
ENDBRANCH   2   3
ENDBRANCH   1   2
BRANCH   1  17
ATOM     17  C   UNL     1      99.668   0.720 -25.740  1.00  0.00     0.000 C 
BRANCH  17  18
ATOM     18  C   UNL     1      98.645  -0.427 -25.746  1.00  0.00     0.000 C 
BRANCH  18  19
ATOM     19  C   UNL     1      97.731  -0.406 -24.506  1.00  0.00     0.000 C 
BRANCH  19  20
ATOM     20  C   UNL     1      97.593  -1.791 -23.855  1.00  0.00     0.000 C 
BRANCH  20  21
ATOM     21  C   UNL     1      96.185  -2.032 -23.286  1.00  0.00     0.000 C 
BRANCH  21  22
ATOM     22  C   UNL     1      95.114  -1.150 -23.950  1.00  0.00    -0.000 C 
BRANCH  22  23
ATOM     23  C   UNL     1      93.757  -1.101 -23.215  1.00  0.00    -0.000 C 
BRANCH  23  24
ATOM     24  C   UNL     1      93.331   0.292 -22.714  1.00  0.00    -0.000 C 
BRANCH  24  25
ATOM     25  C   UNL     1      94.291   0.872 -21.668  1.00  0.00    -0.000 C 
BRANCH  25  26
ATOM     26  C   UNL     1      94.505   2.376 -21.898  1.00  0.00    -0.000 C 
BRANCH  26  27
ATOM     27  C   UNL     1      93.690   3.250 -20.931  1.00  0.00    -0.000 C 
BRANCH  27  28
ATOM     28  C   UNL     1      92.775   4.291 -21.606  1.00  0.00    -0.000 C 
BRANCH  28  29
ATOM     29  C   UNL     1      91.356   3.769 -21.919  1.00  0.00    -0.003 C 
ATOM     30  C   UNL     1      90.490   4.812 -22.627  1.00  0.00     0.004 C 
ENDBRANCH  28  29
ENDBRANCH  27  28
ENDBRANCH  26  27
ENDBRANCH  25  26
ENDBRANCH  24  25
ENDBRANCH  23  24
ENDBRANCH  22  23
ENDBRANCH  21  22
ENDBRANCH  20  21
ENDBRANCH  19  20
ENDBRANCH  18  19
ENDBRANCH  17  18
ENDBRANCH   1  17
TORSDOF 26
ENDMDL
MODEL 5
REMARK VINA RESULT:    -4.181      3.500      8.654
REMARK INTER + INTRA:         -14.441
REMARK INTER:                  -9.940
REMARK INTRA:                  -4.501
REMARK UNBOUND:                -3.904
REMARK SMILES CCCCCCCCCCCCCCCCCCCCCCCCCCCC(=O)[O-]
REMARK SMILES IDX 15 1 16 2 17 3 18 4 19 5 20 6 21 7 22 8 23 9 24 10 25 11
REMARK SMILES IDX 26 12 27 13 28 14 29 15 30 16 14 17 13 18 12 19 11 20 10 21
REMARK SMILES IDX 9 22 8 23 7 24 6 25 5 26 4 27 3 28 2 29 1 30
REMARK H PARENT
REMARK Flexibility Score: inf
ROOT
ATOM      1  C   UNL     1      92.267   5.819 -25.091  1.00  0.00     0.000 C 
ENDROOT
BRANCH   1   2
ATOM      2  C   UNL     1      93.405   5.502 -26.079  1.00  0.00     0.000 C 
BRANCH   2   3
ATOM      3  C   UNL     1      93.162   4.275 -26.982  1.00  0.00     0.000 C 
BRANCH   3   4
ATOM      4  C   UNL     1      94.343   3.293 -27.084  1.00  0.00     0.000 C 
BRANCH   4   5
ATOM      5  C   UNL     1      95.591   3.778 -26.333  1.00  0.00     0.000 C 
BRANCH   5   6
ATOM      6  C   UNL     1      96.277   2.615 -25.601  1.00  0.00     0.000 C 
BRANCH   6   7
ATOM      7  C   UNL     1      97.778   2.525 -25.917  1.00  0.00     0.000 C 
BRANCH   7   8
ATOM      8  C   UNL     1      98.495   3.879 -25.772  1.00  0.00     0.000 C 
BRANCH   8   9
ATOM      9  C   UNL     1      99.194   4.326 -27.070  1.00  0.00     0.000 C 
BRANCH   9  10
ATOM     10  C   UNL     1      98.301   5.121 -28.041  1.00  0.00     0.000 C 
BRANCH  10  11
ATOM     11  C   UNL     1      98.324   4.554 -29.471  1.00  0.00     0.000 C 
BRANCH  11  12
ATOM     12  C   UNL     1      97.753   3.128 -29.539  1.00  0.00     0.006 C 
BRANCH  12  13
ATOM     13  C   UNL     1      98.832   2.086 -29.866  1.00  0.00     0.053 C 
BRANCH  13  14
ATOM     14  C   UNL     1      98.255   0.962 -30.665  1.00  0.00     0.041 C 
ATOM     15  O   UNL     1      97.505   1.202 -31.649  1.00  0.00    -0.550 OA
ATOM     16  O   UNL     1      98.516  -0.355 -30.305  1.00  0.00    -0.550 OA
ENDBRANCH  13  14
ENDBRANCH  12  13
ENDBRANCH  11  12
ENDBRANCH  10  11
ENDBRANCH   9  10
ENDBRANCH   8   9
ENDBRANCH   7   8
ENDBRANCH   6   7
ENDBRANCH   5   6
ENDBRANCH   4   5
ENDBRANCH   3   4
ENDBRANCH   2   3
ENDBRANCH   1   2
BRANCH   1  17
ATOM     17  C   UNL     1      92.104   4.741 -24.006  1.00  0.00     0.000 C 
BRANCH  17  18
ATOM     18  C   UNL     1      93.411   4.470 -23.244  1.00  0.00     0.000 C 
BRANCH  18  19
ATOM     19  C   UNL     1      93.578   2.985 -22.872  1.00  0.00     0.000 C 
BRANCH  19  20
ATOM     20  C   UNL     1      93.037   2.044 -23.959  1.00  0.00     0.000 C 
BRANCH  20  21
ATOM     21  C   UNL     1      92.206   0.890 -23.373  1.00  0.00     0.000 C 
BRANCH  21  22
ATOM     22  C   UNL     1      91.433   1.294 -22.106  1.00  0.00    -0.000 C 
BRANCH  22  23
ATOM     23  C   UNL     1      90.060   1.953 -22.359  1.00  0.00    -0.000 C 
BRANCH  23  24
ATOM     24  C   UNL     1      89.542   1.860 -23.806  1.00  0.00    -0.000 C 
BRANCH  24  25
ATOM     25  C   UNL     1      88.774   3.112 -24.250  1.00  0.00    -0.000 C 
BRANCH  25  26
ATOM     26  C   UNL     1      88.407   3.027 -25.739  1.00  0.00    -0.000 C 
BRANCH  26  27
ATOM     27  C   UNL     1      89.513   3.567 -26.660  1.00  0.00    -0.000 C 
BRANCH  27  28
ATOM     28  C   UNL     1      89.369   5.052 -27.051  1.00  0.00    -0.000 C 
BRANCH  28  29
ATOM     29  C   UNL     1      89.873   5.378 -28.472  1.00  0.00    -0.003 C 
ATOM     30  C   UNL     1      90.675   6.679 -28.527  1.00  0.00     0.004 C 
ENDBRANCH  28  29
ENDBRANCH  27  28
ENDBRANCH  26  27
ENDBRANCH  25  26
ENDBRANCH  24  25
ENDBRANCH  23  24
ENDBRANCH  22  23
ENDBRANCH  21  22
ENDBRANCH  20  21
ENDBRANCH  19  20
ENDBRANCH  18  19
ENDBRANCH  17  18
ENDBRANCH   1  17
TORSDOF 26
ENDMDL
MODEL 6
REMARK VINA RESULT:    -4.176      1.511      2.220
REMARK INTER + INTRA:         -14.427
REMARK INTER:                 -10.553
REMARK INTRA:                  -3.873
REMARK UNBOUND:                -3.904
REMARK SMILES CCCCCCCCCCCCCCCCCCCCCCCCCCCC(=O)[O-]
REMARK SMILES IDX 15 1 16 2 17 3 18 4 19 5 20 6 21 7 22 8 23 9 24 10 25 11
REMARK SMILES IDX 26 12 27 13 28 14 29 15 30 16 14 17 13 18 12 19 11 20 10 21
REMARK SMILES IDX 9 22 8 23 7 24 6 25 5 26 4 27 3 28 2 29 1 30
REMARK H PARENT
REMARK Flexibility Score: inf
ROOT
ATOM      1  C   UNL     1      97.007   4.105 -27.136  1.00  0.00     0.000 C 
ENDROOT
BRANCH   1   2
ATOM      2  C   UNL     1      96.222   3.030 -26.363  1.00  0.00     0.000 C 
BRANCH   2   3
ATOM      3  C   UNL     1      94.959   3.539 -25.637  1.00  0.00     0.000 C 
BRANCH   3   4
ATOM      4  C   UNL     1      93.911   4.211 -26.542  1.00  0.00     0.000 C 
BRANCH   4   5
ATOM      5  C   UNL     1      93.749   5.711 -26.259  1.00  0.00     0.000 C 
BRANCH   5   6
ATOM      6  C   UNL     1      92.287   6.148 -26.431  1.00  0.00     0.000 C 
BRANCH   6   7
ATOM      7  C   UNL     1      91.755   5.877 -27.848  1.00  0.00     0.000 C 
BRANCH   7   8
ATOM      8  C   UNL     1      90.367   5.214 -27.840  1.00  0.00     0.000 C 
BRANCH   8   9
ATOM      9  C   UNL     1      90.427   3.706 -27.528  1.00  0.00     0.000 C 
BRANCH   9  10
ATOM     10  C   UNL     1      89.936   3.320 -26.120  1.00  0.00     0.000 C 
BRANCH  10  11
ATOM     11  C   UNL     1      90.890   2.350 -25.402  1.00  0.00     0.000 C 
BRANCH  11  12
ATOM     12  C   UNL     1      91.379   2.907 -24.055  1.00  0.00     0.006 C 
BRANCH  12  13
ATOM     13  C   UNL     1      90.729   4.255 -23.715  1.00  0.00     0.053 C 
BRANCH  13  14
ATOM     14  C   UNL     1      89.866   4.133 -22.499  1.00  0.00     0.041 C 
ATOM     15  O   UNL     1      89.453   3.004 -22.125  1.00  0.00    -0.550 OA
ATOM     16  O   UNL     1      89.490   5.272 -21.795  1.00  0.00    -0.550 OA
ENDBRANCH  13  14
ENDBRANCH  12  13
ENDBRANCH  11  12
ENDBRANCH  10  11
ENDBRANCH   9  10
ENDBRANCH   8   9
ENDBRANCH   7   8
ENDBRANCH   6   7
ENDBRANCH   5   6
ENDBRANCH   4   5
ENDBRANCH   3   4
ENDBRANCH   2   3
ENDBRANCH   1   2
BRANCH   1  17
ATOM     17  C   UNL     1      98.411   4.348 -26.559  1.00  0.00     0.000 C 
BRANCH  17  18
ATOM     18  C   UNL     1      99.389   4.906 -27.606  1.00  0.00     0.000 C 
BRANCH  18  19
ATOM     19  C   UNL     1      99.057   4.431 -29.033  1.00  0.00     0.000 C 
BRANCH  19  20
ATOM     20  C   UNL     1      99.780   3.127 -29.401  1.00  0.00     0.000 C 
BRANCH  20  21
ATOM     21  C   UNL     1      98.802   1.975 -29.687  1.00  0.00     0.000 C 
BRANCH  21  22
ATOM     22  C   UNL     1      98.755   0.936 -28.554  1.00  0.00    -0.000 C 
BRANCH  22  23
ATOM     23  C   UNL     1      99.880   1.060 -27.504  1.00  0.00    -0.000 C 
BRANCH  23  24
ATOM     24  C   UNL     1      99.612   0.344 -26.166  1.00  0.00    -0.000 C 
BRANCH  24  25
ATOM     25  C   UNL     1      99.469   1.313 -24.986  1.00  0.00    -0.000 C 
BRANCH  25  26
ATOM     26  C   UNL     1      98.725   0.646 -23.819  1.00  0.00    -0.000 C 
BRANCH  26  27
ATOM     27  C   UNL     1      97.252   0.347 -24.141  1.00  0.00    -0.000 C 
BRANCH  27  28
ATOM     28  C   UNL     1      96.574  -0.675 -23.207  1.00  0.00    -0.000 C 
BRANCH  28  29
ATOM     29  C   UNL     1      95.885  -1.840 -23.948  1.00  0.00    -0.003 C 
ATOM     30  C   UNL     1      96.682  -3.143 -23.863  1.00  0.00     0.004 C 
ENDBRANCH  28  29
ENDBRANCH  27  28
ENDBRANCH  26  27
ENDBRANCH  25  26
ENDBRANCH  24  25
ENDBRANCH  23  24
ENDBRANCH  22  23
ENDBRANCH  21  22
ENDBRANCH  20  21
ENDBRANCH  19  20
ENDBRANCH  18  19
ENDBRANCH  17  18
ENDBRANCH   1  17
TORSDOF 26
ENDMDL
MODEL 7
REMARK VINA RESULT:    -4.154      3.001      5.779
REMARK INTER + INTRA:         -14.373
REMARK INTER:                  -9.594
REMARK INTRA:                  -4.779
REMARK UNBOUND:                -3.904
REMARK SMILES CCCCCCCCCCCCCCCCCCCCCCCCCCCC(=O)[O-]
REMARK SMILES IDX 15 1 16 2 17 3 18 4 19 5 20 6 21 7 22 8 23 9 24 10 25 11
REMARK SMILES IDX 26 12 27 13 28 14 29 15 30 16 14 17 13 18 12 19 11 20 10 21
REMARK SMILES IDX 9 22 8 23 7 24 6 25 5 26 4 27 3 28 2 29 1 30
REMARK H PARENT
REMARK Flexibility Score: inf
ROOT
ATOM      1  C   UNL     1      93.480   2.414 -26.370  1.00  0.00     0.000 C 
ENDROOT
BRANCH   1   2
ATOM      2  C   UNL     1      93.118   3.800 -26.935  1.00  0.00     0.000 C 
BRANCH   2   3
ATOM      3  C   UNL     1      93.690   4.996 -26.145  1.00  0.00     0.000 C 
BRANCH   3   4
ATOM      4  C   UNL     1      92.649   5.832 -25.379  1.00  0.00     0.000 C 
BRANCH   4   5
ATOM      5  C   UNL     1      92.700   5.609 -23.862  1.00  0.00     0.000 C 
BRANCH   5   6
ATOM      6  C   UNL     1      91.456   4.851 -23.376  1.00  0.00     0.000 C 
BRANCH   6   7
ATOM      7  C   UNL     1      90.406   4.674 -24.484  1.00  0.00     0.000 C 
BRANCH   7   8
ATOM      8  C   UNL     1      89.247   3.756 -24.058  1.00  0.00     0.000 C 
BRANCH   8   9
ATOM      9  C   UNL     1      88.638   2.976 -25.239  1.00  0.00     0.000 C 
BRANCH   9  10
ATOM     10  C   UNL     1      89.073   3.472 -26.631  1.00  0.00     0.000 C 
BRANCH  10  11
ATOM     11  C   UNL     1      87.984   4.299 -27.335  1.00  0.00     0.000 C 
BRANCH  11  12
ATOM     12  C   UNL     1      88.551   5.568 -27.993  1.00  0.00     0.006 C 
BRANCH  12  13
ATOM     13  C   UNL     1      90.073   5.497 -28.171  1.00  0.00     0.053 C 
BRANCH  13  14
ATOM     14  C   UNL     1      90.453   5.784 -29.589  1.00  0.00     0.041 C 
ATOM     15  O   UNL     1      91.563   6.318 -29.852  1.00  0.00    -0.550 OA
ATOM     16  O   UNL     1      89.567   5.494 -30.620  1.00  0.00    -0.550 OA
ENDBRANCH  13  14
ENDBRANCH  12  13
ENDBRANCH  11  12
ENDBRANCH  10  11
ENDBRANCH   9  10
ENDBRANCH   8   9
ENDBRANCH   7   8
ENDBRANCH   6   7
ENDBRANCH   5   6
ENDBRANCH   4   5
ENDBRANCH   3   4
ENDBRANCH   2   3
ENDBRANCH   1   2
BRANCH   1  17
ATOM     17  C   UNL     1      92.297   1.731 -25.664  1.00  0.00     0.000 C 
BRANCH  17  18
ATOM     18  C   UNL     1      92.598   1.406 -24.192  1.00  0.00     0.000 C 
BRANCH  18  19
ATOM     19  C   UNL     1      93.984   1.913 -23.749  1.00  0.00     0.000 C 
BRANCH  19  20
ATOM     20  C   UNL     1      94.619   1.017 -22.674  1.00  0.00     0.000 C 
BRANCH  20  21
ATOM     21  C   UNL     1      96.120   0.789 -22.916  1.00  0.00     0.000 C 
BRANCH  21  22
ATOM     22  C   UNL     1      96.398  -0.139 -24.111  1.00  0.00    -0.000 C 
BRANCH  22  23
ATOM     23  C   UNL     1      97.776   0.048 -24.780  1.00  0.00    -0.000 C 
BRANCH  23  24
ATOM     24  C   UNL     1      98.671   1.131 -24.149  1.00  0.00    -0.000 C 
BRANCH  24  25
ATOM     25  C   UNL     1      98.962   2.299 -25.102  1.00  0.00    -0.000 C 
BRANCH  25  26
ATOM     26  C   UNL     1      97.875   3.379 -24.989  1.00  0.00    -0.000 C 
BRANCH  26  27
ATOM     27  C   UNL     1      97.012   3.494 -26.256  1.00  0.00    -0.000 C 
BRANCH  27  28
ATOM     28  C   UNL     1      97.788   3.395 -27.584  1.00  0.00    -0.000 C 
BRANCH  28  29
ATOM     29  C   UNL     1      98.244   4.758 -28.147  1.00  0.00    -0.003 C 
ATOM     30  C   UNL     1      99.713   5.058 -27.842  1.00  0.00     0.004 C 
ENDBRANCH  28  29
ENDBRANCH  27  28
ENDBRANCH  26  27
ENDBRANCH  25  26
ENDBRANCH  24  25
ENDBRANCH  23  24
ENDBRANCH  22  23
ENDBRANCH  21  22
ENDBRANCH  20  21
ENDBRANCH  19  20
ENDBRANCH  18  19
ENDBRANCH  17  18
ENDBRANCH   1  17
TORSDOF 26
ENDMDL
MODEL 8
REMARK VINA RESULT:    -4.148      2.206      3.304
REMARK INTER + INTRA:         -14.356
REMARK INTER:                  -9.655
REMARK INTRA:                  -4.701
REMARK UNBOUND:                -3.904
REMARK SMILES CCCCCCCCCCCCCCCCCCCCCCCCCCCC(=O)[O-]
REMARK SMILES IDX 15 1 16 2 17 3 18 4 19 5 20 6 21 7 22 8 23 9 24 10 25 11
REMARK SMILES IDX 26 12 27 13 28 14 29 15 30 16 14 17 13 18 12 19 11 20 10 21
REMARK SMILES IDX 9 22 8 23 7 24 6 25 5 26 4 27 3 28 2 29 1 30
REMARK H PARENT
REMARK Flexibility Score: inf
ROOT
ATOM      1  C   UNL     1      94.132   3.738 -23.123  1.00  0.00     0.000 C 
ENDROOT
BRANCH   1   2
ATOM      2  C   UNL     1      92.652   4.135 -23.274  1.00  0.00     0.000 C 
BRANCH   2   3
ATOM      3  C   UNL     1      92.402   5.421 -24.089  1.00  0.00     0.000 C 
BRANCH   3   4
ATOM      4  C   UNL     1      93.113   5.480 -25.453  1.00  0.00     0.000 C 
BRANCH   4   5
ATOM      5  C   UNL     1      92.447   6.456 -26.433  1.00  0.00     0.000 C 
BRANCH   5   6
ATOM      6  C   UNL     1      91.969   5.726 -27.697  1.00  0.00     0.000 C 
BRANCH   6   7
ATOM      7  C   UNL     1      92.816   4.482 -28.012  1.00  0.00     0.000 C 
BRANCH   7   8
ATOM      8  C   UNL     1      92.066   3.464 -28.888  1.00  0.00     0.000 C 
BRANCH   8   9
ATOM      9  C   UNL     1      91.001   2.673 -28.106  1.00  0.00     0.000 C 
BRANCH   9  10
ATOM     10  C   UNL     1      91.422   2.260 -26.682  1.00  0.00     0.000 C 
BRANCH  10  11
ATOM     11  C   UNL     1      90.406   2.695 -25.612  1.00  0.00     0.000 C 
BRANCH  11  12
ATOM     12  C   UNL     1      89.271   3.550 -26.200  1.00  0.00     0.006 C 
BRANCH  12  13
ATOM     13  C   UNL     1      88.780   4.619 -25.215  1.00  0.00     0.053 C 
BRANCH  13  14
ATOM     14  C   UNL     1      87.337   4.408 -24.885  1.00  0.00     0.041 C 
ATOM     15  O   UNL     1      86.454   4.564 -25.771  1.00  0.00    -0.550 OA
ATOM     16  O   UNL     1      86.960   4.073 -23.589  1.00  0.00    -0.550 OA
ENDBRANCH  13  14
ENDBRANCH  12  13
ENDBRANCH  11  12
ENDBRANCH  10  11
ENDBRANCH   9  10
ENDBRANCH   8   9
ENDBRANCH   7   8
ENDBRANCH   6   7
ENDBRANCH   5   6
ENDBRANCH   4   5
ENDBRANCH   3   4
ENDBRANCH   2   3
ENDBRANCH   1   2
BRANCH   1  17
ATOM     17  C   UNL     1      94.409   2.291 -23.565  1.00  0.00     0.000 C 
BRANCH  17  18
ATOM     18  C   UNL     1      94.844   2.199 -25.036  1.00  0.00     0.000 C 
BRANCH  18  19
ATOM     19  C   UNL     1      96.127   3.002 -25.322  1.00  0.00     0.000 C 
BRANCH  19  20
ATOM     20  C   UNL     1      96.087   3.705 -26.688  1.00  0.00     0.000 C 
BRANCH  20  21
ATOM     21  C   UNL     1      97.437   4.341 -27.058  1.00  0.00     0.000 C 
BRANCH  21  22
ATOM     22  C   UNL     1      98.636   3.585 -26.461  1.00  0.00    -0.000 C 
BRANCH  22  23
ATOM     23  C   UNL     1      99.325   2.588 -27.417  1.00  0.00    -0.000 C 
BRANCH  23  24
ATOM     24  C   UNL     1      99.420   1.140 -26.899  1.00  0.00    -0.000 C 
BRANCH  24  25
ATOM     25  C   UNL     1      99.339   1.044 -25.370  1.00  0.00    -0.000 C 
BRANCH  25  26
ATOM     26  C   UNL     1      98.286   0.011 -24.943  1.00  0.00    -0.000 C 
BRANCH  26  27
ATOM     27  C   UNL     1      97.944   0.088 -23.446  1.00  0.00    -0.000 C 
BRANCH  27  28
ATOM     28  C   UNL     1      96.637  -0.619 -23.038  1.00  0.00    -0.000 C 
BRANCH  28  29
ATOM     29  C   UNL     1      96.177  -1.707 -24.031  1.00  0.00    -0.003 C 
ATOM     30  C   UNL     1      96.748  -3.087 -23.697  1.00  0.00     0.004 C 
ENDBRANCH  28  29
ENDBRANCH  27  28
ENDBRANCH  26  27
ENDBRANCH  25  26
ENDBRANCH  24  25
ENDBRANCH  23  24
ENDBRANCH  22  23
ENDBRANCH  21  22
ENDBRANCH  20  21
ENDBRANCH  19  20
ENDBRANCH  18  19
ENDBRANCH  17  18
ENDBRANCH   1  17
TORSDOF 26
ENDMDL
MODEL 9
REMARK VINA RESULT:    -4.132      2.333      7.125
REMARK INTER + INTRA:         -14.316
REMARK INTER:                 -10.276
REMARK INTRA:                  -4.040
REMARK UNBOUND:                -3.904
REMARK SMILES CCCCCCCCCCCCCCCCCCCCCCCCCCCC(=O)[O-]
REMARK SMILES IDX 15 1 16 2 17 3 18 4 19 5 20 6 21 7 22 8 23 9 24 10 25 11
REMARK SMILES IDX 26 12 27 13 28 14 29 15 30 16 14 17 13 18 12 19 11 20 10 21
REMARK SMILES IDX 9 22 8 23 7 24 6 25 5 26 4 27 3 28 2 29 1 30
REMARK H PARENT
REMARK Flexibility Score: inf
ROOT
ATOM      1  C   UNL     1      98.276   4.675 -27.333  1.00  0.00     0.000 C 
ENDROOT
BRANCH   1   2
ATOM      2  C   UNL     1      99.516   4.964 -28.198  1.00  0.00     0.000 C 
BRANCH   2   3
ATOM      3  C   UNL     1      99.730   3.993 -29.378  1.00  0.00     0.000 C 
BRANCH   3   4
ATOM      4  C   UNL     1      98.702   2.852 -29.481  1.00  0.00     0.000 C 
BRANCH   4   5
ATOM      5  C   UNL     1      99.354   1.468 -29.601  1.00  0.00     0.000 C 
BRANCH   5   6
ATOM      6  C   UNL     1      99.239   0.690 -28.282  1.00  0.00     0.000 C 
BRANCH   6   7
ATOM      7  C   UNL     1     100.123   1.282 -27.172  1.00  0.00     0.000 C 
BRANCH   7   8
ATOM      8  C   UNL     1      99.932   0.569 -25.822  1.00  0.00     0.000 C 
BRANCH   8   9
ATOM      9  C   UNL     1      98.581  -0.164 -25.720  1.00  0.00     0.000 C 
BRANCH   9  10
ATOM     10  C   UNL     1      98.640  -1.528 -25.007  1.00  0.00     0.000 C 
BRANCH  10  11
ATOM     11  C   UNL     1      97.357  -1.844 -24.219  1.00  0.00     0.000 C 
BRANCH  11  12
ATOM     12  C   UNL     1      97.650  -2.221 -22.758  1.00  0.00     0.006 C 
BRANCH  12  13
ATOM     13  C   UNL     1      97.119  -1.174 -21.771  1.00  0.00     0.053 C 
BRANCH  13  14
ATOM     14  C   UNL     1      98.238  -0.342 -21.230  1.00  0.00     0.041 C 
ATOM     15  O   UNL     1      98.507  -0.364 -19.999  1.00  0.00    -0.550 OA
ATOM     16  O   UNL     1      98.965   0.485 -22.078  1.00  0.00    -0.550 OA
ENDBRANCH  13  14
ENDBRANCH  12  13
ENDBRANCH  11  12
ENDBRANCH  10  11
ENDBRANCH   9  10
ENDBRANCH   8   9
ENDBRANCH   7   8
ENDBRANCH   6   7
ENDBRANCH   5   6
ENDBRANCH   4   5
ENDBRANCH   3   4
ENDBRANCH   2   3
ENDBRANCH   1   2
BRANCH   1  17
ATOM     17  C   UNL     1      98.636   4.256 -25.898  1.00  0.00     0.000 C 
BRANCH  17  18
ATOM     18  C   UNL     1      97.586   3.321 -25.277  1.00  0.00     0.000 C 
BRANCH  18  19
ATOM     19  C   UNL     1      96.545   2.841 -26.305  1.00  0.00     0.000 C 
BRANCH  19  20
ATOM     20  C   UNL     1      95.104   2.974 -25.787  1.00  0.00     0.000 C 
BRANCH  20  21
ATOM     21  C   UNL     1      94.177   3.658 -26.805  1.00  0.00     0.000 C 
BRANCH  21  22
ATOM     22  C   UNL     1      92.771   3.932 -26.242  1.00  0.00    -0.000 C 
BRANCH  22  23
ATOM     23  C   UNL     1      92.414   5.423 -26.066  1.00  0.00    -0.000 C 
BRANCH  23  24
ATOM     24  C   UNL     1      92.590   5.978 -24.640  1.00  0.00    -0.000 C 
BRANCH  24  25
ATOM     25  C   UNL     1      92.122   5.000 -23.555  1.00  0.00    -0.000 C 
BRANCH  25  26
ATOM     26  C   UNL     1      93.322   4.360 -22.842  1.00  0.00    -0.000 C 
BRANCH  26  27
ATOM     27  C   UNL     1      92.990   2.993 -22.221  1.00  0.00    -0.000 C 
BRANCH  27  28
ATOM     28  C   UNL     1      91.944   2.164 -22.991  1.00  0.00    -0.000 C 
BRANCH  28  29
ATOM     29  C   UNL     1      92.541   0.982 -23.783  1.00  0.00    -0.003 C 
ATOM     30  C   UNL     1      94.000   0.707 -23.417  1.00  0.00     0.004 C 
ENDBRANCH  28  29
ENDBRANCH  27  28
ENDBRANCH  26  27
ENDBRANCH  25  26
ENDBRANCH  24  25
ENDBRANCH  23  24
ENDBRANCH  22  23
ENDBRANCH  21  22
ENDBRANCH  20  21
ENDBRANCH  19  20
ENDBRANCH  18  19
ENDBRANCH  17  18
ENDBRANCH   1  17
TORSDOF 26
ENDMDL
