MODEL 1
REMARK VINA RESULT:    -3.285      0.000      0.000
REMARK INTER + INTRA:          -9.025
REMARK INTER:                  -6.357
REMARK INTRA:                  -2.668
REMARK UNBOUND:                -2.668
REMARK SMILES CCCCCCCCCCCCCCCCCC(=O)[O-]
REMARK SMILES IDX 10 1 11 2 12 3 13 4 14 5 15 6 16 7 17 8 18 9 19 10 20 11
REMARK SMILES IDX 9 12 8 13 7 14 6 15 5 16 4 17 3 18 2 19 1 20
REMARK H PARENT
REMARK Flexibility Score: inf
ROOT
ATOM      1  C   UNL     1      85.355  29.127  26.479  1.00  0.00     0.000 C 
ENDROOT
BRANCH   1   2
ATOM      2  C   UNL     1      86.035  30.313  25.778  1.00  0.00     0.000 C 
BRANCH   2   3
ATOM      3  C   UNL     1      86.239  31.517  26.713  1.00  0.00     0.000 C 
BRANCH   3   4
ATOM      4  C   UNL     1      85.057  31.725  27.673  1.00  0.00     0.000 C 
BRANCH   4   5
ATOM      5  C   UNL     1      85.488  31.706  29.150  1.00  0.00     0.000 C 
BRANCH   5   6
ATOM      6  C   UNL     1      84.358  31.254  30.088  1.00  0.00     0.000 C 
BRANCH   6   7
ATOM      7  C   UNL     1      84.194  32.181  31.305  1.00  0.00     0.006 C 
BRANCH   7   8
ATOM      8  C   UNL     1      85.093  33.421  31.212  1.00  0.00     0.053 C 
BRANCH   8   9
ATOM      9  C   UNL     1      85.820  33.676  32.498  1.00  0.00     0.041 C 
ATOM     10  O   UNL     1      86.226  34.835  32.777  1.00  0.00    -0.550 OA
ATOM     11  O   UNL     1      86.017  32.641  33.402  1.00  0.00    -0.550 OA
ENDBRANCH   8   9
ENDBRANCH   7   8
ENDBRANCH   6   7
ENDBRANCH   5   6
ENDBRANCH   4   5
ENDBRANCH   3   4
ENDBRANCH   2   3
ENDBRANCH   1   2
BRANCH   1  12
ATOM     12  C   UNL     1      85.996  27.779  26.113  1.00  0.00     0.000 C 
BRANCH  12  13
ATOM     13  C   UNL     1      86.318  26.915  27.346  1.00  0.00    -0.000 C 
BRANCH  13  14
ATOM     14  C   UNL     1      86.377  27.717  28.664  1.00  0.00    -0.000 C 
BRANCH  14  15
ATOM     15  C   UNL     1      87.824  28.015  29.096  1.00  0.00    -0.000 C 
BRANCH  15  16
ATOM     16  C   UNL     1      88.143  29.518  29.117  1.00  0.00    -0.000 C 
BRANCH  16  17
ATOM     17  C   UNL     1      89.174  29.920  28.049  1.00  0.00    -0.000 C 
BRANCH  17  18
ATOM     18  C   UNL     1      89.610  28.738  27.163  1.00  0.00    -0.000 C 
BRANCH  18  19
ATOM     19  C   UNL     1      90.092  29.126  25.753  1.00  0.00    -0.003 C 
ATOM     20  C   UNL     1      89.185  28.593  24.643  1.00  0.00     0.004 C 
ENDBRANCH  18  19
ENDBRANCH  17  18
ENDBRANCH  16  17
ENDBRANCH  15  16
ENDBRANCH  14  15
ENDBRANCH  13  14
ENDBRANCH  12  13
ENDBRANCH   1  12
TORSDOF 16
ENDMDL
MODEL 2
REMARK VINA RESULT:    -3.249      3.317      6.409
REMARK INTER + INTRA:          -8.957
REMARK INTER:                  -6.181
REMARK INTRA:                  -2.776
REMARK UNBOUND:                -2.668
REMARK SMILES CCCCCCCCCCCCCCCCCC(=O)[O-]
REMARK SMILES IDX 10 1 11 2 12 3 13 4 14 5 15 6 16 7 17 8 18 9 19 10 20 11
REMARK SMILES IDX 9 12 8 13 7 14 6 15 5 16 4 17 3 18 2 19 1 20
REMARK H PARENT
REMARK Flexibility Score: inf
ROOT
ATOM      1  C   UNL     1      88.673  28.618  25.434  1.00  0.00     0.000 C 
ENDROOT
BRANCH   1   2
ATOM      2  C   UNL     1      89.824  29.186  26.281  1.00  0.00     0.000 C 
BRANCH   2   3
ATOM      3  C   UNL     1      89.703  28.817  27.769  1.00  0.00     0.000 C 
BRANCH   3   4
ATOM      4  C   UNL     1      88.950  29.885  28.580  1.00  0.00     0.000 C 
BRANCH   4   5
ATOM      5  C   UNL     1      87.736  29.308  29.329  1.00  0.00     0.000 C 
BRANCH   5   6
ATOM      6  C   UNL     1      87.545  27.805  29.071  1.00  0.00     0.000 C 
BRANCH   6   7
ATOM      7  C   UNL     1      86.140  27.471  28.540  1.00  0.00     0.006 C 
BRANCH   7   8
ATOM      8  C   UNL     1      86.191  26.678  27.227  1.00  0.00     0.053 C 
BRANCH   8   9
ATOM      9  C   UNL     1      85.880  25.228  27.442  1.00  0.00     0.041 C 
ATOM     10  O   UNL     1      85.656  24.793  28.602  1.00  0.00    -0.550 OA
ATOM     11  O   UNL     1      85.804  24.365  26.356  1.00  0.00    -0.550 OA
ENDBRANCH   8   9
ENDBRANCH   7   8
ENDBRANCH   6   7
ENDBRANCH   5   6
ENDBRANCH   4   5
ENDBRANCH   3   4
ENDBRANCH   2   3
ENDBRANCH   1   2
BRANCH   1  12
ATOM     12  C   UNL     1      87.816  29.720  24.790  1.00  0.00     0.000 C 
BRANCH  12  13
ATOM     13  C   UNL     1      86.591  30.098  25.641  1.00  0.00    -0.000 C 
BRANCH  13  14
ATOM     14  C   UNL     1      86.612  31.560  26.139  1.00  0.00    -0.000 C 
BRANCH  14  15
ATOM     15  C   UNL     1      85.336  31.923  26.920  1.00  0.00    -0.000 C 
BRANCH  15  16
ATOM     16  C   UNL     1      84.797  30.753  27.758  1.00  0.00    -0.000 C 
BRANCH  16  17
ATOM     17  C   UNL     1      83.805  31.209  28.842  1.00  0.00    -0.000 C 
BRANCH  17  18
ATOM     18  C   UNL     1      84.391  31.129  30.263  1.00  0.00    -0.000 C 
BRANCH  18  19
ATOM     19  C   UNL     1      85.592  32.055  30.525  1.00  0.00    -0.003 C 
ATOM     20  C   UNL     1      85.184  33.428  31.059  1.00  0.00     0.004 C 
ENDBRANCH  18  19
ENDBRANCH  17  18
ENDBRANCH  16  17
ENDBRANCH  15  16
ENDBRANCH  14  15
ENDBRANCH  13  14
ENDBRANCH  12  13
ENDBRANCH   1  12
TORSDOF 16
ENDMDL
MODEL 3
REMARK VINA RESULT:    -3.225      3.367      6.424
REMARK INTER + INTRA:          -8.909
REMARK INTER:                  -6.039
REMARK INTRA:                  -2.870
REMARK UNBOUND:                -2.668
REMARK SMILES CCCCCCCCCCCCCCCCCC(=O)[O-]
REMARK SMILES IDX 10 1 11 2 12 3 13 4 14 5 15 6 16 7 17 8 18 9 19 10 20 11
REMARK SMILES IDX 9 12 8 13 7 14 6 15 5 16 4 17 3 18 2 19 1 20
REMARK H PARENT
REMARK Flexibility Score: inf
ROOT
ATOM      1  C   UNL     1      89.746  28.555  28.018  1.00  0.00     0.000 C 
ENDROOT
BRANCH   1   2
ATOM      2  C   UNL     1      89.630  29.351  26.708  1.00  0.00     0.000 C 
BRANCH   2   3
ATOM      3  C   UNL     1      88.802  28.617  25.640  1.00  0.00     0.000 C 
BRANCH   3   4
ATOM      4  C   UNL     1      87.485  29.341  25.316  1.00  0.00     0.000 C 
BRANCH   4   5
ATOM      5  C   UNL     1      86.255  28.433  25.495  1.00  0.00     0.000 C 
BRANCH   5   6
ATOM      6  C   UNL     1      86.534  27.239  26.421  1.00  0.00     0.000 C 
BRANCH   6   7
ATOM      7  C   UNL     1      85.808  27.357  27.773  1.00  0.00     0.006 C 
BRANCH   7   8
ATOM      8  C   UNL     1      86.333  26.348  28.802  1.00  0.00     0.053 C 
BRANCH   8   9
ATOM      9  C   UNL     1      85.538  25.078  28.790  1.00  0.00     0.041 C 
ATOM     10  O   UNL     1      86.026  24.028  28.297  1.00  0.00    -0.550 OA
ATOM     11  O   UNL     1      84.270  25.047  29.356  1.00  0.00    -0.550 OA
ENDBRANCH   8   9
ENDBRANCH   7   8
ENDBRANCH   6   7
ENDBRANCH   5   6
ENDBRANCH   4   5
ENDBRANCH   3   4
ENDBRANCH   2   3
ENDBRANCH   1   2
BRANCH   1  12
ATOM     12  C   UNL     1      88.831  29.103  29.124  1.00  0.00     0.000 C 
BRANCH  12  13
ATOM     13  C   UNL     1      88.196  30.457  28.758  1.00  0.00    -0.000 C 
BRANCH  13  14
ATOM     14  C   UNL     1      86.717  30.581  29.183  1.00  0.00    -0.000 C 
BRANCH  14  15
ATOM     15  C   UNL     1      85.849  31.213  28.079  1.00  0.00    -0.000 C 
BRANCH  15  16
ATOM     16  C   UNL     1      84.564  31.853  28.625  1.00  0.00    -0.000 C 
BRANCH  16  17
ATOM     17  C   UNL     1      84.391  31.636  30.138  1.00  0.00    -0.000 C 
BRANCH  17  18
ATOM     18  C   UNL     1      83.195  30.729  30.481  1.00  0.00    -0.000 C 
BRANCH  18  19
ATOM     19  C   UNL     1      83.018  29.509  29.559  1.00  0.00    -0.003 C 
ATOM     20  C   UNL     1      83.136  28.177  30.299  1.00  0.00     0.004 C 
ENDBRANCH  18  19
ENDBRANCH  17  18
ENDBRANCH  16  17
ENDBRANCH  15  16
ENDBRANCH  14  15
ENDBRANCH  13  14
ENDBRANCH  12  13
ENDBRANCH   1  12
TORSDOF 16
ENDMDL
MODEL 4
REMARK VINA RESULT:    -3.185      3.711      5.960
REMARK INTER + INTRA:          -8.833
REMARK INTER:                  -6.686
REMARK INTRA:                  -2.147
REMARK UNBOUND:                -2.668
REMARK SMILES CCCCCCCCCCCCCCCCCC(=O)[O-]
REMARK SMILES IDX 10 1 11 2 12 3 13 4 14 5 15 6 16 7 17 8 18 9 19 10 20 11
REMARK SMILES IDX 9 12 8 13 7 14 6 15 5 16 4 17 3 18 2 19 1 20
REMARK H PARENT
REMARK Flexibility Score: inf
ROOT
ATOM      1  C   UNL     1      86.103  27.263  28.475  1.00  0.00     0.000 C 
ENDROOT
BRANCH   1   2
ATOM      2  C   UNL     1      86.149  26.737  27.031  1.00  0.00     0.000 C 
BRANCH   2   3
ATOM      3  C   UNL     1      85.761  25.251  26.929  1.00  0.00     0.000 C 
BRANCH   3   4
ATOM      4  C   UNL     1      85.674  24.570  28.304  1.00  0.00     0.000 C 
BRANCH   4   5
ATOM      5  C   UNL     1      84.480  23.605  28.408  1.00  0.00     0.000 C 
BRANCH   5   6
ATOM      6  C   UNL     1      83.799  23.656  29.784  1.00  0.00     0.000 C 
BRANCH   6   7
ATOM      7  C   UNL     1      82.435  24.368  29.741  1.00  0.00     0.006 C 
BRANCH   7   8
ATOM      8  C   UNL     1      82.501  25.781  30.336  1.00  0.00     0.053 C 
BRANCH   8   9
ATOM      9  C   UNL     1      81.946  25.823  31.727  1.00  0.00     0.041 C 
ATOM     10  O   UNL     1      82.243  26.772  32.500  1.00  0.00    -0.550 OA
ATOM     11  O   UNL     1      81.072  24.833  32.158  1.00  0.00    -0.550 OA
ENDBRANCH   8   9
ENDBRANCH   7   8
ENDBRANCH   6   7
ENDBRANCH   5   6
ENDBRANCH   4   5
ENDBRANCH   3   4
ENDBRANCH   2   3
ENDBRANCH   1   2
BRANCH   1  12
ATOM     12  C   UNL     1      87.496  27.616  29.019  1.00  0.00     0.000 C 
BRANCH  12  13
ATOM     13  C   UNL     1      87.660  29.118  29.312  1.00  0.00    -0.000 C 
BRANCH  13  14
ATOM     14  C   UNL     1      89.027  29.688  28.872  1.00  0.00    -0.000 C 
BRANCH  14  15
ATOM     15  C   UNL     1      89.730  28.780  27.848  1.00  0.00    -0.000 C 
BRANCH  15  16
ATOM     16  C   UNL     1      89.763  29.387  26.437  1.00  0.00    -0.000 C 
BRANCH  16  17
ATOM     17  C   UNL     1      88.827  28.659  25.457  1.00  0.00    -0.000 C 
BRANCH  17  18
ATOM     18  C   UNL     1      87.731  29.575  24.882  1.00  0.00    -0.000 C 
BRANCH  18  19
ATOM     19  C   UNL     1      87.242  30.682  25.835  1.00  0.00    -0.003 C 
ATOM     20  C   UNL     1      85.865  30.393  26.432  1.00  0.00     0.004 C 
ENDBRANCH  18  19
ENDBRANCH  17  18
ENDBRANCH  16  17
ENDBRANCH  15  16
ENDBRANCH  14  15
ENDBRANCH  13  14
ENDBRANCH  12  13
ENDBRANCH   1  12
TORSDOF 16
ENDMDL
MODEL 5
REMARK VINA RESULT:    -3.165      2.016      2.563
REMARK INTER + INTRA:          -8.794
REMARK INTER:                  -5.685
REMARK INTRA:                  -3.109
REMARK UNBOUND:                -2.668
REMARK SMILES CCCCCCCCCCCCCCCCCC(=O)[O-]
REMARK SMILES IDX 10 1 11 2 12 3 13 4 14 5 15 6 16 7 17 8 18 9 19 10 20 11
REMARK SMILES IDX 9 12 8 13 7 14 6 15 5 16 4 17 3 18 2 19 1 20
REMARK H PARENT
REMARK Flexibility Score: inf
ROOT
ATOM      1  C   UNL     1      85.338  28.978  26.499  1.00  0.00     0.000 C 
ENDROOT
BRANCH   1   2
ATOM      2  C   UNL     1      86.005  30.192  25.834  1.00  0.00     0.000 C 
BRANCH   2   3
ATOM      3  C   UNL     1      86.053  31.422  26.756  1.00  0.00     0.000 C 
BRANCH   3   4
ATOM      4  C   UNL     1      84.747  32.231  26.728  1.00  0.00     0.000 C 
BRANCH   4   5
ATOM      5  C   UNL     1      83.918  32.055  28.012  1.00  0.00     0.000 C 
BRANCH   5   6
ATOM      6  C   UNL     1      84.730  32.351  29.283  1.00  0.00     0.000 C 
BRANCH   6   7
ATOM      7  C   UNL     1      84.721  31.176  30.277  1.00  0.00     0.006 C 
BRANCH   7   8
ATOM      8  C   UNL     1      83.779  30.050  29.832  1.00  0.00     0.053 C 
BRANCH   8   9
ATOM      9  C   UNL     1      82.896  29.591  30.952  1.00  0.00     0.041 C 
ATOM     10  O   UNL     1      82.798  28.364  31.221  1.00  0.00    -0.550 OA
ATOM     11  O   UNL     1      82.208  30.520  31.721  1.00  0.00    -0.550 OA
ENDBRANCH   8   9
ENDBRANCH   7   8
ENDBRANCH   6   7
ENDBRANCH   5   6
ENDBRANCH   4   5
ENDBRANCH   3   4
ENDBRANCH   2   3
ENDBRANCH   1   2
BRANCH   1  12
ATOM     12  C   UNL     1      85.950  27.644  26.043  1.00  0.00     0.000 C 
BRANCH  12  13
ATOM     13  C   UNL     1      86.504  26.810  27.211  1.00  0.00    -0.000 C 
BRANCH  13  14
ATOM     14  C   UNL     1      86.326  27.481  28.590  1.00  0.00    -0.000 C 
BRANCH  14  15
ATOM     15  C   UNL     1      87.669  27.933  29.192  1.00  0.00    -0.000 C 
BRANCH  15  16
ATOM     16  C   UNL     1      87.798  29.461  29.284  1.00  0.00    -0.000 C 
BRANCH  16  17
ATOM     17  C   UNL     1      89.029  29.998  28.534  1.00  0.00    -0.000 C 
BRANCH  17  18
ATOM     18  C   UNL     1      89.597  28.992  27.517  1.00  0.00    -0.000 C 
BRANCH  18  19
ATOM     19  C   UNL     1      89.852  29.563  26.110  1.00  0.00    -0.003 C 
ATOM     20  C   UNL     1      89.328  28.660  24.993  1.00  0.00     0.004 C 
ENDBRANCH  18  19
ENDBRANCH  17  18
ENDBRANCH  16  17
ENDBRANCH  15  16
ENDBRANCH  14  15
ENDBRANCH  13  14
ENDBRANCH  12  13
ENDBRANCH   1  12
TORSDOF 16
ENDMDL
MODEL 6
REMARK VINA RESULT:    -3.159      3.953      6.194
REMARK INTER + INTRA:          -8.782
REMARK INTER:                  -6.664
REMARK INTRA:                  -2.117
REMARK UNBOUND:                -2.668
REMARK SMILES CCCCCCCCCCCCCCCCCC(=O)[O-]
REMARK SMILES IDX 10 1 11 2 12 3 13 4 14 5 15 6 16 7 17 8 18 9 19 10 20 11
REMARK SMILES IDX 9 12 8 13 7 14 6 15 5 16 4 17 3 18 2 19 1 20
REMARK H PARENT
REMARK Flexibility Score: inf
ROOT
ATOM      1  C   UNL     1      84.348  29.503  27.110  1.00  0.00     0.000 C 
ENDROOT
BRANCH   1   2
ATOM      2  C   UNL     1      84.404  27.967  27.144  1.00  0.00     0.000 C 
BRANCH   2   3
ATOM      3  C   UNL     1      85.739  27.411  26.619  1.00  0.00     0.000 C 
BRANCH   3   4
ATOM      4  C   UNL     1      86.268  26.247  27.473  1.00  0.00     0.000 C 
BRANCH   4   5
ATOM      5  C   UNL     1      85.708  24.886  27.024  1.00  0.00     0.000 C 
BRANCH   5   6
ATOM      6  C   UNL     1      85.900  23.791  28.085  1.00  0.00     0.000 C 
BRANCH   6   7
ATOM      7  C   UNL     1      84.564  23.269  28.643  1.00  0.00     0.006 C 
BRANCH   7   8
ATOM      8  C   UNL     1      83.927  24.253  29.633  1.00  0.00     0.053 C 
BRANCH   8   9
ATOM      9  C   UNL     1      82.996  23.560  30.582  1.00  0.00     0.041 C 
ATOM     10  O   UNL     1      82.036  22.875  30.142  1.00  0.00    -0.550 OA
ATOM     11  O   UNL     1      83.212  23.643  31.952  1.00  0.00    -0.550 OA
ENDBRANCH   8   9
ENDBRANCH   7   8
ENDBRANCH   6   7
ENDBRANCH   5   6
ENDBRANCH   4   5
ENDBRANCH   3   4
ENDBRANCH   2   3
ENDBRANCH   1   2
BRANCH   1  12
ATOM     12  C   UNL     1      85.738  30.140  26.957  1.00  0.00     0.000 C 
BRANCH  12  13
ATOM     13  C   UNL     1      86.101  31.072  28.126  1.00  0.00    -0.000 C 
BRANCH  13  14
ATOM     14  C   UNL     1      86.979  30.399  29.204  1.00  0.00    -0.000 C 
BRANCH  14  15
ATOM     15  C   UNL     1      88.448  30.278  28.760  1.00  0.00    -0.000 C 
BRANCH  15  16
ATOM     16  C   UNL     1      88.858  28.831  28.445  1.00  0.00    -0.000 C 
BRANCH  16  17
ATOM     17  C   UNL     1      89.710  28.722  27.169  1.00  0.00    -0.000 C 
BRANCH  17  18
ATOM     18  C   UNL     1      89.682  30.004  26.318  1.00  0.00    -0.000 C 
BRANCH  18  19
ATOM     19  C   UNL     1      88.908  29.888  24.992  1.00  0.00    -0.003 C 
ATOM     20  C   UNL     1      88.545  28.447  24.634  1.00  0.00     0.004 C 
ENDBRANCH  18  19
ENDBRANCH  17  18
ENDBRANCH  16  17
ENDBRANCH  15  16
ENDBRANCH  14  15
ENDBRANCH  13  14
ENDBRANCH  12  13
ENDBRANCH   1  12
TORSDOF 16
ENDMDL
MODEL 7
REMARK VINA RESULT:    -3.122      4.419      6.831
REMARK INTER + INTRA:          -8.712
REMARK INTER:                  -6.402
REMARK INTRA:                  -2.310
REMARK UNBOUND:                -2.668
REMARK SMILES CCCCCCCCCCCCCCCCCC(=O)[O-]
REMARK SMILES IDX 10 1 11 2 12 3 13 4 14 5 15 6 16 7 17 8 18 9 19 10 20 11
REMARK SMILES IDX 9 12 8 13 7 14 6 15 5 16 4 17 3 18 2 19 1 20
REMARK H PARENT
REMARK Flexibility Score: inf
ROOT
ATOM      1  C   UNL     1      86.755  28.736  28.733  1.00  0.00     0.000 C 
ENDROOT
BRANCH   1   2
ATOM      2  C   UNL     1      87.196  27.361  29.259  1.00  0.00     0.000 C 
BRANCH   2   3
ATOM      3  C   UNL     1      86.248  26.229  28.828  1.00  0.00     0.000 C 
BRANCH   3   4
ATOM      4  C   UNL     1      86.181  26.066  27.301  1.00  0.00     0.000 C 
BRANCH   4   5
ATOM      5  C   UNL     1      85.611  24.700  26.879  1.00  0.00     0.000 C 
BRANCH   5   6
ATOM      6  C   UNL     1      85.832  23.615  27.944  1.00  0.00     0.000 C 
BRANCH   6   7
ATOM      7  C   UNL     1      84.534  22.875  28.312  1.00  0.00     0.006 C 
BRANCH   7   8
ATOM      8  C   UNL     1      83.827  23.512  29.516  1.00  0.00     0.053 C 
BRANCH   8   9
ATOM      9  C   UNL     1      82.457  24.002  29.159  1.00  0.00     0.041 C 
ATOM     10  O   UNL     1      81.531  23.976  30.012  1.00  0.00    -0.550 OA
ATOM     11  O   UNL     1      82.212  24.522  27.895  1.00  0.00    -0.550 OA
ENDBRANCH   8   9
ENDBRANCH   7   8
ENDBRANCH   6   7
ENDBRANCH   5   6
ENDBRANCH   4   5
ENDBRANCH   3   4
ENDBRANCH   2   3
ENDBRANCH   1   2
BRANCH   1  12
ATOM     12  C   UNL     1      87.895  29.766  28.749  1.00  0.00     0.000 C 
BRANCH  12  13
ATOM     13  C   UNL     1      89.289  29.116  28.704  1.00  0.00    -0.000 C 
BRANCH  13  14
ATOM     14  C   UNL     1      89.764  28.770  27.276  1.00  0.00    -0.000 C 
BRANCH  14  15
ATOM     15  C   UNL     1      89.719  29.990  26.339  1.00  0.00    -0.000 C 
BRANCH  15  16
ATOM     16  C   UNL     1      88.860  29.749  25.087  1.00  0.00    -0.000 C 
BRANCH  16  17
ATOM     17  C   UNL     1      88.077  28.427  25.152  1.00  0.00    -0.000 C 
BRANCH  17  18
ATOM     18  C   UNL     1      86.669  28.533  24.540  1.00  0.00    -0.000 C 
BRANCH  18  19
ATOM     19  C   UNL     1      85.807  29.687  25.085  1.00  0.00    -0.003 C 
ATOM     20  C   UNL     1      84.621  29.206  25.919  1.00  0.00     0.004 C 
ENDBRANCH  18  19
ENDBRANCH  17  18
ENDBRANCH  16  17
ENDBRANCH  15  16
ENDBRANCH  14  15
ENDBRANCH  13  14
ENDBRANCH  12  13
ENDBRANCH   1  12
TORSDOF 16
ENDMDL
MODEL 8
REMARK VINA RESULT:    -3.096      1.255      3.559
REMARK INTER + INTRA:          -8.661
REMARK INTER:                  -6.108
REMARK INTRA:                  -2.553
REMARK UNBOUND:                -2.668
REMARK SMILES CCCCCCCCCCCCCCCCCC(=O)[O-]
REMARK SMILES IDX 10 1 11 2 12 3 13 4 14 5 15 6 16 7 17 8 18 9 19 10 20 11
REMARK SMILES IDX 9 12 8 13 7 14 6 15 5 16 4 17 3 18 2 19 1 20
REMARK H PARENT
REMARK Flexibility Score: inf
ROOT
ATOM      1  C   UNL     1      88.434  29.210  29.102  1.00  0.00     0.000 C 
ENDROOT
BRANCH   1   2
ATOM      2  C   UNL     1      87.968  30.641  28.785  1.00  0.00     0.000 C 
BRANCH   2   3
ATOM      3  C   UNL     1      86.574  30.950  29.356  1.00  0.00     0.000 C 
BRANCH   3   4
ATOM      4  C   UNL     1      85.559  31.322  28.264  1.00  0.00     0.000 C 
BRANCH   4   5
ATOM      5  C   UNL     1      84.130  31.473  28.815  1.00  0.00     0.000 C 
BRANCH   5   6
ATOM      6  C   UNL     1      84.100  31.611  30.345  1.00  0.00     0.000 C 
BRANCH   6   7
ATOM      7  C   UNL     1      83.855  33.060  30.803  1.00  0.00     0.006 C 
BRANCH   7   8
ATOM      8  C   UNL     1      85.161  33.784  31.155  1.00  0.00     0.053 C 
BRANCH   8   9
ATOM      9  C   UNL     1      85.233  34.119  32.614  1.00  0.00     0.041 C 
ATOM     10  O   UNL     1      86.310  34.533  33.117  1.00  0.00    -0.550 OA
ATOM     11  O   UNL     1      84.100  34.007  33.410  1.00  0.00    -0.550 OA
ENDBRANCH   8   9
ENDBRANCH   7   8
ENDBRANCH   6   7
ENDBRANCH   5   6
ENDBRANCH   4   5
ENDBRANCH   3   4
ENDBRANCH   2   3
ENDBRANCH   1   2
BRANCH   1  12
ATOM     12  C   UNL     1      89.614  28.766  28.224  1.00  0.00     0.000 C 
BRANCH  12  13
ATOM     13  C   UNL     1      89.508  29.276  26.776  1.00  0.00    -0.000 C 
BRANCH  13  14
ATOM     14  C   UNL     1      88.656  28.369  25.861  1.00  0.00    -0.000 C 
BRANCH  14  15
ATOM     15  C   UNL     1      87.280  28.986  25.553  1.00  0.00    -0.000 C 
BRANCH  15  16
ATOM     16  C   UNL     1      86.128  28.258  26.263  1.00  0.00    -0.000 C 
BRANCH  16  17
ATOM     17  C   UNL     1      86.563  26.915  26.874  1.00  0.00    -0.000 C 
BRANCH  17  18
ATOM     18  C   UNL     1      85.702  26.498  28.080  1.00  0.00    -0.000 C 
BRANCH  18  19
ATOM     19  C   UNL     1      85.097  27.665  28.882  1.00  0.00    -0.003 C 
ATOM     20  C   UNL     1      83.784  27.298  29.574  1.00  0.00     0.004 C 
ENDBRANCH  18  19
ENDBRANCH  17  18
ENDBRANCH  16  17
ENDBRANCH  15  16
ENDBRANCH  14  15
ENDBRANCH  13  14
ENDBRANCH  12  13
ENDBRANCH   1  12
TORSDOF 16
ENDMDL
MODEL 9
REMARK VINA RESULT:    -3.095      3.747      6.299
REMARK INTER + INTRA:          -8.659
REMARK INTER:                  -6.056
REMARK INTRA:                  -2.602
REMARK UNBOUND:                -2.668
REMARK SMILES CCCCCCCCCCCCCCCCCC(=O)[O-]
REMARK SMILES IDX 10 1 11 2 12 3 13 4 14 5 15 6 16 7 17 8 18 9 19 10 20 11
REMARK SMILES IDX 9 12 8 13 7 14 6 15 5 16 4 17 3 18 2 19 1 20
REMARK H PARENT
REMARK Flexibility Score: inf
ROOT
ATOM      1  C   UNL     1      84.521  29.185  28.287  1.00  0.00     0.000 C 
ENDROOT
BRANCH   1   2
ATOM      2  C   UNL     1      85.720  29.591  27.415  1.00  0.00     0.000 C 
BRANCH   2   3
ATOM      3  C   UNL     1      86.436  30.848  27.939  1.00  0.00     0.000 C 
BRANCH   3   4
ATOM      4  C   UNL     1      87.315  30.557  29.166  1.00  0.00     0.000 C 
BRANCH   4   5
ATOM      5  C   UNL     1      88.807  30.441  28.807  1.00  0.00     0.000 C 
BRANCH   5   6
ATOM      6  C   UNL     1      89.244  28.987  28.570  1.00  0.00     0.000 C 
BRANCH   6   7
ATOM      7  C   UNL     1      89.337  28.636  27.074  1.00  0.00     0.006 C 
BRANCH   7   8
ATOM      8  C   UNL     1      89.714  29.852  26.217  1.00  0.00     0.053 C 
BRANCH   8   9
ATOM      9  C   UNL     1      88.751  30.054  25.087  1.00  0.00     0.041 C 
ATOM     10  O   UNL     1      88.193  29.064  24.544  1.00  0.00    -0.550 OA
ATOM     11  O   UNL     1      88.441  31.339  24.659  1.00  0.00    -0.550 OA
ENDBRANCH   8   9
ENDBRANCH   7   8
ENDBRANCH   6   7
ENDBRANCH   5   6
ENDBRANCH   4   5
ENDBRANCH   3   4
ENDBRANCH   2   3
ENDBRANCH   1   2
BRANCH   1  12
ATOM     12  C   UNL     1      84.564  27.705  28.697  1.00  0.00     0.000 C 
BRANCH  12  13
ATOM     13  C   UNL     1      85.990  27.210  28.999  1.00  0.00    -0.000 C 
BRANCH  13  14
ATOM     14  C   UNL     1      86.348  25.886  28.289  1.00  0.00    -0.000 C 
BRANCH  14  15
ATOM     15  C   UNL     1      85.988  25.917  26.793  1.00  0.00    -0.000 C 
BRANCH  15  16
ATOM     16  C   UNL     1      85.418  24.581  26.290  1.00  0.00    -0.000 C 
BRANCH  16  17
ATOM     17  C   UNL     1      83.895  24.629  26.078  1.00  0.00    -0.000 C 
BRANCH  17  18
ATOM     18  C   UNL     1      83.102  24.447  27.384  1.00  0.00    -0.000 C 
BRANCH  18  19
ATOM     19  C   UNL     1      83.642  23.356  28.327  1.00  0.00    -0.003 C 
ATOM     20  C   UNL     1      83.671  23.791  29.792  1.00  0.00     0.004 C 
ENDBRANCH  18  19
ENDBRANCH  17  18
ENDBRANCH  16  17
ENDBRANCH  15  16
ENDBRANCH  14  15
ENDBRANCH  13  14
ENDBRANCH  12  13
ENDBRANCH   1  12
TORSDOF 16
ENDMDL
