MODEL 1
REMARK VINA RESULT:    -4.001      0.000      0.000
REMARK INTER + INTRA:          -5.192
REMARK INTER:                  -4.936
REMARK INTRA:                  -0.255
REMARK UNBOUND:                -0.255
REMARK SMILES CCCCC=CC(C)=O
REMARK SMILES IDX 4 1 3 2 2 3 1 4 5 5 6 6 7 7 9 8 8 9
REMARK H PARENT
REMARK Flexibility Score: inf
ROOT
ATOM      1  C   UNL     1      17.146  17.761  15.367  1.00  0.00     0.027 C 
ENDROOT
BRANCH   1   2
ATOM      2  C   UNL     1      17.909  17.800  16.701  1.00  0.00     0.004 C 
BRANCH   2   3
ATOM      3  C   UNL     1      19.355  17.298  16.568  1.00  0.00    -0.003 C 
ATOM      4  C   UNL     1      20.087  17.242  17.908  1.00  0.00     0.004 C 
ENDBRANCH   2   3
ENDBRANCH   1   2
BRANCH   1   5
ATOM      5  C   UNL     1      17.427  16.489  14.614  1.00  0.00    -0.023 C 
ATOM      6  C   UNL     1      16.574  15.463  14.455  1.00  0.00     0.042 C 
BRANCH   6   7
ATOM      7  C   UNL     1      15.180  15.389  14.952  1.00  0.00     0.152 C 
ATOM      8  O   UNL     1      14.917  15.343  16.183  1.00  0.00    -0.295 OA
ATOM      9  C   UNL     1      14.052  15.426  13.972  1.00  0.00     0.093 C 
ENDBRANCH   6   7
ENDBRANCH   1   5
TORSDOF 4
ENDMDL
MODEL 2
REMARK VINA RESULT:    -3.987      2.271      3.730
REMARK INTER + INTRA:          -5.175
REMARK INTER:                  -4.685
REMARK INTRA:                  -0.490
REMARK UNBOUND:                -0.255
REMARK SMILES CCCCC=CC(C)=O
REMARK SMILES IDX 4 1 3 2 2 3 1 4 5 5 6 6 7 7 9 8 8 9
REMARK H PARENT
REMARK Flexibility Score: inf
ROOT
ATOM      1  C   UNL     1      16.958  17.617  14.013  1.00  0.00     0.027 C 
ENDROOT
BRANCH   1   2
ATOM      2  C   UNL     1      17.044  18.154  12.575  1.00  0.00     0.004 C 
BRANCH   2   3
ATOM      3  C   UNL     1      16.208  17.328  11.587  1.00  0.00    -0.003 C 
ATOM      4  C   UNL     1      14.768  17.827  11.468  1.00  0.00     0.004 C 
ENDBRANCH   2   3
ENDBRANCH   1   2
BRANCH   1   5
ATOM      5  C   UNL     1      17.277  16.147  14.066  1.00  0.00    -0.023 C 
ATOM      6  C   UNL     1      16.458  15.178  14.510  1.00  0.00     0.042 C 
BRANCH   6   7
ATOM      7  C   UNL     1      15.071  15.352  15.000  1.00  0.00     0.152 C 
ATOM      8  O   UNL     1      14.818  15.559  16.216  1.00  0.00    -0.295 OA
ATOM      9  C   UNL     1      13.943  15.338  14.019  1.00  0.00     0.093 C 
ENDBRANCH   6   7
ENDBRANCH   1   5
TORSDOF 4
ENDMDL
MODEL 3
REMARK VINA RESULT:    -3.834      2.862      4.299
REMARK INTER + INTRA:          -4.986
REMARK INTER:                  -4.594
REMARK INTRA:                  -0.392
REMARK UNBOUND:                -0.255
REMARK SMILES CCCCC=CC(C)=O
REMARK SMILES IDX 4 1 3 2 2 3 1 4 5 5 6 6 7 7 9 8 8 9
REMARK H PARENT
REMARK Flexibility Score: inf
ROOT
ATOM      1  C   UNL     1      17.179  16.938  15.029  1.00  0.00     0.027 C 
ENDROOT
BRANCH   1   2
ATOM      2  C   UNL     1      15.897  16.361  15.653  1.00  0.00     0.004 C 
BRANCH   2   3
ATOM      3  C   UNL     1      15.391  15.114  14.912  1.00  0.00    -0.003 C 
ATOM      4  C   UNL     1      14.163  15.398  14.048  1.00  0.00     0.004 C 
ENDBRANCH   2   3
ENDBRANCH   1   2
BRANCH   1   5
ATOM      5  C   UNL     1      17.855  15.929  14.140  1.00  0.00    -0.023 C 
ATOM      6  C   UNL     1      18.068  16.059  12.820  1.00  0.00     0.042 C 
BRANCH   6   7
ATOM      7  C   UNL     1      17.717  17.228  11.980  1.00  0.00     0.152 C 
ATOM      8  O   UNL     1      18.598  17.992  11.505  1.00  0.00    -0.295 OA
ATOM      9  C   UNL     1      16.282  17.477  11.640  1.00  0.00     0.093 C 
ENDBRANCH   6   7
ENDBRANCH   1   5
TORSDOF 4
ENDMDL
MODEL 4
REMARK VINA RESULT:    -3.829      3.183      4.483
REMARK INTER + INTRA:          -4.979
REMARK INTER:                  -4.564
REMARK INTRA:                  -0.415
REMARK UNBOUND:                -0.255
REMARK SMILES CCCCC=CC(C)=O
REMARK SMILES IDX 4 1 3 2 2 3 1 4 5 5 6 6 7 7 9 8 8 9
REMARK H PARENT
REMARK Flexibility Score: inf
ROOT
ATOM      1  C   UNL     1      17.158  17.621  14.192  1.00  0.00     0.027 C 
ENDROOT
BRANCH   1   2
ATOM      2  C   UNL     1      17.236  16.259  14.899  1.00  0.00     0.004 C 
BRANCH   2   3
ATOM      3  C   UNL     1      16.011  15.376  14.614  1.00  0.00    -0.003 C 
ATOM      4  C   UNL     1      14.980  15.414  15.742  1.00  0.00     0.004 C 
ENDBRANCH   2   3
ENDBRANCH   1   2
BRANCH   1   5
ATOM      5  C   UNL     1      16.402  17.521  12.894  1.00  0.00    -0.023 C 
ATOM      6  C   UNL     1      16.935  17.247  11.691  1.00  0.00     0.042 C 
BRANCH   6   7
ATOM      7  C   UNL     1      18.359  16.956  11.402  1.00  0.00     0.152 C 
ATOM      8  O   UNL     1      19.175  17.867  11.102  1.00  0.00    -0.295 OA
ATOM      9  C   UNL     1      18.855  15.551  11.524  1.00  0.00     0.093 C 
ENDBRANCH   6   7
ENDBRANCH   1   5
TORSDOF 4
ENDMDL
MODEL 5
REMARK VINA RESULT:    -3.825      1.270      4.839
REMARK INTER + INTRA:          -4.975
REMARK INTER:                  -4.707
REMARK INTRA:                  -0.269
REMARK UNBOUND:                -0.255
REMARK SMILES CCCCC=CC(C)=O
REMARK SMILES IDX 4 1 3 2 2 3 1 4 5 5 6 6 7 7 9 8 8 9
REMARK H PARENT
REMARK Flexibility Score: inf
ROOT
ATOM      1  C   UNL     1      16.266  15.363  14.751  1.00  0.00     0.027 C 
ENDROOT
BRANCH   1   2
ATOM      2  C   UNL     1      14.740  15.188  14.705  1.00  0.00     0.004 C 
BRANCH   2   3
ATOM      3  C   UNL     1      14.101  15.900  13.503  1.00  0.00    -0.003 C 
ATOM      4  C   UNL     1      12.633  15.527  13.307  1.00  0.00     0.004 C 
ENDBRANCH   2   3
ENDBRANCH   1   2
BRANCH   1   5
ATOM      5  C   UNL     1      16.677  16.718  14.242  1.00  0.00    -0.023 C 
ATOM      6  C   UNL     1      17.140  17.733  14.991  1.00  0.00     0.042 C 
BRANCH   6   7
ATOM      7  C   UNL     1      17.375  17.716  16.454  1.00  0.00     0.152 C 
ATOM      8  O   UNL     1      16.423  17.672  17.277  1.00  0.00    -0.295 OA
ATOM      9  C   UNL     1      18.778  17.692  16.968  1.00  0.00     0.093 C 
ENDBRANCH   6   7
ENDBRANCH   1   5
TORSDOF 4
ENDMDL
MODEL 6
REMARK VINA RESULT:    -3.801      3.096      4.060
REMARK INTER + INTRA:          -4.945
REMARK INTER:                  -4.447
REMARK INTRA:                  -0.498
REMARK UNBOUND:                -0.255
REMARK SMILES CCCCC=CC(C)=O
REMARK SMILES IDX 4 1 3 2 2 3 1 4 5 5 6 6 7 7 9 8 8 9
REMARK H PARENT
REMARK Flexibility Score: inf
ROOT
ATOM      1  C   UNL     1      17.456  16.267  12.916  1.00  0.00     0.027 C 
ENDROOT
BRANCH   1   2
ATOM      2  C   UNL     1      17.555  15.822  14.384  1.00  0.00     0.004 C 
BRANCH   2   3
ATOM      3  C   UNL     1      16.301  16.182  15.194  1.00  0.00    -0.003 C 
ATOM      4  C   UNL     1      15.206  15.120  15.093  1.00  0.00     0.004 C 
ENDBRANCH   2   3
ENDBRANCH   1   2
BRANCH   1   5
ATOM      5  C   UNL     1      17.137  17.734  12.810  1.00  0.00    -0.023 C 
ATOM      6  C   UNL     1      16.108  18.270  12.132  1.00  0.00     0.042 C 
BRANCH   6   7
ATOM      7  C   UNL     1      15.065  17.531  11.383  1.00  0.00     0.152 C 
ATOM      8  O   UNL     1      15.182  17.279  10.155  1.00  0.00    -0.295 OA
ATOM      9  C   UNL     1      13.866  17.020  12.116  1.00  0.00     0.093 C 
ENDBRANCH   6   7
ENDBRANCH   1   5
TORSDOF 4
ENDMDL
MODEL 7
REMARK VINA RESULT:    -3.703     10.318     11.832
REMARK INTER + INTRA:          -4.824
REMARK INTER:                  -4.344
REMARK INTRA:                  -0.480
REMARK UNBOUND:                -0.255
REMARK SMILES CCCCC=CC(C)=O
REMARK SMILES IDX 4 1 3 2 2 3 1 4 5 5 6 6 7 7 9 8 8 9
REMARK H PARENT
REMARK Flexibility Score: inf
ROOT
ATOM      1  C   UNL     1      10.099   8.010  16.179  1.00  0.00     0.027 C 
ENDROOT
BRANCH   1   2
ATOM      2  C   UNL     1      10.384   9.491  15.883  1.00  0.00     0.004 C 
BRANCH   2   3
ATOM      3  C   UNL     1       9.104  10.339  15.834  1.00  0.00    -0.003 C 
ATOM      4  C   UNL     1       8.807  10.881  14.437  1.00  0.00     0.004 C 
ENDBRANCH   2   3
ENDBRANCH   1   2
BRANCH   1   5
ATOM      5  C   UNL     1       9.878   7.232  14.910  1.00  0.00    -0.023 C 
ATOM      6  C   UNL     1       8.686   6.878  14.401  1.00  0.00     0.042 C 
BRANCH   6   7
ATOM      7  C   UNL     1       7.354   7.207  14.960  1.00  0.00     0.152 C 
ATOM      8  O   UNL     1       7.026   6.875  16.129  1.00  0.00    -0.295 OA
ATOM      9  C   UNL     1       6.394   8.005  14.137  1.00  0.00     0.093 C 
ENDBRANCH   6   7
ENDBRANCH   1   5
TORSDOF 4
ENDMDL
MODEL 8
REMARK VINA RESULT:    -3.680     10.148     12.094
REMARK INTER + INTRA:          -4.796
REMARK INTER:                  -4.343
REMARK INTRA:                  -0.453
REMARK UNBOUND:                -0.255
REMARK SMILES CCCCC=CC(C)=O
REMARK SMILES IDX 4 1 3 2 2 3 1 4 5 5 6 6 7 7 9 8 8 9
REMARK H PARENT
REMARK Flexibility Score: inf
ROOT
ATOM      1  C   UNL     1      10.251   7.248  15.472  1.00  0.00     0.027 C 
ENDROOT
BRANCH   1   2
ATOM      2  C   UNL     1       9.192   7.442  14.375  1.00  0.00     0.004 C 
BRANCH   2   3
ATOM      3  C   UNL     1       7.821   6.875  14.773  1.00  0.00    -0.003 C 
ATOM      4  C   UNL     1       6.663   7.773  14.341  1.00  0.00     0.004 C 
ENDBRANCH   2   3
ENDBRANCH   1   2
BRANCH   1   5
ATOM      5  C   UNL     1      10.868   8.560  15.875  1.00  0.00    -0.023 C 
ATOM      6  C   UNL     1      10.317   9.471  16.695  1.00  0.00     0.042 C 
BRANCH   6   7
ATOM      7  C   UNL     1       9.017   9.355  17.396  1.00  0.00     0.152 C 
ATOM      8  O   UNL     1       7.951   9.802  16.894  1.00  0.00    -0.295 OA
ATOM      9  C   UNL     1       8.956   8.640  18.707  1.00  0.00     0.093 C 
ENDBRANCH   6   7
ENDBRANCH   1   5
TORSDOF 4
ENDMDL
MODEL 9
REMARK VINA RESULT:    -3.677     10.255     11.725
REMARK INTER + INTRA:          -4.792
REMARK INTER:                  -4.372
REMARK INTRA:                  -0.420
REMARK UNBOUND:                -0.255
REMARK SMILES CCCCC=CC(C)=O
REMARK SMILES IDX 4 1 3 2 2 3 1 4 5 5 6 6 7 7 9 8 8 9
REMARK H PARENT
REMARK Flexibility Score: inf
ROOT
ATOM      1  C   UNL     1      10.334   7.272  15.415  1.00  0.00     0.027 C 
ENDROOT
BRANCH   1   2
ATOM      2  C   UNL     1      10.723   8.703  15.822  1.00  0.00     0.004 C 
BRANCH   2   3
ATOM      3  C   UNL     1      11.198   8.793  17.280  1.00  0.00    -0.003 C 
ATOM      4  C   UNL     1      10.055   9.062  18.258  1.00  0.00     0.004 C 
ENDBRANCH   2   3
ENDBRANCH   1   2
BRANCH   1   5
ATOM      5  C   UNL     1       9.231   7.277  14.392  1.00  0.00    -0.023 C 
ATOM      6  C   UNL     1       7.937   7.553  14.628  1.00  0.00     0.042 C 
BRANCH   6   7
ATOM      7  C   UNL     1       7.341   7.943  15.927  1.00  0.00     0.152 C 
ATOM      8  O   UNL     1       7.117   9.147  16.220  1.00  0.00    -0.295 OA
ATOM      9  C   UNL     1       6.942   6.876  16.896  1.00  0.00     0.093 C 
ENDBRANCH   6   7
ENDBRANCH   1   5
TORSDOF 4
ENDMDL
