MODEL 1
REMARK VINA RESULT:    -3.284      0.000      0.000
REMARK INTER + INTRA:          -3.284
REMARK INTER:                  -3.284
REMARK INTRA:                   0.000
REMARK UNBOUND:                 0.000
REMARK SMILES c1cc[nH]c1
REMARK SMILES IDX 1 1 5 2 4 3 3 4 2 5
REMARK H PARENT 4 6
REMARK Flexibility Score: inf
ROOT
ATOM      1  C   UNL     1      24.246  85.759  34.637  1.00  0.00     0.019 A 
ATOM      2  C   UNL     1      24.193  84.458  34.180  1.00  0.00     0.082 A 
ATOM      3  N   UNL     1      25.252  84.203  33.393  1.00  0.00    -0.368 N 
ATOM      4  C   UNL     1      25.985  85.330  33.339  1.00  0.00     0.082 A 
ATOM      5  C   UNL     1      25.390  86.315  34.101  1.00  0.00     0.019 A 
ATOM      6  H   UNL     1      25.466  83.301  32.912  1.00  0.00     0.165 HD
ENDROOT
TORSDOF 0
ENDMDL
MODEL 2
REMARK VINA RESULT:    -3.279      0.065      1.624
REMARK INTER + INTRA:          -3.279
REMARK INTER:                  -3.279
REMARK INTRA:                   0.000
REMARK UNBOUND:                 0.000
REMARK SMILES c1cc[nH]c1
REMARK SMILES IDX 1 1 5 2 4 3 3 4 2 5
REMARK H PARENT 4 6
REMARK Flexibility Score: inf
ROOT
ATOM      1  C   UNL     1      25.396  86.317  34.101  1.00  0.00     0.019 A 
ATOM      2  C   UNL     1      26.001  85.372  33.297  1.00  0.00     0.082 A 
ATOM      3  N   UNL     1      25.289  84.232  33.311  1.00  0.00    -0.368 N 
ATOM      4  C   UNL     1      24.232  84.435  34.118  1.00  0.00     0.082 A 
ATOM      5  C   UNL     1      24.267  85.719  34.624  1.00  0.00     0.019 A 
ATOM      6  H   UNL     1      25.514  83.353  32.794  1.00  0.00     0.165 HD
ENDROOT
TORSDOF 0
ENDMDL
MODEL 3
REMARK VINA RESULT:    -3.249      7.245      7.906
REMARK INTER + INTRA:          -3.249
REMARK INTER:                  -3.249
REMARK INTRA:                   0.000
REMARK UNBOUND:                 0.000
REMARK SMILES c1cc[nH]c1
REMARK SMILES IDX 1 1 5 2 4 3 3 4 2 5
REMARK H PARENT 4 6
REMARK Flexibility Score: inf
ROOT
ATOM      1  C   UNL     1      20.883  89.724  36.622  1.00  0.00     0.019 A 
ATOM      2  C   UNL     1      20.399  90.642  37.532  1.00  0.00     0.082 A 
ATOM      3  N   UNL     1      19.161  90.294  37.923  1.00  0.00    -0.368 N 
ATOM      4  C   UNL     1      18.844  89.160  37.272  1.00  0.00     0.082 A 
ATOM      5  C   UNL     1      19.891  88.779  36.456  1.00  0.00     0.019 A 
ATOM      6  H   UNL     1      18.558  90.807  38.604  1.00  0.00     0.165 HD
ENDROOT
TORSDOF 0
ENDMDL
MODEL 4
REMARK VINA RESULT:    -3.243      7.733      8.407
REMARK INTER + INTRA:          -3.243
REMARK INTER:                  -3.243
REMARK INTRA:                   0.000
REMARK UNBOUND:                 0.000
REMARK SMILES c1cc[nH]c1
REMARK SMILES IDX 1 1 5 2 4 3 3 4 2 5
REMARK H PARENT 4 6
REMARK Flexibility Score: inf
ROOT
ATOM      1  C   UNL     1      17.549  88.298  36.482  1.00  0.00     0.019 A 
ATOM      2  C   UNL     1      17.348  89.147  37.550  1.00  0.00     0.082 A 
ATOM      3  N   UNL     1      18.516  89.698  37.926  1.00  0.00    -0.368 N 
ATOM      4  C   UNL     1      19.465  89.208  37.109  1.00  0.00     0.082 A 
ATOM      5  C   UNL     1      18.900  88.337  36.200  1.00  0.00     0.019 A 
ATOM      6  H   UNL     1      18.659  90.377  38.707  1.00  0.00     0.165 HD
ENDROOT
TORSDOF 0
ENDMDL
MODEL 5
REMARK VINA RESULT:    -3.236      7.213      7.724
REMARK INTER + INTRA:          -3.236
REMARK INTER:                  -3.236
REMARK INTRA:                   0.000
REMARK UNBOUND:                 0.000
REMARK SMILES c1cc[nH]c1
REMARK SMILES IDX 1 1 5 2 4 3 3 4 2 5
REMARK H PARENT 4 6
REMARK Flexibility Score: inf
ROOT
ATOM      1  C   UNL     1      19.934  88.796  36.371  1.00  0.00     0.019 A 
ATOM      2  C   UNL     1      18.882  89.120  37.204  1.00  0.00     0.082 A 
ATOM      3  N   UNL     1      19.174  90.231  37.902  1.00  0.00    -0.368 N 
ATOM      4  C   UNL     1      20.404  90.623  37.526  1.00  0.00     0.082 A 
ATOM      5  C   UNL     1      20.905  89.756  36.576  1.00  0.00     0.019 A 
ATOM      6  H   UNL     1      18.561  90.701  38.605  1.00  0.00     0.165 HD
ENDROOT
TORSDOF 0
ENDMDL
MODEL 6
REMARK VINA RESULT:    -3.132      3.877      4.467
REMARK INTER + INTRA:          -3.132
REMARK INTER:                  -3.132
REMARK INTRA:                   0.000
REMARK UNBOUND:                 0.000
REMARK SMILES c1cc[nH]c1
REMARK SMILES IDX 1 1 5 2 4 3 3 4 2 5
REMARK H PARENT 4 6
REMARK Flexibility Score: inf
ROOT
ATOM      1  C   UNL     1      20.752  87.617  34.268  1.00  0.00     0.019 A 
ATOM      2  C   UNL     1      20.146  87.033  35.361  1.00  0.00     0.082 A 
ATOM      3  N   UNL     1      20.922  86.049  35.847  1.00  0.00    -0.368 N 
ATOM      4  C   UNL     1      22.022  85.996  35.074  1.00  0.00     0.082 A 
ATOM      5  C   UNL     1      21.950  86.955  34.085  1.00  0.00     0.019 A 
ATOM      6  H   UNL     1      20.711  85.441  36.668  1.00  0.00     0.165 HD
ENDROOT
TORSDOF 0
ENDMDL
MODEL 7
REMARK VINA RESULT:    -3.098      1.748      2.655
REMARK INTER + INTRA:          -3.098
REMARK INTER:                  -3.098
REMARK INTRA:                   0.000
REMARK UNBOUND:                 0.000
REMARK SMILES c1cc[nH]c1
REMARK SMILES IDX 1 1 5 2 4 3 3 4 2 5
REMARK H PARENT 4 6
REMARK Flexibility Score: inf
ROOT
ATOM      1  C   UNL     1      22.965  82.803  35.297  1.00  0.00     0.019 A 
ATOM      2  C   UNL     1      23.715  82.662  34.147  1.00  0.00     0.082 A 
ATOM      3  N   UNL     1      24.215  83.853  33.774  1.00  0.00    -0.368 N 
ATOM      4  C   UNL     1      23.791  84.759  34.674  1.00  0.00     0.082 A 
ATOM      5  C   UNL     1      23.013  84.142  35.633  1.00  0.00     0.019 A 
ATOM      6  H   UNL     1      24.818  84.040  32.943  1.00  0.00     0.165 HD
ENDROOT
TORSDOF 0
ENDMDL
MODEL 8
REMARK VINA RESULT:    -3.083      4.478      5.071
REMARK INTER + INTRA:          -3.083
REMARK INTER:                  -3.083
REMARK INTRA:                   0.000
REMARK UNBOUND:                 0.000
REMARK SMILES c1cc[nH]c1
REMARK SMILES IDX 1 1 5 2 4 3 3 4 2 5
REMARK H PARENT 4 6
REMARK Flexibility Score: inf
ROOT
ATOM      1  C   UNL     1      22.157  86.430  37.198  1.00  0.00     0.019 A 
ATOM      2  C   UNL     1      21.601  85.671  36.190  1.00  0.00     0.082 A 
ATOM      3  N   UNL     1      20.522  86.295  35.685  1.00  0.00    -0.368 N 
ATOM      4  C   UNL     1      20.381  87.449  36.361  1.00  0.00     0.082 A 
ATOM      5  C   UNL     1      21.379  87.565  37.308  1.00  0.00     0.019 A 
ATOM      6  H   UNL     1      19.909  85.949  34.914  1.00  0.00     0.165 HD
ENDROOT
TORSDOF 0
ENDMDL
MODEL 9
REMARK VINA RESULT:    -3.082      4.984      5.748
REMARK INTER + INTRA:          -3.082
REMARK INTER:                  -3.082
REMARK INTRA:                   0.000
REMARK UNBOUND:                 0.000
REMARK SMILES c1cc[nH]c1
REMARK SMILES IDX 1 1 5 2 4 3 3 4 2 5
REMARK H PARENT 4 6
REMARK Flexibility Score: inf
ROOT
ATOM      1  C   UNL     1      21.072  88.254  34.713  1.00  0.00     0.019 A 
ATOM      2  C   UNL     1      21.090  86.899  34.971  1.00  0.00     0.082 A 
ATOM      3  N   UNL     1      19.973  86.541  35.629  1.00  0.00    -0.368 N 
ATOM      4  C   UNL     1      19.239  87.656  35.798  1.00  0.00     0.082 A 
ATOM      5  C   UNL     1      19.891  88.737  35.241  1.00  0.00     0.019 A 
ATOM      6  H   UNL     1      19.723  85.580  35.951  1.00  0.00     0.165 HD
ENDROOT
TORSDOF 0
ENDMDL
