MODEL 1
REMARK VINA RESULT:    -6.424      0.000      0.000
REMARK INTER + INTRA:          -7.433
REMARK INTER:                  -7.551
REMARK INTRA:                   0.118
REMARK UNBOUND:                 0.118
REMARK SMILES O=c1c(O)c(-c2ccc(O)c(O)c2)oc2cc(O)ccc12
REMARK SMILES IDX 5 1 3 2 2 3 1 4 21 5 15 6 14 7 16 8 17 9 19 10 20 11 6 12
REMARK SMILES IDX 7 13 8 14 9 15 13 16 11 17 10 18 12 20 4 22 18 24
REMARK H PARENT 10 19 12 21 4 23 18 25
REMARK Flexibility Score: inf
ROOT
ATOM      1  C   UNL     1      24.234  30.588   6.988  1.00  0.00     0.180 A 
ATOM      2  C   UNL     1      23.795  31.371   8.076  1.00  0.00     0.208 A 
ATOM      3  C   UNL     1      22.695  32.223   7.896  1.00  0.00     0.235 A 
ATOM      4  O   UNL     1      22.291  32.941   8.852  1.00  0.00    -0.285 OA
ATOM      5  C   UNL     1      22.049  32.262   6.650  1.00  0.00     0.069 A 
ATOM      6  C   UNL     1      22.535  31.431   5.618  1.00  0.00     0.142 A 
ATOM      7  O   UNL     1      23.584  30.644   5.827  1.00  0.00    -0.452 OA
ATOM      8  C   UNL     1      21.912  31.434   4.366  1.00  0.00     0.094 A 
ATOM      9  C   UNL     1      20.807  32.260   4.129  1.00  0.00     0.119 A 
ATOM     10  C   UNL     1      20.323  33.088   5.151  1.00  0.00     0.047 A 
ATOM     11  C   UNL     1      20.938  33.091   6.407  1.00  0.00     0.020 A 
ENDROOT
BRANCH   1  12
ATOM     12  C   UNL     1      25.398  29.678   7.092  1.00  0.00     0.025 A 
ATOM     13  C   UNL     1      25.345  28.363   6.601  1.00  0.00     0.016 A 
ATOM     14  C   UNL     1      26.447  27.514   6.731  1.00  0.00     0.051 A 
ATOM     15  C   UNL     1      27.613  27.963   7.365  1.00  0.00     0.157 A 
ATOM     16  C   UNL     1      26.561  30.116   7.746  1.00  0.00     0.062 A 
ATOM     17  C   UNL     1      27.668  29.269   7.878  1.00  0.00     0.158 A 
BRANCH  15  18
ATOM     18  O   UNL     1      28.712  27.114   7.493  1.00  0.00    -0.504 OA
ATOM     19  H   UNL     1      29.382  26.996   6.742  1.00  0.00     0.293 HD
ENDBRANCH  15  18
BRANCH  17  20
ATOM     20  O   UNL     1      28.811  29.744   8.521  1.00  0.00    -0.504 OA
ATOM     21  H   UNL     1      29.224  29.261   9.310  1.00  0.00     0.293 HD
ENDBRANCH  17  20
ENDBRANCH   1  12
BRANCH   2  22
ATOM     22  O   UNL     1      24.428  31.274   9.318  1.00  0.00    -0.502 OA
ATOM     23  H   UNL     1      25.299  30.773   9.444  1.00  0.00     0.293 HD
ENDBRANCH   2  22
BRANCH   9  24
ATOM     24  O   UNL     1      20.199  32.251   2.876  1.00  0.00    -0.508 OA
ATOM     25  H   UNL     1      20.619  32.718   2.080  1.00  0.00     0.293 HD
ENDBRANCH   9  24
TORSDOF 5
ENDMDL
MODEL 2
REMARK VINA RESULT:    -6.118      1.904      6.689
REMARK INTER + INTRA:          -7.074
REMARK INTER:                  -7.083
REMARK INTRA:                   0.009
REMARK UNBOUND:                 0.118
REMARK SMILES O=c1c(O)c(-c2ccc(O)c(O)c2)oc2cc(O)ccc12
REMARK SMILES IDX 5 1 3 2 2 3 1 4 21 5 15 6 14 7 16 8 17 9 19 10 20 11 6 12
REMARK SMILES IDX 7 13 8 14 9 15 13 16 11 17 10 18 12 20 4 22 18 24
REMARK H PARENT 10 19 12 21 4 23 18 25
REMARK Flexibility Score: inf
ROOT
ATOM      1  C   UNL     1      24.902  29.579   7.037  1.00  0.00     0.180 A 
ATOM      2  C   UNL     1      26.208  29.785   7.529  1.00  0.00     0.208 A 
ATOM      3  C   UNL     1      27.155  28.760   7.383  1.00  0.00     0.235 A 
ATOM      4  O   UNL     1      28.326  28.917   7.825  1.00  0.00    -0.285 OA
ATOM      5  C   UNL     1      26.790  27.569   6.736  1.00  0.00     0.069 A 
ATOM      6  C   UNL     1      25.470  27.450   6.250  1.00  0.00     0.142 A 
ATOM      7  O   UNL     1      24.601  28.439   6.416  1.00  0.00    -0.452 OA
ATOM      8  C   UNL     1      25.070  26.282   5.591  1.00  0.00     0.094 A 
ATOM      9  C   UNL     1      25.974  25.228   5.411  1.00  0.00     0.119 A 
ATOM     10  C   UNL     1      27.284  25.343   5.894  1.00  0.00     0.047 A 
ATOM     11  C   UNL     1      27.694  26.507   6.553  1.00  0.00     0.020 A 
ENDROOT
BRANCH   1  12
ATOM     12  C   UNL     1      23.841  30.603   7.168  1.00  0.00     0.025 A 
ATOM     13  C   UNL     1      23.592  31.246   8.393  1.00  0.00     0.016 A 
ATOM     14  C   UNL     1      22.569  32.192   8.500  1.00  0.00     0.051 A 
ATOM     15  C   UNL     1      21.773  32.500   7.389  1.00  0.00     0.157 A 
ATOM     16  C   UNL     1      23.025  30.899   6.064  1.00  0.00     0.062 A 
ATOM     17  C   UNL     1      22.000  31.847   6.167  1.00  0.00     0.158 A 
BRANCH  15  18
ATOM     18  O   UNL     1      20.754  33.446   7.499  1.00  0.00    -0.504 OA
ATOM     19  H   UNL     1      19.843  33.297   7.082  1.00  0.00     0.293 HD
ENDBRANCH  15  18
BRANCH  17  20
ATOM     20  O   UNL     1      21.220  32.125   5.044  1.00  0.00    -0.504 OA
ATOM     21  H   UNL     1      20.325  31.677   4.887  1.00  0.00     0.293 HD
ENDBRANCH  17  20
ENDBRANCH   1  12
BRANCH   2  22
ATOM     22  O   UNL     1      26.555  31.000   8.125  1.00  0.00    -0.502 OA
ATOM     23  H   UNL     1      27.357  31.093   8.737  1.00  0.00     0.293 HD
ENDBRANCH   2  22
BRANCH   9  24
ATOM     24  O   UNL     1      25.558  24.073   4.754  1.00  0.00    -0.508 OA
ATOM     25  H   UNL     1      24.623  23.987   4.374  1.00  0.00     0.293 HD
ENDBRANCH   9  24
TORSDOF 5
ENDMDL
MODEL 3
REMARK VINA RESULT:    -6.116      1.455      3.019
REMARK INTER + INTRA:          -7.071
REMARK INTER:                  -6.996
REMARK INTRA:                  -0.075
REMARK UNBOUND:                 0.118
REMARK SMILES O=c1c(O)c(-c2ccc(O)c(O)c2)oc2cc(O)ccc12
REMARK SMILES IDX 5 1 3 2 2 3 1 4 21 5 15 6 14 7 16 8 17 9 19 10 20 11 6 12
REMARK SMILES IDX 7 13 8 14 9 15 13 16 11 17 10 18 12 20 4 22 18 24
REMARK H PARENT 10 19 12 21 4 23 18 25
REMARK Flexibility Score: inf
ROOT
ATOM      1  C   UNL     1      25.015  29.508   6.087  1.00  0.00     0.180 A 
ATOM      2  C   UNL     1      24.725  29.678   4.717  1.00  0.00     0.208 A 
ATOM      3  C   UNL     1      23.680  30.538   4.349  1.00  0.00     0.235 A 
ATOM      4  O   UNL     1      23.394  30.698   3.130  1.00  0.00    -0.285 OA
ATOM      5  C   UNL     1      22.963  31.220   5.345  1.00  0.00     0.069 A 
ATOM      6  C   UNL     1      23.330  31.014   6.693  1.00  0.00     0.142 A 
ATOM      7  O   UNL     1      24.320  30.185   7.000  1.00  0.00    -0.452 OA
ATOM      8  C   UNL     1      22.646  31.683   7.714  1.00  0.00     0.094 A 
ATOM      9  C   UNL     1      21.598  32.558   7.407  1.00  0.00     0.119 A 
ATOM     10  C   UNL     1      21.230  32.763   6.070  1.00  0.00     0.047 A 
ATOM     11  C   UNL     1      21.908  32.100   5.042  1.00  0.00     0.020 A 
ENDROOT
BRANCH   1  12
ATOM     12  C   UNL     1      26.090  28.604   6.558  1.00  0.00     0.025 A 
ATOM     13  C   UNL     1      26.130  27.253   6.173  1.00  0.00     0.016 A 
ATOM     14  C   UNL     1      27.141  26.413   6.649  1.00  0.00     0.051 A 
ATOM     15  C   UNL     1      28.117  26.907   7.524  1.00  0.00     0.157 A 
ATOM     16  C   UNL     1      27.057  29.089   7.452  1.00  0.00     0.062 A 
ATOM     17  C   UNL     1      28.071  28.251   7.930  1.00  0.00     0.158 A 
BRANCH  15  18
ATOM     18  O   UNL     1      29.125  26.067   7.995  1.00  0.00    -0.504 OA
ATOM     19  H   UNL     1      28.937  25.341   8.676  1.00  0.00     0.293 HD
ENDBRANCH  15  18
BRANCH  17  20
ATOM     20  O   UNL     1      29.024  28.772   8.806  1.00  0.00    -0.504 OA
ATOM     21  H   UNL     1      29.687  28.181   9.294  1.00  0.00     0.293 HD
ENDBRANCH  17  20
ENDBRANCH   1  12
BRANCH   2  22
ATOM     22  O   UNL     1      25.487  29.023   3.746  1.00  0.00    -0.502 OA
ATOM     23  H   UNL     1      25.741  29.463   2.870  1.00  0.00     0.293 HD
ENDBRANCH   2  22
BRANCH   9  24
ATOM     24  O   UNL     1      20.928  33.214   8.436  1.00  0.00    -0.508 OA
ATOM     25  H   UNL     1      20.058  33.708   8.272  1.00  0.00     0.293 HD
ENDBRANCH   9  24
TORSDOF 5
ENDMDL
MODEL 4
REMARK VINA RESULT:    -5.945      1.746      7.097
REMARK INTER + INTRA:          -6.870
REMARK INTER:                  -6.828
REMARK INTRA:                  -0.042
REMARK UNBOUND:                 0.118
REMARK SMILES O=c1c(O)c(-c2ccc(O)c(O)c2)oc2cc(O)ccc12
REMARK SMILES IDX 5 1 3 2 2 3 1 4 21 5 15 6 14 7 16 8 17 9 19 10 20 11 6 12
REMARK SMILES IDX 7 13 8 14 9 15 13 16 11 17 10 18 12 20 4 22 18 24
REMARK H PARENT 10 19 12 21 4 23 18 25
REMARK Flexibility Score: inf
ROOT
ATOM      1  C   UNL     1      24.045  29.557   5.820  1.00  0.00     0.180 A 
ATOM      2  C   UNL     1      23.902  28.271   5.258  1.00  0.00     0.208 A 
ATOM      3  C   UNL     1      24.882  27.303   5.527  1.00  0.00     0.235 A 
ATOM      4  O   UNL     1      24.782  26.149   5.027  1.00  0.00    -0.285 OA
ATOM      5  C   UNL     1      25.963  27.628   6.361  1.00  0.00     0.069 A 
ATOM      6  C   UNL     1      26.021  28.930   6.905  1.00  0.00     0.142 A 
ATOM      7  O   UNL     1      25.078  29.820   6.618  1.00  0.00    -0.452 OA
ATOM      8  C   UNL     1      27.077  29.290   7.749  1.00  0.00     0.094 A 
ATOM      9  C   UNL     1      28.080  28.364   8.058  1.00  0.00     0.119 A 
ATOM     10  C   UNL     1      28.027  27.072   7.519  1.00  0.00     0.047 A 
ATOM     11  C   UNL     1      26.974  26.702   6.675  1.00  0.00     0.020 A 
ENDROOT
BRANCH   1  12
ATOM     12  C   UNL     1      23.064  30.638   5.568  1.00  0.00     0.025 A 
ATOM     13  C   UNL     1      22.683  30.991   4.262  1.00  0.00     0.016 A 
ATOM     14  C   UNL     1      21.775  32.031   4.048  1.00  0.00     0.051 A 
ATOM     15  C   UNL     1      21.244  32.740   5.133  1.00  0.00     0.157 A 
ATOM     16  C   UNL     1      22.546  31.367   6.651  1.00  0.00     0.062 A 
ATOM     17  C   UNL     1      21.636  32.408   6.440  1.00  0.00     0.158 A 
BRANCH  15  18
ATOM     18  O   UNL     1      20.336  33.776   4.915  1.00  0.00    -0.504 OA
ATOM     19  H   UNL     1      19.430  33.609   4.496  1.00  0.00     0.293 HD
ENDBRANCH  15  18
BRANCH  17  20
ATOM     20  O   UNL     1      21.132  33.101   7.542  1.00  0.00    -0.504 OA
ATOM     21  H   UNL     1      20.807  32.623   8.374  1.00  0.00     0.293 HD
ENDBRANCH  17  20
ENDBRANCH   1  12
BRANCH   2  22
ATOM     22  O   UNL     1      22.790  27.961   4.470  1.00  0.00    -0.502 OA
ATOM     23  H   UNL     1      21.893  28.412   4.601  1.00  0.00     0.293 HD
ENDBRANCH   2  22
BRANCH   9  24
ATOM     24  O   UNL     1      29.125  28.740   8.899  1.00  0.00    -0.508 OA
ATOM     25  H   UNL     1      30.052  28.932   8.538  1.00  0.00     0.293 HD
ENDBRANCH   9  24
TORSDOF 5
ENDMDL
MODEL 5
REMARK VINA RESULT:    -5.860      2.211      3.902
REMARK INTER + INTRA:          -6.770
REMARK INTER:                  -6.453
REMARK INTRA:                  -0.317
REMARK UNBOUND:                 0.118
REMARK SMILES O=c1c(O)c(-c2ccc(O)c(O)c2)oc2cc(O)ccc12
REMARK SMILES IDX 5 1 3 2 2 3 1 4 21 5 15 6 14 7 16 8 17 9 19 10 20 11 6 12
REMARK SMILES IDX 7 13 8 14 9 15 13 16 11 17 10 18 12 20 4 22 18 24
REMARK H PARENT 10 19 12 21 4 23 18 25
REMARK Flexibility Score: inf
ROOT
ATOM      1  C   UNL     1      23.769  29.105   5.515  1.00  0.00     0.180 A 
ATOM      2  C   UNL     1      23.340  29.431   4.211  1.00  0.00     0.208 A 
ATOM      3  C   UNL     1      22.515  30.551   4.031  1.00  0.00     0.235 A 
ATOM      4  O   UNL     1      22.110  30.856   2.875  1.00  0.00    -0.285 OA
ATOM      5  C   UNL     1      22.153  31.329   5.142  1.00  0.00     0.069 A 
ATOM      6  C   UNL     1      22.643  30.950   6.411  1.00  0.00     0.142 A 
ATOM      7  O   UNL     1      23.415  29.878   6.541  1.00  0.00    -0.452 OA
ATOM      8  C   UNL     1      22.313  31.706   7.542  1.00  0.00     0.094 A 
ATOM      9  C   UNL     1      21.497  32.837   7.422  1.00  0.00     0.119 A 
ATOM     10  C   UNL     1      21.008  33.214   6.164  1.00  0.00     0.047 A 
ATOM     11  C   UNL     1      21.334  32.466   5.028  1.00  0.00     0.020 A 
ENDROOT
BRANCH   1  12
ATOM     12  C   UNL     1      24.625  27.929   5.791  1.00  0.00     0.025 A 
ATOM     13  C   UNL     1      26.027  28.014   5.730  1.00  0.00     0.016 A 
ATOM     14  C   UNL     1      26.814  26.885   5.970  1.00  0.00     0.051 A 
ATOM     15  C   UNL     1      26.214  25.654   6.264  1.00  0.00     0.157 A 
ATOM     16  C   UNL     1      24.028  26.688   6.064  1.00  0.00     0.062 A 
ATOM     17  C   UNL     1      24.813  25.555   6.307  1.00  0.00     0.158 A 
BRANCH  15  18
ATOM     18  O   UNL     1      27.003  24.530   6.505  1.00  0.00    -0.504 OA
ATOM     19  H   UNL     1      26.598  23.606   6.593  1.00  0.00     0.293 HD
ENDBRANCH  15  18
BRANCH  17  20
ATOM     20  O   UNL     1      24.184  24.343   6.588  1.00  0.00    -0.504 OA
ATOM     21  H   UNL     1      23.790  24.140   7.500  1.00  0.00     0.293 HD
ENDBRANCH  17  20
ENDBRANCH   1  12
BRANCH   2  22
ATOM     22  O   UNL     1      23.756  28.666   3.118  1.00  0.00    -0.502 OA
ATOM     23  H   UNL     1      24.675  28.768   2.705  1.00  0.00     0.293 HD
ENDBRANCH   2  22
BRANCH   9  24
ATOM     24  O   UNL     1      21.178  33.576   8.558  1.00  0.00    -0.508 OA
ATOM     25  H   UNL     1      20.222  33.834   8.770  1.00  0.00     0.293 HD
ENDBRANCH   9  24
TORSDOF 5
ENDMDL
MODEL 6
REMARK VINA RESULT:    -5.758      2.514      6.717
REMARK INTER + INTRA:          -6.651
REMARK INTER:                  -6.409
REMARK INTRA:                  -0.242
REMARK UNBOUND:                 0.118
REMARK SMILES O=c1c(O)c(-c2ccc(O)c(O)c2)oc2cc(O)ccc12
REMARK SMILES IDX 5 1 3 2 2 3 1 4 21 5 15 6 14 7 16 8 17 9 19 10 20 11 6 12
REMARK SMILES IDX 7 13 8 14 9 15 13 16 11 17 10 18 12 20 4 22 18 24
REMARK H PARENT 10 19 12 21 4 23 18 25
REMARK Flexibility Score: inf
ROOT
ATOM      1  C   UNL     1      24.153  29.048   6.115  1.00  0.00     0.180 A 
ATOM      2  C   UNL     1      25.523  29.153   6.435  1.00  0.00     0.208 A 
ATOM      3  C   UNL     1      26.293  27.982   6.506  1.00  0.00     0.235 A 
ATOM      4  O   UNL     1      27.518  28.050   6.802  1.00  0.00    -0.285 OA
ATOM      5  C   UNL     1      25.690  26.743   6.239  1.00  0.00     0.069 A 
ATOM      6  C   UNL     1      24.320  26.724   5.902  1.00  0.00     0.142 A 
ATOM      7  O   UNL     1      23.624  27.854   5.854  1.00  0.00    -0.452 OA
ATOM      8  C   UNL     1      23.686  25.509   5.620  1.00  0.00     0.094 A 
ATOM      9  C   UNL     1      24.404  24.309   5.670  1.00  0.00     0.119 A 
ATOM     10  C   UNL     1      25.764  24.325   6.005  1.00  0.00     0.047 A 
ATOM     11  C   UNL     1      26.408  25.534   6.288  1.00  0.00     0.020 A 
ENDROOT
BRANCH   1  12
ATOM     12  C   UNL     1      23.270  30.234   6.038  1.00  0.00     0.025 A 
ATOM     13  C   UNL     1      22.852  30.757   4.802  1.00  0.00     0.016 A 
ATOM     14  C   UNL     1      22.038  31.892   4.754  1.00  0.00     0.051 A 
ATOM     15  C   UNL     1      21.640  32.527   5.938  1.00  0.00     0.157 A 
ATOM     16  C   UNL     1      22.885  30.887   7.221  1.00  0.00     0.062 A 
ATOM     17  C   UNL     1      22.069  32.023   7.176  1.00  0.00     0.158 A 
BRANCH  15  18
ATOM     18  O   UNL     1      20.825  33.657   5.886  1.00  0.00    -0.504 OA
ATOM     19  H   UNL     1      20.651  34.147   5.017  1.00  0.00     0.293 HD
ENDBRANCH  15  18
BRANCH  17  20
ATOM     20  O   UNL     1      21.696  32.636   8.373  1.00  0.00    -0.504 OA
ATOM     21  H   UNL     1      21.884  32.215   9.275  1.00  0.00     0.293 HD
ENDBRANCH  17  20
ENDBRANCH   1  12
BRANCH   2  22
ATOM     22  O   UNL     1      26.106  30.405   6.648  1.00  0.00    -0.502 OA
ATOM     23  H   UNL     1      26.034  31.157   5.973  1.00  0.00     0.293 HD
ENDBRANCH   2  22
BRANCH   9  24
ATOM     24  O   UNL     1      23.756  23.109   5.386  1.00  0.00    -0.508 OA
ATOM     25  H   UNL     1      22.776  22.973   5.601  1.00  0.00     0.293 HD
ENDBRANCH   9  24
TORSDOF 5
ENDMDL
MODEL 7
REMARK VINA RESULT:    -5.726      2.136      7.058
REMARK INTER + INTRA:          -6.612
REMARK INTER:                  -6.304
REMARK INTRA:                  -0.308
REMARK UNBOUND:                 0.118
REMARK SMILES O=c1c(O)c(-c2ccc(O)c(O)c2)oc2cc(O)ccc12
REMARK SMILES IDX 5 1 3 2 2 3 1 4 21 5 15 6 14 7 16 8 17 9 19 10 20 11 6 12
REMARK SMILES IDX 7 13 8 14 9 15 13 16 11 17 10 18 12 20 4 22 18 24
REMARK H PARENT 10 19 12 21 4 23 18 25
REMARK Flexibility Score: inf
ROOT
ATOM      1  C   UNL     1      23.601  28.960   5.857  1.00  0.00     0.180 A 
ATOM      2  C   UNL     1      22.944  27.726   5.670  1.00  0.00     0.208 A 
ATOM      3  C   UNL     1      23.686  26.540   5.785  1.00  0.00     0.235 A 
ATOM      4  O   UNL     1      23.122  25.425   5.611  1.00  0.00    -0.285 OA
ATOM      5  C   UNL     1      25.052  26.609   6.100  1.00  0.00     0.069 A 
ATOM      6  C   UNL     1      25.631  27.881   6.295  1.00  0.00     0.142 A 
ATOM      7  O   UNL     1      24.896  28.980   6.170  1.00  0.00    -0.452 OA
ATOM      8  C   UNL     1      26.987  27.991   6.621  1.00  0.00     0.094 A 
ATOM      9  C   UNL     1      27.776  26.842   6.753  1.00  0.00     0.119 A 
ATOM     10  C   UNL     1      27.205  25.578   6.559  1.00  0.00     0.047 A 
ATOM     11  C   UNL     1      25.850  25.458   6.235  1.00  0.00     0.020 A 
ENDROOT
BRANCH   1  12
ATOM     12  C   UNL     1      22.893  30.255   5.735  1.00  0.00     0.025 A 
ATOM     13  C   UNL     1      22.642  30.836   4.480  1.00  0.00     0.016 A 
ATOM     14  C   UNL     1      21.993  32.070   4.390  1.00  0.00     0.051 A 
ATOM     15  C   UNL     1      21.598  32.747   5.552  1.00  0.00     0.157 A 
ATOM     16  C   UNL     1      22.514  30.947   6.896  1.00  0.00     0.062 A 
ATOM     17  C   UNL     1      21.864  32.183   6.810  1.00  0.00     0.158 A 
BRANCH  15  18
ATOM     18  O   UNL     1      20.949  33.977   5.459  1.00  0.00    -0.504 OA
ATOM     19  H   UNL     1      21.218  34.765   6.034  1.00  0.00     0.293 HD
ENDBRANCH  15  18
BRANCH  17  20
ATOM     20  O   UNL     1      21.490  32.835   7.986  1.00  0.00    -0.504 OA
ATOM     21  H   UNL     1      22.170  33.139   8.672  1.00  0.00     0.293 HD
ENDBRANCH  17  20
ENDBRANCH   1  12
BRANCH   2  22
ATOM     22  O   UNL     1      21.572  27.687   5.405  1.00  0.00    -0.502 OA
ATOM     23  H   UNL     1      21.205  27.486   4.483  1.00  0.00     0.293 HD
ENDBRANCH   2  22
BRANCH   9  24
ATOM     24  O   UNL     1      29.125  26.970   7.077  1.00  0.00    -0.508 OA
ATOM     25  H   UNL     1      29.644  27.813   6.861  1.00  0.00     0.293 HD
ENDBRANCH   9  24
TORSDOF 5
ENDMDL
MODEL 8
REMARK VINA RESULT:    -5.410      2.286      2.593
REMARK INTER + INTRA:          -6.242
REMARK INTER:                  -5.934
REMARK INTRA:                  -0.308
REMARK UNBOUND:                 0.118
REMARK SMILES O=c1c(O)c(-c2ccc(O)c(O)c2)oc2cc(O)ccc12
REMARK SMILES IDX 5 1 3 2 2 3 1 4 21 5 15 6 14 7 16 8 17 9 19 10 20 11 6 12
REMARK SMILES IDX 7 13 8 14 9 15 13 16 11 17 10 18 12 20 4 22 18 24
REMARK H PARENT 10 19 12 21 4 23 18 25
REMARK Flexibility Score: inf
ROOT
ATOM      1  C   UNL     1      24.631  30.028   5.653  1.00  0.00     0.180 A 
ATOM      2  C   UNL     1      24.720  30.252   7.042  1.00  0.00     0.208 A 
ATOM      3  C   UNL     1      23.781  31.096   7.653  1.00  0.00     0.235 A 
ATOM      4  O   UNL     1      23.847  31.321   8.893  1.00  0.00    -0.285 OA
ATOM      5  C   UNL     1      22.768  31.679   6.875  1.00  0.00     0.069 A 
ATOM      6  C   UNL     1      22.732  31.385   5.495  1.00  0.00     0.142 A 
ATOM      7  O   UNL     1      23.645  30.588   4.954  1.00  0.00    -0.452 OA
ATOM      8  C   UNL     1      21.732  31.938   4.688  1.00  0.00     0.094 A 
ATOM      9  C   UNL     1      20.764  32.784   5.242  1.00  0.00     0.119 A 
ATOM     10  C   UNL     1      20.798  33.078   6.612  1.00  0.00     0.047 A 
ATOM     11  C   UNL     1      21.793  32.529   7.427  1.00  0.00     0.020 A 
ENDROOT
BRANCH   1  12
ATOM     12  C   UNL     1      25.595  29.165   4.931  1.00  0.00     0.025 A 
ATOM     13  C   UNL     1      25.432  27.770   4.879  1.00  0.00     0.016 A 
ATOM     14  C   UNL     1      26.367  26.974   4.213  1.00  0.00     0.051 A 
ATOM     15  C   UNL     1      27.484  27.558   3.600  1.00  0.00     0.157 A 
ATOM     16  C   UNL     1      26.727  29.743   4.335  1.00  0.00     0.062 A 
ATOM     17  C   UNL     1      27.666  28.949   3.666  1.00  0.00     0.158 A 
BRANCH  15  18
ATOM     18  O   UNL     1      28.414  26.761   2.934  1.00  0.00    -0.504 OA
ATOM     19  H   UNL     1      28.240  25.779   2.754  1.00  0.00     0.293 HD
ENDBRANCH  15  18
BRANCH  17  20
ATOM     20  O   UNL     1      28.771  29.560   3.073  1.00  0.00    -0.504 OA
ATOM     21  H   UNL     1      28.890  30.566   3.068  1.00  0.00     0.293 HD
ENDBRANCH  17  20
ENDBRANCH   1  12
BRANCH   2  22
ATOM     22  O   UNL     1      25.711  29.620   7.799  1.00  0.00    -0.502 OA
ATOM     23  H   UNL     1      26.595  29.330   7.399  1.00  0.00     0.293 HD
ENDBRANCH   2  22
BRANCH   9  24
ATOM     24  O   UNL     1      19.777  33.326   4.424  1.00  0.00    -0.508 OA
ATOM     25  H   UNL     1      19.407  32.816   3.631  1.00  0.00     0.293 HD
ENDBRANCH   9  24
TORSDOF 5
ENDMDL
MODEL 9
REMARK VINA RESULT:    -5.340      2.304      7.400
REMARK INTER + INTRA:          -6.159
REMARK INTER:                  -5.889
REMARK INTRA:                  -0.270
REMARK UNBOUND:                 0.118
REMARK SMILES O=c1c(O)c(-c2ccc(O)c(O)c2)oc2cc(O)ccc12
REMARK SMILES IDX 5 1 3 2 2 3 1 4 21 5 15 6 14 7 16 8 17 9 19 10 20 11 6 12
REMARK SMILES IDX 7 13 8 14 9 15 13 16 11 17 10 18 12 20 4 22 18 24
REMARK H PARENT 10 19 12 21 4 23 18 25
REMARK Flexibility Score: inf
ROOT
ATOM      1  C   UNL     1      26.279  28.432   6.545  1.00  0.00     0.180 A 
ATOM      2  C   UNL     1      27.237  28.870   7.483  1.00  0.00     0.208 A 
ATOM      3  C   UNL     1      28.194  27.955   7.948  1.00  0.00     0.235 A 
ATOM      4  O   UNL     1      29.055  28.320   8.796  1.00  0.00    -0.285 OA
ATOM      5  C   UNL     1      28.189  26.640   7.457  1.00  0.00     0.069 A 
ATOM      6  C   UNL     1      27.212  26.287   6.501  1.00  0.00     0.142 A 
ATOM      7  O   UNL     1      26.318  27.180   6.093  1.00  0.00    -0.452 OA
ATOM      8  C   UNL     1      27.180  24.989   5.980  1.00  0.00     0.094 A 
ATOM      9  C   UNL     1      28.114  24.036   6.403  1.00  0.00     0.119 A 
ATOM     10  C   UNL     1      29.084  24.383   7.352  1.00  0.00     0.047 A 
ATOM     11  C   UNL     1      29.125  25.678   7.878  1.00  0.00     0.020 A 
ENDROOT
BRANCH   1  12
ATOM     12  C   UNL     1      25.225  29.330   6.020  1.00  0.00     0.025 A 
ATOM     13  C   UNL     1      25.338  29.931   4.755  1.00  0.00     0.016 A 
ATOM     14  C   UNL     1      24.342  30.794   4.290  1.00  0.00     0.051 A 
ATOM     15  C   UNL     1      23.226  31.079   5.087  1.00  0.00     0.157 A 
ATOM     16  C   UNL     1      24.115  29.637   6.824  1.00  0.00     0.062 A 
ATOM     17  C   UNL     1      23.115  30.500   6.362  1.00  0.00     0.158 A 
BRANCH  15  18
ATOM     18  O   UNL     1      22.233  31.939   4.620  1.00  0.00    -0.504 OA
ATOM     19  H   UNL     1      21.253  31.775   4.815  1.00  0.00     0.293 HD
ENDBRANCH  15  18
BRANCH  17  20
ATOM     20  O   UNL     1      22.020  30.770   7.184  1.00  0.00    -0.504 OA
ATOM     21  H   UNL     1      21.732  30.137   7.921  1.00  0.00     0.293 HD
ENDBRANCH  17  20
ENDBRANCH   1  12
BRANCH   2  22
ATOM     22  O   UNL     1      27.247  30.198   7.918  1.00  0.00    -0.502 OA
ATOM     23  H   UNL     1      27.734  30.928   7.413  1.00  0.00     0.293 HD
ENDBRANCH   2  22
BRANCH   9  24
ATOM     24  O   UNL     1      28.066  22.748   5.874  1.00  0.00    -0.508 OA
ATOM     25  H   UNL     1      28.673  22.466   5.112  1.00  0.00     0.293 HD
ENDBRANCH   9  24
TORSDOF 5
ENDMDL
