MODEL 1
REMARK VINA RESULT:    -5.228      0.000      0.000
REMARK INTER + INTRA:          -5.381
REMARK INTER:                  -5.381
REMARK INTRA:                   0.000
REMARK UNBOUND:                 0.000
REMARK SMILES CC1(C)[C@@H]2CC[C@@](C)(C2)[C@@H]1O
REMARK SMILES IDX 1 1 2 2 4 3 5 4 6 5 7 6 9 7 10 8 8 9 3 10 11 11
REMARK H PARENT 11 12
REMARK Flexibility Score: inf
ROOT
ATOM      1  C   UNL     1     119.003 118.037 120.816  1.00  0.00     0.014 C 
ATOM      2  C   UNL     1     119.778 118.528 119.566  1.00  0.00    -0.006 C 
ATOM      3  C   UNL     1     119.547 120.046 119.249  1.00  0.00    -0.002 C 
ATOM      4  C   UNL     1     118.044 120.394 119.247  1.00  0.00     0.005 C 
ATOM      5  C   UNL     1     117.523 119.651 118.008  1.00  0.00     0.010 C 
ATOM      6  C   UNL     1     118.817 119.062 117.395  1.00  0.00    -0.006 C 
ATOM      7  C   UNL     1     119.834 120.121 117.759  1.00  0.00     0.013 C 
ATOM      8  C   UNL     1     119.309 117.852 118.235  1.00  0.00     0.126 C 
ATOM      9  C   UNL     1     118.722 118.786 115.891  1.00  0.00     0.014 C 
ATOM     10  C   UNL     1     121.282 118.261 119.825  1.00  0.00     0.014 C 
ENDROOT
BRANCH   8  11
ATOM     11  O   UNL     1     118.295 116.899 118.432  1.00  0.00    -0.392 OA
ATOM     12  H   UNL     1     118.495 116.443 119.291  1.00  0.00     0.211 HD
ENDBRANCH   8  11
TORSDOF 1
ENDMDL
MODEL 2
REMARK VINA RESULT:    -5.203      1.364      2.125
REMARK INTER + INTRA:          -5.355
REMARK INTER:                  -5.355
REMARK INTRA:                   0.000
REMARK UNBOUND:                 0.000
REMARK SMILES CC1(C)[C@@H]2CC[C@@](C)(C2)[C@@H]1O
REMARK SMILES IDX 1 1 2 2 4 3 5 4 6 5 7 6 9 7 10 8 8 9 3 10 11 11
REMARK H PARENT 11 12
REMARK Flexibility Score: inf
ROOT
ATOM      1  C   UNL     1     118.040 118.653 120.823  1.00  0.00     0.014 C 
ATOM      2  C   UNL     1     118.477 117.835 119.580  1.00  0.00    -0.006 C 
ATOM      3  C   UNL     1     120.002 117.981 119.246  1.00  0.00    -0.002 C 
ATOM      4  C   UNL     1     120.430 119.463 119.219  1.00  0.00     0.005 C 
ATOM      5  C   UNL     1     119.703 120.006 117.979  1.00  0.00     0.010 C 
ATOM      6  C   UNL     1     119.040 118.737 117.390  1.00  0.00    -0.006 C 
ATOM      7  C   UNL     1     120.048 117.670 117.760  1.00  0.00     0.013 C 
ATOM      8  C   UNL     1     117.815 118.321 118.248  1.00  0.00     0.126 C 
ATOM      9  C   UNL     1     118.755 118.825 115.887  1.00  0.00     0.014 C 
ATOM     10  C   UNL     1     118.134 116.352 119.862  1.00  0.00     0.014 C 
ENDROOT
BRANCH   8  11
ATOM     11  O   UNL     1     116.918 119.387 118.439  1.00  0.00    -0.392 OA
ATOM     12  H   UNL     1     117.252 120.143 117.891  1.00  0.00     0.211 HD
ENDBRANCH   8  11
TORSDOF 1
ENDMDL
MODEL 3
REMARK VINA RESULT:    -5.200      1.731      2.928
REMARK INTER + INTRA:          -5.352
REMARK INTER:                  -5.352
REMARK INTRA:                   0.000
REMARK UNBOUND:                 0.000
REMARK SMILES CC1(C)[C@@H]2CC[C@@](C)(C2)[C@@H]1O
REMARK SMILES IDX 1 1 2 2 4 3 5 4 6 5 7 6 9 7 10 8 8 9 3 10 11 11
REMARK H PARENT 11 12
REMARK Flexibility Score: inf
ROOT
ATOM      1  C   UNL     1     118.626 119.533 120.853  1.00  0.00     0.014 C 
ATOM      2  C   UNL     1     117.818 119.100 119.603  1.00  0.00    -0.006 C 
ATOM      3  C   UNL     1     117.986 117.581 119.250  1.00  0.00    -0.002 C 
ATOM      4  C   UNL     1     119.474 117.176 119.221  1.00  0.00     0.005 C 
ATOM      5  C   UNL     1     120.008 117.926 117.991  1.00  0.00     0.010 C 
ATOM      6  C   UNL     1     118.731 118.577 117.408  1.00  0.00    -0.006 C 
ATOM      7  C   UNL     1     117.678 117.550 117.763  1.00  0.00     0.013 C 
ATOM      8  C   UNL     1     118.296 119.786 118.280  1.00  0.00     0.126 C 
ATOM      9  C   UNL     1     118.818 118.882 115.909  1.00  0.00     0.014 C 
ATOM     10  C   UNL     1     116.329 119.418 119.886  1.00  0.00     0.014 C 
ENDROOT
BRANCH   8  11
ATOM     11  O   UNL     1     119.348 120.696 118.485  1.00  0.00    -0.392 OA
ATOM     12  H   UNL     1     119.329 120.943 119.446  1.00  0.00     0.211 HD
ENDBRANCH   8  11
TORSDOF 1
ENDMDL
MODEL 4
REMARK VINA RESULT:    -5.197      1.347      2.053
REMARK INTER + INTRA:          -5.349
REMARK INTER:                  -5.349
REMARK INTRA:                   0.000
REMARK UNBOUND:                 0.000
REMARK SMILES CC1(C)[C@@H]2CC[C@@](C)(C2)[C@@H]1O
REMARK SMILES IDX 1 1 2 2 4 3 5 4 6 5 7 6 9 7 10 8 8 9 3 10 11 11
REMARK H PARENT 11 12
REMARK Flexibility Score: inf
ROOT
ATOM      1  C   UNL     1     119.520 118.986 120.852  1.00  0.00     0.014 C 
ATOM      2  C   UNL     1     119.062 119.750 119.583  1.00  0.00    -0.006 C 
ATOM      3  C   UNL     1     117.542 119.551 119.254  1.00  0.00    -0.002 C 
ATOM      4  C   UNL     1     117.156 118.057 119.276  1.00  0.00     0.005 C 
ATOM      5  C   UNL     1     117.900 117.495 118.054  1.00  0.00     0.010 C 
ATOM      6  C   UNL     1     118.527 118.761 117.424  1.00  0.00    -0.006 C 
ATOM      7  C   UNL     1     117.489 119.811 117.758  1.00  0.00     0.013 C 
ATOM      8  C   UNL     1     119.739 119.240 118.268  1.00  0.00     0.126 C 
ATOM      9  C   UNL     1     118.816 118.632 115.925  1.00  0.00     0.014 C 
ATOM     10  C   UNL     1     119.363 121.251 119.816  1.00  0.00     0.014 C 
ENDROOT
BRANCH   8  11
ATOM     11  O   UNL     1     120.665 118.206 118.495  1.00  0.00    -0.392 OA
ATOM     12  H   UNL     1     121.108 118.024 117.625  1.00  0.00     0.211 HD
ENDBRANCH   8  11
TORSDOF 1
ENDMDL
MODEL 5
REMARK VINA RESULT:    -5.120      1.630      2.681
REMARK INTER + INTRA:          -5.270
REMARK INTER:                  -5.270
REMARK INTRA:                   0.000
REMARK UNBOUND:                 0.000
REMARK SMILES CC1(C)[C@@H]2CC[C@@](C)(C2)[C@@H]1O
REMARK SMILES IDX 1 1 2 2 4 3 5 4 6 5 7 6 9 7 10 8 8 9 3 10 11 11
REMARK H PARENT 11 12
REMARK Flexibility Score: inf
ROOT
ATOM      1  C   UNL     1     121.248 118.540 119.602  1.00  0.00     0.014 C 
ATOM      2  C   UNL     1     119.856 117.871 119.467  1.00  0.00    -0.006 C 
ATOM      3  C   UNL     1     119.336 117.813 117.988  1.00  0.00    -0.002 C 
ATOM      4  C   UNL     1     119.455 119.188 117.299  1.00  0.00     0.005 C 
ATOM      5  C   UNL     1     118.415 120.036 118.048  1.00  0.00     0.010 C 
ATOM      6  C   UNL     1     117.754 119.006 118.996  1.00  0.00    -0.006 C 
ATOM      7  C   UNL     1     117.829 117.741 118.169  1.00  0.00     0.013 C 
ATOM      8  C   UNL     1     118.709 118.667 120.173  1.00  0.00     0.126 C 
ATOM      9  C   UNL     1     116.333 119.380 119.427  1.00  0.00     0.014 C 
ATOM     10  C   UNL     1     119.976 116.439 120.045  1.00  0.00     0.014 C 
ENDROOT
BRANCH   8  11
ATOM     11  O   UNL     1     119.168 119.823 120.830  1.00  0.00    -0.392 OA
ATOM     12  H   UNL     1     118.881 119.747 121.777  1.00  0.00     0.211 HD
ENDBRANCH   8  11
TORSDOF 1
ENDMDL
MODEL 6
REMARK VINA RESULT:    -5.109      1.237      2.881
REMARK INTER + INTRA:          -5.258
REMARK INTER:                  -5.258
REMARK INTRA:                   0.000
REMARK UNBOUND:                 0.000
REMARK SMILES CC1(C)[C@@H]2CC[C@@](C)(C2)[C@@H]1O
REMARK SMILES IDX 1 1 2 2 4 3 5 4 6 5 7 6 9 7 10 8 8 9 3 10 11 11
REMARK H PARENT 11 12
REMARK Flexibility Score: inf
ROOT
ATOM      1  C   UNL     1     116.340 119.069 119.629  1.00  0.00     0.014 C 
ATOM      2  C   UNL     1     117.716 119.766 119.470  1.00  0.00    -0.006 C 
ATOM      3  C   UNL     1     118.224 119.806 117.987  1.00  0.00    -0.002 C 
ATOM      4  C   UNL     1     118.130 118.416 117.325  1.00  0.00     0.005 C 
ATOM      5  C   UNL     1     119.195 117.606 118.082  1.00  0.00     0.010 C 
ATOM      6  C   UNL     1     119.839 118.668 119.005  1.00  0.00    -0.006 C 
ATOM      7  C   UNL     1     119.730 119.915 118.154  1.00  0.00     0.013 C 
ATOM      8  C   UNL     1     118.886 119.009 120.183  1.00  0.00     0.126 C 
ATOM      9  C   UNL     1     121.272 118.333 119.432  1.00  0.00     0.014 C 
ATOM     10  C   UNL     1     117.569 121.205 120.022  1.00  0.00     0.014 C 
ENDROOT
BRANCH   8  11
ATOM     11  O   UNL     1     118.457 117.856 120.865  1.00  0.00    -0.392 OA
ATOM     12  H   UNL     1     118.416 117.126 120.194  1.00  0.00     0.211 HD
ENDBRANCH   8  11
TORSDOF 1
ENDMDL
MODEL 7
REMARK VINA RESULT:    -5.092      1.529      2.494
REMARK INTER + INTRA:          -5.241
REMARK INTER:                  -5.241
REMARK INTRA:                   0.000
REMARK UNBOUND:                 0.000
REMARK SMILES CC1(C)[C@@H]2CC[C@@](C)(C2)[C@@H]1O
REMARK SMILES IDX 1 1 2 2 4 3 5 4 6 5 7 6 9 7 10 8 8 9 3 10 11 11
REMARK H PARENT 11 12
REMARK Flexibility Score: inf
ROOT
ATOM      1  C   UNL     1     119.118 121.282 119.679  1.00  0.00     0.014 C 
ATOM      2  C   UNL     1     119.772 119.886 119.516  1.00  0.00    -0.006 C 
ATOM      3  C   UNL     1     119.827 119.397 118.027  1.00  0.00    -0.002 C 
ATOM      4  C   UNL     1     118.455 119.545 117.339  1.00  0.00     0.005 C 
ATOM      5  C   UNL     1     117.595 118.498 118.064  1.00  0.00     0.010 C 
ATOM      6  C   UNL     1     118.616 117.807 118.999  1.00  0.00    -0.006 C 
ATOM      7  C   UNL     1     119.883 117.886 118.176  1.00  0.00     0.013 C 
ATOM      8  C   UNL     1     118.963 118.732 120.197  1.00  0.00     0.126 C 
ATOM      9  C   UNL     1     118.227 116.380 119.400  1.00  0.00     0.014 C 
ATOM     10  C   UNL     1     121.204 119.979 120.099  1.00  0.00     0.014 C 
ENDROOT
BRANCH   8  11
ATOM     11  O   UNL     1     117.811 119.190 120.861  1.00  0.00    -0.392 OA
ATOM     12  H   UNL     1     117.781 120.174 120.736  1.00  0.00     0.211 HD
ENDBRANCH   8  11
TORSDOF 1
ENDMDL
MODEL 8
REMARK VINA RESULT:    -5.090      1.734      3.030
REMARK INTER + INTRA:          -5.239
REMARK INTER:                  -5.239
REMARK INTRA:                   0.000
REMARK UNBOUND:                 0.000
REMARK SMILES CC1(C)[C@@H]2CC[C@@](C)(C2)[C@@H]1O
REMARK SMILES IDX 1 1 2 2 4 3 5 4 6 5 7 6 9 7 10 8 8 9 3 10 11 11
REMARK H PARENT 11 12
REMARK Flexibility Score: inf
ROOT
ATOM      1  C   UNL     1     118.501 116.371 119.660  1.00  0.00     0.014 C 
ATOM      2  C   UNL     1     117.840 117.764 119.497  1.00  0.00    -0.006 C 
ATOM      3  C   UNL     1     117.823 118.274 118.014  1.00  0.00    -0.002 C 
ATOM      4  C   UNL     1     119.216 118.147 117.364  1.00  0.00     0.005 C 
ATOM      5  C   UNL     1     120.046 119.191 118.128  1.00  0.00     0.010 C 
ATOM      6  C   UNL     1     118.993 119.860 119.043  1.00  0.00    -0.006 C 
ATOM      7  C   UNL     1     117.751 119.782 118.182  1.00  0.00     0.013 C 
ATOM      8  C   UNL     1     118.619 118.915 120.217  1.00  0.00     0.126 C 
ATOM      9  C   UNL     1     119.359 121.284 119.475  1.00  0.00     0.014 C 
ATOM     10  C   UNL     1     116.393 117.652 120.037  1.00  0.00     0.014 C 
ENDROOT
BRANCH   8  11
ATOM     11  O   UNL     1     119.755 118.457 120.908  1.00  0.00    -0.392 OA
ATOM     12  H   UNL     1     119.498 118.384 121.864  1.00  0.00     0.211 HD
ENDBRANCH   8  11
TORSDOF 1
ENDMDL
MODEL 9
REMARK VINA RESULT:    -4.824      1.946      3.085
REMARK INTER + INTRA:          -4.965
REMARK INTER:                  -4.965
REMARK INTRA:                   0.000
REMARK UNBOUND:                 0.000
REMARK SMILES CC1(C)[C@@H]2CC[C@@](C)(C2)[C@@H]1O
REMARK SMILES IDX 1 1 2 2 4 3 5 4 6 5 7 6 9 7 10 8 8 9 3 10 11 11
REMARK H PARENT 11 12
REMARK Flexibility Score: inf
ROOT
ATOM      1  C   UNL     1     118.942 120.155 120.843  1.00  0.00     0.014 C 
ATOM      2  C   UNL     1     119.737 119.764 119.571  1.00  0.00    -0.006 C 
ATOM      3  C   UNL     1     118.943 118.811 118.611  1.00  0.00    -0.002 C 
ATOM      4  C   UNL     1     118.341 117.617 119.381  1.00  0.00     0.005 C 
ATOM      5  C   UNL     1     119.585 116.814 119.791  1.00  0.00     0.010 C 
ATOM      6  C   UNL     1     120.734 117.592 119.107  1.00  0.00    -0.006 C 
ATOM      7  C   UNL     1     120.053 118.101 117.855  1.00  0.00     0.013 C 
ATOM      8  C   UNL     1     121.017 118.915 119.869  1.00  0.00     0.126 C 
ATOM      9  C   UNL     1     121.981 116.745 118.833  1.00  0.00     0.014 C 
ATOM     10  C   UNL     1     120.100 121.077 118.835  1.00  0.00     0.014 C 
ENDROOT
BRANCH   8  11
ATOM     11  O   UNL     1     121.223 118.700 121.243  1.00  0.00    -0.392 OA
ATOM     12  H   UNL     1     120.726 119.413 121.722  1.00  0.00     0.211 HD
ENDBRANCH   8  11
TORSDOF 1
ENDMDL
