MODEL 1
REMARK VINA RESULT:    -3.116      0.000      0.000
REMARK INTER + INTRA:          -7.065
REMARK INTER:                  -5.302
REMARK INTRA:                  -1.763
REMARK UNBOUND:                -1.763
REMARK SMILES CCCCCCCCCCCCCC(=O)[O-]
REMARK SMILES IDX 8 1 9 2 10 3 11 4 12 5 13 6 14 7 15 8 16 9 7 10 6 11 5 12
REMARK SMILES IDX 4 13 3 14 2 15 1 16
REMARK H PARENT
REMARK Flexibility Score: inf
ROOT
ATOM      1  C   UNL     1      14.879  20.362  48.903  1.00  0.00     0.000 C 
ENDROOT
BRANCH   1   2
ATOM      2  C   UNL     1      16.010  20.203  49.929  1.00  0.00     0.000 C 
BRANCH   2   3
ATOM      3  C   UNL     1      16.244  18.722  50.265  1.00  0.00     0.000 C 
BRANCH   3   4
ATOM      4  C   UNL     1      17.726  18.395  50.505  1.00  0.00     0.000 C 
BRANCH   4   5
ATOM      5  C   UNL     1      17.972  17.724  51.866  1.00  0.00     0.006 C 
BRANCH   5   6
ATOM      6  C   UNL     1      16.661  17.570  52.645  1.00  0.00     0.053 C 
BRANCH   6   7
ATOM      7  C   UNL     1      16.682  18.417  53.877  1.00  0.00     0.041 C 
ATOM      8  O   UNL     1      15.607  18.707  54.465  1.00  0.00    -0.550 OA
ATOM      9  O   UNL     1      17.893  18.847  54.406  1.00  0.00    -0.550 OA
ENDBRANCH   6   7
ENDBRANCH   5   6
ENDBRANCH   4   5
ENDBRANCH   3   4
ENDBRANCH   2   3
ENDBRANCH   1   2
BRANCH   1  10
ATOM     10  C   UNL     1      14.158  19.037  48.593  1.00  0.00     0.000 C 
BRANCH  10  11
ATOM     11  C   UNL     1      13.975  18.729  47.096  1.00  0.00    -0.000 C 
BRANCH  11  12
ATOM     12  C   UNL     1      14.894  17.605  46.597  1.00  0.00    -0.000 C 
BRANCH  12  13
ATOM     13  C   UNL     1      16.119  18.177  45.867  1.00  0.00    -0.000 C 
BRANCH  13  14
ATOM     14  C   UNL     1      17.338  18.327  46.801  1.00  0.00    -0.000 C 
BRANCH  14  15
ATOM     15  C   UNL     1      17.994  19.716  46.740  1.00  0.00    -0.003 C 
ATOM     16  C   UNL     1      17.137  20.751  46.015  1.00  0.00     0.004 C 
ENDBRANCH  14  15
ENDBRANCH  13  14
ENDBRANCH  12  13
ENDBRANCH  11  12
ENDBRANCH  10  11
ENDBRANCH   1  10
TORSDOF 12
ENDMDL
MODEL 2
REMARK VINA RESULT:    -3.044     11.192     13.031
REMARK INTER + INTRA:          -6.943
REMARK INTER:                  -5.323
REMARK INTRA:                  -1.620
REMARK UNBOUND:                -1.763
REMARK SMILES CCCCCCCCCCCCCC(=O)[O-]
REMARK SMILES IDX 8 1 9 2 10 3 11 4 12 5 13 6 14 7 15 8 16 9 7 10 6 11 5 12
REMARK SMILES IDX 4 13 3 14 2 15 1 16
REMARK H PARENT
REMARK Flexibility Score: inf
ROOT
ATOM      1  C   UNL     1      19.897  28.093  55.101  1.00  0.00     0.000 C 
ENDROOT
BRANCH   1   2
ATOM      2  C   UNL     1      19.961  27.428  56.484  1.00  0.00     0.000 C 
BRANCH   2   3
ATOM      3  C   UNL     1      19.110  28.199  57.504  1.00  0.00     0.000 C 
BRANCH   3   4
ATOM      4  C   UNL     1      19.913  28.629  58.741  1.00  0.00     0.000 C 
BRANCH   4   5
ATOM      5  C   UNL     1      21.417  28.766  58.454  1.00  0.00     0.006 C 
BRANCH   5   6
ATOM      6  C   UNL     1      21.775  30.210  58.088  1.00  0.00     0.053 C 
BRANCH   6   7
ATOM      7  C   UNL     1      22.821  30.234  57.019  1.00  0.00     0.041 C 
ATOM      8  O   UNL     1      22.488  30.342  55.809  1.00  0.00    -0.550 OA
ATOM      9  O   UNL     1      24.166  30.189  57.361  1.00  0.00    -0.550 OA
ENDBRANCH   6   7
ENDBRANCH   5   6
ENDBRANCH   4   5
ENDBRANCH   3   4
ENDBRANCH   2   3
ENDBRANCH   1   2
BRANCH   1  10
ATOM     10  C   UNL     1      19.190  29.461  55.124  1.00  0.00     0.000 C 
BRANCH  10  11
ATOM     11  C   UNL     1      18.388  29.801  53.855  1.00  0.00    -0.000 C 
BRANCH  11  12
ATOM     12  C   UNL     1      16.935  30.198  54.152  1.00  0.00    -0.000 C 
BRANCH  12  13
ATOM     13  C   UNL     1      16.310  29.261  55.197  1.00  0.00    -0.000 C 
BRANCH  13  14
ATOM     14  C   UNL     1      15.082  28.505  54.646  1.00  0.00    -0.000 C 
BRANCH  14  15
ATOM     15  C   UNL     1      15.115  26.993  54.920  1.00  0.00    -0.003 C 
ATOM     16  C   UNL     1      16.482  26.498  55.385  1.00  0.00     0.004 C 
ENDBRANCH  14  15
ENDBRANCH  13  14
ENDBRANCH  12  13
ENDBRANCH  11  12
ENDBRANCH  10  11
ENDBRANCH   1  10
TORSDOF 12
ENDMDL
MODEL 3
REMARK VINA RESULT:    -3.020     18.732     20.361
REMARK INTER + INTRA:          -6.902
REMARK INTER:                  -4.654
REMARK INTRA:                  -2.248
REMARK UNBOUND:                -1.763
REMARK SMILES CCCCCCCCCCCCCC(=O)[O-]
REMARK SMILES IDX 8 1 9 2 10 3 11 4 12 5 13 6 14 7 15 8 16 9 7 10 6 11 5 12
REMARK SMILES IDX 4 13 3 14 2 15 1 16
REMARK H PARENT
REMARK Flexibility Score: inf
ROOT
ATOM      1  C   UNL     1      32.385  31.174  54.076  1.00  0.00     0.000 C 
ENDROOT
BRANCH   1   2
ATOM      2  C   UNL     1      31.279  30.660  53.142  1.00  0.00     0.000 C 
BRANCH   2   3
ATOM      3  C   UNL     1      30.360  31.807  52.696  1.00  0.00     0.000 C 
BRANCH   3   4
ATOM      4  C   UNL     1      30.714  33.144  53.365  1.00  0.00     0.000 C 
BRANCH   4   5
ATOM      5  C   UNL     1      29.492  34.059  53.545  1.00  0.00     0.006 C 
BRANCH   5   6
ATOM      6  C   UNL     1      28.253  33.455  52.876  1.00  0.00     0.053 C 
BRANCH   6   7
ATOM      7  C   UNL     1      27.023  33.780  53.662  1.00  0.00     0.041 C 
ATOM      8  O   UNL     1      26.843  34.946  54.102  1.00  0.00    -0.550 OA
ATOM      9  O   UNL     1      26.050  32.810  53.865  1.00  0.00    -0.550 OA
ENDBRANCH   6   7
ENDBRANCH   5   6
ENDBRANCH   4   5
ENDBRANCH   3   4
ENDBRANCH   2   3
ENDBRANCH   1   2
BRANCH   1  10
ATOM     10  C   UNL     1      32.718  30.189  55.212  1.00  0.00     0.000 C 
BRANCH  10  11
ATOM     11  C   UNL     1      32.086  30.527  56.574  1.00  0.00    -0.000 C 
BRANCH  11  12
ATOM     12  C   UNL     1      32.044  32.035  56.858  1.00  0.00    -0.000 C 
BRANCH  12  13
ATOM     13  C   UNL     1      30.595  32.543  56.922  1.00  0.00    -0.000 C 
BRANCH  13  14
ATOM     14  C   UNL     1      29.582  31.398  57.136  1.00  0.00    -0.000 C 
BRANCH  14  15
ATOM     15  C   UNL     1      28.456  31.368  56.090  1.00  0.00    -0.003 C 
ATOM     16  C   UNL     1      28.405  30.061  55.302  1.00  0.00     0.004 C 
ENDBRANCH  14  15
ENDBRANCH  13  14
ENDBRANCH  12  13
ENDBRANCH  11  12
ENDBRANCH  10  11
ENDBRANCH   1  10
TORSDOF 12
ENDMDL
MODEL 4
REMARK VINA RESULT:    -3.003      2.918      6.779
REMARK INTER + INTRA:          -6.874
REMARK INTER:                  -5.869
REMARK INTRA:                  -1.005
REMARK UNBOUND:                -1.763
REMARK SMILES CCCCCCCCCCCCCC(=O)[O-]
REMARK SMILES IDX 8 1 9 2 10 3 11 4 12 5 13 6 14 7 15 8 16 9 7 10 6 11 5 12
REMARK SMILES IDX 4 13 3 14 2 15 1 16
REMARK H PARENT
REMARK Flexibility Score: inf
ROOT
ATOM      1  C   UNL     1      17.135  18.661  50.058  1.00  0.00     0.000 C 
ENDROOT
BRANCH   1   2
ATOM      2  C   UNL     1      17.281  19.968  49.266  1.00  0.00     0.000 C 
BRANCH   2   3
ATOM      3  C   UNL     1      17.980  19.720  47.920  1.00  0.00     0.000 C 
BRANCH   3   4
ATOM      4  C   UNL     1      17.478  18.449  47.217  1.00  0.00     0.000 C 
BRANCH   4   5
ATOM      5  C   UNL     1      16.691  18.753  45.933  1.00  0.00     0.006 C 
BRANCH   5   6
ATOM      6  C   UNL     1      15.309  19.326  46.261  1.00  0.00     0.053 C 
BRANCH   6   7
ATOM      7  C   UNL     1      14.490  18.321  47.008  1.00  0.00     0.041 C 
ATOM      8  O   UNL     1      14.046  18.592  48.155  1.00  0.00    -0.550 OA
ATOM      9  O   UNL     1      14.174  17.104  46.418  1.00  0.00    -0.550 OA
ENDBRANCH   6   7
ENDBRANCH   5   6
ENDBRANCH   4   5
ENDBRANCH   3   4
ENDBRANCH   2   3
ENDBRANCH   1   2
BRANCH   1  10
ATOM     10  C   UNL     1      18.217  18.490  51.141  1.00  0.00     0.000 C 
BRANCH  10  11
ATOM     11  C   UNL     1      17.895  17.447  52.225  1.00  0.00    -0.000 C 
BRANCH  11  12
ATOM     12  C   UNL     1      16.430  17.490  52.684  1.00  0.00    -0.000 C 
BRANCH  12  13
ATOM     13  C   UNL     1      16.206  18.612  53.710  1.00  0.00    -0.000 C 
BRANCH  13  14
ATOM     14  C   UNL     1      17.407  18.780  54.664  1.00  0.00    -0.000 C 
BRANCH  14  15
ATOM     15  C   UNL     1      17.003  18.986  56.133  1.00  0.00    -0.003 C 
ATOM     16  C   UNL     1      16.435  17.725  56.780  1.00  0.00     0.004 C 
ENDBRANCH  14  15
ENDBRANCH  13  14
ENDBRANCH  12  13
ENDBRANCH  11  12
ENDBRANCH  10  11
ENDBRANCH   1  10
TORSDOF 12
ENDMDL
MODEL 5
REMARK VINA RESULT:    -2.999     10.933     13.234
REMARK INTER + INTRA:          -6.867
REMARK INTER:                  -5.316
REMARK INTRA:                  -1.550
REMARK UNBOUND:                -1.763
REMARK SMILES CCCCCCCCCCCCCC(=O)[O-]
REMARK SMILES IDX 8 1 9 2 10 3 11 4 12 5 13 6 14 7 15 8 16 9 7 10 6 11 5 12
REMARK SMILES IDX 4 13 3 14 2 15 1 16
REMARK H PARENT
REMARK Flexibility Score: inf
ROOT
ATOM      1  C   UNL     1      19.661  28.142  55.102  1.00  0.00     0.000 C 
ENDROOT
BRANCH   1   2
ATOM      2  C   UNL     1      19.143  29.579  54.944  1.00  0.00     0.000 C 
BRANCH   2   3
ATOM      3  C   UNL     1      17.948  29.629  53.980  1.00  0.00     0.000 C 
BRANCH   3   4
ATOM      4  C   UNL     1      16.624  29.943  54.694  1.00  0.00     0.000 C 
BRANCH   4   5
ATOM      5  C   UNL     1      15.802  28.681  55.001  1.00  0.00     0.006 C 
BRANCH   5   6
ATOM      6  C   UNL     1      15.726  27.766  53.775  1.00  0.00     0.053 C 
BRANCH   6   7
ATOM      7  C   UNL     1      14.328  27.720  53.243  1.00  0.00     0.041 C 
ATOM      8  O   UNL     1      14.105  27.961  52.027  1.00  0.00    -0.550 OA
ATOM      9  O   UNL     1      13.277  27.361  54.077  1.00  0.00    -0.550 OA
ENDBRANCH   6   7
ENDBRANCH   5   6
ENDBRANCH   4   5
ENDBRANCH   3   4
ENDBRANCH   2   3
ENDBRANCH   1   2
BRANCH   1  10
ATOM     10  C   UNL     1      19.126  27.446  56.368  1.00  0.00     0.000 C 
BRANCH  10  11
ATOM     11  C   UNL     1      19.084  28.327  57.628  1.00  0.00    -0.000 C 
BRANCH  11  12
ATOM     12  C   UNL     1      20.246  28.051  58.594  1.00  0.00    -0.000 C 
BRANCH  12  13
ATOM     13  C   UNL     1      20.677  29.335  59.320  1.00  0.00    -0.000 C 
BRANCH  13  14
ATOM     14  C   UNL     1      21.374  30.335  58.374  1.00  0.00    -0.000 C 
BRANCH  14  15
ATOM     15  C   UNL     1      22.530  29.719  57.569  1.00  0.00    -0.003 C 
ATOM     16  C   UNL     1      22.636  30.276  56.151  1.00  0.00     0.004 C 
ENDBRANCH  14  15
ENDBRANCH  13  14
ENDBRANCH  12  13
ENDBRANCH  11  12
ENDBRANCH  10  11
ENDBRANCH   1  10
TORSDOF 12
ENDMDL
MODEL 6
REMARK VINA RESULT:    -2.945      3.240      6.261
REMARK INTER + INTRA:          -6.775
REMARK INTER:                  -4.939
REMARK INTRA:                  -1.836
REMARK UNBOUND:                -1.763
REMARK SMILES CCCCCCCCCCCCCC(=O)[O-]
REMARK SMILES IDX 8 1 9 2 10 3 11 4 12 5 13 6 14 7 15 8 16 9 7 10 6 11 5 12
REMARK SMILES IDX 4 13 3 14 2 15 1 16
REMARK H PARENT
REMARK Flexibility Score: inf
ROOT
ATOM      1  C   UNL     1      17.356  18.656  49.733  1.00  0.00     0.000 C 
ENDROOT
BRANCH   1   2
ATOM      2  C   UNL     1      16.909  20.108  49.507  1.00  0.00     0.000 C 
BRANCH   2   3
ATOM      3  C   UNL     1      15.376  20.216  49.509  1.00  0.00     0.000 C 
BRANCH   3   4
ATOM      4  C   UNL     1      14.688  18.888  49.158  1.00  0.00     0.000 C 
BRANCH   4   5
ATOM      5  C   UNL     1      14.049  18.902  47.761  1.00  0.00     0.006 C 
BRANCH   5   6
ATOM      6  C   UNL     1      14.869  18.062  46.776  1.00  0.00     0.053 C 
BRANCH   6   7
ATOM      7  C   UNL     1      15.970  18.881  46.181  1.00  0.00     0.041 C 
ATOM      8  O   UNL     1      15.753  20.067  45.817  1.00  0.00    -0.550 OA
ATOM      9  O   UNL     1      17.251  18.352  46.073  1.00  0.00    -0.550 OA
ENDBRANCH   6   7
ENDBRANCH   5   6
ENDBRANCH   4   5
ENDBRANCH   3   4
ENDBRANCH   2   3
ENDBRANCH   1   2
BRANCH   1  10
ATOM     10  C   UNL     1      18.371  18.512  50.882  1.00  0.00     0.000 C 
BRANCH  10  11
ATOM     11  C   UNL     1      17.955  17.542  52.002  1.00  0.00    -0.000 C 
BRANCH  11  12
ATOM     12  C   UNL     1      16.483  17.693  52.411  1.00  0.00    -0.000 C 
BRANCH  12  13
ATOM     13  C   UNL     1      16.346  17.838  53.935  1.00  0.00    -0.000 C 
BRANCH  13  14
ATOM     14  C   UNL     1      15.860  19.243  54.347  1.00  0.00    -0.000 C 
BRANCH  14  15
ATOM     15  C   UNL     1      15.545  20.161  53.155  1.00  0.00    -0.003 C 
ATOM     16  C   UNL     1      16.515  21.334  53.030  1.00  0.00     0.004 C 
ENDBRANCH  14  15
ENDBRANCH  13  14
ENDBRANCH  12  13
ENDBRANCH  11  12
ENDBRANCH  10  11
ENDBRANCH   1  10
TORSDOF 12
ENDMDL
MODEL 7
REMARK VINA RESULT:    -2.898      3.579      6.453
REMARK INTER + INTRA:          -6.694
REMARK INTER:                  -5.303
REMARK INTRA:                  -1.391
REMARK UNBOUND:                -1.763
REMARK SMILES CCCCCCCCCCCCCC(=O)[O-]
REMARK SMILES IDX 8 1 9 2 10 3 11 4 12 5 13 6 14 7 15 8 16 9 7 10 6 11 5 12
REMARK SMILES IDX 4 13 3 14 2 15 1 16
REMARK H PARENT
REMARK Flexibility Score: inf
ROOT
ATOM      1  C   UNL     1      15.515  20.094  49.632  1.00  0.00     0.000 C 
ENDROOT
BRANCH   1   2
ATOM      2  C   UNL     1      14.213  19.876  48.847  1.00  0.00     0.000 C 
BRANCH   2   3
ATOM      3  C   UNL     1      14.313  18.630  47.953  1.00  0.00     0.000 C 
BRANCH   3   4
ATOM      4  C   UNL     1      15.081  18.897  46.650  1.00  0.00     0.000 C 
BRANCH   4   5
ATOM      5  C   UNL     1      16.391  18.099  46.560  1.00  0.00     0.006 C 
BRANCH   5   6
ATOM      6  C   UNL     1      17.605  19.027  46.671  1.00  0.00     0.053 C 
BRANCH   6   7
ATOM      7  C   UNL     1      18.277  19.172  45.343  1.00  0.00     0.041 C 
ATOM      8  O   UNL     1      19.495  18.880  45.213  1.00  0.00    -0.550 OA
ATOM      9  O   UNL     1      17.546  19.583  44.235  1.00  0.00    -0.550 OA
ENDBRANCH   6   7
ENDBRANCH   5   6
ENDBRANCH   4   5
ENDBRANCH   3   4
ENDBRANCH   2   3
ENDBRANCH   1   2
BRANCH   1  10
ATOM     10  C   UNL     1      15.919  18.871  50.478  1.00  0.00     0.000 C 
BRANCH  10  11
ATOM     11  C   UNL     1      17.415  18.514  50.434  1.00  0.00    -0.000 C 
BRANCH  11  12
ATOM     12  C   UNL     1      17.927  17.911  51.750  1.00  0.00    -0.000 C 
BRANCH  12  13
ATOM     13  C   UNL     1      16.761  17.428  52.626  1.00  0.00    -0.000 C 
BRANCH  13  14
ATOM     14  C   UNL     1      16.742  18.115  54.007  1.00  0.00    -0.000 C 
BRANCH  14  15
ATOM     15  C   UNL     1      17.419  19.495  54.018  1.00  0.00    -0.003 C 
ATOM     16  C   UNL     1      16.437  20.645  53.810  1.00  0.00     0.004 C 
ENDBRANCH  14  15
ENDBRANCH  13  14
ENDBRANCH  12  13
ENDBRANCH  11  12
ENDBRANCH  10  11
ENDBRANCH   1  10
TORSDOF 12
ENDMDL
MODEL 8
REMARK VINA RESULT:    -2.880     11.026     13.328
REMARK INTER + INTRA:          -6.664
REMARK INTER:                  -4.817
REMARK INTRA:                  -1.847
REMARK UNBOUND:                -1.763
REMARK SMILES CCCCCCCCCCCCCC(=O)[O-]
REMARK SMILES IDX 8 1 9 2 10 3 11 4 12 5 13 6 14 7 15 8 16 9 7 10 6 11 5 12
REMARK SMILES IDX 4 13 3 14 2 15 1 16
REMARK H PARENT
REMARK Flexibility Score: inf
ROOT
ATOM      1  C   UNL     1      18.982  26.673  58.354  1.00  0.00     0.000 C 
ENDROOT
BRANCH   1   2
ATOM      2  C   UNL     1      19.793  26.612  57.051  1.00  0.00     0.000 C 
BRANCH   2   3
ATOM      3  C   UNL     1      18.981  27.167  55.872  1.00  0.00     0.000 C 
BRANCH   3   4
ATOM      4  C   UNL     1      17.954  28.225  56.306  1.00  0.00     0.000 C 
BRANCH   4   5
ATOM      5  C   UNL     1      17.660  29.254  55.203  1.00  0.00     0.006 C 
BRANCH   5   6
ATOM      6  C   UNL     1      16.158  29.538  55.105  1.00  0.00     0.053 C 
BRANCH   6   7
ATOM      7  C   UNL     1      15.508  28.590  54.148  1.00  0.00     0.041 C 
ATOM      8  O   UNL     1      16.070  28.305  53.057  1.00  0.00    -0.550 OA
ATOM      9  O   UNL     1      14.304  27.981  54.480  1.00  0.00    -0.550 OA
ENDBRANCH   6   7
ENDBRANCH   5   6
ENDBRANCH   4   5
ENDBRANCH   3   4
ENDBRANCH   2   3
ENDBRANCH   1   2
BRANCH   1  10
ATOM     10  C   UNL     1      19.710  27.431  59.480  1.00  0.00     0.000 C 
BRANCH  10  11
ATOM     11  C   UNL     1      21.029  28.106  59.065  1.00  0.00    -0.000 C 
BRANCH  11  12
ATOM     12  C   UNL     1      20.891  29.622  58.864  1.00  0.00    -0.000 C 
BRANCH  12  13
ATOM     13  C   UNL     1      21.807  30.114  57.733  1.00  0.00    -0.000 C 
BRANCH  13  14
ATOM     14  C   UNL     1      21.064  30.227  56.386  1.00  0.00    -0.000 C 
BRANCH  14  15
ATOM     15  C   UNL     1      21.784  29.522  55.224  1.00  0.00    -0.003 C 
ATOM     16  C   UNL     1      22.718  28.406  55.688  1.00  0.00     0.004 C 
ENDBRANCH  14  15
ENDBRANCH  13  14
ENDBRANCH  12  13
ENDBRANCH  11  12
ENDBRANCH  10  11
ENDBRANCH   1  10
TORSDOF 12
ENDMDL
MODEL 9
REMARK VINA RESULT:    -2.845     17.967     19.538
REMARK INTER + INTRA:          -6.604
REMARK INTER:                  -4.649
REMARK INTRA:                  -1.954
REMARK UNBOUND:                -1.763
REMARK SMILES CCCCCCCCCCCCCC(=O)[O-]
REMARK SMILES IDX 8 1 9 2 10 3 11 4 12 5 13 6 14 7 15 8 16 9 7 10 6 11 5 12
REMARK SMILES IDX 4 13 3 14 2 15 1 16
REMARK H PARENT
REMARK Flexibility Score: inf
ROOT
ATOM      1  C   UNL     1      30.380  32.123  53.008  1.00  0.00     0.000 C 
ENDROOT
BRANCH   1   2
ATOM      2  C   UNL     1      30.633  33.533  53.563  1.00  0.00     0.000 C 
BRANCH   2   3
ATOM      3  C   UNL     1      29.314  34.207  53.971  1.00  0.00     0.000 C 
BRANCH   3   4
ATOM      4  C   UNL     1      28.097  33.617  53.242  1.00  0.00     0.000 C 
BRANCH   4   5
ATOM      5  C   UNL     1      26.763  34.144  53.794  1.00  0.00     0.006 C 
BRANCH   5   6
ATOM      6  C   UNL     1      25.586  33.641  52.952  1.00  0.00     0.053 C 
BRANCH   6   7
ATOM      7  C   UNL     1      25.310  32.201  53.247  1.00  0.00     0.041 C 
ATOM      8  O   UNL     1      24.886  31.856  54.381  1.00  0.00    -0.550 OA
ATOM      9  O   UNL     1      25.472  31.244  52.253  1.00  0.00    -0.550 OA
ENDBRANCH   6   7
ENDBRANCH   5   6
ENDBRANCH   4   5
ENDBRANCH   3   4
ENDBRANCH   2   3
ENDBRANCH   1   2
BRANCH   1  10
ATOM     10  C   UNL     1      31.435  31.099  53.466  1.00  0.00     0.000 C 
BRANCH  10  11
ATOM     11  C   UNL     1      32.183  31.466  54.760  1.00  0.00    -0.000 C 
BRANCH  11  12
ATOM     12  C   UNL     1      31.581  30.805  56.009  1.00  0.00    -0.000 C 
BRANCH  12  13
ATOM     13  C   UNL     1      30.675  31.786  56.769  1.00  0.00    -0.000 C 
BRANCH  13  14
ATOM     14  C   UNL     1      29.300  31.170  57.106  1.00  0.00    -0.000 C 
BRANCH  14  15
ATOM     15  C   UNL     1      28.247  31.375  56.005  1.00  0.00    -0.003 C 
ATOM     16  C   UNL     1      28.011  30.124  55.161  1.00  0.00     0.004 C 
ENDBRANCH  14  15
ENDBRANCH  13  14
ENDBRANCH  12  13
ENDBRANCH  11  12
ENDBRANCH  10  11
ENDBRANCH   1  10
TORSDOF 12
ENDMDL
