MODEL 1
REMARK VINA RESULT:    -6.675      0.000      0.000
REMARK INTER + INTRA:         -11.385
REMARK INTER:                  -9.797
REMARK INTRA:                  -1.587
REMARK UNBOUND:                -1.587
REMARK SMILES Cc1cc2c(C(C)C)c(O)c(O)c(C=O)c2c(O)c1-c1c(C)cc2c(C(C)C)c(O)c(O)c(C=O)c2c1O
REMARK SMILES IDX 1 1 2 2 3 3 4 4 16 5 13 6 11 7 9 8 5 9 17 10 19 11 20 12
REMARK SMILES IDX 37 13 21 14 36 15 23 16 22 17 24 18 33 19 25 20 31 21 29 22
REMARK SMILES IDX 38 23 34 25 35 26 26 27 27 28 28 29 32 30 30 32 18 34 6 36
REMARK SMILES IDX 7 37 8 38 14 39 15 40 10 41 12 43
REMARK H PARENT 38 24 32 31 30 33 18 35 10 42 12 44
REMARK Flexibility Score: inf
ROOT
ATOM      1  C   UNL     1      26.672  -9.566 -28.311  1.00  0.00     0.045 C 
ATOM      2  C   UNL     1      27.802 -10.324 -27.655  1.00  0.00    -0.039 A 
ATOM      3  C   UNL     1      27.783 -10.505 -26.271  1.00  0.00     0.013 A 
ATOM      4  C   UNL     1      28.818 -11.187 -25.594  1.00  0.00    -0.006 A 
ATOM      5  C   UNL     1      29.883 -11.748 -26.358  1.00  0.00     0.039 A 
ATOM      6  C   UNL     1      30.937 -12.432 -25.686  1.00  0.00     0.072 A 
ATOM      7  C   UNL     1      30.749 -12.812 -24.337  1.00  0.00     0.169 A 
ATOM      8  C   UNL     1      29.686 -12.279 -23.596  1.00  0.00     0.162 A 
ATOM      9  C   UNL     1      28.799 -11.347 -24.176  1.00  0.00     0.008 A 
ATOM     10  C   UNL     1      29.837 -11.660 -27.780  1.00  0.00     0.132 A 
ATOM     11  C   UNL     1      28.816 -10.926 -28.419  1.00  0.00     0.031 A 
ENDROOT
BRANCH  11  12
ATOM     12  C   UNL     1      28.779 -10.835 -29.902  1.00  0.00     0.031 A 
ATOM     13  C   UNL     1      28.034 -11.768 -30.652  1.00  0.00     0.132 A 
ATOM     14  C   UNL     1      29.464  -9.798 -30.552  1.00  0.00    -0.039 A 
ATOM     15  C   UNL     1      28.002 -11.694 -32.079  1.00  0.00     0.039 A 
ATOM     16  C   UNL     1      29.377  -9.681 -31.938  1.00  0.00     0.013 A 
ATOM     17  C   UNL     1      30.232  -8.758 -29.771  1.00  0.00     0.045 C 
ATOM     18  C   UNL     1      28.674 -10.612 -32.732  1.00  0.00    -0.006 A 
ATOM     19  C   UNL     1      27.290 -12.646 -32.872  1.00  0.00     0.072 A 
ATOM     20  C   UNL     1      28.616 -10.479 -34.158  1.00  0.00     0.008 A 
ATOM     21  C   UNL     1      27.202 -12.474 -34.267  1.00  0.00     0.169 A 
ATOM     22  C   UNL     1      27.825 -11.391 -34.892  1.00  0.00     0.162 A 
BRANCH  13  23
ATOM     23  O   UNL     1      27.303 -12.753 -29.974  1.00  0.00    -0.507 OA
ATOM     24  H   UNL     1      26.638 -12.557 -29.238  1.00  0.00     0.293 HD
ENDBRANCH  13  23
BRANCH  19  25
ATOM     25  C   UNL     1      26.668 -13.846 -32.277  1.00  0.00     0.264 C 
ATOM     26  O   UNL     1      25.417 -13.928 -32.156  1.00  0.00    -0.298 OA
ENDBRANCH  19  25
BRANCH  20  27
ATOM     27  C   UNL     1      29.354  -9.379 -34.951  1.00  0.00     0.017 C 
ATOM     28  C   UNL     1      28.840  -7.976 -34.604  1.00  0.00     0.012 C 
ATOM     29  C   UNL     1      30.893  -9.493 -34.909  1.00  0.00     0.012 C 
ENDBRANCH  20  27
BRANCH  21  30
ATOM     30  O   UNL     1      26.520 -13.392 -35.077  1.00  0.00    -0.504 OA
ATOM     31  H   UNL     1      26.915 -14.258 -35.416  1.00  0.00     0.293 HD
ENDBRANCH  21  30
BRANCH  22  32
ATOM     32  O   UNL     1      27.667 -11.222 -36.272  1.00  0.00    -0.504 OA
ATOM     33  H   UNL     1      27.117 -10.477 -36.680  1.00  0.00     0.293 HD
ENDBRANCH  22  32
ENDBRANCH  11  12
BRANCH  10  34
ATOM     34  O   UNL     1      30.774 -12.356 -28.556  1.00  0.00    -0.507 OA
ATOM     35  H   UNL     1      30.716 -12.451 -29.562  1.00  0.00     0.293 HD
ENDBRANCH  10  34
BRANCH   9  36
ATOM     36  C   UNL     1      27.807 -10.579 -23.284  1.00  0.00     0.017 C 
ATOM     37  C   UNL     1      26.698 -11.507 -22.778  1.00  0.00     0.012 C 
ATOM     38  C   UNL     1      28.476  -9.820 -22.120  1.00  0.00     0.012 C 
ENDBRANCH   9  36
BRANCH   6  39
ATOM     39  C   UNL     1      32.280 -12.544 -26.322  1.00  0.00     0.264 C 
ATOM     40  O   UNL     1      32.811 -13.649 -26.619  1.00  0.00    -0.298 OA
ENDBRANCH   6  39
BRANCH   8  41
ATOM     41  O   UNL     1      29.506 -12.680 -22.270  1.00  0.00    -0.504 OA
ATOM     42  H   UNL     1      29.002 -12.126 -21.588  1.00  0.00     0.293 HD
ENDBRANCH   8  41
BRANCH   7  43
ATOM     43  O   UNL     1      31.605 -13.706 -23.685  1.00  0.00    -0.504 OA
ATOM     44  H   UNL     1      31.700 -13.768 -22.682  1.00  0.00     0.293 HD
ENDBRANCH   7  43
TORSDOF 11
ENDMDL
MODEL 2
REMARK VINA RESULT:    -6.549      6.521     11.728
REMARK INTER + INTRA:         -11.200
REMARK INTER:                  -9.730
REMARK INTRA:                  -1.469
REMARK UNBOUND:                -1.587
REMARK SMILES Cc1cc2c(C(C)C)c(O)c(O)c(C=O)c2c(O)c1-c1c(C)cc2c(C(C)C)c(O)c(O)c(C=O)c2c1O
REMARK SMILES IDX 1 1 2 2 3 3 4 4 16 5 13 6 11 7 9 8 5 9 17 10 19 11 20 12
REMARK SMILES IDX 37 13 21 14 36 15 23 16 22 17 24 18 33 19 25 20 31 21 29 22
REMARK SMILES IDX 38 23 34 25 35 26 26 27 27 28 28 29 32 30 30 32 18 34 6 36
REMARK SMILES IDX 7 37 8 38 14 39 15 40 10 41 12 43
REMARK H PARENT 38 24 32 31 30 33 18 35 10 42 12 44
REMARK Flexibility Score: inf
ROOT
ATOM      1  C   UNL     1      27.395  -6.348 -23.803  1.00  0.00     0.045 C 
ATOM      2  C   UNL     1      26.045  -6.512 -24.462  1.00  0.00    -0.039 A 
ATOM      3  C   UNL     1      25.845  -5.982 -25.738  1.00  0.00     0.013 A 
ATOM      4  C   UNL     1      24.602  -6.085 -26.400  1.00  0.00    -0.006 A 
ATOM      5  C   UNL     1      23.543  -6.796 -25.763  1.00  0.00     0.039 A 
ATOM      6  C   UNL     1      22.281  -6.900 -26.419  1.00  0.00     0.072 A 
ATOM      7  C   UNL     1      22.201  -6.582 -27.795  1.00  0.00     0.169 A 
ATOM      8  C   UNL     1      23.255  -5.907 -28.423  1.00  0.00     0.162 A 
ATOM      9  C   UNL     1      24.401  -5.520 -27.696  1.00  0.00     0.008 A 
ATOM     10  C   UNL     1      23.789  -7.433 -24.512  1.00  0.00     0.132 A 
ATOM     11  C   UNL     1      25.026  -7.265 -23.855  1.00  0.00     0.031 A 
ENDROOT
BRANCH  11  12
ATOM     12  C   UNL     1      25.272  -7.929 -22.548  1.00  0.00     0.031 A 
ATOM     13  C   UNL     1      25.731  -9.262 -22.505  1.00  0.00     0.132 A 
ATOM     14  C   UNL     1      25.077  -7.215 -21.358  1.00  0.00    -0.039 A 
ATOM     15  C   UNL     1      25.961  -9.911 -21.252  1.00  0.00     0.039 A 
ATOM     16  C   UNL     1      25.367  -7.822 -20.138  1.00  0.00     0.013 A 
ATOM     17  C   UNL     1      24.630  -5.772 -21.376  1.00  0.00     0.045 C 
ATOM     18  C   UNL     1      25.792  -9.163 -20.043  1.00  0.00    -0.006 A 
ATOM     19  C   UNL     1      26.387 -11.272 -21.171  1.00  0.00     0.072 A 
ATOM     20  C   UNL     1      26.067  -9.769 -18.774  1.00  0.00     0.008 A 
ATOM     21  C   UNL     1      26.698 -11.838 -19.920  1.00  0.00     0.169 A 
ATOM     22  C   UNL     1      26.573 -11.088 -18.748  1.00  0.00     0.162 A 
BRANCH  13  23
ATOM     23  O   UNL     1      25.984  -9.931 -23.710  1.00  0.00    -0.507 OA
ATOM     24  H   UNL     1      26.015  -9.476 -24.613  1.00  0.00     0.293 HD
ENDBRANCH  13  23
BRANCH  19  25
ATOM     25  C   UNL     1      26.474 -12.134 -22.366  1.00  0.00     0.264 C 
ATOM     26  O   UNL     1      25.556 -12.955 -22.633  1.00  0.00    -0.298 OA
ENDBRANCH  19  25
BRANCH  20  27
ATOM     27  C   UNL     1      25.861  -9.060 -17.419  1.00  0.00     0.017 C 
ATOM     28  C   UNL     1      26.915  -7.972 -17.172  1.00  0.00     0.012 C 
ATOM     29  C   UNL     1      24.416  -8.576 -17.170  1.00  0.00     0.012 C 
ENDBRANCH  20  27
BRANCH  21  30
ATOM     30  O   UNL     1      27.111 -13.172 -19.801  1.00  0.00    -0.504 OA
ATOM     31  H   UNL     1      27.731 -13.638 -20.447  1.00  0.00     0.293 HD
ENDBRANCH  21  30
BRANCH  22  32
ATOM     32  O   UNL     1      26.946 -11.666 -17.530  1.00  0.00    -0.504 OA
ATOM     33  H   UNL     1      27.775 -12.237 -17.417  1.00  0.00     0.293 HD
ENDBRANCH  22  32
ENDBRANCH  11  12
BRANCH  10  34
ATOM     34  O   UNL     1      22.824  -8.283 -23.957  1.00  0.00    -0.507 OA
ATOM     35  H   UNL     1      23.020  -9.218 -23.620  1.00  0.00     0.293 HD
ENDBRANCH  10  34
BRANCH   9  36
ATOM     36  C   UNL     1      25.421  -4.559 -28.330  1.00  0.00     0.017 C 
ATOM     37  C   UNL     1      26.238  -5.269 -29.415  1.00  0.00     0.012 C 
ATOM     38  C   UNL     1      24.798  -3.254 -28.864  1.00  0.00     0.012 C 
ENDBRANCH   9  36
BRANCH   6  39
ATOM     39  C   UNL     1      21.042  -7.123 -25.623  1.00  0.00     0.264 C 
ATOM     40  O   UNL     1      20.255  -8.088 -25.830  1.00  0.00    -0.298 OA
ENDBRANCH   6  39
BRANCH   8  41
ATOM     41  O   UNL     1      23.166  -5.617 -29.787  1.00  0.00    -0.504 OA
ATOM     42  H   UNL     1      22.297  -5.377 -30.246  1.00  0.00     0.293 HD
ENDBRANCH   8  41
BRANCH   7  43
ATOM     43  O   UNL     1      21.085  -6.904 -28.573  1.00  0.00    -0.504 OA
ATOM     44  H   UNL     1      20.312  -7.467 -28.249  1.00  0.00     0.293 HD
ENDBRANCH   7  43
TORSDOF 11
ENDMDL
MODEL 3
REMARK VINA RESULT:    -6.546      6.984      8.532
REMARK INTER + INTRA:         -11.195
REMARK INTER:                 -10.025
REMARK INTRA:                  -1.170
REMARK UNBOUND:                -1.587
REMARK SMILES Cc1cc2c(C(C)C)c(O)c(O)c(C=O)c2c(O)c1-c1c(C)cc2c(C(C)C)c(O)c(O)c(C=O)c2c1O
REMARK SMILES IDX 1 1 2 2 3 3 4 4 16 5 13 6 11 7 9 8 5 9 17 10 19 11 20 12
REMARK SMILES IDX 37 13 21 14 36 15 23 16 22 17 24 18 33 19 25 20 31 21 29 22
REMARK SMILES IDX 38 23 34 25 35 26 26 27 27 28 28 29 32 30 30 32 18 34 6 36
REMARK SMILES IDX 7 37 8 38 14 39 15 40 10 41 12 43
REMARK H PARENT 38 24 32 31 30 33 18 35 10 42 12 44
REMARK Flexibility Score: inf
ROOT
ATOM      1  C   UNL     1      24.885  -5.759 -20.767  1.00  0.00     0.045 C 
ATOM      2  C   UNL     1      25.367  -7.181 -20.929  1.00  0.00    -0.039 A 
ATOM      3  C   UNL     1      25.513  -7.981 -19.794  1.00  0.00     0.013 A 
ATOM      4  C   UNL     1      25.976  -9.313 -19.876  1.00  0.00    -0.006 A 
ATOM      5  C   UNL     1      26.251  -9.865 -21.161  1.00  0.00     0.039 A 
ATOM      6  C   UNL     1      26.726 -11.205 -21.256  1.00  0.00     0.072 A 
ATOM      7  C   UNL     1      26.613 -12.049 -20.126  1.00  0.00     0.169 A 
ATOM      8  C   UNL     1      26.317 -11.506 -18.869  1.00  0.00     0.162 A 
ATOM      9  C   UNL     1      26.143 -10.115 -18.706  1.00  0.00     0.008 A 
ATOM     10  C   UNL     1      25.990  -9.081 -22.323  1.00  0.00     0.132 A 
ATOM     11  C   UNL     1      25.578  -7.738 -22.202  1.00  0.00     0.031 A 
ENDROOT
BRANCH  11  12
ATOM     12  C   UNL     1      25.313  -6.926 -23.419  1.00  0.00     0.031 A 
ATOM     13  C   UNL     1      24.025  -6.910 -23.994  1.00  0.00     0.132 A 
ATOM     14  C   UNL     1      26.340  -6.152 -23.975  1.00  0.00    -0.039 A 
ATOM     15  C   UNL     1      23.764  -6.141 -25.170  1.00  0.00     0.039 A 
ATOM     16  C   UNL     1      26.071  -5.346 -25.080  1.00  0.00     0.013 A 
ATOM     17  C   UNL     1      27.716  -6.115 -23.353  1.00  0.00     0.045 C 
ATOM     18  C   UNL     1      24.810  -5.326 -25.711  1.00  0.00    -0.006 A 
ATOM     19  C   UNL     1      22.483  -6.132 -25.802  1.00  0.00     0.072 A 
ATOM     20  C   UNL     1      24.564  -4.502 -26.857  1.00  0.00     0.008 A 
ATOM     21  C   UNL     1      22.244  -5.281 -26.898  1.00  0.00     0.169 A 
ATOM     22  C   UNL     1      23.257  -4.457 -27.393  1.00  0.00     0.162 A 
BRANCH  13  23
ATOM     23  O   UNL     1      22.999  -7.639 -23.378  1.00  0.00    -0.507 OA
ATOM     24  H   UNL     1      22.327  -8.204 -23.879  1.00  0.00     0.293 HD
ENDBRANCH  13  23
BRANCH  19  25
ATOM     25  C   UNL     1      21.394  -7.030 -25.367  1.00  0.00     0.264 C 
ATOM     26  O   UNL     1      20.641  -7.582 -26.213  1.00  0.00    -0.298 OA
ENDBRANCH  19  25
BRANCH  20  27
ATOM     27  C   UNL     1      25.643  -3.635 -27.541  1.00  0.00     0.017 C 
ATOM     28  C   UNL     1      26.079  -2.456 -26.660  1.00  0.00     0.012 C 
ATOM     29  C   UNL     1      26.830  -4.438 -28.116  1.00  0.00     0.012 C 
ENDBRANCH  20  27
BRANCH  21  30
ATOM     30  O   UNL     1      21.003  -5.253 -27.548  1.00  0.00    -0.504 OA
ATOM     31  H   UNL     1      20.118  -5.431 -27.096  1.00  0.00     0.293 HD
ENDBRANCH  21  30
BRANCH  22  32
ATOM     32  O   UNL     1      22.967  -3.583 -28.446  1.00  0.00    -0.504 OA
ATOM     33  H   UNL     1      22.783  -2.596 -28.313  1.00  0.00     0.293 HD
ENDBRANCH  22  32
ENDBRANCH  11  12
BRANCH  10  34
ATOM     34  O   UNL     1      26.081  -9.662 -23.595  1.00  0.00    -0.507 OA
ATOM     35  H   UNL     1      26.783 -10.344 -23.856  1.00  0.00     0.293 HD
ENDBRANCH  10  34
BRANCH   9  36
ATOM     36  C   UNL     1      26.080  -9.512 -17.292  1.00  0.00     0.017 C 
ATOM     37  C   UNL     1      27.254  -8.556 -17.055  1.00  0.00     0.012 C 
ATOM     38  C   UNL     1      24.734  -8.839 -16.961  1.00  0.00     0.012 C 
ENDBRANCH   9  36
BRANCH   6  39
ATOM     39  C   UNL     1      27.522 -11.634 -22.441  1.00  0.00     0.264 C 
ATOM     40  O   UNL     1      28.551 -12.360 -22.353  1.00  0.00    -0.298 OA
ENDBRANCH   6  39
BRANCH   8  41
ATOM     41  O   UNL     1      26.191 -12.356 -17.768  1.00  0.00    -0.504 OA
ATOM     42  H   UNL     1      26.240 -12.032 -16.810  1.00  0.00     0.293 HD
ENDBRANCH   8  41
BRANCH   7  43
ATOM     43  O   UNL     1      26.803 -13.432 -20.203  1.00  0.00    -0.504 OA
ATOM     44  H   UNL     1      27.092 -13.918 -21.040  1.00  0.00     0.293 HD
ENDBRANCH   7  43
TORSDOF 11
ENDMDL
MODEL 4
REMARK VINA RESULT:    -6.410      5.104      8.341
REMARK INTER + INTRA:         -10.995
REMARK INTER:                  -9.430
REMARK INTRA:                  -1.565
REMARK UNBOUND:                -1.587
REMARK SMILES Cc1cc2c(C(C)C)c(O)c(O)c(C=O)c2c(O)c1-c1c(C)cc2c(C(C)C)c(O)c(O)c(C=O)c2c1O
REMARK SMILES IDX 1 1 2 2 3 3 4 4 16 5 13 6 11 7 9 8 5 9 17 10 19 11 20 12
REMARK SMILES IDX 37 13 21 14 36 15 23 16 22 17 24 18 33 19 25 20 31 21 29 22
REMARK SMILES IDX 38 23 34 25 35 26 26 27 27 28 28 29 32 30 30 32 18 34 6 36
REMARK SMILES IDX 7 37 8 38 14 39 15 40 10 41 12 43
REMARK H PARENT 38 24 32 31 30 33 18 35 10 42 12 44
REMARK Flexibility Score: inf
ROOT
ATOM      1  C   UNL     1      31.472  -9.423 -35.342  1.00  0.00     0.045 C 
ATOM      2  C   UNL     1      31.110  -9.549 -33.881  1.00  0.00    -0.039 A 
ATOM      3  C   UNL     1      30.184 -10.519 -33.493  1.00  0.00     0.013 A 
ATOM      4  C   UNL     1      29.789 -10.676 -32.146  1.00  0.00    -0.006 A 
ATOM      5  C   UNL     1      30.395  -9.851 -31.154  1.00  0.00     0.039 A 
ATOM      6  C   UNL     1      29.999  -9.995 -29.792  1.00  0.00     0.072 A 
ATOM      7  C   UNL     1      29.266 -11.144 -29.414  1.00  0.00     0.169 A 
ATOM      8  C   UNL     1      28.693 -11.966 -30.393  1.00  0.00     0.162 A 
ATOM      9  C   UNL     1      28.824 -11.657 -31.764  1.00  0.00     0.008 A 
ATOM     10  C   UNL     1      31.423  -8.943 -31.540  1.00  0.00     0.132 A 
ATOM     11  C   UNL     1      31.755  -8.775 -32.901  1.00  0.00     0.031 A 
ENDROOT
BRANCH  11  12
ATOM     12  C   UNL     1      32.825  -7.822 -33.296  1.00  0.00     0.031 A 
ATOM     13  C   UNL     1      34.171  -8.244 -33.339  1.00  0.00     0.132 A 
ATOM     14  C   UNL     1      32.488  -6.509 -33.655  1.00  0.00    -0.039 A 
ATOM     15  C   UNL     1      35.206  -7.330 -33.708  1.00  0.00     0.039 A 
ATOM     16  C   UNL     1      33.488  -5.637 -34.083  1.00  0.00     0.013 A 
ATOM     17  C   UNL     1      31.051  -6.045 -33.662  1.00  0.00     0.045 C 
ATOM     18  C   UNL     1      34.850  -6.003 -34.107  1.00  0.00    -0.006 A 
ATOM     19  C   UNL     1      36.583  -7.712 -33.724  1.00  0.00     0.072 A 
ATOM     20  C   UNL     1      35.860  -5.080 -34.534  1.00  0.00     0.008 A 
ATOM     21  C   UNL     1      37.558  -6.810 -34.191  1.00  0.00     0.169 A 
ATOM     22  C   UNL     1      37.197  -5.531 -34.620  1.00  0.00     0.162 A 
BRANCH  13  23
ATOM     23  O   UNL     1      34.471  -9.579 -33.042  1.00  0.00    -0.507 OA
ATOM     24  H   UNL     1      34.853  -9.890 -32.158  1.00  0.00     0.293 HD
ENDBRANCH  13  23
BRANCH  19  25
ATOM     25  C   UNL     1      37.033  -9.025 -33.220  1.00  0.00     0.264 C 
ATOM     26  O   UNL     1      37.429  -9.917 -34.017  1.00  0.00    -0.298 OA
ENDBRANCH  19  25
BRANCH  20  27
ATOM     27  C   UNL     1      35.577  -3.615 -34.928  1.00  0.00     0.017 C 
ATOM     28  C   UNL     1      34.957  -3.504 -36.327  1.00  0.00     0.012 C 
ATOM     29  C   UNL     1      34.813  -2.807 -33.857  1.00  0.00     0.012 C 
ENDBRANCH  20  27
BRANCH  21  30
ATOM     30  O   UNL     1      38.918  -7.147 -34.213  1.00  0.00    -0.504 OA
ATOM     31  H   UNL     1      39.476  -7.324 -33.389  1.00  0.00     0.293 HD
ENDBRANCH  21  30
BRANCH  22  32
ATOM     32  O   UNL     1      38.185  -4.683 -35.131  1.00  0.00    -0.504 OA
ATOM     33  H   UNL     1      38.659  -3.983 -34.573  1.00  0.00     0.293 HD
ENDBRANCH  22  32
ENDBRANCH  11  12
BRANCH  10  34
ATOM     34  O   UNL     1      32.155  -8.256 -30.563  1.00  0.00    -0.507 OA
ATOM     35  H   UNL     1      33.125  -7.986 -30.668  1.00  0.00     0.293 HD
ENDBRANCH  10  34
BRANCH   9  36
ATOM     36  C   UNL     1      27.978 -12.413 -32.803  1.00  0.00     0.017 C 
ATOM     37  C   UNL     1      28.481 -13.850 -32.974  1.00  0.00     0.012 C 
ATOM     38  C   UNL     1      26.464 -12.381 -32.515  1.00  0.00     0.012 C 
ENDBRANCH   9  36
BRANCH   6  39
ATOM     39  C   UNL     1      30.162  -8.858 -28.843  1.00  0.00     0.264 C 
ATOM     40  O   UNL     1      30.895  -8.918 -27.816  1.00  0.00    -0.298 OA
ENDBRANCH   6  39
BRANCH   8  41
ATOM     41  O   UNL     1      27.988 -13.107 -30.002  1.00  0.00    -0.504 OA
ATOM     42  H   UNL     1      26.999 -13.234 -30.179  1.00  0.00     0.293 HD
ENDBRANCH   8  41
BRANCH   7  43
ATOM     43  O   UNL     1      29.066 -11.499 -28.077  1.00  0.00    -0.504 OA
ATOM     44  H   UNL     1      28.570 -12.326 -27.778  1.00  0.00     0.293 HD
ENDBRANCH   7  43
TORSDOF 11
ENDMDL
MODEL 5
REMARK VINA RESULT:    -6.376      0.774      9.085
REMARK INTER + INTRA:         -10.945
REMARK INTER:                  -9.547
REMARK INTRA:                  -1.398
REMARK UNBOUND:                -1.587
REMARK SMILES Cc1cc2c(C(C)C)c(O)c(O)c(C=O)c2c(O)c1-c1c(C)cc2c(C(C)C)c(O)c(O)c(C=O)c2c1O
REMARK SMILES IDX 1 1 2 2 3 3 4 4 16 5 13 6 11 7 9 8 5 9 17 10 19 11 20 12
REMARK SMILES IDX 37 13 21 14 36 15 23 16 22 17 24 18 33 19 25 20 31 21 29 22
REMARK SMILES IDX 38 23 34 25 35 26 26 27 27 28 28 29 32 30 30 32 18 34 6 36
REMARK SMILES IDX 7 37 8 38 14 39 15 40 10 41 12 43
REMARK H PARENT 38 24 32 31 30 33 18 35 10 42 12 44
REMARK Flexibility Score: inf
ROOT
ATOM      1  C   UNL     1      30.424  -8.729 -28.905  1.00  0.00     0.045 C 
ATOM      2  C   UNL     1      29.596  -9.619 -29.802  1.00  0.00    -0.039 A 
ATOM      3  C   UNL     1      29.623  -9.406 -31.181  1.00  0.00     0.013 A 
ATOM      4  C   UNL     1      28.857 -10.190 -32.071  1.00  0.00    -0.006 A 
ATOM      5  C   UNL     1      28.077 -11.261 -31.544  1.00  0.00     0.039 A 
ATOM      6  C   UNL     1      27.294 -12.054 -32.432  1.00  0.00     0.072 A 
ATOM      7  C   UNL     1      27.548 -11.973 -33.821  1.00  0.00     0.169 A 
ATOM      8  C   UNL     1      28.337 -10.934 -34.332  1.00  0.00     0.162 A 
ATOM      9  C   UNL     1      28.875  -9.948 -33.478  1.00  0.00     0.008 A 
ATOM     10  C   UNL     1      28.144 -11.546 -30.149  1.00  0.00     0.132 A 
ATOM     11  C   UNL     1      28.877 -10.709 -29.283  1.00  0.00     0.031 A 
ENDROOT
BRANCH  11  12
ATOM     12  C   UNL     1      28.937 -11.011 -27.828  1.00  0.00     0.031 A 
ATOM     13  C   UNL     1      30.015 -11.755 -27.302  1.00  0.00     0.132 A 
ATOM     14  C   UNL     1      27.935 -10.528 -26.976  1.00  0.00    -0.039 A 
ATOM     15  C   UNL     1      30.074 -12.058 -25.906  1.00  0.00     0.039 A 
ATOM     16  C   UNL     1      28.028 -10.762 -25.605  1.00  0.00     0.013 A 
ATOM     17  C   UNL     1      26.795  -9.691 -27.505  1.00  0.00     0.045 C 
ATOM     18  C   UNL     1      29.066 -11.531 -25.038  1.00  0.00    -0.006 A 
ATOM     19  C   UNL     1      31.129 -12.842 -25.346  1.00  0.00     0.072 A 
ATOM     20  C   UNL     1      29.127 -11.772 -23.627  1.00  0.00     0.008 A 
ATOM     21  C   UNL     1      31.202 -13.030 -23.952  1.00  0.00     0.169 A 
ATOM     22  C   UNL     1      30.238 -12.475 -23.107  1.00  0.00     0.162 A 
BRANCH  13  23
ATOM     23  O   UNL     1      31.039 -12.167 -28.165  1.00  0.00    -0.507 OA
ATOM     24  H   UNL     1      32.023 -12.014 -27.988  1.00  0.00     0.293 HD
ENDBRANCH  13  23
BRANCH  19  25
ATOM     25  C   UNL     1      32.139 -13.509 -26.192  1.00  0.00     0.264 C 
ATOM     26  O   UNL     1      32.289 -14.758 -26.148  1.00  0.00    -0.298 OA
ENDBRANCH  19  25
BRANCH  20  27
ATOM     27  C   UNL     1      28.057 -11.292 -22.624  1.00  0.00     0.017 C 
ATOM     28  C   UNL     1      28.031  -9.763 -22.497  1.00  0.00     0.012 C 
ATOM     29  C   UNL     1      26.660 -11.910 -22.845  1.00  0.00     0.012 C 
ENDBRANCH  20  27
BRANCH  21  30
ATOM     30  O   UNL     1      32.217 -13.799 -23.368  1.00  0.00    -0.504 OA
ATOM     31  H   UNL     1      32.341 -14.790 -23.520  1.00  0.00     0.293 HD
ENDBRANCH  21  30
BRANCH  22  32
ATOM     32  O   UNL     1      30.375 -12.635 -21.725  1.00  0.00    -0.504 OA
ATOM     33  H   UNL     1      29.645 -13.017 -21.135  1.00  0.00     0.293 HD
ENDBRANCH  22  32
ENDBRANCH  11  12
BRANCH  10  34
ATOM     34  O   UNL     1      27.531 -12.698 -29.640  1.00  0.00    -0.507 OA
ATOM     35  H   UNL     1      27.920 -13.629 -29.721  1.00  0.00     0.293 HD
ENDBRANCH  10  34
BRANCH   9  36
ATOM     36  C   UNL     1      29.511  -8.682 -34.078  1.00  0.00     0.017 C 
ATOM     37  C   UNL     1      30.789  -9.027 -34.849  1.00  0.00     0.012 C 
ATOM     38  C   UNL     1      28.543  -7.849 -34.942  1.00  0.00     0.012 C 
ENDBRANCH   9  36
BRANCH   6  39
ATOM     39  C   UNL     1      26.094 -12.779 -31.926  1.00  0.00     0.264 C 
ATOM     40  O   UNL     1      25.942 -14.026 -32.046  1.00  0.00    -0.298 OA
ENDBRANCH   6  39
BRANCH   8  41
ATOM     41  O   UNL     1      28.592 -10.881 -35.705  1.00  0.00    -0.504 OA
ATOM     42  H   UNL     1      29.128 -11.585 -36.196  1.00  0.00     0.293 HD
ENDBRANCH   8  41
BRANCH   7  43
ATOM     43  O   UNL     1      27.024 -12.894 -34.733  1.00  0.00    -0.504 OA
ATOM     44  H   UNL     1      26.074 -12.874 -35.075  1.00  0.00     0.293 HD
ENDBRANCH   7  43
TORSDOF 11
ENDMDL
MODEL 6
REMARK VINA RESULT:    -6.328     11.721     14.127
REMARK INTER + INTRA:         -10.875
REMARK INTER:                  -9.511
REMARK INTRA:                  -1.364
REMARK UNBOUND:                -1.587
REMARK SMILES Cc1cc2c(C(C)C)c(O)c(O)c(C=O)c2c(O)c1-c1c(C)cc2c(C(C)C)c(O)c(O)c(C=O)c2c1O
REMARK SMILES IDX 1 1 2 2 3 3 4 4 16 5 13 6 11 7 9 8 5 9 17 10 19 11 20 12
REMARK SMILES IDX 37 13 21 14 36 15 23 16 22 17 24 18 33 19 25 20 31 21 29 22
REMARK SMILES IDX 38 23 34 25 35 26 26 27 27 28 28 29 32 30 30 32 18 34 6 36
REMARK SMILES IDX 7 37 8 38 14 39 15 40 10 41 12 43
REMARK H PARENT 38 24 32 31 30 33 18 35 10 42 12 44
REMARK Flexibility Score: inf
ROOT
ATOM      1  C   UNL     1      29.523  -1.229 -25.418  1.00  0.00     0.045 C 
ATOM      2  C   UNL     1      28.507  -0.193 -25.837  1.00  0.00    -0.039 A 
ATOM      3  C   UNL     1      27.369  -0.003 -25.051  1.00  0.00     0.013 A 
ATOM      4  C   UNL     1      26.373   0.936 -25.398  1.00  0.00    -0.006 A 
ATOM      5  C   UNL     1      26.566   1.744 -26.556  1.00  0.00     0.039 A 
ATOM      6  C   UNL     1      25.564   2.690 -26.920  1.00  0.00     0.072 A 
ATOM      7  C   UNL     1      24.570   3.028 -25.972  1.00  0.00     0.169 A 
ATOM      8  C   UNL     1      24.401   2.246 -24.822  1.00  0.00     0.162 A 
ATOM      9  C   UNL     1      25.202   1.106 -24.598  1.00  0.00     0.008 A 
ATOM     10  C   UNL     1      27.783   1.626 -27.289  1.00  0.00     0.132 A 
ATOM     11  C   UNL     1      28.732   0.641 -26.945  1.00  0.00     0.031 A 
ENDROOT
BRANCH  11  12
ATOM     12  C   UNL     1      29.997   0.522 -27.718  1.00  0.00     0.031 A 
ATOM     13  C   UNL     1      31.150   1.221 -27.304  1.00  0.00     0.132 A 
ATOM     14  C   UNL     1      30.047  -0.313 -28.843  1.00  0.00    -0.039 A 
ATOM     15  C   UNL     1      32.367   1.119 -28.048  1.00  0.00     0.039 A 
ATOM     16  C   UNL     1      31.250  -0.468 -29.529  1.00  0.00     0.013 A 
ATOM     17  C   UNL     1      28.840  -1.108 -29.282  1.00  0.00     0.045 C 
ATOM     18  C   UNL     1      32.419   0.238 -29.174  1.00  0.00    -0.006 A 
ATOM     19  C   UNL     1      33.542   1.843 -27.680  1.00  0.00     0.072 A 
ATOM     20  C   UNL     1      33.639   0.073 -29.908  1.00  0.00     0.008 A 
ATOM     21  C   UNL     1      34.745   1.635 -28.381  1.00  0.00     0.169 A 
ATOM     22  C   UNL     1      34.799   0.740 -29.452  1.00  0.00     0.162 A 
BRANCH  13  23
ATOM     23  O   UNL     1      31.091   1.993 -26.137  1.00  0.00    -0.507 OA
ATOM     24  H   UNL     1      31.860   2.097 -25.488  1.00  0.00     0.293 HD
ENDBRANCH  13  23
BRANCH  19  25
ATOM     25  C   UNL     1      33.531   2.851 -26.601  1.00  0.00     0.264 C 
ATOM     26  O   UNL     1      34.108   2.625 -25.505  1.00  0.00    -0.298 OA
ENDBRANCH  19  25
BRANCH  20  27
ATOM     27  C   UNL     1      33.775  -0.811 -31.166  1.00  0.00     0.017 C 
ATOM     28  C   UNL     1      33.587  -2.300 -30.847  1.00  0.00     0.012 C 
ATOM     29  C   UNL     1      32.932  -0.334 -32.368  1.00  0.00     0.012 C 
ENDBRANCH  20  27
BRANCH  21  30
ATOM     30  O   UNL     1      35.915   2.334 -28.055  1.00  0.00    -0.504 OA
ATOM     31  H   UNL     1      36.809   1.899 -27.877  1.00  0.00     0.293 HD
ENDBRANCH  21  30
BRANCH  22  32
ATOM     32  O   UNL     1      36.024   0.515 -30.088  1.00  0.00    -0.504 OA
ATOM     33  H   UNL     1      36.287   0.960 -30.960  1.00  0.00     0.293 HD
ENDBRANCH  22  32
ENDBRANCH  11  12
BRANCH  10  34
ATOM     34  O   UNL     1      28.071   2.531 -28.319  1.00  0.00    -0.507 OA
ATOM     35  H   UNL     1      28.983   2.944 -28.470  1.00  0.00     0.293 HD
ENDBRANCH  10  34
BRANCH   9  36
ATOM     36  C   UNL     1      24.832   0.119 -23.478  1.00  0.00     0.017 C 
ATOM     37  C   UNL     1      24.679  -1.302 -24.031  1.00  0.00     0.012 C 
ATOM     38  C   UNL     1      25.799   0.150 -22.277  1.00  0.00     0.012 C 
ENDBRANCH   9  36
BRANCH   6  39
ATOM     39  C   UNL     1      25.439   3.139 -28.336  1.00  0.00     0.264 C 
ATOM     40  O   UNL     1      24.335   3.435 -28.869  1.00  0.00    -0.298 OA
ENDBRANCH   6  39
BRANCH   8  41
ATOM     41  O   UNL     1      23.427   2.605 -23.887  1.00  0.00    -0.504 OA
ATOM     42  H   UNL     1      22.662   1.997 -23.622  1.00  0.00     0.293 HD
ENDBRANCH   8  41
BRANCH   7  43
ATOM     43  O   UNL     1      23.718   4.123 -26.139  1.00  0.00    -0.504 OA
ATOM     44  H   UNL     1      23.808   4.803 -26.881  1.00  0.00     0.293 HD
ENDBRANCH   7  43
TORSDOF 11
ENDMDL
MODEL 7
REMARK VINA RESULT:    -6.315      5.823      9.254
REMARK INTER + INTRA:         -10.856
REMARK INTER:                  -9.478
REMARK INTRA:                  -1.379
REMARK UNBOUND:                -1.587
REMARK SMILES Cc1cc2c(C(C)C)c(O)c(O)c(C=O)c2c(O)c1-c1c(C)cc2c(C(C)C)c(O)c(O)c(C=O)c2c1O
REMARK SMILES IDX 1 1 2 2 3 3 4 4 16 5 13 6 11 7 9 8 5 9 17 10 19 11 20 12
REMARK SMILES IDX 37 13 21 14 36 15 23 16 22 17 24 18 33 19 25 20 31 21 29 22
REMARK SMILES IDX 38 23 34 25 35 26 26 27 27 28 28 29 32 30 30 32 18 34 6 36
REMARK SMILES IDX 7 37 8 38 14 39 15 40 10 41 12 43
REMARK H PARENT 38 24 32 31 30 33 18 35 10 42 12 44
REMARK Flexibility Score: inf
ROOT
ATOM      1  C   UNL     1      32.976 -12.099 -24.730  1.00  0.00     0.045 C 
ATOM      2  C   UNL     1      33.408 -11.093 -23.690  1.00  0.00    -0.039 A 
ATOM      3  C   UNL     1      34.771 -10.885 -23.472  1.00  0.00     0.013 A 
ATOM      4  C   UNL     1      35.240  -9.972 -22.501  1.00  0.00    -0.006 A 
ATOM      5  C   UNL     1      34.290  -9.208 -21.764  1.00  0.00     0.039 A 
ATOM      6  C   UNL     1      34.751  -8.289 -20.777  1.00  0.00     0.072 A 
ATOM      7  C   UNL     1      36.118  -7.926 -20.770  1.00  0.00     0.169 A 
ATOM      8  C   UNL     1      37.045  -8.664 -21.517  1.00  0.00     0.162 A 
ATOM      9  C   UNL     1      36.637  -9.785 -22.272  1.00  0.00     0.008 A 
ATOM     10  C   UNL     1      32.904  -9.340 -22.072  1.00  0.00     0.132 A 
ATOM     11  C   UNL     1      32.469 -10.299 -23.010  1.00  0.00     0.031 A 
ENDROOT
BRANCH  11  12
ATOM     12  C   UNL     1      31.021 -10.434 -23.322  1.00  0.00     0.031 A 
ATOM     13  C   UNL     1      30.206 -11.290 -22.552  1.00  0.00     0.132 A 
ATOM     14  C   UNL     1      30.463  -9.682 -24.365  1.00  0.00    -0.039 A 
ATOM     15  C   UNL     1      28.816 -11.432 -22.852  1.00  0.00     0.039 A 
ATOM     16  C   UNL     1      29.094  -9.766 -24.615  1.00  0.00     0.013 A 
ATOM     17  C   UNL     1      31.303  -8.724 -25.175  1.00  0.00     0.045 C 
ATOM     18  C   UNL     1      28.247 -10.635 -23.896  1.00  0.00    -0.006 A 
ATOM     19  C   UNL     1      27.969 -12.319 -22.119  1.00  0.00     0.072 A 
ATOM     20  C   UNL     1      26.845 -10.715 -24.185  1.00  0.00     0.008 A 
ATOM     21  C   UNL     1      26.587 -12.352 -22.383  1.00  0.00     0.169 A 
ATOM     22  C   UNL     1      26.032 -11.539 -23.374  1.00  0.00     0.162 A 
BRANCH  13  23
ATOM     23  O   UNL     1      30.775 -11.976 -21.472  1.00  0.00    -0.507 OA
ATOM     24  H   UNL     1      30.243 -12.504 -20.793  1.00  0.00     0.293 HD
ENDBRANCH  13  23
BRANCH  19  25
ATOM     25  C   UNL     1      28.507 -13.251 -21.107  1.00  0.00     0.264 C 
ATOM     26  O   UNL     1      28.730 -14.456 -21.398  1.00  0.00    -0.298 OA
ENDBRANCH  19  25
BRANCH  20  27
ATOM     27  C   UNL     1      26.155  -9.937 -25.326  1.00  0.00     0.017 C 
ATOM     28  C   UNL     1      25.986  -8.450 -24.988  1.00  0.00     0.012 C 
ATOM     29  C   UNL     1      26.772 -10.180 -26.720  1.00  0.00     0.012 C 
ENDBRANCH  20  27
BRANCH  21  30
ATOM     30  O   UNL     1      25.728 -13.216 -21.690  1.00  0.00    -0.504 OA
ATOM     31  H   UNL     1      25.966 -13.688 -20.830  1.00  0.00     0.293 HD
ENDBRANCH  21  30
BRANCH  22  32
ATOM     32  O   UNL     1      24.647 -11.556 -23.569  1.00  0.00    -0.504 OA
ATOM     33  H   UNL     1      24.212 -11.435 -24.476  1.00  0.00     0.293 HD
ENDBRANCH  22  32
ENDBRANCH  11  12
BRANCH  10  34
ATOM     34  O   UNL     1      31.971  -8.473 -21.490  1.00  0.00    -0.507 OA
ATOM     35  H   UNL     1      31.944  -8.252 -20.502  1.00  0.00     0.293 HD
ENDBRANCH  10  34
BRANCH   9  36
ATOM     36  C   UNL     1      37.693 -10.732 -22.867  1.00  0.00     0.017 C 
ATOM     37  C   UNL     1      38.706  -9.954 -23.714  1.00  0.00     0.012 C 
ATOM     38  C   UNL     1      38.401 -11.613 -21.819  1.00  0.00     0.012 C 
ENDBRANCH   9  36
BRANCH   6  39
ATOM     39  C   UNL     1      33.861  -7.897 -19.648  1.00  0.00     0.264 C 
ATOM     40  O   UNL     1      33.450  -6.716 -19.473  1.00  0.00    -0.298 OA
ENDBRANCH   6  39
BRANCH   8  41
ATOM     41  O   UNL     1      38.388  -8.280 -21.514  1.00  0.00    -0.504 OA
ATOM     42  H   UNL     1      38.731  -7.461 -22.001  1.00  0.00     0.293 HD
ENDBRANCH   8  41
BRANCH   7  43
ATOM     43  O   UNL     1      36.602  -6.848 -20.024  1.00  0.00    -0.504 OA
ATOM     44  H   UNL     1      37.549  -6.778 -19.679  1.00  0.00     0.293 HD
ENDBRANCH   7  43
TORSDOF 11
ENDMDL
MODEL 8
REMARK VINA RESULT:    -6.292      9.852     14.350
REMARK INTER + INTRA:         -10.822
REMARK INTER:                  -9.686
REMARK INTRA:                  -1.137
REMARK UNBOUND:                -1.587
REMARK SMILES Cc1cc2c(C(C)C)c(O)c(O)c(C=O)c2c(O)c1-c1c(C)cc2c(C(C)C)c(O)c(O)c(C=O)c2c1O
REMARK SMILES IDX 1 1 2 2 3 3 4 4 16 5 13 6 11 7 9 8 5 9 17 10 19 11 20 12
REMARK SMILES IDX 37 13 21 14 36 15 23 16 22 17 24 18 33 19 25 20 31 21 29 22
REMARK SMILES IDX 38 23 34 25 35 26 26 27 27 28 28 29 32 30 30 32 18 34 6 36
REMARK SMILES IDX 7 37 8 38 14 39 15 40 10 41 12 43
REMARK H PARENT 38 24 32 31 30 33 18 35 10 42 12 44
REMARK Flexibility Score: inf
ROOT
ATOM      1  C   UNL     1      32.515  -0.291 -32.606  1.00  0.00     0.045 C 
ATOM      2  C   UNL     1      33.561  -1.363 -32.795  1.00  0.00    -0.039 A 
ATOM      3  C   UNL     1      33.939  -1.721 -34.091  1.00  0.00     0.013 A 
ATOM      4  C   UNL     1      34.898  -2.728 -34.336  1.00  0.00    -0.006 A 
ATOM      5  C   UNL     1      35.531  -3.357 -33.224  1.00  0.00     0.039 A 
ATOM      6  C   UNL     1      36.495  -4.380 -33.459  1.00  0.00     0.072 A 
ATOM      7  C   UNL     1      37.029  -4.526 -34.760  1.00  0.00     0.169 A 
ATOM      8  C   UNL     1      36.420  -3.886 -35.847  1.00  0.00     0.162 A 
ATOM      9  C   UNL     1      35.261  -3.101 -35.666  1.00  0.00     0.008 A 
ATOM     10  C   UNL     1      35.226  -2.907 -31.907  1.00  0.00     0.132 A 
ATOM     11  C   UNL     1      34.225  -1.936 -31.697  1.00  0.00     0.031 A 
ENDROOT
BRANCH  11  12
ATOM     12  C   UNL     1      33.909  -1.476 -30.319  1.00  0.00     0.031 A 
ATOM     13  C   UNL     1      34.559  -0.345 -29.782  1.00  0.00     0.132 A 
ATOM     14  C   UNL     1      32.939  -2.152 -29.566  1.00  0.00    -0.039 A 
ATOM     15  C   UNL     1      34.268   0.097 -28.454  1.00  0.00     0.039 A 
ATOM     16  C   UNL     1      32.603  -1.681 -28.298  1.00  0.00     0.013 A 
ATOM     17  C   UNL     1      32.194  -3.338 -30.133  1.00  0.00     0.045 C 
ATOM     18  C   UNL     1      33.252  -0.578 -27.705  1.00  0.00    -0.006 A 
ATOM     19  C   UNL     1      34.936   1.214 -27.864  1.00  0.00     0.072 A 
ATOM     20  C   UNL     1      32.900  -0.125 -26.392  1.00  0.00     0.008 A 
ATOM     21  C   UNL     1      34.546   1.676 -26.592  1.00  0.00     0.169 A 
ATOM     22  C   UNL     1      33.523   1.038 -25.886  1.00  0.00     0.162 A 
BRANCH  13  23
ATOM     23  O   UNL     1      35.474   0.353 -30.581  1.00  0.00    -0.507 OA
ATOM     24  H   UNL     1      35.710   1.328 -30.450  1.00  0.00     0.293 HD
ENDBRANCH  13  23
BRANCH  19  25
ATOM     25  C   UNL     1      36.069   1.886 -28.531  1.00  0.00     0.264 C 
ATOM     26  O   UNL     1      37.054   2.298 -27.864  1.00  0.00    -0.298 OA
ENDBRANCH  19  25
BRANCH  20  27
ATOM     27  C   UNL     1      31.858  -0.822 -25.491  1.00  0.00     0.017 C 
ATOM     28  C   UNL     1      30.436  -0.701 -26.055  1.00  0.00     0.012 C 
ATOM     29  C   UNL     1      32.234  -2.264 -25.088  1.00  0.00     0.012 C 
ENDBRANCH  20  27
BRANCH  21  30
ATOM     30  O   UNL     1      35.184   2.762 -25.979  1.00  0.00    -0.504 OA
ATOM     31  H   UNL     1      35.868   2.680 -25.240  1.00  0.00     0.293 HD
ENDBRANCH  21  30
BRANCH  22  32
ATOM     32  O   UNL     1      33.124   1.560 -24.651  1.00  0.00    -0.504 OA
ATOM     33  H   UNL     1      32.659   1.009 -23.940  1.00  0.00     0.293 HD
ENDBRANCH  22  32
ENDBRANCH  11  12
BRANCH  10  34
ATOM     34  O   UNL     1      35.963  -3.383 -30.815  1.00  0.00    -0.507 OA
ATOM     35  H   UNL     1      36.901  -3.074 -30.588  1.00  0.00     0.293 HD
ENDBRANCH  10  34
BRANCH   9  36
ATOM     36  C   UNL     1      34.460  -2.625 -36.891  1.00  0.00     0.017 C 
ATOM     37  C   UNL     1      33.047  -3.219 -36.882  1.00  0.00     0.012 C 
ATOM     38  C   UNL     1      34.421  -1.093 -37.052  1.00  0.00     0.012 C 
ENDBRANCH   9  36
BRANCH   6  39
ATOM     39  C   UNL     1      36.763  -5.408 -32.414  1.00  0.00     0.264 C 
ATOM     40  O   UNL     1      36.706  -6.649 -32.638  1.00  0.00    -0.298 OA
ENDBRANCH   6  39
BRANCH   8  41
ATOM     41  O   UNL     1      36.972  -4.026 -37.123  1.00  0.00    -0.504 OA
ATOM     42  H   UNL     1      37.610  -4.772 -37.370  1.00  0.00     0.293 HD
ENDBRANCH   8  41
BRANCH   7  43
ATOM     43  O   UNL     1      38.155  -5.312 -35.024  1.00  0.00    -0.504 OA
ATOM     44  H   UNL     1      38.180  -6.055 -35.707  1.00  0.00     0.293 HD
ENDBRANCH   7  43
TORSDOF 11
ENDMDL
MODEL 9
REMARK VINA RESULT:    -5.337      4.614      7.707
REMARK INTER + INTRA:          -9.421
REMARK INTER:                  -8.490
REMARK INTRA:                  -0.931
REMARK UNBOUND:                -1.587
REMARK SMILES Cc1cc2c(C(C)C)c(O)c(O)c(C=O)c2c(O)c1-c1c(C)cc2c(C(C)C)c(O)c(O)c(C=O)c2c1O
REMARK SMILES IDX 1 1 2 2 3 3 4 4 16 5 13 6 11 7 9 8 5 9 17 10 19 11 20 12
REMARK SMILES IDX 37 13 21 14 36 15 23 16 22 17 24 18 33 19 25 20 31 21 29 22
REMARK SMILES IDX 38 23 34 25 35 26 26 27 27 28 28 29 32 30 30 32 18 34 6 36
REMARK SMILES IDX 7 37 8 38 14 39 15 40 10 41 12 43
REMARK H PARENT 38 24 32 31 30 33 18 35 10 42 12 44
REMARK Flexibility Score: inf
ROOT
ATOM      1  C   UNL     1      30.581  -7.472 -30.742  1.00  0.00     0.045 C 
ATOM      2  C   UNL     1      30.460  -8.876 -31.285  1.00  0.00    -0.039 A 
ATOM      3  C   UNL     1      29.546  -9.753 -30.698  1.00  0.00     0.013 A 
ATOM      4  C   UNL     1      29.398 -11.085 -31.147  1.00  0.00    -0.006 A 
ATOM      5  C   UNL     1      30.169 -11.521 -32.263  1.00  0.00     0.039 A 
ATOM      6  C   UNL     1      30.034 -12.865 -32.720  1.00  0.00     0.072 A 
ATOM      7  C   UNL     1      28.930 -13.627 -32.274  1.00  0.00     0.169 A 
ATOM      8  C   UNL     1      28.158 -13.182 -31.193  1.00  0.00     0.162 A 
ATOM      9  C   UNL     1      28.476 -11.979 -30.525  1.00  0.00     0.008 A 
ATOM     10  C   UNL     1      31.015 -10.587 -32.930  1.00  0.00     0.132 A 
ATOM     11  C   UNL     1      31.178  -9.282 -32.422  1.00  0.00     0.031 A 
ENDROOT
BRANCH  11  12
ATOM     12  C   UNL     1      32.066  -8.316 -33.121  1.00  0.00     0.031 A 
ATOM     13  C   UNL     1      33.460  -8.348 -32.905  1.00  0.00     0.132 A 
ATOM     14  C   UNL     1      31.516  -7.392 -34.021  1.00  0.00    -0.039 A 
ATOM     15  C   UNL     1      34.319  -7.415 -33.565  1.00  0.00     0.039 A 
ATOM     16  C   UNL     1      32.359  -6.529 -34.719  1.00  0.00     0.013 A 
ATOM     17  C   UNL     1      30.034  -7.366 -34.307  1.00  0.00     0.045 C 
ATOM     18  C   UNL     1      33.753  -6.499 -34.508  1.00  0.00    -0.006 A 
ATOM     19  C   UNL     1      35.729  -7.393 -33.339  1.00  0.00     0.072 A 
ATOM     20  C   UNL     1      34.595  -5.589 -35.226  1.00  0.00     0.008 A 
ATOM     21  C   UNL     1      36.549  -6.526 -34.087  1.00  0.00     0.169 A 
ATOM     22  C   UNL     1      35.994  -5.665 -35.037  1.00  0.00     0.162 A 
BRANCH  13  23
ATOM     23  O   UNL     1      33.991  -9.325 -32.053  1.00  0.00    -0.507 OA
ATOM     24  H   UNL     1      34.852  -9.216 -31.534  1.00  0.00     0.293 HD
ENDBRANCH  13  23
BRANCH  19  25
ATOM     25  C   UNL     1      36.366  -8.230 -32.302  1.00  0.00     0.264 C 
ATOM     26  O   UNL     1      36.984  -9.281 -32.616  1.00  0.00    -0.298 OA
ENDBRANCH  19  25
BRANCH  20  27
ATOM     27  C   UNL     1      34.069  -4.530 -36.219  1.00  0.00     0.017 C 
ATOM     28  C   UNL     1      32.964  -5.089 -37.125  1.00  0.00     0.012 C 
ATOM     29  C   UNL     1      33.700  -3.180 -35.568  1.00  0.00     0.012 C 
ENDBRANCH  20  27
BRANCH  21  30
ATOM     30  O   UNL     1      37.934  -6.470 -33.886  1.00  0.00    -0.504 OA
ATOM     31  H   UNL     1      38.517  -7.274 -33.700  1.00  0.00     0.293 HD
ENDBRANCH  21  30
BRANCH  22  32
ATOM     32  O   UNL     1      36.844  -4.859 -35.801  1.00  0.00    -0.504 OA
ATOM     33  H   UNL     1      37.259  -4.003 -35.453  1.00  0.00     0.293 HD
ENDBRANCH  22  32
ENDBRANCH  11  12
BRANCH  10  34
ATOM     34  O   UNL     1      31.642 -10.943 -34.131  1.00  0.00    -0.507 OA
ATOM     35  H   UNL     1      31.578 -10.402 -34.985  1.00  0.00     0.293 HD
ENDBRANCH  10  34
BRANCH   9  36
ATOM     36  C   UNL     1      27.789 -11.641 -29.190  1.00  0.00     0.017 C 
ATOM     37  C   UNL     1      28.824 -11.265 -28.124  1.00  0.00     0.012 C 
ATOM     38  C   UNL     1      26.693 -10.564 -29.310  1.00  0.00     0.012 C 
ENDBRANCH   9  36
BRANCH   6  39
ATOM     39  C   UNL     1      31.146 -13.515 -33.469  1.00  0.00     0.264 C 
ATOM     40  O   UNL     1      31.184 -14.754 -33.707  1.00  0.00    -0.298 OA
ENDBRANCH   6  39
BRANCH   8  41
ATOM     41  O   UNL     1      27.060 -13.939 -30.777  1.00  0.00    -0.504 OA
ATOM     42  H   UNL     1      26.132 -13.550 -30.659  1.00  0.00     0.293 HD
ENDBRANCH   8  41
BRANCH   7  43
ATOM     43  O   UNL     1      28.572 -14.843 -32.864  1.00  0.00    -0.504 OA
ATOM     44  H   UNL     1      27.769 -14.965 -33.465  1.00  0.00     0.293 HD
ENDBRANCH   7  43
TORSDOF 11
ENDMDL
