MODEL 1
REMARK VINA RESULT:    -6.784      0.000      0.000
REMARK INTER + INTRA:         -11.184
REMARK INTER:                 -10.354
REMARK INTRA:                  -0.830
REMARK UNBOUND:                -0.830
REMARK SMILES CC(=O)CCC=C(C)CCC=C(C)CCC=C(C)C
REMARK SMILES IDX 10 1 11 2 12 3 13 4 14 5 15 6 16 7 18 8 17 9 19 10 9 11 7 12
REMARK SMILES IDX 6 13 8 14 5 15 4 16 2 17 3 18 1 19
REMARK H PARENT
REMARK Flexibility Score: inf
ROOT
ATOM      1  C   UNL     1     -25.474  17.900 -30.420  1.00  0.00     0.032 C 
ENDROOT
BRANCH   1   2
ATOM      2  C   UNL     1     -26.059  16.513 -30.502  1.00  0.00    -0.028 C 
ATOM      3  C   UNL     1     -25.330  15.375 -30.560  1.00  0.00    -0.077 C 
ATOM      4  C   UNL     1     -23.821  15.389 -30.482  1.00  0.00     0.039 C 
BRANCH   3   5
ATOM      5  C   UNL     1     -26.046  14.048 -30.676  1.00  0.00     0.034 C 
BRANCH   5   6
ATOM      6  C   UNL     1     -27.159  13.940 -29.628  1.00  0.00     0.032 C 
BRANCH   6   7
ATOM      7  C   UNL     1     -28.329  13.152 -30.167  1.00  0.00    -0.028 C 
ATOM      8  C   UNL     1     -30.387  11.812 -30.078  1.00  0.00     0.039 C 
ATOM      9  C   UNL     1     -29.299  12.605 -29.400  1.00  0.00    -0.080 C 
ATOM     10  C   UNL     1     -29.330  12.782 -27.899  1.00  0.00     0.039 C 
ENDBRANCH   6   7
ENDBRANCH   5   6
ENDBRANCH   3   5
ENDBRANCH   1   2
BRANCH   1  11
ATOM     11  C   UNL     1     -24.704  18.243 -31.700  1.00  0.00     0.034 C 
BRANCH  11  12
ATOM     12  C   UNL     1     -24.353  19.718 -31.732  1.00  0.00    -0.077 C 
ATOM     13  C   UNL     1     -24.849  20.574 -32.653  1.00  0.00    -0.028 C 
ATOM     14  C   UNL     1     -23.465  20.269 -30.646  1.00  0.00     0.039 C 
BRANCH  13  15
ATOM     15  C   UNL     1     -25.726  20.180 -33.818  1.00  0.00     0.035 C 
BRANCH  15  16
ATOM     16  C   UNL     1     -27.165  20.684 -33.635  1.00  0.00     0.079 C 
BRANCH  16  17
ATOM     17  C   UNL     1     -28.104  19.559 -33.279  1.00  0.00     0.130 C 
ATOM     18  O   UNL     1     -27.740  18.403 -33.426  1.00  0.00    -0.300 OA
ATOM     19  C   UNL     1     -29.480  19.832 -32.749  1.00  0.00     0.087 C 
ENDBRANCH  16  17
ENDBRANCH  15  16
ENDBRANCH  13  15
ENDBRANCH  11  12
ENDBRANCH   1  11
TORSDOF 9
ENDMDL
MODEL 2
REMARK VINA RESULT:    -6.726      1.292      1.746
REMARK INTER + INTRA:         -11.095
REMARK INTER:                  -9.909
REMARK INTRA:                  -1.187
REMARK UNBOUND:                -0.830
REMARK SMILES CC(=O)CCC=C(C)CCC=C(C)CCC=C(C)C
REMARK SMILES IDX 10 1 11 2 12 3 13 4 14 5 15 6 16 7 18 8 17 9 19 10 9 11 7 12
REMARK SMILES IDX 6 13 8 14 5 15 4 16 2 17 3 18 1 19
REMARK H PARENT
REMARK Flexibility Score: inf
ROOT
ATOM      1  C   UNL     1     -26.097  17.587 -30.271  1.00  0.00     0.032 C 
ENDROOT
BRANCH   1   2
ATOM      2  C   UNL     1     -26.218  16.092 -30.110  1.00  0.00    -0.028 C 
ATOM      3  C   UNL     1     -25.243  15.207 -30.418  1.00  0.00    -0.077 C 
ATOM      4  C   UNL     1     -23.883  15.652 -30.906  1.00  0.00     0.039 C 
BRANCH   3   5
ATOM      5  C   UNL     1     -25.509  13.729 -30.239  1.00  0.00     0.034 C 
BRANCH   5   6
ATOM      6  C   UNL     1     -26.980  13.405 -30.528  1.00  0.00     0.032 C 
BRANCH   6   7
ATOM      7  C   UNL     1     -27.639  12.783 -29.321  1.00  0.00    -0.028 C 
ATOM      8  C   UNL     1     -29.481  12.176 -27.812  1.00  0.00     0.039 C 
ATOM      9  C   UNL     1     -28.969  12.808 -29.081  1.00  0.00    -0.080 C 
ATOM     10  C   UNL     1     -29.948  13.429 -30.051  1.00  0.00     0.039 C 
ENDBRANCH   6   7
ENDBRANCH   5   6
ENDBRANCH   3   5
ENDBRANCH   1   2
BRANCH   1  11
ATOM     11  C   UNL     1     -26.771  18.051 -31.567  1.00  0.00     0.034 C 
BRANCH  11  12
ATOM     12  C   UNL     1     -25.935  19.115 -32.251  1.00  0.00    -0.077 C 
ATOM     13  C   UNL     1     -26.417  19.917 -33.227  1.00  0.00    -0.028 C 
ATOM     14  C   UNL     1     -24.522  19.334 -31.776  1.00  0.00     0.039 C 
BRANCH  13  15
ATOM     15  C   UNL     1     -27.796  19.809 -33.833  1.00  0.00     0.035 C 
BRANCH  15  16
ATOM     16  C   UNL     1     -28.792  20.748 -33.138  1.00  0.00     0.079 C 
BRANCH  16  17
ATOM     17  C   UNL     1     -30.068  20.031 -32.778  1.00  0.00     0.130 C 
ATOM     18  O   UNL     1     -30.411  19.964 -31.608  1.00  0.00    -0.300 OA
ATOM     19  C   UNL     1     -30.928  19.396 -33.830  1.00  0.00     0.087 C 
ENDBRANCH  16  17
ENDBRANCH  15  16
ENDBRANCH  13  15
ENDBRANCH  11  12
ENDBRANCH   1  11
TORSDOF 9
ENDMDL
MODEL 3
REMARK VINA RESULT:    -6.585      1.665      6.750
REMARK INTER + INTRA:         -10.879
REMARK INTER:                  -9.714
REMARK INTRA:                  -1.165
REMARK UNBOUND:                -0.830
REMARK SMILES CC(=O)CCC=C(C)CCC=C(C)CCC=C(C)C
REMARK SMILES IDX 10 1 11 2 12 3 13 4 14 5 15 6 16 7 18 8 17 9 19 10 9 11 7 12
REMARK SMILES IDX 6 13 8 14 5 15 4 16 2 17 3 18 1 19
REMARK H PARENT
REMARK Flexibility Score: inf
ROOT
ATOM      1  C   UNL     1     -23.500  17.455 -31.364  1.00  0.00     0.032 C 
ENDROOT
BRANCH   1   2
ATOM      2  C   UNL     1     -24.008  18.599 -32.203  1.00  0.00    -0.028 C 
ATOM      3  C   UNL     1     -24.052  19.889 -31.796  1.00  0.00    -0.077 C 
ATOM      4  C   UNL     1     -23.523  20.319 -30.447  1.00  0.00     0.039 C 
BRANCH   3   5
ATOM      5  C   UNL     1     -24.621  20.935 -32.728  1.00  0.00     0.034 C 
BRANCH   5   6
ATOM      6  C   UNL     1     -25.419  20.277 -33.859  1.00  0.00     0.032 C 
BRANCH   6   7
ATOM      7  C   UNL     1     -26.854  20.747 -33.847  1.00  0.00    -0.028 C 
ATOM      8  C   UNL     1     -29.264  20.642 -33.379  1.00  0.00     0.039 C 
ATOM      9  C   UNL     1     -27.875  20.065 -33.281  1.00  0.00    -0.080 C 
ATOM     10  C   UNL     1     -27.660  18.764 -32.543  1.00  0.00     0.039 C 
ENDBRANCH   6   7
ENDBRANCH   5   6
ENDBRANCH   3   5
ENDBRANCH   1   2
BRANCH   1  11
ATOM     11  C   UNL     1     -24.662  16.610 -30.832  1.00  0.00     0.034 C 
BRANCH  11  12
ATOM     12  C   UNL     1     -24.182  15.225 -30.445  1.00  0.00    -0.077 C 
ATOM     13  C   UNL     1     -25.024  14.212 -30.137  1.00  0.00    -0.028 C 
ATOM     14  C   UNL     1     -22.702  14.944 -30.471  1.00  0.00     0.039 C 
BRANCH  13  15
ATOM     15  C   UNL     1     -26.525  14.335 -30.039  1.00  0.00     0.035 C 
BRANCH  15  16
ATOM     16  C   UNL     1     -27.180  12.986 -29.707  1.00  0.00     0.079 C 
BRANCH  16  17
ATOM     17  C   UNL     1     -28.643  13.148 -29.378  1.00  0.00     0.130 C 
ATOM     18  O   UNL     1     -29.385  13.687 -30.184  1.00  0.00    -0.300 OA
ATOM     19  C   UNL     1     -29.206  12.660 -28.077  1.00  0.00     0.087 C 
ENDBRANCH  16  17
ENDBRANCH  15  16
ENDBRANCH  13  15
ENDBRANCH  11  12
ENDBRANCH   1  11
TORSDOF 9
ENDMDL
MODEL 4
REMARK VINA RESULT:    -6.554      1.667      2.909
REMARK INTER + INTRA:         -10.833
REMARK INTER:                 -10.043
REMARK INTRA:                  -0.790
REMARK UNBOUND:                -0.830
REMARK SMILES CC(=O)CCC=C(C)CCC=C(C)CCC=C(C)C
REMARK SMILES IDX 10 1 11 2 12 3 13 4 14 5 15 6 16 7 18 8 17 9 19 10 9 11 7 12
REMARK SMILES IDX 6 13 8 14 5 15 4 16 2 17 3 18 1 19
REMARK H PARENT
REMARK Flexibility Score: inf
ROOT
ATOM      1  C   UNL     1     -25.900  17.761 -30.370  1.00  0.00     0.032 C 
ENDROOT
BRANCH   1   2
ATOM      2  C   UNL     1     -26.348  16.321 -30.402  1.00  0.00    -0.028 C 
ATOM      3  C   UNL     1     -25.513  15.261 -30.499  1.00  0.00    -0.077 C 
ATOM      4  C   UNL     1     -24.011  15.426 -30.521  1.00  0.00     0.039 C 
BRANCH   3   5
ATOM      5  C   UNL     1     -26.098  13.867 -30.557  1.00  0.00     0.034 C 
BRANCH   5   6
ATOM      6  C   UNL     1     -27.252  13.723 -29.557  1.00  0.00     0.032 C 
BRANCH   6   7
ATOM      7  C   UNL     1     -28.392  12.941 -30.164  1.00  0.00    -0.028 C 
ATOM      8  C   UNL     1     -30.469  11.628 -30.196  1.00  0.00     0.039 C 
ATOM      9  C   UNL     1     -29.420  12.418 -29.458  1.00  0.00    -0.080 C 
ATOM     10  C   UNL     1     -29.552  12.620 -27.965  1.00  0.00     0.039 C 
ENDBRANCH   6   7
ENDBRANCH   5   6
ENDBRANCH   3   5
ENDBRANCH   1   2
BRANCH   1  11
ATOM     11  C   UNL     1     -25.336  18.186 -31.730  1.00  0.00     0.034 C 
BRANCH  11  12
ATOM     12  C   UNL     1     -26.303  19.109 -32.443  1.00  0.00    -0.077 C 
ATOM     13  C   UNL     1     -25.903  20.171 -33.180  1.00  0.00    -0.028 C 
ATOM     14  C   UNL     1     -27.775  18.792 -32.386  1.00  0.00     0.039 C 
BRANCH  13  15
ATOM     15  C   UNL     1     -24.474  20.639 -33.316  1.00  0.00     0.035 C 
BRANCH  15  16
ATOM     16  C   UNL     1     -24.069  21.557 -32.153  1.00  0.00     0.079 C 
BRANCH  16  17
ATOM     17  C   UNL     1     -23.156  20.849 -31.183  1.00  0.00     0.130 C 
ATOM     18  O   UNL     1     -22.097  20.389 -31.580  1.00  0.00    -0.300 OA
ATOM     19  C   UNL     1     -23.524  20.699 -29.737  1.00  0.00     0.087 C 
ENDBRANCH  16  17
ENDBRANCH  15  16
ENDBRANCH  13  15
ENDBRANCH  11  12
ENDBRANCH   1  11
TORSDOF 9
ENDMDL
MODEL 5
REMARK VINA RESULT:    -6.521      1.187      1.896
REMARK INTER + INTRA:         -10.782
REMARK INTER:                  -9.804
REMARK INTRA:                  -0.979
REMARK UNBOUND:                -0.830
REMARK SMILES CC(=O)CCC=C(C)CCC=C(C)CCC=C(C)C
REMARK SMILES IDX 10 1 11 2 12 3 13 4 14 5 15 6 16 7 18 8 17 9 19 10 9 11 7 12
REMARK SMILES IDX 6 13 8 14 5 15 4 16 2 17 3 18 1 19
REMARK H PARENT
REMARK Flexibility Score: inf
ROOT
ATOM      1  C   UNL     1     -23.715  18.929 -31.284  1.00  0.00     0.032 C 
ENDROOT
BRANCH   1   2
ATOM      2  C   UNL     1     -23.856  17.430 -31.199  1.00  0.00    -0.028 C 
ATOM      3  C   UNL     1     -24.947  16.788 -30.721  1.00  0.00    -0.077 C 
ATOM      4  C   UNL     1     -26.182  17.537 -30.275  1.00  0.00     0.039 C 
BRANCH   3   5
ATOM      5  C   UNL     1     -24.944  15.277 -30.660  1.00  0.00     0.034 C 
BRANCH   5   6
ATOM      6  C   UNL     1     -26.310  14.750 -30.207  1.00  0.00     0.032 C 
BRANCH   6   7
ATOM      7  C   UNL     1     -26.330  13.241 -30.206  1.00  0.00    -0.028 C 
ATOM      8  C   UNL     1     -27.185  10.990 -29.714  1.00  0.00     0.039 C 
ATOM      9  C   UNL     1     -27.320  12.490 -29.673  1.00  0.00    -0.080 C 
ATOM     10  C   UNL     1     -28.556  13.111 -29.061  1.00  0.00     0.039 C 
ENDBRANCH   6   7
ENDBRANCH   5   6
ENDBRANCH   3   5
ENDBRANCH   1   2
BRANCH   1  11
ATOM     11  C   UNL     1     -23.969  19.420 -32.713  1.00  0.00     0.034 C 
BRANCH  11  12
ATOM     12  C   UNL     1     -24.692  20.753 -32.697  1.00  0.00    -0.077 C 
ATOM     13  C   UNL     1     -25.954  20.912 -33.156  1.00  0.00    -0.028 C 
ATOM     14  C   UNL     1     -23.999  21.940 -32.080  1.00  0.00     0.039 C 
BRANCH  13  15
ATOM     15  C   UNL     1     -26.774  19.835 -33.826  1.00  0.00     0.035 C 
BRANCH  15  16
ATOM     16  C   UNL     1     -28.249  20.243 -33.946  1.00  0.00     0.079 C 
BRANCH  16  17
ATOM     17  C   UNL     1     -29.142  19.334 -33.141  1.00  0.00     0.130 C 
ATOM     18  O   UNL     1     -28.642  18.503 -32.399  1.00  0.00    -0.300 OA
ATOM     19  C   UNL     1     -30.636  19.428 -33.233  1.00  0.00     0.087 C 
ENDBRANCH  16  17
ENDBRANCH  15  16
ENDBRANCH  13  15
ENDBRANCH  11  12
ENDBRANCH   1  11
TORSDOF 9
ENDMDL
MODEL 6
REMARK VINA RESULT:    -6.313      1.752      7.387
REMARK INTER + INTRA:         -10.465
REMARK INTER:                  -9.311
REMARK INTRA:                  -1.154
REMARK UNBOUND:                -0.830
REMARK SMILES CC(=O)CCC=C(C)CCC=C(C)CCC=C(C)C
REMARK SMILES IDX 10 1 11 2 12 3 13 4 14 5 15 6 16 7 18 8 17 9 19 10 9 11 7 12
REMARK SMILES IDX 6 13 8 14 5 15 4 16 2 17 3 18 1 19
REMARK H PARENT
REMARK Flexibility Score: inf
ROOT
ATOM      1  C   UNL     1     -26.938  17.633 -30.994  1.00  0.00     0.032 C 
ENDROOT
BRANCH   1   2
ATOM      2  C   UNL     1     -26.331  18.633 -31.946  1.00  0.00    -0.028 C 
ATOM      3  C   UNL     1     -27.018  19.287 -32.911  1.00  0.00    -0.077 C 
ATOM      4  C   UNL     1     -28.509  19.116 -33.086  1.00  0.00     0.039 C 
BRANCH   3   5
ATOM      5  C   UNL     1     -26.277  20.241 -33.822  1.00  0.00     0.034 C 
BRANCH   5   6
ATOM      6  C   UNL     1     -24.778  20.243 -33.501  1.00  0.00     0.032 C 
BRANCH   6   7
ATOM      7  C   UNL     1     -24.384  21.515 -32.790  1.00  0.00    -0.028 C 
ATOM      8  C   UNL     1     -23.440  22.903 -30.995  1.00  0.00     0.039 C 
ATOM      9  C   UNL     1     -23.735  21.556 -31.604  1.00  0.00    -0.080 C 
ATOM     10  C   UNL     1     -23.286  20.301 -30.891  1.00  0.00     0.039 C 
ENDBRANCH   6   7
ENDBRANCH   5   6
ENDBRANCH   3   5
ENDBRANCH   1   2
BRANCH   1  11
ATOM     11  C   UNL     1     -25.894  17.135 -29.989  1.00  0.00     0.034 C 
BRANCH  11  12
ATOM     12  C   UNL     1     -25.210  15.885 -30.506  1.00  0.00    -0.077 C 
ATOM     13  C   UNL     1     -25.746  14.649 -30.390  1.00  0.00    -0.028 C 
ATOM     14  C   UNL     1     -23.904  16.033 -31.244  1.00  0.00     0.039 C 
BRANCH  13  15
ATOM     15  C   UNL     1     -27.028  14.328 -29.659  1.00  0.00     0.035 C 
BRANCH  15  16
ATOM     16  C   UNL     1     -27.731  13.106 -30.266  1.00  0.00     0.079 C 
BRANCH  16  17
ATOM     17  C   UNL     1     -29.186  13.054 -29.873  1.00  0.00     0.130 C 
ATOM     18  O   UNL     1     -29.978  13.822 -30.396  1.00  0.00    -0.300 OA
ATOM     19  C   UNL     1     -29.682  12.077 -28.850  1.00  0.00     0.087 C 
ENDBRANCH  16  17
ENDBRANCH  15  16
ENDBRANCH  13  15
ENDBRANCH  11  12
ENDBRANCH   1  11
TORSDOF 9
ENDMDL
MODEL 7
REMARK VINA RESULT:    -6.283      2.249      7.688
REMARK INTER + INTRA:         -10.419
REMARK INTER:                  -9.390
REMARK INTRA:                  -1.029
REMARK UNBOUND:                -0.830
REMARK SMILES CC(=O)CCC=C(C)CCC=C(C)CCC=C(C)C
REMARK SMILES IDX 10 1 11 2 12 3 13 4 14 5 15 6 16 7 18 8 17 9 19 10 9 11 7 12
REMARK SMILES IDX 6 13 8 14 5 15 4 16 2 17 3 18 1 19
REMARK H PARENT
REMARK Flexibility Score: inf
ROOT
ATOM      1  C   UNL     1     -24.770  14.121 -30.101  1.00  0.00     0.032 C 
ENDROOT
BRANCH   1   2
ATOM      2  C   UNL     1     -24.621  15.465 -30.769  1.00  0.00    -0.028 C 
ATOM      3  C   UNL     1     -23.436  16.031 -31.096  1.00  0.00    -0.077 C 
ATOM      4  C   UNL     1     -22.122  15.320 -30.871  1.00  0.00     0.039 C 
BRANCH   3   5
ATOM      5  C   UNL     1     -23.428  17.403 -31.732  1.00  0.00     0.034 C 
BRANCH   5   6
ATOM      6  C   UNL     1     -24.545  18.277 -31.149  1.00  0.00     0.032 C 
BRANCH   6   7
ATOM      7  C   UNL     1     -24.022  19.646 -30.788  1.00  0.00    -0.028 C 
ATOM      8  C   UNL     1     -23.428  22.005 -31.138  1.00  0.00     0.039 C 
ATOM      9  C   UNL     1     -24.018  20.707 -31.626  1.00  0.00    -0.080 C 
ATOM     10  C   UNL     1     -24.600  20.631 -33.019  1.00  0.00     0.039 C 
ENDBRANCH   6   7
ENDBRANCH   5   6
ENDBRANCH   3   5
ENDBRANCH   1   2
BRANCH   1  11
ATOM     11  C   UNL     1     -26.127  13.493 -30.438  1.00  0.00     0.034 C 
BRANCH  11  12
ATOM     12  C   UNL     1     -26.149  12.029 -30.047  1.00  0.00    -0.077 C 
ATOM     13  C   UNL     1     -27.107  11.169 -30.462  1.00  0.00    -0.028 C 
ATOM     14  C   UNL     1     -25.015  11.491 -29.213  1.00  0.00     0.039 C 
BRANCH  13  15
ATOM     15  C   UNL     1     -28.320  11.552 -31.276  1.00  0.00     0.035 C 
BRANCH  15  16
ATOM     16  C   UNL     1     -29.587  11.594 -30.411  1.00  0.00     0.079 C 
BRANCH  16  17
ATOM     17  C   UNL     1     -29.625  12.827 -29.545  1.00  0.00     0.130 C 
ATOM     18  O   UNL     1     -29.719  13.927 -30.067  1.00  0.00    -0.300 OA
ATOM     19  C   UNL     1     -29.548  12.731 -28.050  1.00  0.00     0.087 C 
ENDBRANCH  16  17
ENDBRANCH  15  16
ENDBRANCH  13  15
ENDBRANCH  11  12
ENDBRANCH   1  11
TORSDOF 9
ENDMDL
MODEL 8
REMARK VINA RESULT:    -6.109      1.878      7.029
REMARK INTER + INTRA:         -10.153
REMARK INTER:                  -9.122
REMARK INTRA:                  -1.031
REMARK UNBOUND:                -0.830
REMARK SMILES CC(=O)CCC=C(C)CCC=C(C)CCC=C(C)C
REMARK SMILES IDX 10 1 11 2 12 3 13 4 14 5 15 6 16 7 18 8 17 9 19 10 9 11 7 12
REMARK SMILES IDX 6 13 8 14 5 15 4 16 2 17 3 18 1 19
REMARK H PARENT
REMARK Flexibility Score: inf
ROOT
ATOM      1  C   UNL     1     -25.088  14.932 -30.400  1.00  0.00     0.032 C 
ENDROOT
BRANCH   1   2
ATOM      2  C   UNL     1     -25.442  16.394 -30.499  1.00  0.00    -0.028 C 
ATOM      3  C   UNL     1     -24.646  17.341 -31.047  1.00  0.00    -0.077 C 
ATOM      4  C   UNL     1     -23.319  16.998 -31.684  1.00  0.00     0.039 C 
BRANCH   3   5
ATOM      5  C   UNL     1     -25.110  18.780 -31.049  1.00  0.00     0.034 C 
BRANCH   5   6
ATOM      6  C   UNL     1     -25.654  19.172 -32.428  1.00  0.00     0.032 C 
BRANCH   6   7
ATOM      7  C   UNL     1     -27.148  18.969 -32.492  1.00  0.00    -0.028 C 
ATOM      8  C   UNL     1     -29.450  19.344 -33.265  1.00  0.00     0.039 C 
ATOM      9  C   UNL     1     -27.972  19.624 -33.341  1.00  0.00    -0.080 C 
ATOM     10  C   UNL     1     -27.451  20.607 -34.365  1.00  0.00     0.039 C 
ENDBRANCH   6   7
ENDBRANCH   5   6
ENDBRANCH   3   5
ENDBRANCH   1   2
BRANCH   1  11
ATOM     11  C   UNL     1     -26.343  14.081 -30.183  1.00  0.00     0.034 C 
BRANCH  11  12
ATOM     12  C   UNL     1     -25.988  12.608 -30.138  1.00  0.00    -0.077 C 
ATOM     13  C   UNL     1     -26.749  11.647 -30.710  1.00  0.00    -0.028 C 
ATOM     14  C   UNL     1     -24.692  12.201 -29.484  1.00  0.00     0.039 C 
BRANCH  13  15
ATOM     15  C   UNL     1     -28.083  11.884 -31.377  1.00  0.00     0.035 C 
BRANCH  15  16
ATOM     16  C   UNL     1     -29.249  11.611 -30.416  1.00  0.00     0.079 C 
BRANCH  16  17
ATOM     17  C   UNL     1     -29.593  12.834 -29.604  1.00  0.00     0.130 C 
ATOM     18  O   UNL     1     -29.948  13.854 -30.173  1.00  0.00    -0.300 OA
ATOM     19  C   UNL     1     -29.507  12.824 -28.107  1.00  0.00     0.087 C 
ENDBRANCH  16  17
ENDBRANCH  15  16
ENDBRANCH  13  15
ENDBRANCH  11  12
ENDBRANCH   1  11
TORSDOF 9
ENDMDL
MODEL 9
REMARK VINA RESULT:    -5.816     10.408     13.325
REMARK INTER + INTRA:          -9.706
REMARK INTER:                  -7.365
REMARK INTRA:                  -2.341
REMARK UNBOUND:                -0.830
REMARK SMILES CC(=O)CCC=C(C)CCC=C(C)CCC=C(C)C
REMARK SMILES IDX 10 1 11 2 12 3 13 4 14 5 15 6 16 7 18 8 17 9 19 10 9 11 7 12
REMARK SMILES IDX 6 13 8 14 5 15 4 16 2 17 3 18 1 19
REMARK H PARENT
REMARK Flexibility Score: inf
ROOT
ATOM      1  C   UNL     1     -13.981  14.307 -32.025  1.00  0.00     0.032 C 
ENDROOT
BRANCH   1   2
ATOM      2  C   UNL     1     -14.683  13.826 -30.780  1.00  0.00    -0.028 C 
ATOM      3  C   UNL     1     -15.265  14.637 -29.867  1.00  0.00    -0.077 C 
ATOM      4  C   UNL     1     -15.321  16.136 -30.051  1.00  0.00     0.039 C 
BRANCH   3   5
ATOM      5  C   UNL     1     -15.906  14.024 -28.642  1.00  0.00     0.034 C 
BRANCH   5   6
ATOM      6  C   UNL     1     -16.619  12.716 -29.001  1.00  0.00     0.032 C 
BRANCH   6   7
ATOM      7  C   UNL     1     -18.108  12.932 -29.124  1.00  0.00    -0.028 C 
ATOM      8  C   UNL     1     -20.259  13.265 -30.265  1.00  0.00     0.039 C 
ATOM      9  C   UNL     1     -18.774  13.008 -30.298  1.00  0.00    -0.080 C 
ATOM     10  C   UNL     1     -18.079  12.825 -31.628  1.00  0.00     0.039 C 
ENDBRANCH   6   7
ENDBRANCH   5   6
ENDBRANCH   3   5
ENDBRANCH   1   2
BRANCH   1  11
ATOM     11  C   UNL     1     -12.484  13.981 -31.967  1.00  0.00     0.034 C 
BRANCH  11  12
ATOM     12  C   UNL     1     -11.684  15.216 -31.602  1.00  0.00    -0.077 C 
ATOM     13  C   UNL     1     -11.196  15.439 -30.361  1.00  0.00    -0.028 C 
ATOM     14  C   UNL     1     -11.359  16.209 -32.688  1.00  0.00     0.039 C 
BRANCH  13  15
ATOM     15  C   UNL     1     -11.454  14.561 -29.160  1.00  0.00     0.035 C 
BRANCH  15  16
ATOM     16  C   UNL     1     -12.089  15.352 -28.009  1.00  0.00     0.079 C 
BRANCH  16  17
ATOM     17  C   UNL     1     -12.626  14.436 -26.938  1.00  0.00     0.130 C 
ATOM     18  O   UNL     1     -13.091  14.913 -25.915  1.00  0.00    -0.300 OA
ATOM     19  C   UNL     1     -12.600  12.946 -27.104  1.00  0.00     0.087 C 
ENDBRANCH  16  17
ENDBRANCH  15  16
ENDBRANCH  13  15
ENDBRANCH  11  12
ENDBRANCH   1  11
TORSDOF 9
ENDMDL
