MODEL 1
REMARK VINA RESULT:    -4.400      0.000      0.000
REMARK INTER + INTRA:          -5.214
REMARK INTER:                  -5.043
REMARK INTRA:                  -0.170
REMARK UNBOUND:                -0.170
REMARK SMILES CC=Cc1ccc(O)c(OC)c1
REMARK SMILES IDX 4 1 12 2 9 3 7 4 6 5 5 6 3 7 1 8 2 9 10 10 11 11 8 12
REMARK H PARENT 8 13
REMARK Flexibility Score: inf
ROOT
ATOM      1  C   UNL     1      -8.573  -8.476  90.121  1.00  0.00    -0.022 A 
ATOM      2  C   UNL     1      -9.884  -8.979  90.057  1.00  0.00     0.058 A 
ATOM      3  C   UNL     1     -10.151 -10.221  89.448  1.00  0.00     0.161 A 
ATOM      4  C   UNL     1      -9.095 -10.953  88.890  1.00  0.00     0.157 A 
ATOM      5  C   UNL     1      -7.789 -10.450  88.937  1.00  0.00     0.051 A 
ATOM      6  C   UNL     1      -7.528  -9.220  89.543  1.00  0.00     0.012 A 
ENDROOT
BRANCH   1   7
ATOM      7  C   UNL     1      -8.349  -7.158  90.767  1.00  0.00     0.003 C 
ATOM      8  C   UNL     1      -7.031  -5.416  91.908  1.00  0.00     0.035 C 
ATOM      9  C   UNL     1      -7.171  -6.755  91.258  1.00  0.00    -0.030 C 
ENDBRANCH   1   7
BRANCH   3  10
ATOM     10  O   UNL     1     -11.446 -10.756  89.375  1.00  0.00    -0.493 OA
ATOM     11  C   UNL     1     -12.394 -10.440  88.360  1.00  0.00     0.278 C 
ENDBRANCH   3  10
BRANCH   4  12
ATOM     12  O   UNL     1      -9.352 -12.183  88.285  1.00  0.00    -0.504 OA
ATOM     13  H   UNL     1     -10.169 -12.328  87.704  1.00  0.00     0.293 HD
ENDBRANCH   4  12
TORSDOF 3
ENDMDL
MODEL 2
REMARK VINA RESULT:    -4.349      9.102     10.362
REMARK INTER + INTRA:          -5.156
REMARK INTER:                  -4.995
REMARK INTRA:                  -0.161
REMARK UNBOUND:                -0.170
REMARK SMILES CC=Cc1ccc(O)c(OC)c1
REMARK SMILES IDX 4 1 12 2 9 3 7 4 6 5 5 6 3 7 1 8 2 9 10 10 11 11 8 12
REMARK H PARENT 8 13
REMARK Flexibility Score: inf
ROOT
ATOM      1  C   UNL     1     -13.878 -10.314  96.510  1.00  0.00    -0.022 A 
ATOM      2  C   UNL     1     -13.515 -10.505  97.854  1.00  0.00     0.058 A 
ATOM      3  C   UNL     1     -14.265  -9.921  98.895  1.00  0.00     0.161 A 
ATOM      4  C   UNL     1     -15.378  -9.132  98.579  1.00  0.00     0.157 A 
ATOM      5  C   UNL     1     -15.736  -8.925  97.241  1.00  0.00     0.051 A 
ATOM      6  C   UNL     1     -14.992  -9.506  96.213  1.00  0.00     0.012 A 
ENDROOT
BRANCH   1   7
ATOM      7  C   UNL     1     -13.047 -10.945  95.454  1.00  0.00     0.003 C 
ATOM      8  C   UNL     1     -11.101 -12.169  94.566  1.00  0.00     0.035 C 
ATOM      9  C   UNL     1     -11.888 -11.571  95.688  1.00  0.00    -0.030 C 
ENDBRANCH   1   7
BRANCH   3  10
ATOM     10  O   UNL     1     -13.936 -10.100 100.247  1.00  0.00    -0.493 OA
ATOM     11  C   UNL     1     -13.542 -11.341 100.824  1.00  0.00     0.278 C 
ENDBRANCH   3  10
BRANCH   4  12
ATOM     12  O   UNL     1     -16.125  -8.551  99.603  1.00  0.00    -0.504 OA
ATOM     13  H   UNL     1     -17.132  -8.654  99.649  1.00  0.00     0.293 HD
ENDBRANCH   4  12
TORSDOF 3
ENDMDL
MODEL 3
REMARK VINA RESULT:    -4.253      8.774      9.959
REMARK INTER + INTRA:          -5.045
REMARK INTER:                  -4.868
REMARK INTRA:                  -0.177
REMARK UNBOUND:                -0.170
REMARK SMILES CC=Cc1ccc(O)c(OC)c1
REMARK SMILES IDX 4 1 12 2 9 3 7 4 6 5 5 6 3 7 1 8 2 9 10 10 11 11 8 12
REMARK H PARENT 8 13
REMARK Flexibility Score: inf
ROOT
ATOM      1  C   UNL     1     -13.594 -10.606  96.752  1.00  0.00    -0.022 A 
ATOM      2  C   UNL     1     -14.516  -9.577  96.492  1.00  0.00     0.058 A 
ATOM      3  C   UNL     1     -15.206  -8.944  97.546  1.00  0.00     0.161 A 
ATOM      4  C   UNL     1     -14.975  -9.358  98.864  1.00  0.00     0.157 A 
ATOM      5  C   UNL     1     -14.070 -10.393  99.127  1.00  0.00     0.051 A 
ATOM      6  C   UNL     1     -13.387 -11.017  98.082  1.00  0.00     0.012 A 
ENDROOT
BRANCH   1   7
ATOM      7  C   UNL     1     -12.902 -11.244  95.604  1.00  0.00     0.003 C 
ATOM      8  C   UNL     1     -10.965 -12.144  94.374  1.00  0.00     0.035 C 
ATOM      9  C   UNL     1     -11.591 -11.512  95.576  1.00  0.00    -0.030 C 
ENDBRANCH   1   7
BRANCH   3  10
ATOM     10  O   UNL     1     -16.125  -7.908  97.322  1.00  0.00    -0.493 OA
ATOM     11  C   UNL     1     -15.766  -6.557  97.046  1.00  0.00     0.278 C 
ENDBRANCH   3  10
BRANCH   4  12
ATOM     12  O   UNL     1     -15.654  -8.736  99.910  1.00  0.00    -0.504 OA
ATOM     13  H   UNL     1     -15.163  -8.204 100.619  1.00  0.00     0.293 HD
ENDBRANCH   4  12
TORSDOF 3
ENDMDL
MODEL 4
REMARK VINA RESULT:    -4.164      1.643      2.914
REMARK INTER + INTRA:          -4.943
REMARK INTER:                  -4.764
REMARK INTRA:                  -0.180
REMARK UNBOUND:                -0.170
REMARK SMILES CC=Cc1ccc(O)c(OC)c1
REMARK SMILES IDX 4 1 12 2 9 3 7 4 6 5 5 6 3 7 1 8 2 9 10 10 11 11 8 12
REMARK H PARENT 8 13
REMARK Flexibility Score: inf
ROOT
ATOM      1  C   UNL     1      -7.883  -6.960  90.939  1.00  0.00    -0.022 A 
ATOM      2  C   UNL     1      -7.901  -8.351  90.740  1.00  0.00     0.058 A 
ATOM      3  C   UNL     1      -8.940  -8.962  90.010  1.00  0.00     0.161 A 
ATOM      4  C   UNL     1      -9.972  -8.171  89.490  1.00  0.00     0.157 A 
ATOM      5  C   UNL     1      -9.968  -6.785  89.698  1.00  0.00     0.051 A 
ATOM      6  C   UNL     1      -8.936  -6.183  90.420  1.00  0.00     0.012 A 
ENDROOT
BRANCH   1   7
ATOM      7  C   UNL     1      -6.769  -6.369  91.723  1.00  0.00     0.003 C 
ATOM      8  C   UNL     1      -5.146  -4.622  92.344  1.00  0.00     0.035 C 
ATOM      9  C   UNL     1      -6.281  -5.140  91.521  1.00  0.00    -0.030 C 
ENDBRANCH   1   7
BRANCH   3  10
ATOM     10  O   UNL     1      -8.983 -10.347  89.785  1.00  0.00    -0.493 OA
ATOM     11  C   UNL     1      -8.236 -11.024  88.780  1.00  0.00     0.278 C 
ENDBRANCH   3  10
BRANCH   4  12
ATOM     12  O   UNL     1     -11.003  -8.768  88.768  1.00  0.00    -0.504 OA
ATOM     13  H   UNL     1     -11.065  -9.775  88.666  1.00  0.00     0.293 HD
ENDBRANCH   4  12
TORSDOF 3
ENDMDL
MODEL 5
REMARK VINA RESULT:    -4.128      7.317      8.097
REMARK INTER + INTRA:          -4.901
REMARK INTER:                  -4.731
REMARK INTRA:                  -0.170
REMARK UNBOUND:                -0.170
REMARK SMILES CC=Cc1ccc(O)c(OC)c1
REMARK SMILES IDX 4 1 12 2 9 3 7 4 6 5 5 6 3 7 1 8 2 9 10 10 11 11 8 12
REMARK H PARENT 8 13
REMARK Flexibility Score: inf
ROOT
ATOM      1  C   UNL     1     -13.991 -10.075  96.272  1.00  0.00    -0.022 A 
ATOM      2  C   UNL     1     -14.362 -10.339  94.942  1.00  0.00     0.058 A 
ATOM      3  C   UNL     1     -13.668 -11.297  94.176  1.00  0.00     0.161 A 
ATOM      4  C   UNL     1     -12.587 -11.981  94.747  1.00  0.00     0.157 A 
ATOM      5  C   UNL     1     -12.203 -11.711  96.067  1.00  0.00     0.051 A 
ATOM      6  C   UNL     1     -12.894 -10.763  96.824  1.00  0.00     0.012 A 
ENDROOT
BRANCH   1   7
ATOM      7  C   UNL     1     -14.752  -9.051  97.031  1.00  0.00     0.003 C 
ATOM      8  C   UNL     1     -16.125  -8.202  98.893  1.00  0.00     0.035 C 
ATOM      9  C   UNL     1     -15.364  -9.285  98.197  1.00  0.00    -0.030 C 
ENDBRANCH   1   7
BRANCH   3  10
ATOM     10  O   UNL     1     -14.018 -11.591  92.850  1.00  0.00    -0.493 OA
ATOM     11  C   UNL     1     -15.259 -12.165  92.452  1.00  0.00     0.278 C 
ENDBRANCH   3  10
BRANCH   4  12
ATOM     12  O   UNL     1     -11.896 -12.929  93.995  1.00  0.00    -0.504 OA
ATOM     13  H   UNL     1     -11.745 -12.810  93.000  1.00  0.00     0.293 HD
ENDBRANCH   4  12
TORSDOF 3
ENDMDL
MODEL 6
REMARK VINA RESULT:    -4.098      1.896      4.660
REMARK INTER + INTRA:          -4.868
REMARK INTER:                  -4.706
REMARK INTRA:                  -0.162
REMARK UNBOUND:                -0.170
REMARK SMILES CC=Cc1ccc(O)c(OC)c1
REMARK SMILES IDX 4 1 12 2 9 3 7 4 6 5 5 6 3 7 1 8 2 9 10 10 11 11 8 12
REMARK H PARENT 8 13
REMARK Flexibility Score: inf
ROOT
ATOM      1  C   UNL     1     -10.849  -9.987  89.148  1.00  0.00    -0.022 A 
ATOM      2  C   UNL     1      -9.921  -9.240  89.893  1.00  0.00     0.058 A 
ATOM      3  C   UNL     1      -8.548  -9.559  89.864  1.00  0.00     0.161 A 
ATOM      4  C   UNL     1      -8.111 -10.642  89.091  1.00  0.00     0.157 A 
ATOM      5  C   UNL     1      -9.034 -11.400  88.359  1.00  0.00     0.051 A 
ATOM      6  C   UNL     1     -10.392 -11.080  88.389  1.00  0.00     0.012 A 
ENDROOT
BRANCH   1   7
ATOM      7  C   UNL     1     -12.284  -9.612  89.222  1.00  0.00     0.003 C 
ATOM      8  C   UNL     1     -14.707 -10.039  89.360  1.00  0.00     0.035 C 
ATOM      9  C   UNL     1     -13.285 -10.497  89.305  1.00  0.00    -0.030 C 
ENDBRANCH   1   7
BRANCH   3  10
ATOM     10  O   UNL     1      -7.594  -8.828  90.589  1.00  0.00    -0.493 OA
ATOM     11  C   UNL     1      -7.729  -7.456  90.944  1.00  0.00     0.278 C 
ENDBRANCH   3  10
BRANCH   4  12
ATOM     12  O   UNL     1      -6.756 -10.963  89.058  1.00  0.00    -0.504 OA
ATOM     13  H   UNL     1      -6.262 -11.092  88.182  1.00  0.00     0.293 HD
ENDBRANCH   4  12
TORSDOF 3
ENDMDL
MODEL 7
REMARK VINA RESULT:    -4.083      8.370      9.294
REMARK INTER + INTRA:          -4.850
REMARK INTER:                  -4.672
REMARK INTRA:                  -0.178
REMARK UNBOUND:                -0.170
REMARK SMILES CC=Cc1ccc(O)c(OC)c1
REMARK SMILES IDX 4 1 12 2 9 3 7 4 6 5 5 6 3 7 1 8 2 9 10 10 11 11 8 12
REMARK H PARENT 8 13
REMARK Flexibility Score: inf
ROOT
ATOM      1  C   UNL     1     -13.660 -10.719  97.899  1.00  0.00    -0.022 A 
ATOM      2  C   UNL     1     -12.980 -11.473  96.927  1.00  0.00     0.058 A 
ATOM      3  C   UNL     1     -13.185 -11.232  95.553  1.00  0.00     0.161 A 
ATOM      4  C   UNL     1     -14.087 -10.236  95.158  1.00  0.00     0.157 A 
ATOM      5  C   UNL     1     -14.778  -9.491  96.122  1.00  0.00     0.051 A 
ATOM      6  C   UNL     1     -14.572  -9.732  97.481  1.00  0.00     0.012 A 
ENDROOT
BRANCH   1   7
ATOM      7  C   UNL     1     -13.413 -11.020  99.332  1.00  0.00     0.003 C 
ATOM      8  C   UNL     1     -13.669 -10.711 101.763  1.00  0.00     0.035 C 
ATOM      9  C   UNL     1     -13.981 -10.356 100.345  1.00  0.00    -0.030 C 
ENDBRANCH   1   7
BRANCH   3  10
ATOM     10  O   UNL     1     -12.516 -11.960  94.558  1.00  0.00    -0.493 OA
ATOM     11  C   UNL     1     -11.100 -12.081  94.461  1.00  0.00     0.278 C 
ENDBRANCH   3  10
BRANCH   4  12
ATOM     12  O   UNL     1     -14.294  -9.992  93.801  1.00  0.00    -0.504 OA
ATOM     13  H   UNL     1     -13.575 -10.180  93.113  1.00  0.00     0.293 HD
ENDBRANCH   4  12
TORSDOF 3
ENDMDL
MODEL 8
REMARK VINA RESULT:    -3.916      7.124      7.897
REMARK INTER + INTRA:          -4.659
REMARK INTER:                  -4.485
REMARK INTRA:                  -0.174
REMARK UNBOUND:                -0.170
REMARK SMILES CC=Cc1ccc(O)c(OC)c1
REMARK SMILES IDX 4 1 12 2 9 3 7 4 6 5 5 6 3 7 1 8 2 9 10 10 11 11 8 12
REMARK H PARENT 8 13
REMARK Flexibility Score: inf
ROOT
ATOM      1  C   UNL     1     -13.159 -10.619  96.627  1.00  0.00    -0.022 A 
ATOM      2  C   UNL     1     -13.798  -9.897  95.604  1.00  0.00     0.058 A 
ATOM      3  C   UNL     1     -13.479 -10.127  94.251  1.00  0.00     0.161 A 
ATOM      4  C   UNL     1     -12.504 -11.079  93.928  1.00  0.00     0.157 A 
ATOM      5  C   UNL     1     -11.853 -11.791  94.944  1.00  0.00     0.051 A 
ATOM      6  C   UNL     1     -12.173 -11.562  96.283  1.00  0.00     0.012 A 
ENDROOT
BRANCH   1   7
ATOM      7  C   UNL     1     -13.528 -10.330  98.036  1.00  0.00     0.003 C 
ATOM      8  C   UNL     1     -13.857 -10.860 100.420  1.00  0.00     0.035 C 
ATOM      9  C   UNL     1     -13.452 -11.225  99.028  1.00  0.00    -0.030 C 
ENDBRANCH   1   7
BRANCH   3  10
ATOM     10  O   UNL     1     -14.104  -9.431  93.205  1.00  0.00    -0.493 OA
ATOM     11  C   UNL     1     -13.724  -8.132  92.760  1.00  0.00     0.278 C 
ENDBRANCH   3  10
BRANCH   4  12
ATOM     12  O   UNL     1     -12.183 -11.313  92.592  1.00  0.00    -0.504 OA
ATOM     13  H   UNL     1     -12.774 -10.981  91.839  1.00  0.00     0.293 HD
ENDBRANCH   4  12
TORSDOF 3
ENDMDL
MODEL 9
REMARK VINA RESULT:    -3.835      3.160      4.136
REMARK INTER + INTRA:          -4.566
REMARK INTER:                  -4.415
REMARK INTRA:                  -0.150
REMARK UNBOUND:                -0.170
REMARK SMILES CC=Cc1ccc(O)c(OC)c1
REMARK SMILES IDX 4 1 12 2 9 3 7 4 6 5 5 6 3 7 1 8 2 9 10 10 11 11 8 12
REMARK H PARENT 8 13
REMARK Flexibility Score: inf
ROOT
ATOM      1  C   UNL     1     -10.082  -9.842  92.629  1.00  0.00    -0.022 A 
ATOM      2  C   UNL     1     -10.588 -10.243  91.380  1.00  0.00     0.058 A 
ATOM      3  C   UNL     1      -9.918  -9.904  90.187  1.00  0.00     0.161 A 
ATOM      4  C   UNL     1      -8.741  -9.148  90.252  1.00  0.00     0.157 A 
ATOM      5  C   UNL     1      -8.239  -8.733  91.492  1.00  0.00     0.051 A 
ATOM      6  C   UNL     1      -8.905  -9.072  92.672  1.00  0.00     0.012 A 
ENDROOT
BRANCH   1   7
ATOM      7  C   UNL     1     -10.833 -10.219  93.853  1.00  0.00     0.003 C 
ATOM      8  C   UNL     1     -11.874 -11.779  95.451  1.00  0.00     0.035 C 
ATOM      9  C   UNL     1     -11.098 -11.482  94.209  1.00  0.00    -0.030 C 
ENDBRANCH   1   7
BRANCH   3  10
ATOM     10  O   UNL     1     -10.391 -10.296  88.926  1.00  0.00    -0.493 OA
ATOM     11  C   UNL     1     -11.755 -10.575  88.627  1.00  0.00     0.278 C 
ENDBRANCH   3  10
BRANCH   4  12
ATOM     12  O   UNL     1      -8.073  -8.810  89.077  1.00  0.00    -0.504 OA
ATOM     13  H   UNL     1      -8.539  -8.317  88.324  1.00  0.00     0.293 HD
ENDBRANCH   4  12
TORSDOF 3
ENDMDL
