MODEL 1
REMARK VINA RESULT:    -6.025      0.000      0.000
REMARK INTER + INTRA:         -19.053
REMARK INTER:                 -15.184
REMARK INTRA:                  -3.869
REMARK UNBOUND:                -3.869
REMARK SMILES CCCCCCCCCCCCCCCCCCCCCCCCCCCC(=O)[O-]
REMARK SMILES IDX 15 1 16 2 17 3 18 4 19 5 20 6 21 7 22 8 23 9 24 10 25 11
REMARK SMILES IDX 26 12 27 13 28 14 29 15 30 16 14 17 13 18 12 19 11 20 10 21
REMARK SMILES IDX 9 22 8 23 7 24 6 25 5 26 4 27 3 28 2 29 1 30
REMARK H PARENT
REMARK Flexibility Score: inf
ROOT
ATOM      1  C   UNL     1      10.092   2.420  19.137  1.00  0.00     0.000 C 
ENDROOT
BRANCH   1   2
ATOM      2  C   UNL     1      10.871   3.386  18.221  1.00  0.00     0.000 C 
BRANCH   2   3
ATOM      3  C   UNL     1      11.685   4.472  18.954  1.00  0.00     0.000 C 
BRANCH   3   4
ATOM      4  C   UNL     1      12.214   5.608  18.059  1.00  0.00     0.000 C 
BRANCH   4   5
ATOM      5  C   UNL     1      11.343   6.874  18.128  1.00  0.00     0.000 C 
BRANCH   5   6
ATOM      6  C   UNL     1      10.113   6.802  17.209  1.00  0.00     0.000 C 
BRANCH   6   7
ATOM      7  C   UNL     1       8.790   7.021  17.957  1.00  0.00     0.000 C 
BRANCH   7   8
ATOM      8  C   UNL     1       8.055   5.689  18.178  1.00  0.00     0.000 C 
BRANCH   8   9
ATOM      9  C   UNL     1       7.925   5.327  19.672  1.00  0.00     0.000 C 
BRANCH   9  10
ATOM     10  C   UNL     1       8.373   6.447  20.633  1.00  0.00     0.000 C 
BRANCH  10  11
ATOM     11  C   UNL     1       9.699   6.157  21.365  1.00  0.00     0.000 C 
BRANCH  11  12
ATOM     12  C   UNL     1      10.596   7.403  21.462  1.00  0.00     0.006 C 
BRANCH  12  13
ATOM     13  C   UNL     1      12.060   7.043  21.747  1.00  0.00     0.053 C 
BRANCH  13  14
ATOM     14  C   UNL     1      12.964   8.226  21.576  1.00  0.00     0.041 C 
ATOM     15  O   UNL     1      13.317   8.595  20.423  1.00  0.00    -0.550 OA
ATOM     16  O   UNL     1      13.446   8.898  22.691  1.00  0.00    -0.550 OA
ENDBRANCH  13  14
ENDBRANCH  12  13
ENDBRANCH  11  12
ENDBRANCH  10  11
ENDBRANCH   9  10
ENDBRANCH   8   9
ENDBRANCH   7   8
ENDBRANCH   6   7
ENDBRANCH   5   6
ENDBRANCH   4   5
ENDBRANCH   3   4
ENDBRANCH   2   3
ENDBRANCH   1   2
BRANCH   1  17
ATOM     17  C   UNL     1      10.259   2.680  20.648  1.00  0.00     0.000 C 
BRANCH  17  18
ATOM     18  C   UNL     1      10.260   1.413  21.526  1.00  0.00     0.000 C 
BRANCH  18  19
ATOM     19  C   UNL     1      10.996   1.553  22.874  1.00  0.00     0.000 C 
BRANCH  19  20
ATOM     20  C   UNL     1      10.972   0.297  23.765  1.00  0.00     0.000 C 
BRANCH  20  21
ATOM     21  C   UNL     1      10.616   0.612  25.228  1.00  0.00     0.000 C 
BRANCH  21  22
ATOM     22  C   UNL     1      11.191  -0.419  26.214  1.00  0.00    -0.000 C 
BRANCH  22  23
ATOM     23  C   UNL     1      12.631  -0.831  25.865  1.00  0.00    -0.000 C 
BRANCH  23  24
ATOM     24  C   UNL     1      13.522  -1.002  27.110  1.00  0.00    -0.000 C 
BRANCH  24  25
ATOM     25  C   UNL     1      13.595   0.225  28.038  1.00  0.00    -0.000 C 
BRANCH  25  26
ATOM     26  C   UNL     1      14.290   1.432  27.380  1.00  0.00    -0.000 C 
BRANCH  26  27
ATOM     27  C   UNL     1      15.357   1.013  26.355  1.00  0.00    -0.000 C 
BRANCH  27  28
ATOM     28  C   UNL     1      15.522   2.036  25.219  1.00  0.00    -0.000 C 
BRANCH  28  29
ATOM     29  C   UNL     1      14.205   2.225  24.458  1.00  0.00    -0.003 C 
ATOM     30  C   UNL     1      13.560   3.566  24.797  1.00  0.00     0.004 C 
ENDBRANCH  28  29
ENDBRANCH  27  28
ENDBRANCH  26  27
ENDBRANCH  25  26
ENDBRANCH  24  25
ENDBRANCH  23  24
ENDBRANCH  22  23
ENDBRANCH  21  22
ENDBRANCH  20  21
ENDBRANCH  19  20
ENDBRANCH  18  19
ENDBRANCH  17  18
ENDBRANCH   1  17
TORSDOF 26
ENDMDL
MODEL 2
REMARK VINA RESULT:    -5.789      2.141      4.052
REMARK INTER + INTRA:         -18.458
REMARK INTER:                 -14.782
REMARK INTRA:                  -3.676
REMARK UNBOUND:                -3.869
REMARK SMILES CCCCCCCCCCCCCCCCCCCCCCCCCCCC(=O)[O-]
REMARK SMILES IDX 15 1 16 2 17 3 18 4 19 5 20 6 21 7 22 8 23 9 24 10 25 11
REMARK SMILES IDX 26 12 27 13 28 14 29 15 30 16 14 17 13 18 12 19 11 20 10 21
REMARK SMILES IDX 9 22 8 23 7 24 6 25 5 26 4 27 3 28 2 29 1 30
REMARK H PARENT
REMARK Flexibility Score: inf
ROOT
ATOM      1  C   UNL     1      10.599   1.537  22.259  1.00  0.00     0.000 C 
ENDROOT
BRANCH   1   2
ATOM      2  C   UNL     1      11.339   2.866  22.515  1.00  0.00     0.000 C 
BRANCH   2   3
ATOM      3  C   UNL     1      10.915   4.039  21.607  1.00  0.00     0.000 C 
BRANCH   3   4
ATOM      4  C   UNL     1      11.746   5.325  21.767  1.00  0.00     0.000 C 
BRANCH   4   5
ATOM      5  C   UNL     1      10.910   6.601  21.574  1.00  0.00     0.000 C 
BRANCH   5   6
ATOM      6  C   UNL     1      11.727   7.766  20.993  1.00  0.00     0.000 C 
BRANCH   6   7
ATOM      7  C   UNL     1      12.242   7.489  19.572  1.00  0.00     0.000 C 
BRANCH   7   8
ATOM      8  C   UNL     1      11.082   7.447  18.564  1.00  0.00     0.000 C 
BRANCH   8   9
ATOM      9  C   UNL     1      11.158   6.223  17.628  1.00  0.00     0.000 C 
BRANCH   9  10
ATOM     10  C   UNL     1      12.015   5.064  18.174  1.00  0.00     0.000 C 
BRANCH  10  11
ATOM     11  C   UNL     1      11.267   3.720  18.275  1.00  0.00     0.000 C 
BRANCH  11  12
ATOM     12  C   UNL     1       9.818   3.818  17.766  1.00  0.00     0.006 C 
BRANCH  12  13
ATOM     13  C   UNL     1       8.795   3.717  18.905  1.00  0.00     0.053 C 
BRANCH  13  14
ATOM     14  C   UNL     1       8.058   5.007  19.102  1.00  0.00     0.041 C 
ATOM     15  O   UNL     1       7.783   5.411  20.264  1.00  0.00    -0.550 OA
ATOM     16  O   UNL     1       7.643   5.744  18.002  1.00  0.00    -0.550 OA
ENDBRANCH  13  14
ENDBRANCH  12  13
ENDBRANCH  11  12
ENDBRANCH  10  11
ENDBRANCH   9  10
ENDBRANCH   8   9
ENDBRANCH   7   8
ENDBRANCH   6   7
ENDBRANCH   5   6
ENDBRANCH   4   5
ENDBRANCH   3   4
ENDBRANCH   2   3
ENDBRANCH   1   2
BRANCH   1  17
ATOM     17  C   UNL     1      10.950   0.399  23.238  1.00  0.00     0.000 C 
BRANCH  17  18
ATOM     18  C   UNL     1      11.706   0.846  24.505  1.00  0.00     0.000 C 
BRANCH  18  19
ATOM     19  C   UNL     1      11.025   0.473  25.838  1.00  0.00     0.000 C 
BRANCH  19  20
ATOM     20  C   UNL     1      11.540  -0.820  26.496  1.00  0.00     0.000 C 
BRANCH  20  21
ATOM     21  C   UNL     1      12.951  -1.208  26.022  1.00  0.00     0.000 C 
BRANCH  21  22
ATOM     22  C   UNL     1      13.589  -2.304  26.892  1.00  0.00    -0.000 C 
BRANCH  22  23
ATOM     23  C   UNL     1      14.878  -1.832  27.585  1.00  0.00    -0.000 C 
BRANCH  23  24
ATOM     24  C   UNL     1      14.804  -1.938  29.121  1.00  0.00    -0.000 C 
BRANCH  24  25
ATOM     25  C   UNL     1      14.754  -0.592  29.869  1.00  0.00    -0.000 C 
BRANCH  25  26
ATOM     26  C   UNL     1      13.357   0.055  29.843  1.00  0.00    -0.000 C 
BRANCH  26  27
ATOM     27  C   UNL     1      13.253   1.197  28.819  1.00  0.00    -0.000 C 
BRANCH  27  28
ATOM     28  C   UNL     1      14.589   1.488  28.117  1.00  0.00    -0.000 C 
BRANCH  28  29
ATOM     29  C   UNL     1      14.359   1.984  26.685  1.00  0.00    -0.003 C 
ATOM     30  C   UNL     1      15.476   1.521  25.754  1.00  0.00     0.004 C 
ENDBRANCH  28  29
ENDBRANCH  27  28
ENDBRANCH  26  27
ENDBRANCH  25  26
ENDBRANCH  24  25
ENDBRANCH  23  24
ENDBRANCH  22  23
ENDBRANCH  21  22
ENDBRANCH  20  21
ENDBRANCH  19  20
ENDBRANCH  18  19
ENDBRANCH  17  18
ENDBRANCH   1  17
TORSDOF 26
ENDMDL
MODEL 3
REMARK VINA RESULT:    -5.625      1.179      2.568
REMARK INTER + INTRA:         -18.044
REMARK INTER:                 -14.725
REMARK INTRA:                  -3.319
REMARK UNBOUND:                -3.869
REMARK SMILES CCCCCCCCCCCCCCCCCCCCCCCCCCCC(=O)[O-]
REMARK SMILES IDX 15 1 16 2 17 3 18 4 19 5 20 6 21 7 22 8 23 9 24 10 25 11
REMARK SMILES IDX 26 12 27 13 28 14 29 15 30 16 14 17 13 18 12 19 11 20 10 21
REMARK SMILES IDX 9 22 8 23 7 24 6 25 5 26 4 27 3 28 2 29 1 30
REMARK H PARENT
REMARK Flexibility Score: inf
ROOT
ATOM      1  C   UNL     1      10.561   1.020  21.877  1.00  0.00     0.000 C 
ENDROOT
BRANCH   1   2
ATOM      2  C   UNL     1      10.607   2.539  22.140  1.00  0.00     0.000 C 
BRANCH   2   3
ATOM      3  C   UNL     1      10.435   3.427  20.890  1.00  0.00     0.000 C 
BRANCH   3   4
ATOM      4  C   UNL     1      11.632   4.341  20.568  1.00  0.00     0.000 C 
BRANCH   4   5
ATOM      5  C   UNL     1      11.836   4.542  19.057  1.00  0.00     0.000 C 
BRANCH   5   6
ATOM      6  C   UNL     1      10.738   3.873  18.213  1.00  0.00     0.000 C 
BRANCH   6   7
ATOM      7  C   UNL     1       9.610   4.839  17.821  1.00  0.00     0.000 C 
BRANCH   7   8
ATOM      8  C   UNL     1      10.111   6.292  17.799  1.00  0.00     0.000 C 
BRANCH   8   9
ATOM      9  C   UNL     1       9.295   7.212  18.731  1.00  0.00     0.000 C 
BRANCH   9  10
ATOM     10  C   UNL     1       8.832   6.534  20.037  1.00  0.00     0.000 C 
BRANCH  10  11
ATOM     11  C   UNL     1       9.548   7.049  21.302  1.00  0.00     0.000 C 
BRANCH  11  12
ATOM     12  C   UNL     1      10.479   8.237  21.003  1.00  0.00     0.006 C 
BRANCH  12  13
ATOM     13  C   UNL     1      11.961   7.847  21.084  1.00  0.00     0.053 C 
BRANCH  13  14
ATOM     14  C   UNL     1      12.746   8.824  21.906  1.00  0.00     0.041 C 
ATOM     15  O   UNL     1      13.905   8.532  22.306  1.00  0.00    -0.550 OA
ATOM     16  O   UNL     1      12.182  10.042  22.261  1.00  0.00    -0.550 OA
ENDBRANCH  13  14
ENDBRANCH  12  13
ENDBRANCH  11  12
ENDBRANCH  10  11
ENDBRANCH   9  10
ENDBRANCH   8   9
ENDBRANCH   7   8
ENDBRANCH   6   7
ENDBRANCH   5   6
ENDBRANCH   4   5
ENDBRANCH   3   4
ENDBRANCH   2   3
ENDBRANCH   1   2
BRANCH   1  17
ATOM     17  C   UNL     1      10.982   0.140  23.071  1.00  0.00     0.000 C 
BRANCH  17  18
ATOM     18  C   UNL     1      11.243   0.910  24.381  1.00  0.00     0.000 C 
BRANCH  18  19
ATOM     19  C   UNL     1      10.555   0.324  25.631  1.00  0.00     0.000 C 
BRANCH  19  20
ATOM     20  C   UNL     1      11.455  -0.551  26.523  1.00  0.00     0.000 C 
BRANCH  20  21
ATOM     21  C   UNL     1      12.790  -0.913  25.849  1.00  0.00     0.000 C 
BRANCH  21  22
ATOM     22  C   UNL     1      13.449  -2.156  26.469  1.00  0.00    -0.000 C 
BRANCH  22  23
ATOM     23  C   UNL     1      14.804  -1.840  27.125  1.00  0.00    -0.000 C 
BRANCH  23  24
ATOM     24  C   UNL     1      14.798  -2.072  28.649  1.00  0.00    -0.000 C 
BRANCH  24  25
ATOM     25  C   UNL     1      14.804  -0.792  29.506  1.00  0.00    -0.000 C 
BRANCH  25  26
ATOM     26  C   UNL     1      13.414  -0.138  29.614  1.00  0.00    -0.000 C 
BRANCH  26  27
ATOM     27  C   UNL     1      13.319   1.183  28.834  1.00  0.00    -0.000 C 
BRANCH  27  28
ATOM     28  C   UNL     1      14.611   1.514  28.069  1.00  0.00    -0.000 C 
BRANCH  28  29
ATOM     29  C   UNL     1      14.296   2.021  26.657  1.00  0.00    -0.003 C 
ATOM     30  C   UNL     1      15.382   1.608  25.668  1.00  0.00     0.004 C 
ENDBRANCH  28  29
ENDBRANCH  27  28
ENDBRANCH  26  27
ENDBRANCH  25  26
ENDBRANCH  24  25
ENDBRANCH  23  24
ENDBRANCH  22  23
ENDBRANCH  21  22
ENDBRANCH  20  21
ENDBRANCH  19  20
ENDBRANCH  18  19
ENDBRANCH  17  18
ENDBRANCH   1  17
TORSDOF 26
ENDMDL
MODEL 4
REMARK VINA RESULT:    -5.613      7.525     12.825
REMARK INTER + INTRA:         -18.015
REMARK INTER:                 -14.367
REMARK INTRA:                  -3.648
REMARK UNBOUND:                -3.869
REMARK SMILES CCCCCCCCCCCCCCCCCCCCCCCCCCCC(=O)[O-]
REMARK SMILES IDX 15 1 16 2 17 3 18 4 19 5 20 6 21 7 22 8 23 9 24 10 25 11
REMARK SMILES IDX 26 12 27 13 28 14 29 15 30 16 14 17 13 18 12 19 11 20 10 21
REMARK SMILES IDX 9 22 8 23 7 24 6 25 5 26 4 27 3 28 2 29 1 30
REMARK H PARENT
REMARK Flexibility Score: inf
ROOT
ATOM      1  C   UNL     1      15.528  -6.622  33.151  1.00  0.00     0.000 C 
ENDROOT
BRANCH   1   2
ATOM      2  C   UNL     1      15.523  -6.469  31.616  1.00  0.00     0.000 C 
BRANCH   2   3
ATOM      3  C   UNL     1      15.505  -5.014  31.102  1.00  0.00     0.000 C 
BRANCH   3   4
ATOM      4  C   UNL     1      14.873  -4.820  29.711  1.00  0.00     0.000 C 
BRANCH   4   5
ATOM      5  C   UNL     1      15.039  -3.387  29.178  1.00  0.00     0.000 C 
BRANCH   5   6
ATOM      6  C   UNL     1      15.800  -3.332  27.844  1.00  0.00     0.000 C 
BRANCH   6   7
ATOM      7  C   UNL     1      15.291  -2.226  26.907  1.00  0.00     0.000 C 
BRANCH   7   8
ATOM      8  C   UNL     1      13.936  -1.680  27.385  1.00  0.00     0.000 C 
BRANCH   8   9
ATOM      9  C   UNL     1      13.000  -1.314  26.214  1.00  0.00     0.000 C 
BRANCH   9  10
ATOM     10  C   UNL     1      11.768  -0.485  26.627  1.00  0.00     0.000 C 
BRANCH  10  11
ATOM     11  C   UNL     1      11.370   0.603  25.610  1.00  0.00     0.000 C 
BRANCH  11  12
ATOM     12  C   UNL     1      12.525   0.961  24.658  1.00  0.00     0.006 C 
BRANCH  12  13
ATOM     13  C   UNL     1      13.241   2.253  25.074  1.00  0.00     0.053 C 
BRANCH  13  14
ATOM     14  C   UNL     1      14.553   1.969  25.740  1.00  0.00     0.041 C 
ATOM     15  O   UNL     1      14.611   1.808  26.988  1.00  0.00    -0.550 OA
ATOM     16  O   UNL     1      15.716   1.916  24.985  1.00  0.00    -0.550 OA
ENDBRANCH  13  14
ENDBRANCH  12  13
ENDBRANCH  11  12
ENDBRANCH  10  11
ENDBRANCH   9  10
ENDBRANCH   8   9
ENDBRANCH   7   8
ENDBRANCH   6   7
ENDBRANCH   5   6
ENDBRANCH   4   5
ENDBRANCH   3   4
ENDBRANCH   2   3
ENDBRANCH   1   2
BRANCH   1  17
ATOM     17  C   UNL     1      15.431  -5.299  33.937  1.00  0.00     0.000 C 
BRANCH  17  18
ATOM     18  C   UNL     1      15.166  -5.462  35.446  1.00  0.00     0.000 C 
BRANCH  18  19
ATOM     19  C   UNL     1      16.071  -4.615  36.364  1.00  0.00     0.000 C 
BRANCH  19  20
ATOM     20  C   UNL     1      17.375  -5.302  36.809  1.00  0.00     0.000 C 
BRANCH  20  21
ATOM     21  C   UNL     1      17.309  -6.835  36.698  1.00  0.00     0.000 C 
BRANCH  21  22
ATOM     22  C   UNL     1      18.435  -7.416  35.828  1.00  0.00    -0.000 C 
BRANCH  22  23
ATOM     23  C   UNL     1      19.256  -6.326  35.118  1.00  0.00    -0.000 C 
BRANCH  23  24
ATOM     24  C   UNL     1      19.050  -6.323  33.590  1.00  0.00    -0.000 C 
BRANCH  24  25
ATOM     25  C   UNL     1      18.985  -4.928  32.941  1.00  0.00    -0.000 C 
BRANCH  25  26
ATOM     26  C   UNL     1      18.838  -3.794  33.973  1.00  0.00    -0.000 C 
BRANCH  26  27
ATOM     27  C   UNL     1      17.685  -2.833  33.636  1.00  0.00    -0.000 C 
BRANCH  27  28
ATOM     28  C   UNL     1      17.797  -1.491  34.376  1.00  0.00    -0.000 C 
BRANCH  28  29
ATOM     29  C   UNL     1      18.262  -1.700  35.821  1.00  0.00    -0.003 C 
ATOM     30  C   UNL     1      19.287  -0.645  36.228  1.00  0.00     0.004 C 
ENDBRANCH  28  29
ENDBRANCH  27  28
ENDBRANCH  26  27
ENDBRANCH  25  26
ENDBRANCH  24  25
ENDBRANCH  23  24
ENDBRANCH  22  23
ENDBRANCH  21  22
ENDBRANCH  20  21
ENDBRANCH  19  20
ENDBRANCH  18  19
ENDBRANCH  17  18
ENDBRANCH   1  17
TORSDOF 26
ENDMDL
MODEL 5
REMARK VINA RESULT:    -5.583      1.123      2.197
REMARK INTER + INTRA:         -17.939
REMARK INTER:                 -14.951
REMARK INTRA:                  -2.989
REMARK UNBOUND:                -3.869
REMARK SMILES CCCCCCCCCCCCCCCCCCCCCCCCCCCC(=O)[O-]
REMARK SMILES IDX 15 1 16 2 17 3 18 4 19 5 20 6 21 7 22 8 23 9 24 10 25 11
REMARK SMILES IDX 26 12 27 13 28 14 29 15 30 16 14 17 13 18 12 19 11 20 10 21
REMARK SMILES IDX 9 22 8 23 7 24 6 25 5 26 4 27 3 28 2 29 1 30
REMARK H PARENT
REMARK Flexibility Score: inf
ROOT
ATOM      1  C   UNL     1       9.880   2.719  20.069  1.00  0.00     0.000 C 
ENDROOT
BRANCH   1   2
ATOM      2  C   UNL     1      10.771   3.300  18.953  1.00  0.00     0.000 C 
BRANCH   2   3
ATOM      3  C   UNL     1      11.655   4.493  19.373  1.00  0.00     0.000 C 
BRANCH   3   4
ATOM      4  C   UNL     1      12.162   5.371  18.214  1.00  0.00     0.000 C 
BRANCH   4   5
ATOM      5  C   UNL     1      11.415   6.711  18.112  1.00  0.00     0.000 C 
BRANCH   5   6
ATOM      6  C   UNL     1      10.166   6.631  17.220  1.00  0.00     0.000 C 
BRANCH   6   7
ATOM      7  C   UNL     1       8.868   6.969  17.971  1.00  0.00     0.000 C 
BRANCH   7   8
ATOM      8  C   UNL     1       7.947   5.742  18.058  1.00  0.00     0.000 C 
BRANCH   8   9
ATOM      9  C   UNL     1       7.851   5.177  19.491  1.00  0.00     0.000 C 
BRANCH   9  10
ATOM     10  C   UNL     1       8.085   6.224  20.598  1.00  0.00     0.000 C 
BRANCH  10  11
ATOM     11  C   UNL     1       9.427   6.067  21.341  1.00  0.00     0.000 C 
BRANCH  11  12
ATOM     12  C   UNL     1      10.179   7.403  21.477  1.00  0.00     0.006 C 
BRANCH  12  13
ATOM     13  C   UNL     1      11.690   7.202  21.658  1.00  0.00     0.053 C 
BRANCH  13  14
ATOM     14  C   UNL     1      12.435   8.498  21.561  1.00  0.00     0.041 C 
ATOM     15  O   UNL     1      12.000   9.527  22.144  1.00  0.00    -0.550 OA
ATOM     16  O   UNL     1      13.591   8.578  20.797  1.00  0.00    -0.550 OA
ENDBRANCH  13  14
ENDBRANCH  12  13
ENDBRANCH  11  12
ENDBRANCH  10  11
ENDBRANCH   9  10
ENDBRANCH   8   9
ENDBRANCH   7   8
ENDBRANCH   6   7
ENDBRANCH   5   6
ENDBRANCH   4   5
ENDBRANCH   3   4
ENDBRANCH   2   3
ENDBRANCH   1   2
BRANCH   1  17
ATOM     17  C   UNL     1      10.611   2.415  21.393  1.00  0.00     0.000 C 
BRANCH  17  18
ATOM     18  C   UNL     1      10.371   1.000  21.954  1.00  0.00     0.000 C 
BRANCH  18  19
ATOM     19  C   UNL     1      11.107   0.687  23.273  1.00  0.00     0.000 C 
BRANCH  19  20
ATOM     20  C   UNL     1      10.193   0.409  24.480  1.00  0.00     0.000 C 
BRANCH  20  21
ATOM     21  C   UNL     1      10.853   0.769  25.823  1.00  0.00     0.000 C 
BRANCH  21  22
ATOM     22  C   UNL     1      12.271   0.191  25.960  1.00  0.00    -0.000 C 
BRANCH  22  23
ATOM     23  C   UNL     1      13.364   1.262  25.801  1.00  0.00    -0.000 C 
BRANCH  23  24
ATOM     24  C   UNL     1      14.501   1.112  26.830  1.00  0.00    -0.000 C 
BRANCH  24  25
ATOM     25  C   UNL     1      14.056   1.123  28.304  1.00  0.00    -0.000 C 
BRANCH  25  26
ATOM     26  C   UNL     1      14.457  -0.157  29.059  1.00  0.00    -0.000 C 
BRANCH  26  27
ATOM     27  C   UNL     1      14.023  -1.437  28.325  1.00  0.00    -0.000 C 
BRANCH  27  28
ATOM     28  C   UNL     1      15.117  -2.518  28.322  1.00  0.00    -0.000 C 
BRANCH  28  29
ATOM     29  C   UNL     1      15.954  -2.445  27.040  1.00  0.00    -0.003 C 
ATOM     30  C   UNL     1      15.069  -2.229  25.815  1.00  0.00     0.004 C 
ENDBRANCH  28  29
ENDBRANCH  27  28
ENDBRANCH  26  27
ENDBRANCH  25  26
ENDBRANCH  24  25
ENDBRANCH  23  24
ENDBRANCH  22  23
ENDBRANCH  21  22
ENDBRANCH  20  21
ENDBRANCH  19  20
ENDBRANCH  18  19
ENDBRANCH  17  18
ENDBRANCH   1  17
TORSDOF 26
ENDMDL
MODEL 6
REMARK VINA RESULT:    -5.572      8.386     15.482
REMARK INTER + INTRA:         -17.910
REMARK INTER:                 -14.397
REMARK INTRA:                  -3.513
REMARK UNBOUND:                -3.869
REMARK SMILES CCCCCCCCCCCCCCCCCCCCCCCCCCCC(=O)[O-]
REMARK SMILES IDX 15 1 16 2 17 3 18 4 19 5 20 6 21 7 22 8 23 9 24 10 25 11
REMARK SMILES IDX 26 12 27 13 28 14 29 15 30 16 14 17 13 18 12 19 11 20 10 21
REMARK SMILES IDX 9 22 8 23 7 24 6 25 5 26 4 27 3 28 2 29 1 30
REMARK H PARENT
REMARK Flexibility Score: inf
ROOT
ATOM      1  C   UNL     1      16.052  -1.943  32.072  1.00  0.00     0.000 C 
ENDROOT
BRANCH   1   2
ATOM      2  C   UNL     1      16.923  -1.882  33.344  1.00  0.00     0.000 C 
BRANCH   2   3
ATOM      3  C   UNL     1      17.765  -3.144  33.624  1.00  0.00     0.000 C 
BRANCH   3   4
ATOM      4  C   UNL     1      18.938  -2.945  34.602  1.00  0.00     0.000 C 
BRANCH   4   5
ATOM      5  C   UNL     1      19.607  -4.269  35.005  1.00  0.00     0.000 C 
BRANCH   5   6
ATOM      6  C   UNL     1      19.212  -5.440  34.090  1.00  0.00     0.000 C 
BRANCH   6   7
ATOM      7  C   UNL     1      18.868  -6.720  34.867  1.00  0.00     0.000 C 
BRANCH   7   8
ATOM      8  C   UNL     1      18.531  -6.401  36.333  1.00  0.00     0.000 C 
BRANCH   8   9
ATOM      9  C   UNL     1      17.018  -6.481  36.621  1.00  0.00     0.000 C 
BRANCH   9  10
ATOM     10  C   UNL     1      16.265  -5.153  36.404  1.00  0.00     0.000 C 
BRANCH  10  11
ATOM     11  C   UNL     1      15.460  -5.093  35.090  1.00  0.00     0.000 C 
BRANCH  11  12
ATOM     12  C   UNL     1      15.140  -6.492  34.537  1.00  0.00     0.006 C 
BRANCH  12  13
ATOM     13  C   UNL     1      15.495  -6.623  33.049  1.00  0.00     0.053 C 
BRANCH  13  14
ATOM     14  C   UNL     1      15.866  -8.030  32.691  1.00  0.00     0.041 C 
ATOM     15  O   UNL     1      14.986  -8.931  32.656  1.00  0.00    -0.550 OA
ATOM     16  O   UNL     1      17.192  -8.353  32.432  1.00  0.00    -0.550 OA
ENDBRANCH  13  14
ENDBRANCH  12  13
ENDBRANCH  11  12
ENDBRANCH  10  11
ENDBRANCH   9  10
ENDBRANCH   8   9
ENDBRANCH   7   8
ENDBRANCH   6   7
ENDBRANCH   5   6
ENDBRANCH   4   5
ENDBRANCH   3   4
ENDBRANCH   2   3
ENDBRANCH   1   2
BRANCH   1  17
ATOM     17  C   UNL     1      15.615  -0.572  31.518  1.00  0.00     0.000 C 
BRANCH  17  18
ATOM     18  C   UNL     1      14.757  -0.636  30.239  1.00  0.00     0.000 C 
BRANCH  18  19
ATOM     19  C   UNL     1      13.484   0.234  30.262  1.00  0.00     0.000 C 
BRANCH  19  20
ATOM     20  C   UNL     1      13.250   1.085  29.001  1.00  0.00     0.000 C 
BRANCH  20  21
ATOM     21  C   UNL     1      14.467   1.100  28.059  1.00  0.00     0.000 C 
BRANCH  21  22
ATOM     22  C   UNL     1      14.366   2.189  26.978  1.00  0.00    -0.000 C 
BRANCH  22  23
ATOM     23  C   UNL     1      14.333   1.607  25.554  1.00  0.00    -0.000 C 
BRANCH  23  24
ATOM     24  C   UNL     1      13.046   1.971  24.790  1.00  0.00    -0.000 C 
BRANCH  24  25
ATOM     25  C   UNL     1      11.993   0.849  24.709  1.00  0.00    -0.000 C 
BRANCH  25  26
ATOM     26  C   UNL     1      11.366   0.518  26.076  1.00  0.00    -0.000 C 
BRANCH  26  27
ATOM     27  C   UNL     1      11.617  -0.937  26.505  1.00  0.00    -0.000 C 
BRANCH  27  28
ATOM     28  C   UNL     1      12.870  -1.541  25.849  1.00  0.00    -0.000 C 
BRANCH  28  29
ATOM     29  C   UNL     1      13.919  -1.905  26.906  1.00  0.00    -0.003 C 
ATOM     30  C   UNL     1      15.311  -2.007  26.289  1.00  0.00     0.004 C 
ENDBRANCH  28  29
ENDBRANCH  27  28
ENDBRANCH  26  27
ENDBRANCH  25  26
ENDBRANCH  24  25
ENDBRANCH  23  24
ENDBRANCH  22  23
ENDBRANCH  21  22
ENDBRANCH  20  21
ENDBRANCH  19  20
ENDBRANCH  18  19
ENDBRANCH  17  18
ENDBRANCH   1  17
TORSDOF 26
ENDMDL
MODEL 7
REMARK VINA RESULT:    -5.567      3.423      9.402
REMARK INTER + INTRA:         -17.898
REMARK INTER:                 -14.269
REMARK INTRA:                  -3.629
REMARK UNBOUND:                -3.869
REMARK SMILES CCCCCCCCCCCCCCCCCCCCCCCCCCCC(=O)[O-]
REMARK SMILES IDX 15 1 16 2 17 3 18 4 19 5 20 6 21 7 22 8 23 9 24 10 25 11
REMARK SMILES IDX 26 12 27 13 28 14 29 15 30 16 14 17 13 18 12 19 11 20 10 21
REMARK SMILES IDX 9 22 8 23 7 24 6 25 5 26 4 27 3 28 2 29 1 30
REMARK H PARENT
REMARK Flexibility Score: inf
ROOT
ATOM      1  C   UNL     1       9.514   4.318  21.363  1.00  0.00     0.000 C 
ENDROOT
BRANCH   1   2
ATOM      2  C   UNL     1      11.005   4.028  21.633  1.00  0.00     0.000 C 
BRANCH   2   3
ATOM      3  C   UNL     1      11.286   2.773  22.485  1.00  0.00     0.000 C 
BRANCH   3   4
ATOM      4  C   UNL     1      10.637   1.474  21.970  1.00  0.00     0.000 C 
BRANCH   4   5
ATOM      5  C   UNL     1      10.654   0.346  23.015  1.00  0.00     0.000 C 
BRANCH   5   6
ATOM      6  C   UNL     1      11.396   0.738  24.302  1.00  0.00     0.000 C 
BRANCH   6   7
ATOM      7  C   UNL     1      10.617   0.380  25.578  1.00  0.00     0.000 C 
BRANCH   7   8
ATOM      8  C   UNL     1      11.482  -0.454  26.536  1.00  0.00     0.000 C 
BRANCH   8   9
ATOM      9  C   UNL     1      12.645  -1.165  25.813  1.00  0.00     0.000 C 
BRANCH   9  10
ATOM     10  C   UNL     1      14.045  -0.727  26.291  1.00  0.00     0.000 C 
BRANCH  10  11
ATOM     11  C   UNL     1      14.199   0.795  26.480  1.00  0.00     0.000 C 
BRANCH  11  12
ATOM     12  C   UNL     1      14.402   1.183  27.955  1.00  0.00     0.006 C 
BRANCH  12  13
ATOM     13  C   UNL     1      14.579  -0.045  28.859  1.00  0.00     0.053 C 
BRANCH  13  14
ATOM     14  C   UNL     1      13.884   0.132  30.174  1.00  0.00     0.041 C 
ATOM     15  O   UNL     1      14.446  -0.226  31.244  1.00  0.00    -0.550 OA
ATOM     16  O   UNL     1      12.600   0.659  30.216  1.00  0.00    -0.550 OA
ENDBRANCH  13  14
ENDBRANCH  12  13
ENDBRANCH  11  12
ENDBRANCH  10  11
ENDBRANCH   9  10
ENDBRANCH   8   9
ENDBRANCH   7   8
ENDBRANCH   6   7
ENDBRANCH   5   6
ENDBRANCH   4   5
ENDBRANCH   3   4
ENDBRANCH   2   3
ENDBRANCH   1   2
BRANCH   1  17
ATOM     17  C   UNL     1       9.176   5.801  21.111  1.00  0.00     0.000 C 
BRANCH  17  18
ATOM     18  C   UNL     1       7.947   6.040  20.212  1.00  0.00     0.000 C 
BRANCH  18  19
ATOM     19  C   UNL     1       7.889   5.169  18.941  1.00  0.00     0.000 C 
BRANCH  19  20
ATOM     20  C   UNL     1       8.197   5.909  17.626  1.00  0.00     0.000 C 
BRANCH  20  21
ATOM     21  C   UNL     1       8.140   7.439  17.777  1.00  0.00     0.000 C 
BRANCH  21  22
ATOM     22  C   UNL     1       9.515   8.105  17.602  1.00  0.00    -0.000 C 
BRANCH  22  23
ATOM     23  C   UNL     1      10.636   7.084  17.341  1.00  0.00    -0.000 C 
BRANCH  23  24
ATOM     24  C   UNL     1      11.588   6.921  18.542  1.00  0.00    -0.000 C 
BRANCH  24  25
ATOM     25  C   UNL     1      12.124   5.495  18.764  1.00  0.00    -0.000 C 
BRANCH  25  26
ATOM     26  C   UNL     1      11.551   4.477  17.760  1.00  0.00    -0.000 C 
BRANCH  26  27
ATOM     27  C   UNL     1      10.989   3.221  18.447  1.00  0.00    -0.000 C 
BRANCH  27  28
ATOM     28  C   UNL     1       9.900   2.527  17.614  1.00  0.00    -0.000 C 
BRANCH  28  29
ATOM     29  C   UNL     1       9.010   1.648  18.500  1.00  0.00    -0.003 C 
ATOM     30  C   UNL     1       8.365   0.525  17.692  1.00  0.00     0.004 C 
ENDBRANCH  28  29
ENDBRANCH  27  28
ENDBRANCH  26  27
ENDBRANCH  25  26
ENDBRANCH  24  25
ENDBRANCH  23  24
ENDBRANCH  22  23
ENDBRANCH  21  22
ENDBRANCH  20  21
ENDBRANCH  19  20
ENDBRANCH  18  19
ENDBRANCH  17  18
ENDBRANCH   1  17
TORSDOF 26
ENDMDL
MODEL 8
REMARK VINA RESULT:    -5.436      1.532      4.631
REMARK INTER + INTRA:         -17.567
REMARK INTER:                 -13.866
REMARK INTRA:                  -3.701
REMARK UNBOUND:                -3.869
REMARK SMILES CCCCCCCCCCCCCCCCCCCCCCCCCCCC(=O)[O-]
REMARK SMILES IDX 15 1 16 2 17 3 18 4 19 5 20 6 21 7 22 8 23 9 24 10 25 11
REMARK SMILES IDX 26 12 27 13 28 14 29 15 30 16 14 17 13 18 12 19 11 20 10 21
REMARK SMILES IDX 9 22 8 23 7 24 6 25 5 26 4 27 3 28 2 29 1 30
REMARK H PARENT
REMARK Flexibility Score: inf
ROOT
ATOM      1  C   UNL     1      11.352  -0.139  26.083  1.00  0.00     0.000 C 
ENDROOT
BRANCH   1   2
ATOM      2  C   UNL     1      10.377   0.460  25.050  1.00  0.00     0.000 C 
BRANCH   2   3
ATOM      3  C   UNL     1      11.041   1.080  23.803  1.00  0.00     0.000 C 
BRANCH   3   4
ATOM      4  C   UNL     1      10.624   0.452  22.460  1.00  0.00     0.000 C 
BRANCH   4   5
ATOM      5  C   UNL     1      10.247   1.504  21.404  1.00  0.00     0.000 C 
BRANCH   5   6
ATOM      6  C   UNL     1      10.623   2.934  21.826  1.00  0.00     0.000 C 
BRANCH   6   7
ATOM      7  C   UNL     1      10.219   3.992  20.788  1.00  0.00     0.000 C 
BRANCH   7   8
ATOM      8  C   UNL     1       8.968   4.761  21.244  1.00  0.00     0.000 C 
BRANCH   8   9
ATOM      9  C   UNL     1       8.379   5.645  20.125  1.00  0.00     0.000 C 
BRANCH   9  10
ATOM     10  C   UNL     1       8.418   4.999  18.726  1.00  0.00     0.000 C 
BRANCH  10  11
ATOM     11  C   UNL     1       9.485   5.595  17.786  1.00  0.00     0.000 C 
BRANCH  11  12
ATOM     12  C   UNL     1      10.067   6.913  18.326  1.00  0.00     0.006 C 
BRANCH  12  13
ATOM     13  C   UNL     1      11.582   6.826  18.560  1.00  0.00     0.053 C 
BRANCH  13  14
ATOM     14  C   UNL     1      11.984   7.502  19.835  1.00  0.00     0.041 C 
ATOM     15  O   UNL     1      11.229   7.459  20.843  1.00  0.00    -0.550 OA
ATOM     16  O   UNL     1      13.177   8.209  19.899  1.00  0.00    -0.550 OA
ENDBRANCH  13  14
ENDBRANCH  12  13
ENDBRANCH  11  12
ENDBRANCH  10  11
ENDBRANCH   9  10
ENDBRANCH   8   9
ENDBRANCH   7   8
ENDBRANCH   6   7
ENDBRANCH   5   6
ENDBRANCH   4   5
ENDBRANCH   3   4
ENDBRANCH   2   3
ENDBRANCH   1   2
BRANCH   1  17
ATOM     17  C   UNL     1      12.555  -0.893  25.481  1.00  0.00     0.000 C 
BRANCH  17  18
ATOM     18  C   UNL     1      13.251  -1.876  26.443  1.00  0.00     0.000 C 
BRANCH  18  19
ATOM     19  C   UNL     1      14.792  -1.861  26.390  1.00  0.00     0.000 C 
BRANCH  19  20
ATOM     20  C   UNL     1      15.494  -2.526  27.588  1.00  0.00     0.000 C 
BRANCH  20  21
ATOM     21  C   UNL     1      14.546  -2.765  28.776  1.00  0.00     0.000 C 
BRANCH  21  22
ATOM     22  C   UNL     1      15.125  -2.260  30.108  1.00  0.00    -0.000 C 
BRANCH  22  23
ATOM     23  C   UNL     1      15.074  -0.727  30.231  1.00  0.00    -0.000 C 
BRANCH  23  24
ATOM     24  C   UNL     1      13.638  -0.171  30.181  1.00  0.00    -0.000 C 
BRANCH  24  25
ATOM     25  C   UNL     1      13.336   0.759  28.991  1.00  0.00    -0.000 C 
BRANCH  25  26
ATOM     26  C   UNL     1      14.600   1.154  28.205  1.00  0.00    -0.000 C 
BRANCH  26  27
ATOM     27  C   UNL     1      14.276   1.902  26.902  1.00  0.00    -0.000 C 
BRANCH  27  28
ATOM     28  C   UNL     1      15.295   1.619  25.786  1.00  0.00    -0.000 C 
BRANCH  28  29
ATOM     29  C   UNL     1      15.009   2.482  24.552  1.00  0.00    -0.003 C 
ATOM     30  C   UNL     1      13.761   3.336  24.754  1.00  0.00     0.004 C 
ENDBRANCH  28  29
ENDBRANCH  27  28
ENDBRANCH  26  27
ENDBRANCH  25  26
ENDBRANCH  24  25
ENDBRANCH  23  24
ENDBRANCH  22  23
ENDBRANCH  21  22
ENDBRANCH  20  21
ENDBRANCH  19  20
ENDBRANCH  18  19
ENDBRANCH  17  18
ENDBRANCH   1  17
TORSDOF 26
ENDMDL
MODEL 9
REMARK VINA RESULT:    -5.431      2.628      8.704
REMARK INTER + INTRA:         -17.554
REMARK INTER:                 -13.988
REMARK INTRA:                  -3.567
REMARK UNBOUND:                -3.869
REMARK SMILES CCCCCCCCCCCCCCCCCCCCCCCCCCCC(=O)[O-]
REMARK SMILES IDX 15 1 16 2 17 3 18 4 19 5 20 6 21 7 22 8 23 9 24 10 25 11
REMARK SMILES IDX 26 12 27 13 28 14 29 15 30 16 14 17 13 18 12 19 11 20 10 21
REMARK SMILES IDX 9 22 8 23 7 24 6 25 5 26 4 27 3 28 2 29 1 30
REMARK H PARENT
REMARK Flexibility Score: inf
ROOT
ATOM      1  C   UNL     1      10.260   2.737  21.292  1.00  0.00     0.000 C 
ENDROOT
BRANCH   1   2
ATOM      2  C   UNL     1      10.619   4.235  21.370  1.00  0.00     0.000 C 
BRANCH   2   3
ATOM      3  C   UNL     1      12.100   4.540  21.677  1.00  0.00     0.000 C 
BRANCH   3   4
ATOM      4  C   UNL     1      12.340   5.483  22.871  1.00  0.00     0.000 C 
BRANCH   4   5
ATOM      5  C   UNL     1      13.380   4.934  23.862  1.00  0.00     0.000 C 
BRANCH   5   6
ATOM      6  C   UNL     1      13.050   3.514  24.348  1.00  0.00     0.000 C 
BRANCH   6   7
ATOM      7  C   UNL     1      13.969   3.039  25.484  1.00  0.00     0.000 C 
BRANCH   7   8
ATOM      8  C   UNL     1      14.958   1.974  24.983  1.00  0.00     0.000 C 
BRANCH   8   9
ATOM      9  C   UNL     1      15.128   0.810  25.982  1.00  0.00     0.000 C 
BRANCH   9  10
ATOM     10  C   UNL     1      14.512   1.077  27.370  1.00  0.00     0.000 C 
BRANCH  10  11
ATOM     11  C   UNL     1      13.418   0.069  27.778  1.00  0.00     0.000 C 
BRANCH  11  12
ATOM     12  C   UNL     1      12.654  -0.487  26.564  1.00  0.00     0.006 C 
BRANCH  12  13
ATOM     13  C   UNL     1      11.201   0.004  26.518  1.00  0.00     0.053 C 
BRANCH  13  14
ATOM     14  C   UNL     1      10.767   0.319  25.119  1.00  0.00     0.041 C 
ATOM     15  O   UNL     1       9.541   0.384  24.832  1.00  0.00    -0.550 OA
ATOM     16  O   UNL     1      11.716   0.503  24.123  1.00  0.00    -0.550 OA
ENDBRANCH  13  14
ENDBRANCH  12  13
ENDBRANCH  11  12
ENDBRANCH  10  11
ENDBRANCH   9  10
ENDBRANCH   8   9
ENDBRANCH   7   8
ENDBRANCH   6   7
ENDBRANCH   5   6
ENDBRANCH   4   5
ENDBRANCH   3   4
ENDBRANCH   2   3
ENDBRANCH   1   2
BRANCH   1  17
ATOM     17  C   UNL     1       9.891   2.229  19.884  1.00  0.00     0.000 C 
BRANCH  17  18
ATOM     18  C   UNL     1      10.507   3.036  18.724  1.00  0.00     0.000 C 
BRANCH  18  19
ATOM     19  C   UNL     1       9.530   3.982  17.996  1.00  0.00     0.000 C 
BRANCH  19  20
ATOM     20  C   UNL     1       8.187   4.211  18.712  1.00  0.00     0.000 C 
BRANCH  20  21
ATOM     21  C   UNL     1       7.655   5.644  18.538  1.00  0.00     0.000 C 
BRANCH  21  22
ATOM     22  C   UNL     1       8.060   6.267  17.192  1.00  0.00    -0.000 C 
BRANCH  22  23
ATOM     23  C   UNL     1       8.509   7.732  17.330  1.00  0.00    -0.000 C 
BRANCH  23  24
ATOM     24  C   UNL     1       9.784   7.888  18.181  1.00  0.00    -0.000 C 
BRANCH  24  25
ATOM     25  C   UNL     1      11.012   7.110  17.671  1.00  0.00    -0.000 C 
BRANCH  25  26
ATOM     26  C   UNL     1      12.000   6.748  18.796  1.00  0.00    -0.000 C 
BRANCH  26  27
ATOM     27  C   UNL     1      11.997   7.776  19.939  1.00  0.00    -0.000 C 
BRANCH  27  28
ATOM     28  C   UNL     1      13.412   8.237  20.325  1.00  0.00    -0.000 C 
BRANCH  28  29
ATOM     29  C   UNL     1      13.438   8.782  21.757  1.00  0.00    -0.003 C 
ATOM     30  C   UNL     1      12.087   9.375  22.146  1.00  0.00     0.004 C 
ENDBRANCH  28  29
ENDBRANCH  27  28
ENDBRANCH  26  27
ENDBRANCH  25  26
ENDBRANCH  24  25
ENDBRANCH  23  24
ENDBRANCH  22  23
ENDBRANCH  21  22
ENDBRANCH  20  21
ENDBRANCH  19  20
ENDBRANCH  18  19
ENDBRANCH  17  18
ENDBRANCH   1  17
TORSDOF 26
ENDMDL
