MODEL 1
REMARK VINA RESULT:    -4.165      0.000      0.000
REMARK INTER + INTRA:          -5.905
REMARK INTER:                  -5.625
REMARK INTRA:                  -0.280
REMARK UNBOUND:                -0.280
REMARK SMILES CCCCCCCC=O
REMARK SMILES IDX 5 1 4 2 3 3 2 4 1 5 6 6 7 7 8 8 9 9
REMARK H PARENT
REMARK Flexibility Score: inf
ROOT
ATOM      1  C   UNL     1      15.848  36.646  10.929  1.00  0.00     0.000 C 
ENDROOT
BRANCH   1   2
ATOM      2  C   UNL     1      15.899  36.052  12.349  1.00  0.00     0.000 C 
BRANCH   2   3
ATOM      3  C   UNL     1      17.007  34.999  12.519  1.00  0.00    -0.000 C 
BRANCH   3   4
ATOM      4  C   UNL     1      16.603  33.869  13.480  1.00  0.00    -0.003 C 
ATOM      5  C   UNL     1      15.656  34.338  14.583  1.00  0.00     0.004 C 
ENDBRANCH   3   4
ENDBRANCH   2   3
ENDBRANCH   1   2
BRANCH   1   6
ATOM      6  C   UNL     1      17.193  36.666  10.172  1.00  0.00     0.008 C 
BRANCH   6   7
ATOM      7  C   UNL     1      17.188  35.910   8.833  1.00  0.00     0.072 C 
BRANCH   7   8
ATOM      8  C   UNL     1      18.343  34.960   8.700  1.00  0.00     0.224 C 
ATOM      9  O   UNL     1      18.976  34.632   9.690  1.00  0.00    -0.303 OA
ENDBRANCH   7   8
ENDBRANCH   6   7
ENDBRANCH   1   6
TORSDOF 6
ENDMDL
MODEL 2
REMARK VINA RESULT:    -4.075      2.143      2.791
REMARK INTER + INTRA:          -5.784
REMARK INTER:                  -5.635
REMARK INTRA:                  -0.149
REMARK UNBOUND:                -0.280
REMARK SMILES CCCCCCCC=O
REMARK SMILES IDX 5 1 4 2 3 3 2 4 1 5 6 6 7 7 8 8 9 9
REMARK H PARENT
REMARK Flexibility Score: inf
ROOT
ATOM      1  C   UNL     1      18.205  35.107  10.211  1.00  0.00     0.000 C 
ENDROOT
BRANCH   1   2
ATOM      2  C   UNL     1      18.340  34.737  11.699  1.00  0.00     0.000 C 
BRANCH   2   3
ATOM      3  C   UNL     1      17.077  35.062  12.515  1.00  0.00    -0.000 C 
BRANCH   3   4
ATOM      4  C   UNL     1      16.699  33.935  13.489  1.00  0.00    -0.003 C 
ATOM      5  C   UNL     1      15.677  34.374  14.537  1.00  0.00     0.004 C 
ENDBRANCH   3   4
ENDBRANCH   2   3
ENDBRANCH   1   2
BRANCH   1   6
ATOM      6  C   UNL     1      19.314  34.555   9.290  1.00  0.00     0.008 C 
BRANCH   6   7
ATOM      7  C   UNL     1      20.552  34.015  10.026  1.00  0.00     0.072 C 
BRANCH   7   8
ATOM      8  C   UNL     1      20.857  32.587   9.676  1.00  0.00     0.224 C 
ATOM      9  O   UNL     1      21.571  31.922  10.408  1.00  0.00    -0.303 OA
ENDBRANCH   7   8
ENDBRANCH   6   7
ENDBRANCH   1   6
TORSDOF 6
ENDMDL
MODEL 3
REMARK VINA RESULT:    -4.048      1.419      2.001
REMARK INTER + INTRA:          -5.747
REMARK INTER:                  -5.433
REMARK INTRA:                  -0.315
REMARK UNBOUND:                -0.280
REMARK SMILES CCCCCCCC=O
REMARK SMILES IDX 5 1 4 2 3 3 2 4 1 5 6 6 7 7 8 8 9 9
REMARK H PARENT
REMARK Flexibility Score: inf
ROOT
ATOM      1  C   UNL     1      18.601  34.742  11.533  1.00  0.00     0.000 C 
ENDROOT
BRANCH   1   2
ATOM      2  C   UNL     1      17.495  35.814  11.525  1.00  0.00     0.000 C 
BRANCH   2   3
ATOM      3  C   UNL     1      16.287  35.436  12.398  1.00  0.00    -0.000 C 
BRANCH   3   4
ATOM      4  C   UNL     1      16.622  34.344  13.426  1.00  0.00    -0.003 C 
ATOM      5  C   UNL     1      15.688  34.359  14.635  1.00  0.00     0.004 C 
ENDBRANCH   3   4
ENDBRANCH   2   3
ENDBRANCH   1   2
BRANCH   1   6
ATOM      6  C   UNL     1      19.173  34.373  10.148  1.00  0.00     0.008 C 
BRANCH   6   7
ATOM      7  C   UNL     1      18.201  34.578   8.975  1.00  0.00     0.072 C 
BRANCH   7   8
ATOM      8  C   UNL     1      18.756  35.485   7.915  1.00  0.00     0.224 C 
ATOM      9  O   UNL     1      18.627  36.694   8.021  1.00  0.00    -0.303 OA
ENDBRANCH   7   8
ENDBRANCH   6   7
ENDBRANCH   1   6
TORSDOF 6
ENDMDL
MODEL 4
REMARK VINA RESULT:    -3.951      2.489      3.670
REMARK INTER + INTRA:          -5.618
REMARK INTER:                  -5.389
REMARK INTRA:                  -0.228
REMARK UNBOUND:                -0.280
REMARK SMILES CCCCCCCC=O
REMARK SMILES IDX 5 1 4 2 3 3 2 4 1 5 6 6 7 7 8 8 9 9
REMARK H PARENT
REMARK Flexibility Score: inf
ROOT
ATOM      1  C   UNL     1      18.427  34.588   9.904  1.00  0.00     0.000 C 
ENDROOT
BRANCH   1   2
ATOM      2  C   UNL     1      18.566  34.806  11.422  1.00  0.00     0.000 C 
BRANCH   2   3
ATOM      3  C   UNL     1      17.345  35.506  12.042  1.00  0.00    -0.000 C 
BRANCH   3   4
ATOM      4  C   UNL     1      16.732  36.558  11.104  1.00  0.00    -0.003 C 
ATOM      5  C   UNL     1      15.465  37.195  11.674  1.00  0.00     0.004 C 
ENDBRANCH   3   4
ENDBRANCH   2   3
ENDBRANCH   1   2
BRANCH   1   6
ATOM      6  C   UNL     1      19.609  33.858   9.230  1.00  0.00     0.008 C 
BRANCH   6   7
ATOM      7  C   UNL     1      20.884  33.774  10.085  1.00  0.00     0.072 C 
BRANCH   7   8
ATOM      8  C   UNL     1      21.245  32.363  10.449  1.00  0.00     0.224 C 
ATOM      9  O   UNL     1      21.627  32.106  11.579  1.00  0.00    -0.303 OA
ENDBRANCH   7   8
ENDBRANCH   6   7
ENDBRANCH   1   6
TORSDOF 6
ENDMDL
MODEL 5
REMARK VINA RESULT:    -3.916      1.800      4.441
REMARK INTER + INTRA:          -5.570
REMARK INTER:                  -5.287
REMARK INTRA:                  -0.283
REMARK UNBOUND:                -0.280
REMARK SMILES CCCCCCCC=O
REMARK SMILES IDX 5 1 4 2 3 3 2 4 1 5 6 6 7 7 8 8 9 9
REMARK H PARENT
REMARK Flexibility Score: inf
ROOT
ATOM      1  C   UNL     1      16.726  36.992  10.567  1.00  0.00     0.000 C 
ENDROOT
BRANCH   1   2
ATOM      2  C   UNL     1      17.091  35.895   9.550  1.00  0.00     0.000 C 
BRANCH   2   3
ATOM      3  C   UNL     1      18.159  36.346   8.539  1.00  0.00    -0.000 C 
BRANCH   3   4
ATOM      4  C   UNL     1      19.009  35.175   8.021  1.00  0.00    -0.003 C 
ATOM      5  C   UNL     1      19.401  34.192   9.123  1.00  0.00     0.004 C 
ENDBRANCH   3   4
ENDBRANCH   2   3
ENDBRANCH   1   2
BRANCH   1   6
ATOM      6  C   UNL     1      16.413  36.493  11.994  1.00  0.00     0.008 C 
BRANCH   6   7
ATOM      7  C   UNL     1      17.122  35.187  12.388  1.00  0.00     0.072 C 
BRANCH   7   8
ATOM      8  C   UNL     1      16.411  34.452  13.487  1.00  0.00     0.224 C 
ATOM      9  O   UNL     1      16.387  33.232  13.485  1.00  0.00    -0.303 OA
ENDBRANCH   7   8
ENDBRANCH   6   7
ENDBRANCH   1   6
TORSDOF 6
ENDMDL
MODEL 6
REMARK VINA RESULT:    -3.857      3.112      4.562
REMARK INTER + INTRA:          -5.490
REMARK INTER:                  -5.251
REMARK INTRA:                  -0.239
REMARK UNBOUND:                -0.280
REMARK SMILES CCCCCCCC=O
REMARK SMILES IDX 5 1 4 2 3 3 2 4 1 5 6 6 7 7 8 8 9 9
REMARK H PARENT
REMARK Flexibility Score: inf
ROOT
ATOM      1  C   UNL     1      18.229  34.857  10.155  1.00  0.00     0.000 C 
ENDROOT
BRANCH   1   2
ATOM      2  C   UNL     1      19.414  34.108   9.517  1.00  0.00     0.000 C 
BRANCH   2   3
ATOM      3  C   UNL     1      20.598  33.928  10.481  1.00  0.00    -0.000 C 
BRANCH   3   4
ATOM      4  C   UNL     1      21.123  32.483  10.503  1.00  0.00    -0.003 C 
ATOM      5  C   UNL     1      21.558  32.030  11.896  1.00  0.00     0.004 C 
ENDBRANCH   3   4
ENDBRANCH   2   3
ENDBRANCH   1   2
BRANCH   1   6
ATOM      6  C   UNL     1      18.281  34.988  11.693  1.00  0.00     0.008 C 
BRANCH   6   7
ATOM      7  C   UNL     1      16.983  35.500  12.338  1.00  0.00     0.072 C 
BRANCH   7   8
ATOM      8  C   UNL     1      16.224  36.439  11.446  1.00  0.00     0.224 C 
ATOM      9  O   UNL     1      15.621  37.383  11.931  1.00  0.00    -0.303 OA
ENDBRANCH   7   8
ENDBRANCH   6   7
ENDBRANCH   1   6
TORSDOF 6
ENDMDL
MODEL 7
REMARK VINA RESULT:    -3.765      2.305      4.527
REMARK INTER + INTRA:          -5.366
REMARK INTER:                  -5.098
REMARK INTRA:                  -0.268
REMARK UNBOUND:                -0.280
REMARK SMILES CCCCCCCC=O
REMARK SMILES IDX 5 1 4 2 3 3 2 4 1 5 6 6 7 7 8 8 9 9
REMARK H PARENT
REMARK Flexibility Score: inf
ROOT
ATOM      1  C   UNL     1      17.463  35.949   8.604  1.00  0.00     0.000 C 
ENDROOT
BRANCH   1   2
ATOM      2  C   UNL     1      18.801  35.494   7.992  1.00  0.00     0.000 C 
BRANCH   2   3
ATOM      3  C   UNL     1      19.059  33.988   8.169  1.00  0.00    -0.000 C 
BRANCH   3   4
ATOM      4  C   UNL     1      20.458  33.693   8.733  1.00  0.00    -0.003 C 
ATOM      5  C   UNL     1      20.566  33.976  10.231  1.00  0.00     0.004 C 
ENDBRANCH   3   4
ENDBRANCH   2   3
ENDBRANCH   1   2
BRANCH   1   6
ATOM      6  C   UNL     1      17.415  35.971  10.147  1.00  0.00     0.008 C 
BRANCH   6   7
ATOM      7  C   UNL     1      16.437  36.996  10.745  1.00  0.00     0.072 C 
BRANCH   7   8
ATOM      8  C   UNL     1      15.541  36.399  11.791  1.00  0.00     0.224 C 
ATOM      9  O   UNL     1      15.979  35.553  12.555  1.00  0.00    -0.303 OA
ENDBRANCH   7   8
ENDBRANCH   6   7
ENDBRANCH   1   6
TORSDOF 6
ENDMDL
MODEL 8
REMARK VINA RESULT:    -3.723     12.563     15.474
REMARK INTER + INTRA:          -5.309
REMARK INTER:                  -5.194
REMARK INTRA:                  -0.115
REMARK UNBOUND:                -0.280
REMARK SMILES CCCCCCCC=O
REMARK SMILES IDX 5 1 4 2 3 3 2 4 1 5 6 6 7 7 8 8 9 9
REMARK H PARENT
REMARK Flexibility Score: inf
ROOT
ATOM      1  C   UNL     1      17.419  33.742  27.182  1.00  0.00     0.000 C 
ENDROOT
BRANCH   1   2
ATOM      2  C   UNL     1      17.803  33.660  25.693  1.00  0.00     0.000 C 
BRANCH   2   3
ATOM      3  C   UNL     1      16.979  34.610  24.808  1.00  0.00    -0.000 C 
BRANCH   3   4
ATOM      4  C   UNL     1      17.849  35.673  24.118  1.00  0.00    -0.003 C 
ATOM      5  C   UNL     1      17.103  36.429  23.019  1.00  0.00     0.004 C 
ENDBRANCH   3   4
ENDBRANCH   2   3
ENDBRANCH   1   2
BRANCH   1   6
ATOM      6  C   UNL     1      18.229  32.827  28.125  1.00  0.00     0.008 C 
BRANCH   6   7
ATOM      7  C   UNL     1      19.064  31.749  27.414  1.00  0.00     0.072 C 
BRANCH   7   8
ATOM      8  C   UNL     1      20.515  32.120  27.304  1.00  0.00     0.224 C 
ATOM      9  O   UNL     1      21.034  32.220  26.204  1.00  0.00    -0.303 OA
ENDBRANCH   7   8
ENDBRANCH   6   7
ENDBRANCH   1   6
TORSDOF 6
ENDMDL
MODEL 9
REMARK VINA RESULT:    -3.676     13.728     15.332
REMARK INTER + INTRA:          -5.245
REMARK INTER:                  -4.792
REMARK INTRA:                  -0.454
REMARK UNBOUND:                -0.280
REMARK SMILES CCCCCCCC=O
REMARK SMILES IDX 5 1 4 2 3 3 2 4 1 5 6 6 7 7 8 8 9 9
REMARK H PARENT
REMARK Flexibility Score: inf
ROOT
ATOM      1  C   UNL     1      17.837  34.746  25.091  1.00  0.00     0.000 C 
ENDROOT
BRANCH   1   2
ATOM      2  C   UNL     1      16.561  35.266  24.403  1.00  0.00     0.000 C 
BRANCH   2   3
ATOM      3  C   UNL     1      15.280  34.604  24.937  1.00  0.00    -0.000 C 
BRANCH   3   4
ATOM      4  C   UNL     1      14.575  35.460  26.001  1.00  0.00    -0.003 C 
ATOM      5  C   UNL     1      14.497  34.772  27.363  1.00  0.00     0.004 C 
ENDBRANCH   3   4
ENDBRANCH   2   3
ENDBRANCH   1   2
BRANCH   1   6
ATOM      6  C   UNL     1      17.716  33.352  25.742  1.00  0.00     0.008 C 
BRANCH   6   7
ATOM      7  C   UNL     1      17.934  33.333  27.264  1.00  0.00     0.072 C 
BRANCH   7   8
ATOM      8  C   UNL     1      18.968  32.330  27.688  1.00  0.00     0.224 C 
ATOM      9  O   UNL     1      19.970  32.168  27.011  1.00  0.00    -0.303 OA
ENDBRANCH   7   8
ENDBRANCH   6   7
ENDBRANCH   1   6
TORSDOF 6
ENDMDL
