MODEL 1
REMARK VINA RESULT:    -5.535      0.000      0.000
REMARK INTER + INTRA:          -6.323
REMARK INTER:                  -6.182
REMARK INTRA:                  -0.141
REMARK UNBOUND:                -0.141
REMARK SMILES COc1cc2ccc(=O)oc2cc1OC
REMARK SMILES IDX 3 1 13 2 12 3 11 4 5 5 4 6 6 7 7 8 8 9 9 10 10 11 2 12 1 13
REMARK SMILES IDX 14 14 15 15
REMARK H PARENT
REMARK Flexibility Score: inf
ROOT
ATOM      1  C   UNL     1      -5.555   1.638  -5.461  1.00  0.00     0.161 A 
ATOM      2  C   UNL     1      -6.302   0.986  -4.467  1.00  0.00     0.164 A 
ATOM      3  C   UNL     1      -5.882  -0.271  -3.986  1.00  0.00     0.098 A 
ATOM      4  C   UNL     1      -4.728  -0.871  -4.493  1.00  0.00     0.142 A 
ATOM      5  C   UNL     1      -3.977  -0.218  -5.491  1.00  0.00     0.022 A 
ATOM      6  C   UNL     1      -4.389   1.031  -5.972  1.00  0.00     0.062 A 
ATOM      7  C   UNL     1      -2.825  -0.845  -5.977  1.00  0.00     0.019 A 
ATOM      8  C   UNL     1      -2.456  -2.089  -5.468  1.00  0.00     0.094 A 
ATOM      9  C   UNL     1      -3.249  -2.679  -4.478  1.00  0.00     0.336 A 
ATOM     10  O   UNL     1      -2.933  -3.800  -4.004  1.00  0.00    -0.246 OA
ATOM     11  O   UNL     1      -4.340  -2.059  -4.033  1.00  0.00    -0.423 OA
ENDROOT
BRANCH   1  12
ATOM     12  O   UNL     1      -6.002   2.889  -5.916  1.00  0.00    -0.493 OA
ATOM     13  C   UNL     1      -6.730   3.097  -7.123  1.00  0.00     0.278 C 
ENDBRANCH   1  12
BRANCH   2  14
ATOM     14  O   UNL     1      -7.458   1.618  -3.980  1.00  0.00    -0.493 OA
ATOM     15  C   UNL     1      -8.770   1.407  -4.491  1.00  0.00     0.278 C 
ENDBRANCH   2  14
TORSDOF 2
ENDMDL
MODEL 2
REMARK VINA RESULT:    -5.490      2.461      6.533
REMARK INTER + INTRA:          -6.273
REMARK INTER:                  -6.120
REMARK INTRA:                  -0.152
REMARK UNBOUND:                -0.141
REMARK SMILES COc1cc2ccc(=O)oc2cc1OC
REMARK SMILES IDX 3 1 13 2 12 3 11 4 5 5 4 6 6 7 7 8 8 9 9 10 10 11 2 12 1 13
REMARK SMILES IDX 14 14 15 15
REMARK H PARENT
REMARK Flexibility Score: inf
ROOT
ATOM      1  C   UNL     1      -1.476  -4.524  -5.740  1.00  0.00     0.161 A 
ATOM      2  C   UNL     1      -2.035  -4.684  -4.462  1.00  0.00     0.164 A 
ATOM      3  C   UNL     1      -2.859  -3.673  -3.927  1.00  0.00     0.098 A 
ATOM      4  C   UNL     1      -3.122  -2.514  -4.661  1.00  0.00     0.142 A 
ATOM      5  C   UNL     1      -2.561  -2.353  -5.944  1.00  0.00     0.022 A 
ATOM      6  C   UNL     1      -1.743  -3.354  -6.481  1.00  0.00     0.062 A 
ATOM      7  C   UNL     1      -2.844  -1.181  -6.653  1.00  0.00     0.019 A 
ATOM      8  C   UNL     1      -3.665  -0.212  -6.076  1.00  0.00     0.094 A 
ATOM      9  C   UNL     1      -4.186  -0.440  -4.799  1.00  0.00     0.336 A 
ATOM     10  O   UNL     1      -4.930   0.421  -4.261  1.00  0.00    -0.246 OA
ATOM     11  O   UNL     1      -3.901  -1.564  -4.146  1.00  0.00    -0.423 OA
ENDROOT
BRANCH   1  12
ATOM     12  O   UNL     1      -0.661  -5.552  -6.242  1.00  0.00    -0.493 OA
ATOM     13  C   UNL     1       0.759  -5.481  -6.343  1.00  0.00     0.278 C 
ENDBRANCH   1  12
BRANCH   2  14
ATOM     14  O   UNL     1      -1.750  -5.861  -3.752  1.00  0.00    -0.493 OA
ATOM     15  C   UNL     1      -0.695  -5.998  -2.806  1.00  0.00     0.278 C 
ENDBRANCH   2  14
TORSDOF 2
ENDMDL
MODEL 3
REMARK VINA RESULT:    -5.479      1.833      2.496
REMARK INTER + INTRA:          -6.260
REMARK INTER:                  -6.151
REMARK INTRA:                  -0.109
REMARK UNBOUND:                -0.141
REMARK SMILES COc1cc2ccc(=O)oc2cc1OC
REMARK SMILES IDX 3 1 13 2 12 3 11 4 5 5 4 6 6 7 7 8 8 9 9 10 10 11 2 12 1 13
REMARK SMILES IDX 14 14 15 15
REMARK H PARENT
REMARK Flexibility Score: inf
ROOT
ATOM      1  C   UNL     1      -3.759  -0.106  -5.412  1.00  0.00     0.161 A 
ATOM      2  C   UNL     1      -4.744  -0.459  -4.475  1.00  0.00     0.164 A 
ATOM      3  C   UNL     1      -4.871  -1.802  -4.065  1.00  0.00     0.098 A 
ATOM      4  C   UNL     1      -4.023  -2.783  -4.584  1.00  0.00     0.142 A 
ATOM      5  C   UNL     1      -3.035  -2.429  -5.525  1.00  0.00     0.022 A 
ATOM      6  C   UNL     1      -2.903  -1.097  -5.936  1.00  0.00     0.062 A 
ATOM      7  C   UNL     1      -2.201  -3.435  -6.026  1.00  0.00     0.019 A 
ATOM      8  C   UNL     1      -2.371  -4.747  -5.587  1.00  0.00     0.094 A 
ATOM      9  C   UNL     1      -3.373  -5.024  -4.652  1.00  0.00     0.336 A 
ATOM     10  O   UNL     1      -3.542  -6.202  -4.241  1.00  0.00    -0.246 OA
ATOM     11  O   UNL     1      -4.152  -4.048  -4.191  1.00  0.00    -0.423 OA
ENDROOT
BRANCH   1  12
ATOM     12  O   UNL     1      -3.661   1.240  -5.798  1.00  0.00    -0.493 OA
ATOM     13  C   UNL     1      -3.091   1.690  -7.024  1.00  0.00     0.278 C 
ENDBRANCH   1  12
BRANCH   2  14
ATOM     14  O   UNL     1      -5.579   0.552  -3.974  1.00  0.00    -0.493 OA
ATOM     15  C   UNL     1      -6.990   0.437  -3.830  1.00  0.00     0.278 C 
ENDBRANCH   2  14
TORSDOF 2
ENDMDL
MODEL 4
REMARK VINA RESULT:    -5.378      1.603      3.060
REMARK INTER + INTRA:          -6.148
REMARK INTER:                  -6.009
REMARK INTRA:                  -0.138
REMARK UNBOUND:                -0.141
REMARK SMILES COc1cc2ccc(=O)oc2cc1OC
REMARK SMILES IDX 3 1 13 2 12 3 11 4 5 5 4 6 6 7 7 8 8 9 9 10 10 11 2 12 1 13
REMARK SMILES IDX 14 14 15 15
REMARK H PARENT
REMARK Flexibility Score: inf
ROOT
ATOM      1  C   UNL     1      -5.451  -0.507  -4.282  1.00  0.00     0.161 A 
ATOM      2  C   UNL     1      -4.502   0.211  -5.027  1.00  0.00     0.164 A 
ATOM      3  C   UNL     1      -3.362  -0.448  -5.530  1.00  0.00     0.098 A 
ATOM      4  C   UNL     1      -3.171  -1.811  -5.291  1.00  0.00     0.142 A 
ATOM      5  C   UNL     1      -4.123  -2.532  -4.542  1.00  0.00     0.022 A 
ATOM      6  C   UNL     1      -5.258  -1.883  -4.041  1.00  0.00     0.062 A 
ATOM      7  C   UNL     1      -3.903  -3.896  -4.321  1.00  0.00     0.019 A 
ATOM      8  C   UNL     1      -2.758  -4.498  -4.840  1.00  0.00     0.094 A 
ATOM      9  C   UNL     1      -1.856  -3.720  -5.573  1.00  0.00     0.336 A 
ATOM     10  O   UNL     1      -0.817  -4.244  -6.051  1.00  0.00    -0.246 OA
ATOM     11  O   UNL     1      -2.090  -2.425  -5.769  1.00  0.00    -0.423 OA
ENDROOT
BRANCH   1  12
ATOM     12  O   UNL     1      -6.575   0.182  -3.797  1.00  0.00    -0.493 OA
ATOM     13  C   UNL     1      -7.921  -0.118  -4.150  1.00  0.00     0.278 C 
ENDBRANCH   1  12
BRANCH   2  14
ATOM     14  O   UNL     1      -4.725   1.579  -5.248  1.00  0.00    -0.493 OA
ATOM     15  C   UNL     1      -5.372   2.117  -6.397  1.00  0.00     0.278 C 
ENDBRANCH   2  14
TORSDOF 2
ENDMDL
MODEL 5
REMARK VINA RESULT:    -5.375      1.779      6.040
REMARK INTER + INTRA:          -6.144
REMARK INTER:                  -6.103
REMARK INTRA:                  -0.041
REMARK UNBOUND:                -0.141
REMARK SMILES COc1cc2ccc(=O)oc2cc1OC
REMARK SMILES IDX 3 1 13 2 12 3 11 4 5 5 4 6 6 7 7 8 8 9 9 10 10 11 2 12 1 13
REMARK SMILES IDX 14 14 15 15
REMARK H PARENT
REMARK Flexibility Score: inf
ROOT
ATOM      1  C   UNL     1      -3.356  -3.764  -4.661  1.00  0.00     0.161 A 
ATOM      2  C   UNL     1      -2.399  -2.946  -5.284  1.00  0.00     0.164 A 
ATOM      3  C   UNL     1      -2.647  -1.566  -5.432  1.00  0.00     0.098 A 
ATOM      4  C   UNL     1      -3.838  -1.008  -4.962  1.00  0.00     0.142 A 
ATOM      5  C   UNL     1      -4.799  -1.828  -4.337  1.00  0.00     0.022 A 
ATOM      6  C   UNL     1      -4.558  -3.199  -4.187  1.00  0.00     0.062 A 
ATOM      7  C   UNL     1      -5.981  -1.238  -3.877  1.00  0.00     0.019 A 
ATOM      8  C   UNL     1      -6.175   0.132  -4.049  1.00  0.00     0.094 A 
ATOM      9  C   UNL     1      -5.178   0.883  -4.679  1.00  0.00     0.336 A 
ATOM     10  O   UNL     1      -5.333   2.121  -4.844  1.00  0.00    -0.246 OA
ATOM     11  O   UNL     1      -4.063   0.297  -5.107  1.00  0.00    -0.423 OA
ENDROOT
BRANCH   1  12
ATOM     12  O   UNL     1      -3.076  -5.133  -4.531  1.00  0.00    -0.493 OA
ATOM     13  C   UNL     1      -4.063  -6.161  -4.500  1.00  0.00     0.278 C 
ENDBRANCH   1  12
BRANCH   2  14
ATOM     14  O   UNL     1      -1.214  -3.540  -5.745  1.00  0.00    -0.493 OA
ATOM     15  C   UNL     1      -1.080  -4.218  -6.990  1.00  0.00     0.278 C 
ENDBRANCH   2  14
TORSDOF 2
ENDMDL
MODEL 6
REMARK VINA RESULT:    -5.268      1.397      5.244
REMARK INTER + INTRA:          -6.025
REMARK INTER:                  -5.866
REMARK INTRA:                  -0.159
REMARK UNBOUND:                -0.141
REMARK SMILES COc1cc2ccc(=O)oc2cc1OC
REMARK SMILES IDX 3 1 13 2 12 3 11 4 5 5 4 6 6 7 7 8 8 9 9 10 10 11 2 12 1 13
REMARK SMILES IDX 14 14 15 15
REMARK H PARENT
REMARK Flexibility Score: inf
ROOT
ATOM      1  C   UNL     1      -2.752  -2.407  -5.486  1.00  0.00     0.161 A 
ATOM      2  C   UNL     1      -3.675  -2.940  -4.571  1.00  0.00     0.164 A 
ATOM      3  C   UNL     1      -4.751  -2.148  -4.119  1.00  0.00     0.098 A 
ATOM      4  C   UNL     1      -4.904  -0.837  -4.577  1.00  0.00     0.142 A 
ATOM      5  C   UNL     1      -3.978  -0.301  -5.495  1.00  0.00     0.022 A 
ATOM      6  C   UNL     1      -2.908  -1.083  -5.947  1.00  0.00     0.062 A 
ATOM      7  C   UNL     1      -4.160   1.015  -5.933  1.00  0.00     0.019 A 
ATOM      8  C   UNL     1      -5.240   1.753  -5.454  1.00  0.00     0.094 A 
ATOM      9  C   UNL     1      -6.118   1.157  -4.544  1.00  0.00     0.336 A 
ATOM     10  O   UNL     1      -7.101   1.806  -4.100  1.00  0.00    -0.246 OA
ATOM     11  O   UNL     1      -5.923  -0.097  -4.143  1.00  0.00    -0.423 OA
ENDROOT
BRANCH   1  12
ATOM     12  O   UNL     1      -1.694  -3.223  -5.914  1.00  0.00    -0.493 OA
ATOM     13  C   UNL     1      -1.691  -3.975  -7.125  1.00  0.00     0.278 C 
ENDBRANCH   1  12
BRANCH   2  14
ATOM     14  O   UNL     1      -3.491  -4.261  -4.133  1.00  0.00    -0.493 OA
ATOM     15  C   UNL     1      -4.209  -5.385  -4.630  1.00  0.00     0.278 C 
ENDBRANCH   2  14
TORSDOF 2
ENDMDL
MODEL 7
REMARK VINA RESULT:    -5.266      1.774      3.204
REMARK INTER + INTRA:          -6.022
REMARK INTER:                  -5.923
REMARK INTRA:                  -0.099
REMARK UNBOUND:                -0.141
REMARK SMILES COc1cc2ccc(=O)oc2cc1OC
REMARK SMILES IDX 3 1 13 2 12 3 11 4 5 5 4 6 6 7 7 8 8 9 9 10 10 11 2 12 1 13
REMARK SMILES IDX 14 14 15 15
REMARK H PARENT
REMARK Flexibility Score: inf
ROOT
ATOM      1  C   UNL     1      -8.256   1.939  -4.556  1.00  0.00     0.161 A 
ATOM      2  C   UNL     1      -7.188   2.773  -4.924  1.00  0.00     0.164 A 
ATOM      3  C   UNL     1      -5.881   2.249  -4.989  1.00  0.00     0.098 A 
ATOM      4  C   UNL     1      -5.643   0.905  -4.692  1.00  0.00     0.142 A 
ATOM      5  C   UNL     1      -6.714   0.067  -4.323  1.00  0.00     0.022 A 
ATOM      6  C   UNL     1      -8.015   0.582  -4.256  1.00  0.00     0.062 A 
ATOM      7  C   UNL     1      -6.442  -1.274  -4.031  1.00  0.00     0.019 A 
ATOM      8  C   UNL     1      -5.131  -1.740  -4.111  1.00  0.00     0.094 A 
ATOM      9  C   UNL     1      -4.118  -0.850  -4.484  1.00  0.00     0.336 A 
ATOM     10  O   UNL     1      -2.927  -1.251  -4.563  1.00  0.00    -0.246 OA
ATOM     11  O   UNL     1      -4.404   0.420  -4.756  1.00  0.00    -0.423 OA
ENDROOT
BRANCH   1  12
ATOM     12  O   UNL     1      -9.545   2.494  -4.501  1.00  0.00    -0.493 OA
ATOM     13  C   UNL     1     -10.734   1.820  -4.904  1.00  0.00     0.278 C 
ENDBRANCH   1  12
BRANCH   2  14
ATOM     14  O   UNL     1      -7.464   4.118  -5.216  1.00  0.00    -0.493 OA
ATOM     15  C   UNL     1      -7.404   5.179  -4.269  1.00  0.00     0.278 C 
ENDBRANCH   2  14
TORSDOF 2
ENDMDL
