MODEL 1
REMARK VINA RESULT:    -4.785      0.000      0.000
REMARK INTER + INTRA:          -9.306
REMARK INTER:                  -8.700
REMARK INTRA:                  -0.605
REMARK UNBOUND:                -0.605
REMARK SMILES CCCCCCCCCCCCCCCC(=O)[O-]
REMARK SMILES IDX 9 1 10 2 11 3 12 4 13 5 14 6 15 7 16 8 17 9 18 10 8 11 7 12
REMARK SMILES IDX 6 13 5 14 4 15 3 16 2 17 1 18
REMARK H PARENT
REMARK Flexibility Score: inf
ROOT
ATOM      1  C   UNL     1       3.188  12.260  19.073  1.00  0.00     0.000 C 
ENDROOT
BRANCH   1   2
ATOM      2  C   UNL     1       2.806  10.857  18.554  1.00  0.00     0.000 C 
BRANCH   2   3
ATOM      3  C   UNL     1       3.951   9.843  18.728  1.00  0.00     0.000 C 
BRANCH   3   4
ATOM      4  C   UNL     1       4.769   9.647  17.442  1.00  0.00     0.000 C 
BRANCH   4   5
ATOM      5  C   UNL     1       6.146  10.325  17.506  1.00  0.00     0.000 C 
BRANCH   5   6
ATOM      6  C   UNL     1       6.342  11.044  18.845  1.00  0.00     0.006 C 
BRANCH   6   7
ATOM      7  C   UNL     1       7.720  10.735  19.439  1.00  0.00     0.053 C 
BRANCH   7   8
ATOM      8  C   UNL     1       7.600  10.380  20.887  1.00  0.00     0.041 C 
ATOM      9  O   UNL     1       6.478  10.422  21.459  1.00  0.00    -0.550 OA
ATOM     10  O   UNL     1       8.718   9.960  21.595  1.00  0.00    -0.550 OA
ENDBRANCH   7   8
ENDBRANCH   6   7
ENDBRANCH   5   6
ENDBRANCH   4   5
ENDBRANCH   3   4
ENDBRANCH   2   3
ENDBRANCH   1   2
BRANCH   1  11
ATOM     11  C   UNL     1       1.997  13.227  19.174  1.00  0.00     0.000 C 
BRANCH  11  12
ATOM     12  C   UNL     1       2.191  14.503  18.338  1.00  0.00    -0.000 C 
BRANCH  12  13
ATOM     13  C   UNL     1       0.917  14.913  17.581  1.00  0.00    -0.000 C 
BRANCH  13  14
ATOM     14  C   UNL     1       0.109  15.989  18.322  1.00  0.00    -0.000 C 
BRANCH  14  15
ATOM     15  C   UNL     1       0.973  17.228  18.602  1.00  0.00    -0.000 C 
BRANCH  15  16
ATOM     16  C   UNL     1       0.157  18.422  19.130  1.00  0.00    -0.000 C 
BRANCH  16  17
ATOM     17  C   UNL     1       0.241  19.696  18.269  1.00  0.00    -0.003 C 
ATOM     18  C   UNL     1       1.588  19.853  17.563  1.00  0.00     0.004 C 
ENDBRANCH  16  17
ENDBRANCH  15  16
ENDBRANCH  14  15
ENDBRANCH  13  14
ENDBRANCH  12  13
ENDBRANCH  11  12
ENDBRANCH   1  11
TORSDOF 14
ENDMDL
MODEL 2
REMARK VINA RESULT:    -4.771      1.294      2.211
REMARK INTER + INTRA:          -9.282
REMARK INTER:                  -8.574
REMARK INTRA:                  -0.707
REMARK UNBOUND:                -0.605
REMARK SMILES CCCCCCCCCCCCCCCC(=O)[O-]
REMARK SMILES IDX 9 1 10 2 11 3 12 4 13 5 14 6 15 7 16 8 17 9 18 10 8 11 7 12
REMARK SMILES IDX 6 13 5 14 4 15 3 16 2 17 1 18
REMARK H PARENT
REMARK Flexibility Score: inf
ROOT
ATOM      1  C   UNL     1       3.113  12.223  18.603  1.00  0.00     0.000 C 
ENDROOT
BRANCH   1   2
ATOM      2  C   UNL     1       2.709  10.742  18.763  1.00  0.00     0.000 C 
BRANCH   2   3
ATOM      3  C   UNL     1       3.934   9.815  18.857  1.00  0.00     0.000 C 
BRANCH   3   4
ATOM      4  C   UNL     1       4.647   9.636  17.507  1.00  0.00     0.000 C 
BRANCH   4   5
ATOM      5  C   UNL     1       6.041  10.281  17.483  1.00  0.00     0.000 C 
BRANCH   5   6
ATOM      6  C   UNL     1       6.309  11.058  18.776  1.00  0.00     0.006 C 
BRANCH   6   7
ATOM      7  C   UNL     1       7.699  10.736  19.333  1.00  0.00     0.053 C 
BRANCH   7   8
ATOM      8  C   UNL     1       7.610  10.358  20.778  1.00  0.00     0.041 C 
ATOM      9  O   UNL     1       8.648  10.026  21.411  1.00  0.00    -0.550 OA
ATOM     10  O   UNL     1       6.390  10.414  21.437  1.00  0.00    -0.550 OA
ENDBRANCH   7   8
ENDBRANCH   6   7
ENDBRANCH   5   6
ENDBRANCH   4   5
ENDBRANCH   3   4
ENDBRANCH   2   3
ENDBRANCH   1   2
BRANCH   1  11
ATOM     11  C   UNL     1       2.027  13.212  19.062  1.00  0.00     0.000 C 
BRANCH  11  12
ATOM     12  C   UNL     1       2.077  14.548  18.303  1.00  0.00    -0.000 C 
BRANCH  12  13
ATOM     13  C   UNL     1       0.677  15.089  17.968  1.00  0.00    -0.000 C 
BRANCH  13  14
ATOM     14  C   UNL     1       0.479  16.541  18.428  1.00  0.00    -0.000 C 
BRANCH  14  15
ATOM     15  C   UNL     1      -1.003  16.829  18.711  1.00  0.00    -0.000 C 
BRANCH  15  16
ATOM     16  C   UNL     1      -1.240  17.447  20.101  1.00  0.00    -0.000 C 
BRANCH  16  17
ATOM     17  C   UNL     1      -2.049  16.569  21.072  1.00  0.00    -0.003 C 
ATOM     18  C   UNL     1      -1.978  15.080  20.733  1.00  0.00     0.004 C 
ENDBRANCH  16  17
ENDBRANCH  15  16
ENDBRANCH  14  15
ENDBRANCH  13  14
ENDBRANCH  12  13
ENDBRANCH  11  12
ENDBRANCH   1  11
TORSDOF 14
ENDMDL
MODEL 3
REMARK VINA RESULT:    -4.599      1.322      2.773
REMARK INTER + INTRA:          -8.969
REMARK INTER:                  -7.978
REMARK INTRA:                  -0.991
REMARK UNBOUND:                -0.605
REMARK SMILES CCCCCCCCCCCCCCCC(=O)[O-]
REMARK SMILES IDX 9 1 10 2 11 3 12 4 13 5 14 6 15 7 16 8 17 9 18 10 8 11 7 12
REMARK SMILES IDX 6 13 5 14 4 15 3 16 2 17 1 18
REMARK H PARENT
REMARK Flexibility Score: inf
ROOT
ATOM      1  C   UNL     1       1.274  14.896  17.805  1.00  0.00     0.000 C 
ENDROOT
BRANCH   1   2
ATOM      2  C   UNL     1       2.390  14.348  18.720  1.00  0.00     0.000 C 
BRANCH   2   3
ATOM      3  C   UNL     1       2.209  12.849  19.019  1.00  0.00     0.000 C 
BRANCH   3   4
ATOM      4  C   UNL     1       3.544  12.089  19.064  1.00  0.00     0.000 C 
BRANCH   4   5
ATOM      5  C   UNL     1       3.369  10.572  18.900  1.00  0.00     0.000 C 
BRANCH   5   6
ATOM      6  C   UNL     1       4.629   9.822  19.345  1.00  0.00     0.006 C 
BRANCH   6   7
ATOM      7  C   UNL     1       5.213  10.437  20.620  1.00  0.00     0.053 C 
BRANCH   7   8
ATOM      8  C   UNL     1       6.654  10.789  20.421  1.00  0.00     0.041 C 
ATOM      9  O   UNL     1       7.011  11.451  19.410  1.00  0.00    -0.550 OA
ATOM     10  O   UNL     1       7.596  10.424  21.373  1.00  0.00    -0.550 OA
ENDBRANCH   7   8
ENDBRANCH   6   7
ENDBRANCH   5   6
ENDBRANCH   4   5
ENDBRANCH   3   4
ENDBRANCH   2   3
ENDBRANCH   1   2
BRANCH   1  11
ATOM     11  C   UNL     1       0.549  16.124  18.381  1.00  0.00     0.000 C 
BRANCH  11  12
ATOM     12  C   UNL     1      -0.975  15.933  18.465  1.00  0.00    -0.000 C 
BRANCH  12  13
ATOM     13  C   UNL     1      -1.706  17.208  18.915  1.00  0.00    -0.000 C 
BRANCH  13  14
ATOM     14  C   UNL     1      -1.248  17.697  20.298  1.00  0.00    -0.000 C 
BRANCH  14  15
ATOM     15  C   UNL     1      -1.179  19.231  20.343  1.00  0.00    -0.000 C 
BRANCH  15  16
ATOM     16  C   UNL     1      -0.632  19.845  19.042  1.00  0.00    -0.000 C 
BRANCH  16  17
ATOM     17  C   UNL     1       0.900  19.798  18.896  1.00  0.00    -0.003 C 
ATOM     18  C   UNL     1       1.360  19.718  17.441  1.00  0.00     0.004 C 
ENDBRANCH  16  17
ENDBRANCH  15  16
ENDBRANCH  14  15
ENDBRANCH  13  14
ENDBRANCH  12  13
ENDBRANCH  11  12
ENDBRANCH   1  11
TORSDOF 14
ENDMDL
MODEL 4
REMARK VINA RESULT:    -4.485      4.131      8.587
REMARK INTER + INTRA:          -8.761
REMARK INTER:                  -7.789
REMARK INTRA:                  -0.972
REMARK UNBOUND:                -0.605
REMARK SMILES CCCCCCCCCCCCCCCC(=O)[O-]
REMARK SMILES IDX 9 1 10 2 11 3 12 4 13 5 14 6 15 7 16 8 17 9 18 10 8 11 7 12
REMARK SMILES IDX 6 13 5 14 4 15 3 16 2 17 1 18
REMARK H PARENT
REMARK Flexibility Score: inf
ROOT
ATOM      1  C   UNL     1       3.033  12.093  19.121  1.00  0.00     0.000 C 
ENDROOT
BRANCH   1   2
ATOM      2  C   UNL     1       2.625  13.289  18.234  1.00  0.00     0.000 C 
BRANCH   2   3
ATOM      3  C   UNL     1       1.668  14.250  18.963  1.00  0.00     0.000 C 
BRANCH   3   4
ATOM      4  C   UNL     1       1.080  15.321  18.030  1.00  0.00     0.000 C 
BRANCH   4   5
ATOM      5  C   UNL     1      -0.347  15.731  18.424  1.00  0.00     0.000 C 
BRANCH   5   6
ATOM      6  C   UNL     1      -0.412  17.222  18.775  1.00  0.00     0.006 C 
BRANCH   6   7
ATOM      7  C   UNL     1       0.978  17.863  18.711  1.00  0.00     0.053 C 
BRANCH   7   8
ATOM      8  C   UNL     1       0.865  19.351  18.616  1.00  0.00     0.041 C 
ATOM      9  O   UNL     1       0.706  19.905  17.496  1.00  0.00    -0.550 OA
ATOM     10  O   UNL     1       0.891  20.125  19.769  1.00  0.00    -0.550 OA
ENDBRANCH   7   8
ENDBRANCH   6   7
ENDBRANCH   5   6
ENDBRANCH   4   5
ENDBRANCH   3   4
ENDBRANCH   2   3
ENDBRANCH   1   2
BRANCH   1  11
ATOM     11  C   UNL     1       2.355  10.771  18.724  1.00  0.00     0.000 C 
BRANCH  11  12
ATOM     12  C   UNL     1       3.103  10.029  17.604  1.00  0.00    -0.000 C 
BRANCH  12  13
ATOM     13  C   UNL     1       4.522   9.607  18.019  1.00  0.00    -0.000 C 
BRANCH  13  14
ATOM     14  C   UNL     1       5.580   9.975  16.968  1.00  0.00    -0.000 C 
BRANCH  14  15
ATOM     15  C   UNL     1       6.819  10.597  17.630  1.00  0.00    -0.000 C 
BRANCH  15  16
ATOM     16  C   UNL     1       6.490  11.348  18.933  1.00  0.00    -0.000 C 
BRANCH  16  17
ATOM     17  C   UNL     1       6.987  10.664  20.219  1.00  0.00    -0.003 C 
ATOM     18  C   UNL     1       5.856  10.305  21.182  1.00  0.00     0.004 C 
ENDBRANCH  16  17
ENDBRANCH  15  16
ENDBRANCH  14  15
ENDBRANCH  13  14
ENDBRANCH  12  13
ENDBRANCH  11  12
ENDBRANCH   1  11
TORSDOF 14
ENDMDL
MODEL 5
REMARK VINA RESULT:    -4.443      1.379      3.330
REMARK INTER + INTRA:          -8.684
REMARK INTER:                  -7.631
REMARK INTRA:                  -1.053
REMARK UNBOUND:                -0.605
REMARK SMILES CCCCCCCCCCCCCCCC(=O)[O-]
REMARK SMILES IDX 9 1 10 2 11 3 12 4 13 5 14 6 15 7 16 8 17 9 18 10 8 11 7 12
REMARK SMILES IDX 6 13 5 14 4 15 3 16 2 17 1 18
REMARK H PARENT
REMARK Flexibility Score: inf
ROOT
ATOM      1  C   UNL     1       0.879  15.958  18.300  1.00  0.00     0.000 C 
ENDROOT
BRANCH   1   2
ATOM      2  C   UNL     1       1.650  14.704  17.835  1.00  0.00     0.000 C 
BRANCH   2   3
ATOM      3  C   UNL     1       1.870  13.702  18.983  1.00  0.00     0.000 C 
BRANCH   3   4
ATOM      4  C   UNL     1       3.082  12.787  18.747  1.00  0.00     0.000 C 
BRANCH   4   5
ATOM      5  C   UNL     1       2.741  11.298  18.905  1.00  0.00     0.000 C 
BRANCH   5   6
ATOM      6  C   UNL     1       3.997  10.430  18.771  1.00  0.00     0.006 C 
BRANCH   6   7
ATOM      7  C   UNL     1       4.498   9.973  20.144  1.00  0.00     0.053 C 
BRANCH   7   8
ATOM      8  C   UNL     1       5.765  10.683  20.503  1.00  0.00     0.041 C 
ATOM      9  O   UNL     1       6.463  10.284  21.472  1.00  0.00    -0.550 OA
ATOM     10  O   UNL     1       6.197  11.760  19.741  1.00  0.00    -0.550 OA
ENDBRANCH   7   8
ENDBRANCH   6   7
ENDBRANCH   5   6
ENDBRANCH   4   5
ENDBRANCH   3   4
ENDBRANCH   2   3
ENDBRANCH   1   2
BRANCH   1  11
ATOM     11  C   UNL     1      -0.617  15.705  18.554  1.00  0.00     0.000 C 
BRANCH  11  12
ATOM     12  C   UNL     1      -1.429  17.005  18.679  1.00  0.00    -0.000 C 
BRANCH  12  13
ATOM     13  C   UNL     1      -1.582  17.469  20.136  1.00  0.00    -0.000 C 
BRANCH  13  14
ATOM     14  C   UNL     1      -1.172  18.936  20.336  1.00  0.00    -0.000 C 
BRANCH  14  15
ATOM     15  C   UNL     1      -0.649  19.543  19.025  1.00  0.00    -0.000 C 
BRANCH  15  16
ATOM     16  C   UNL     1       0.838  19.935  19.097  1.00  0.00    -0.000 C 
BRANCH  16  17
ATOM     17  C   UNL     1       1.647  19.644  17.819  1.00  0.00    -0.003 C 
ATOM     18  C   UNL     1       0.905  20.030  16.540  1.00  0.00     0.004 C 
ENDBRANCH  16  17
ENDBRANCH  15  16
ENDBRANCH  14  15
ENDBRANCH  13  14
ENDBRANCH  12  13
ENDBRANCH  11  12
ENDBRANCH   1  11
TORSDOF 14
ENDMDL
MODEL 6
REMARK VINA RESULT:    -4.385      2.847      4.266
REMARK INTER + INTRA:          -8.579
REMARK INTER:                  -7.769
REMARK INTRA:                  -0.810
REMARK UNBOUND:                -0.605
REMARK SMILES CCCCCCCCCCCCCCCC(=O)[O-]
REMARK SMILES IDX 9 1 10 2 11 3 12 4 13 5 14 6 15 7 16 8 17 9 18 10 8 11 7 12
REMARK SMILES IDX 6 13 5 14 4 15 3 16 2 17 1 18
REMARK H PARENT
REMARK Flexibility Score: inf
ROOT
ATOM      1  C   UNL     1       0.665  15.950  18.334  1.00  0.00     0.000 C 
ENDROOT
BRANCH   1   2
ATOM      2  C   UNL     1       1.321  14.650  17.821  1.00  0.00     0.000 C 
BRANCH   2   3
ATOM      3  C   UNL     1       2.381  14.112  18.799  1.00  0.00     0.000 C 
BRANCH   3   4
ATOM      4  C   UNL     1       2.447  12.577  18.816  1.00  0.00     0.000 C 
BRANCH   4   5
ATOM      5  C   UNL     1       3.845  12.047  19.173  1.00  0.00     0.000 C 
BRANCH   5   6
ATOM      6  C   UNL     1       3.811  10.536  19.424  1.00  0.00     0.006 C 
BRANCH   6   7
ATOM      7  C   UNL     1       4.226   9.761  18.170  1.00  0.00     0.053 C 
BRANCH   7   8
ATOM      8  C   UNL     1       3.033   9.134  17.521  1.00  0.00     0.041 C 
ATOM      9  O   UNL     1       3.166   8.457  16.467  1.00  0.00    -0.550 OA
ATOM     10  O   UNL     1       1.779   9.260  18.104  1.00  0.00    -0.550 OA
ENDBRANCH   7   8
ENDBRANCH   6   7
ENDBRANCH   5   6
ENDBRANCH   4   5
ENDBRANCH   3   4
ENDBRANCH   2   3
ENDBRANCH   1   2
BRANCH   1  11
ATOM     11  C   UNL     1      -0.824  15.792  18.688  1.00  0.00     0.000 C 
BRANCH  11  12
ATOM     12  C   UNL     1      -1.552  17.140  18.821  1.00  0.00    -0.000 C 
BRANCH  12  13
ATOM     13  C   UNL     1      -1.391  17.763  20.217  1.00  0.00    -0.000 C 
BRANCH  13  14
ATOM     14  C   UNL     1      -1.128  19.276  20.163  1.00  0.00    -0.000 C 
BRANCH  14  15
ATOM     15  C   UNL     1       0.122  19.585  19.324  1.00  0.00    -0.000 C 
BRANCH  15  16
ATOM     16  C   UNL     1      -0.215  20.125  17.922  1.00  0.00    -0.000 C 
BRANCH  16  17
ATOM     17  C   UNL     1       0.838  19.822  16.841  1.00  0.00    -0.003 C 
ATOM     18  C   UNL     1       2.274  19.982  17.342  1.00  0.00     0.004 C 
ENDBRANCH  16  17
ENDBRANCH  15  16
ENDBRANCH  14  15
ENDBRANCH  13  14
ENDBRANCH  12  13
ENDBRANCH  11  12
ENDBRANCH   1  11
TORSDOF 14
ENDMDL
MODEL 7
REMARK VINA RESULT:    -4.379      4.075      9.084
REMARK INTER + INTRA:          -8.569
REMARK INTER:                  -7.713
REMARK INTRA:                  -0.856
REMARK UNBOUND:                -0.605
REMARK SMILES CCCCCCCCCCCCCCCC(=O)[O-]
REMARK SMILES IDX 9 1 10 2 11 3 12 4 13 5 14 6 15 7 16 8 17 9 18 10 8 11 7 12
REMARK SMILES IDX 6 13 5 14 4 15 3 16 2 17 1 18
REMARK H PARENT
REMARK Flexibility Score: inf
ROOT
ATOM      1  C   UNL     1       2.033  13.637  19.108  1.00  0.00     0.000 C 
ENDROOT
BRANCH   1   2
ATOM      2  C   UNL     1       1.650  14.522  17.902  1.00  0.00     0.000 C 
BRANCH   2   3
ATOM      3  C   UNL     1       0.996  15.845  18.339  1.00  0.00     0.000 C 
BRANCH   3   4
ATOM      4  C   UNL     1      -0.531  15.735  18.471  1.00  0.00     0.000 C 
BRANCH   4   5
ATOM      5  C   UNL     1      -1.140  16.882  19.292  1.00  0.00     0.000 C 
BRANCH   5   6
ATOM      6  C   UNL     1      -1.743  17.953  18.376  1.00  0.00     0.006 C 
BRANCH   6   7
ATOM      7  C   UNL     1      -1.334  19.358  18.829  1.00  0.00     0.053 C 
BRANCH   7   8
ATOM      8  C   UNL     1       0.134  19.567  18.630  1.00  0.00     0.041 C 
ATOM      9  O   UNL     1       0.903  19.651  19.625  1.00  0.00    -0.550 OA
ATOM     10  O   UNL     1       0.660  19.625  17.347  1.00  0.00    -0.550 OA
ENDBRANCH   7   8
ENDBRANCH   6   7
ENDBRANCH   5   6
ENDBRANCH   4   5
ENDBRANCH   3   4
ENDBRANCH   2   3
ENDBRANCH   1   2
BRANCH   1  11
ATOM     11  C   UNL     1       3.043  12.529  18.765  1.00  0.00     0.000 C 
BRANCH  11  12
ATOM     12  C   UNL     1       2.408  11.129  18.741  1.00  0.00    -0.000 C 
BRANCH  12  13
ATOM     13  C   UNL     1       3.322  10.077  18.091  1.00  0.00    -0.000 C 
BRANCH  13  14
ATOM     14  C   UNL     1       4.722  10.039  18.720  1.00  0.00    -0.000 C 
BRANCH  14  15
ATOM     15  C   UNL     1       4.646   9.647  20.204  1.00  0.00    -0.000 C 
BRANCH  15  16
ATOM     16  C   UNL     1       5.584  10.483  21.094  1.00  0.00    -0.000 C 
BRANCH  16  17
ATOM     17  C   UNL     1       6.914  10.888  20.434  1.00  0.00    -0.003 C 
ATOM     18  C   UNL     1       8.114  10.115  20.982  1.00  0.00     0.004 C 
ENDBRANCH  16  17
ENDBRANCH  15  16
ENDBRANCH  14  15
ENDBRANCH  13  14
ENDBRANCH  12  13
ENDBRANCH  11  12
ENDBRANCH   1  11
TORSDOF 14
ENDMDL
MODEL 8
REMARK VINA RESULT:    -4.250      1.931      2.458
REMARK INTER + INTRA:          -8.334
REMARK INTER:                  -7.415
REMARK INTRA:                  -0.919
REMARK UNBOUND:                -0.605
REMARK SMILES CCCCCCCCCCCCCCCC(=O)[O-]
REMARK SMILES IDX 9 1 10 2 11 3 12 4 13 5 14 6 15 7 16 8 17 9 18 10 8 11 7 12
REMARK SMILES IDX 6 13 5 14 4 15 3 16 2 17 1 18
REMARK H PARENT
REMARK Flexibility Score: inf
ROOT
ATOM      1  C   UNL     1       3.294  11.424  18.406  1.00  0.00     0.000 C 
ENDROOT
BRANCH   1   2
ATOM      2  C   UNL     1       3.222   9.936  18.810  1.00  0.00     0.000 C 
BRANCH   2   3
ATOM      3  C   UNL     1       4.237   9.585  19.913  1.00  0.00     0.000 C 
BRANCH   3   4
ATOM      4  C   UNL     1       5.087  10.791  20.341  1.00  0.00     0.000 C 
BRANCH   4   5
ATOM      5  C   UNL     1       6.528  10.403  20.702  1.00  0.00     0.000 C 
BRANCH   5   6
ATOM      6  C   UNL     1       7.494  10.758  19.567  1.00  0.00     0.006 C 
BRANCH   6   7
ATOM      7  C   UNL     1       6.790  11.580  18.483  1.00  0.00     0.053 C 
BRANCH   7   8
ATOM      8  C   UNL     1       7.006  10.967  17.136  1.00  0.00     0.041 C 
ATOM      9  O   UNL     1       7.978  11.331  16.422  1.00  0.00    -0.550 OA
ATOM     10  O   UNL     1       6.160   9.962  16.686  1.00  0.00    -0.550 OA
ENDBRANCH   7   8
ENDBRANCH   6   7
ENDBRANCH   5   6
ENDBRANCH   4   5
ENDBRANCH   3   4
ENDBRANCH   2   3
ENDBRANCH   1   2
BRANCH   1  11
ATOM     11  C   UNL     1       2.130  12.269  18.951  1.00  0.00     0.000 C 
BRANCH  11  12
ATOM     12  C   UNL     1       2.460  13.769  19.017  1.00  0.00    -0.000 C 
BRANCH  12  13
ATOM     13  C   UNL     1       1.819  14.567  17.870  1.00  0.00    -0.000 C 
BRANCH  13  14
ATOM     14  C   UNL     1       0.575  15.350  18.318  1.00  0.00    -0.000 C 
BRANCH  14  15
ATOM     15  C   UNL     1       0.840  16.863  18.291  1.00  0.00    -0.000 C 
BRANCH  15  16
ATOM     16  C   UNL     1      -0.117  17.656  19.199  1.00  0.00    -0.000 C 
BRANCH  16  17
ATOM     17  C   UNL     1       0.082  19.183  19.174  1.00  0.00    -0.003 C 
ATOM     18  C   UNL     1       1.283  19.616  18.334  1.00  0.00     0.004 C 
ENDBRANCH  16  17
ENDBRANCH  15  16
ENDBRANCH  14  15
ENDBRANCH  13  14
ENDBRANCH  12  13
ENDBRANCH  11  12
ENDBRANCH   1  11
TORSDOF 14
ENDMDL
MODEL 9
REMARK VINA RESULT:    -4.063      4.048      9.074
REMARK INTER + INTRA:          -7.994
REMARK INTER:                  -7.070
REMARK INTRA:                  -0.924
REMARK UNBOUND:                -0.605
REMARK SMILES CCCCCCCCCCCCCCCC(=O)[O-]
REMARK SMILES IDX 9 1 10 2 11 3 12 4 13 5 14 6 15 7 16 8 17 9 18 10 8 11 7 12
REMARK SMILES IDX 6 13 5 14 4 15 3 16 2 17 1 18
REMARK H PARENT
REMARK Flexibility Score: inf
ROOT
ATOM      1  C   UNL     1       1.145  15.683  18.341  1.00  0.00     0.000 C 
ENDROOT
BRANCH   1   2
ATOM      2  C   UNL     1      -0.308  15.350  18.745  1.00  0.00     0.000 C 
BRANCH   2   3
ATOM      3  C   UNL     1      -1.278  16.498  18.411  1.00  0.00     0.000 C 
BRANCH   3   4
ATOM      4  C   UNL     1      -1.847  17.177  19.667  1.00  0.00     0.000 C 
BRANCH   4   5
ATOM      5  C   UNL     1      -1.033  18.408  20.095  1.00  0.00     0.000 C 
BRANCH   5   6
ATOM      6  C   UNL     1      -0.607  19.235  18.876  1.00  0.00     0.006 C 
BRANCH   6   7
ATOM      7  C   UNL     1       0.899  19.511  18.899  1.00  0.00     0.053 C 
BRANCH   7   8
ATOM      8  C   UNL     1       1.394  19.833  17.525  1.00  0.00     0.041 C 
ATOM      9  O   UNL     1       2.628  19.801  17.271  1.00  0.00    -0.550 OA
ATOM     10  O   UNL     1       0.491  20.125  16.511  1.00  0.00    -0.550 OA
ENDBRANCH   7   8
ENDBRANCH   6   7
ENDBRANCH   5   6
ENDBRANCH   4   5
ENDBRANCH   3   4
ENDBRANCH   2   3
ENDBRANCH   1   2
BRANCH   1  11
ATOM     11  C   UNL     1       1.988  14.445  17.992  1.00  0.00     0.000 C 
BRANCH  11  12
ATOM     12  C   UNL     1       2.024  13.408  19.127  1.00  0.00    -0.000 C 
BRANCH  12  13
ATOM     13  C   UNL     1       3.209  12.436  19.002  1.00  0.00    -0.000 C 
BRANCH  13  14
ATOM     14  C   UNL     1       2.763  10.991  18.733  1.00  0.00    -0.000 C 
BRANCH  14  15
ATOM     15  C   UNL     1       3.892   9.999  19.052  1.00  0.00    -0.000 C 
BRANCH  15  16
ATOM     16  C   UNL     1       5.257  10.447  18.499  1.00  0.00    -0.000 C 
BRANCH  16  17
ATOM     17  C   UNL     1       6.318  10.763  19.569  1.00  0.00    -0.003 C 
ATOM     18  C   UNL     1       5.876  10.380  20.981  1.00  0.00     0.004 C 
ENDBRANCH  16  17
ENDBRANCH  15  16
ENDBRANCH  14  15
ENDBRANCH  13  14
ENDBRANCH  12  13
ENDBRANCH  11  12
ENDBRANCH   1  11
TORSDOF 14
ENDMDL
