MODEL 1
REMARK VINA RESULT:    -4.915      0.000      0.000
REMARK INTER + INTRA:          -5.441
REMARK INTER:                  -5.346
REMARK INTRA:                  -0.095
REMARK UNBOUND:                -0.095
REMARK SMILES C=C(C)[C@H]1CC=C(C)[C@H](O)C1
REMARK SMILES IDX 8 1 7 2 6 3 5 4 4 5 11 6 9 7 10 8 2 10 1 11 3 12
REMARK H PARENT 10 9
REMARK Flexibility Score: inf
ROOT
ATOM      1  C   UNL     1     114.202 125.514 126.910  1.00  0.00     0.042 C 
ATOM      2  C   UNL     1     115.167 126.618 126.577  1.00  0.00    -0.049 C 
ATOM      3  C   UNL     1     114.753 127.900 126.674  1.00  0.00    -0.025 C 
ATOM      4  C   UNL     1     115.617 129.074 126.294  1.00  0.00     0.035 C 
ATOM      5  C   UNL     1     117.114 128.746 126.405  1.00  0.00     0.021 C 
ATOM      6  C   UNL     1     117.419 127.436 125.658  1.00  0.00     0.044 C 
ATOM      7  C   UNL     1     116.607 126.257 126.233  1.00  0.00     0.140 C 
ENDROOT
BRANCH   7   8
ATOM      8  O   UNL     1     117.257 125.706 127.353  1.00  0.00    -0.389 OA
ATOM      9  H   UNL     1     117.298 126.406 128.056  1.00  0.00     0.211 HD
ENDBRANCH   7   8
BRANCH   5  10
ATOM     10  C   UNL     1     117.972 129.894 125.890  1.00  0.00    -0.077 C 
ATOM     11  C   UNL     1     119.085 129.638 125.183  1.00  0.00     0.008 C 
ATOM     12  C   UNL     1     117.605 131.333 126.155  1.00  0.00     0.039 C 
ENDBRANCH   5  10
TORSDOF 2
ENDMDL
MODEL 2
REMARK VINA RESULT:    -4.630     12.005     13.130
REMARK INTER + INTRA:          -5.132
REMARK INTER:                  -5.038
REMARK INTRA:                  -0.094
REMARK UNBOUND:                -0.095
REMARK SMILES C=C(C)[C@H]1CC=C(C)[C@H](O)C1
REMARK SMILES IDX 8 1 7 2 6 3 5 4 4 5 11 6 9 7 10 8 2 10 1 11 3 12
REMARK H PARENT 10 9
REMARK Flexibility Score: inf
ROOT
ATOM      1  C   UNL     1     108.875 118.720 122.965  1.00  0.00     0.042 C 
ATOM      2  C   UNL     1     109.178 118.145 124.322  1.00  0.00    -0.049 C 
ATOM      3  C   UNL     1     109.745 116.922 124.402  1.00  0.00    -0.025 C 
ATOM      4  C   UNL     1     110.021 116.228 125.710  1.00  0.00     0.035 C 
ATOM      5  C   UNL     1     110.193 117.226 126.866  1.00  0.00     0.021 C 
ATOM      6  C   UNL     1     109.016 118.215 126.882  1.00  0.00     0.044 C 
ATOM      7  C   UNL     1     108.921 119.000 125.557  1.00  0.00     0.140 C 
ENDROOT
BRANCH   7   8
ATOM      8  O   UNL     1     109.785 120.110 125.575  1.00  0.00    -0.389 OA
ATOM      9  H   UNL     1     110.031 120.320 124.636  1.00  0.00     0.211 HD
ENDBRANCH   7   8
BRANCH   5  10
ATOM     10  C   UNL     1     110.335 116.507 128.201  1.00  0.00    -0.077 C 
ATOM     11  C   UNL     1     109.252 115.990 128.805  1.00  0.00     0.008 C 
ATOM     12  C   UNL     1     111.675 116.357 128.878  1.00  0.00     0.039 C 
ENDBRANCH   5  10
TORSDOF 2
ENDMDL
MODEL 3
REMARK VINA RESULT:    -4.579     12.836     13.479
REMARK INTER + INTRA:          -5.076
REMARK INTER:                  -4.980
REMARK INTRA:                  -0.095
REMARK UNBOUND:                -0.095
REMARK SMILES C=C(C)[C@H]1CC=C(C)[C@H](O)C1
REMARK SMILES IDX 8 1 7 2 6 3 5 4 4 5 11 6 9 7 10 8 2 10 1 11 3 12
REMARK H PARENT 10 9
REMARK Flexibility Score: inf
ROOT
ATOM      1  C   UNL     1     109.290 117.669 124.064  1.00  0.00     0.042 C 
ATOM      2  C   UNL     1     109.704 117.345 125.474  1.00  0.00    -0.049 C 
ATOM      3  C   UNL     1     109.162 118.048 126.492  1.00  0.00    -0.025 C 
ATOM      4  C   UNL     1     109.562 117.852 127.931  1.00  0.00     0.035 C 
ATOM      5  C   UNL     1     110.114 116.441 128.187  1.00  0.00     0.021 C 
ATOM      6  C   UNL     1     111.201 116.109 127.151  1.00  0.00     0.044 C 
ATOM      7  C   UNL     1     110.647 116.172 125.713  1.00  0.00     0.140 C 
ENDROOT
BRANCH   7   8
ATOM      8  O   UNL     1     110.023 114.960 125.367  1.00  0.00    -0.389 OA
ATOM      9  H   UNL     1     110.689 114.233 125.476  1.00  0.00     0.211 HD
ENDBRANCH   7   8
BRANCH   5  10
ATOM     10  C   UNL     1     110.639 116.302 129.610  1.00  0.00    -0.077 C 
ATOM     11  C   UNL     1     111.713 115.535 129.859  1.00  0.00     0.008 C 
ATOM     12  C   UNL     1     109.979 117.010 130.767  1.00  0.00     0.039 C 
ENDBRANCH   5  10
TORSDOF 2
ENDMDL
MODEL 4
REMARK VINA RESULT:    -4.530     12.271     13.228
REMARK INTER + INTRA:          -5.023
REMARK INTER:                  -4.929
REMARK INTRA:                  -0.094
REMARK UNBOUND:                -0.095
REMARK SMILES C=C(C)[C@H]1CC=C(C)[C@H](O)C1
REMARK SMILES IDX 8 1 7 2 6 3 5 4 4 5 11 6 9 7 10 8 2 10 1 11 3 12
REMARK H PARENT 10 9
REMARK Flexibility Score: inf
ROOT
ATOM      1  C   UNL     1     111.688 115.625 130.840  1.00  0.00     0.042 C 
ATOM      2  C   UNL     1     111.185 115.974 129.466  1.00  0.00    -0.049 C 
ATOM      3  C   UNL     1     109.853 116.000 129.244  1.00  0.00    -0.025 C 
ATOM      4  C   UNL     1     109.250 116.266 127.890  1.00  0.00     0.035 C 
ATOM      5  C   UNL     1     110.189 117.090 126.994  1.00  0.00     0.021 C 
ATOM      6  C   UNL     1     111.588 116.453 126.977  1.00  0.00     0.044 C 
ATOM      7  C   UNL     1     112.191 116.379 128.395  1.00  0.00     0.140 C 
ENDROOT
BRANCH   7   8
ATOM      8  O   UNL     1     112.809 117.596 128.736  1.00  0.00    -0.389 OA
ATOM      9  H   UNL     1     112.097 118.236 128.999  1.00  0.00     0.211 HD
ENDBRANCH   7   8
BRANCH   5  10
ATOM     10  C   UNL     1     109.625 117.234 125.586  1.00  0.00    -0.077 C 
ATOM     11  C   UNL     1     109.625 116.183 124.751  1.00  0.00     0.008 C 
ATOM     12  C   UNL     1     109.060 118.543 125.093  1.00  0.00     0.039 C 
ENDBRANCH   5  10
TORSDOF 2
ENDMDL
MODEL 5
REMARK VINA RESULT:    -4.529      2.035      5.498
REMARK INTER + INTRA:          -5.021
REMARK INTER:                  -4.928
REMARK INTRA:                  -0.093
REMARK UNBOUND:                -0.095
REMARK SMILES C=C(C)[C@H]1CC=C(C)[C@H](O)C1
REMARK SMILES IDX 8 1 7 2 6 3 5 4 4 5 11 6 9 7 10 8 2 10 1 11 3 12
REMARK H PARENT 10 9
REMARK Flexibility Score: inf
ROOT
ATOM      1  C   UNL     1     117.487 127.350 125.702  1.00  0.00     0.042 C 
ATOM      2  C   UNL     1     116.243 126.595 126.080  1.00  0.00    -0.049 C 
ATOM      3  C   UNL     1     115.887 125.514 125.352  1.00  0.00    -0.025 C 
ATOM      4  C   UNL     1     114.623 124.734 125.604  1.00  0.00     0.035 C 
ATOM      5  C   UNL     1     114.146 124.864 127.058  1.00  0.00     0.021 C 
ATOM      6  C   UNL     1     114.094 126.348 127.460  1.00  0.00     0.044 C 
ATOM      7  C   UNL     1     115.478 127.016 127.329  1.00  0.00     0.140 C 
ENDROOT
BRANCH   7   8
ATOM      8  O   UNL     1     116.251 126.788 128.481  1.00  0.00    -0.389 OA
ATOM      9  H   UNL     1     115.819 126.060 128.999  1.00  0.00     0.211 HD
ENDBRANCH   7   8
BRANCH   5  10
ATOM     10  C   UNL     1     112.798 124.184 127.262  1.00  0.00    -0.077 C 
ATOM     11  C   UNL     1     112.285 124.064 128.498  1.00  0.00     0.008 C 
ATOM     12  C   UNL     1     112.011 123.631 126.101  1.00  0.00     0.039 C 
ENDBRANCH   5  10
TORSDOF 2
ENDMDL
MODEL 6
REMARK VINA RESULT:    -4.526     11.179     12.478
REMARK INTER + INTRA:          -5.018
REMARK INTER:                  -4.922
REMARK INTRA:                  -0.096
REMARK UNBOUND:                -0.095
REMARK SMILES C=C(C)[C@H]1CC=C(C)[C@H](O)C1
REMARK SMILES IDX 8 1 7 2 6 3 5 4 4 5 11 6 9 7 10 8 2 10 1 11 3 12
REMARK H PARENT 10 9
REMARK Flexibility Score: inf
ROOT
ATOM      1  C   UNL     1     110.448 117.497 129.289  1.00  0.00     0.042 C 
ATOM      2  C   UNL     1     110.163 117.727 127.830  1.00  0.00    -0.049 C 
ATOM      3  C   UNL     1     109.783 116.681 127.065  1.00  0.00    -0.025 C 
ATOM      4  C   UNL     1     109.545 116.791 125.582  1.00  0.00     0.035 C 
ATOM      5  C   UNL     1     109.163 118.219 125.165  1.00  0.00     0.021 C 
ATOM      6  C   UNL     1     110.174 119.222 125.745  1.00  0.00     0.044 C 
ATOM      7  C   UNL     1     110.221 119.149 127.285  1.00  0.00     0.140 C 
ENDROOT
BRANCH   7   8
ATOM      8  O   UNL     1     109.200 119.934 127.850  1.00  0.00    -0.389 OA
ATOM      9  H   UNL     1     108.436 119.337 128.058  1.00  0.00     0.211 HD
ENDBRANCH   7   8
BRANCH   5  10
ATOM     10  C   UNL     1     109.059 118.345 123.650  1.00  0.00    -0.077 C 
ATOM     11  C   UNL     1     109.108 117.246 122.879  1.00  0.00     0.008 C 
ATOM     12  C   UNL     1     108.903 119.687 122.979  1.00  0.00     0.039 C 
ENDBRANCH   5  10
TORSDOF 2
ENDMDL
MODEL 7
REMARK VINA RESULT:    -4.445     12.078     13.084
REMARK INTER + INTRA:          -4.930
REMARK INTER:                  -4.834
REMARK INTRA:                  -0.096
REMARK UNBOUND:                -0.095
REMARK SMILES C=C(C)[C@H]1CC=C(C)[C@H](O)C1
REMARK SMILES IDX 8 1 7 2 6 3 5 4 4 5 11 6 9 7 10 8 2 10 1 11 3 12
REMARK H PARENT 10 9
REMARK Flexibility Score: inf
ROOT
ATOM      1  C   UNL     1     109.738 116.386 128.816  1.00  0.00     0.042 C 
ATOM      2  C   UNL     1     109.649 116.729 127.354  1.00  0.00    -0.049 C 
ATOM      3  C   UNL     1     109.127 117.921 126.993  1.00  0.00    -0.025 C 
ATOM      4  C   UNL     1     108.927 118.330 125.557  1.00  0.00     0.035 C 
ATOM      5  C   UNL     1     109.898 117.605 124.612  1.00  0.00     0.021 C 
ATOM      6  C   UNL     1     109.854 116.091 124.877  1.00  0.00     0.044 C 
ATOM      7  C   UNL     1     110.239 115.762 126.334  1.00  0.00     0.140 C 
ENDROOT
BRANCH   7   8
ATOM      8  O   UNL     1     111.636 115.690 126.475  1.00  0.00    -0.389 OA
ATOM      9  H   UNL     1     111.891 116.236 127.263  1.00  0.00     0.211 HD
ENDBRANCH   7   8
BRANCH   5  10
ATOM     10  C   UNL     1     109.595 117.924 123.154  1.00  0.00    -0.077 C 
ATOM     11  C   UNL     1     109.434 116.929 122.266  1.00  0.00     0.008 C 
ATOM     12  C   UNL     1     109.468 119.347 122.668  1.00  0.00     0.039 C 
ENDBRANCH   5  10
TORSDOF 2
ENDMDL
MODEL 8
REMARK VINA RESULT:    -4.443      2.076      4.728
REMARK INTER + INTRA:          -4.928
REMARK INTER:                  -4.831
REMARK INTRA:                  -0.097
REMARK UNBOUND:                -0.095
REMARK SMILES C=C(C)[C@H]1CC=C(C)[C@H](O)C1
REMARK SMILES IDX 8 1 7 2 6 3 5 4 4 5 11 6 9 7 10 8 2 10 1 11 3 12
REMARK H PARENT 10 9
REMARK Flexibility Score: inf
ROOT
ATOM      1  C   UNL     1     118.398 132.110 124.789  1.00  0.00     0.042 C 
ATOM      2  C   UNL     1     117.717 130.816 125.144  1.00  0.00    -0.049 C 
ATOM      3  C   UNL     1     118.454 129.686 125.205  1.00  0.00    -0.025 C 
ATOM      4  C   UNL     1     117.857 128.330 125.480  1.00  0.00     0.035 C 
ATOM      5  C   UNL     1     116.544 128.430 126.274  1.00  0.00     0.021 C 
ATOM      6  C   UNL     1     115.601 129.439 125.598  1.00  0.00     0.044 C 
ATOM      7  C   UNL     1     116.240 130.840 125.516  1.00  0.00     0.140 C 
ENDROOT
BRANCH   7   8
ATOM      8  O   UNL     1     116.047 131.546 126.718  1.00  0.00    -0.389 OA
ATOM      9  H   UNL     1     116.910 131.969 126.965  1.00  0.00     0.211 HD
ENDBRANCH   7   8
BRANCH   5  10
ATOM     10  C   UNL     1     115.885 127.065 126.426  1.00  0.00    -0.077 C 
ATOM     11  C   UNL     1     116.317 126.024 125.696  1.00  0.00     0.008 C 
ATOM     12  C   UNL     1     114.741 126.845 127.384  1.00  0.00     0.039 C 
ENDBRANCH   5  10
TORSDOF 2
ENDMDL
MODEL 9
REMARK VINA RESULT:    -4.441     12.499     13.318
REMARK INTER + INTRA:          -4.925
REMARK INTER:                  -4.831
REMARK INTRA:                  -0.094
REMARK UNBOUND:                -0.095
REMARK SMILES C=C(C)[C@H]1CC=C(C)[C@H](O)C1
REMARK SMILES IDX 8 1 7 2 6 3 5 4 4 5 11 6 9 7 10 8 2 10 1 11 3 12
REMARK H PARENT 10 9
REMARK Flexibility Score: inf
ROOT
ATOM      1  C   UNL     1     111.754 115.889 129.976  1.00  0.00     0.042 C 
ATOM      2  C   UNL     1     111.155 116.379 128.687  1.00  0.00    -0.049 C 
ATOM      3  C   UNL     1     111.919 116.387 127.573  1.00  0.00    -0.025 C 
ATOM      4  C   UNL     1     111.438 116.925 126.250  1.00  0.00     0.035 C 
ATOM      5  C   UNL     1     109.907 116.861 126.126  1.00  0.00     0.021 C 
ATOM      6  C   UNL     1     109.255 117.490 127.368  1.00  0.00     0.044 C 
ATOM      7  C   UNL     1     109.680 116.760 128.659  1.00  0.00     0.140 C 
ENDROOT
BRANCH   7   8
ATOM      8  O   UNL     1     108.875 115.627 128.877  1.00  0.00    -0.389 OA
ATOM      9  H   UNL     1     109.214 115.164 129.687  1.00  0.00     0.211 HD
ENDBRANCH   7   8
BRANCH   5  10
ATOM     10  C   UNL     1     109.428 117.531 124.845  1.00  0.00    -0.077 C 
ATOM     11  C   UNL     1     108.931 118.779 124.883  1.00  0.00     0.008 C 
ATOM     12  C   UNL     1     109.492 116.825 123.514  1.00  0.00     0.039 C 
ENDBRANCH   5  10
TORSDOF 2
ENDMDL
