MODEL 1
REMARK VINA RESULT:    -5.371      0.000      0.000
REMARK INTER + INTRA:          -5.724
REMARK INTER:                  -5.685
REMARK INTRA:                  -0.039
REMARK UNBOUND:                -0.039
REMARK SMILES COc1ccc2ccc(=O)oc2c1
REMARK SMILES IDX 3 1 13 2 12 3 6 4 5 5 4 6 7 7 8 8 9 9 10 10 11 11 2 12 1 13
REMARK H PARENT
REMARK Flexibility Score: inf
ROOT
ATOM      1  C   UNL     1      21.750   1.648 -22.404  1.00  0.00     0.122 A 
ATOM      2  C   UNL     1      21.330   1.767 -21.064  1.00  0.00     0.094 A 
ATOM      3  C   UNL     1      20.807   0.660 -20.387  1.00  0.00     0.142 A 
ATOM      4  C   UNL     1      20.698  -0.580 -21.050  1.00  0.00     0.018 A 
ATOM      5  C   UNL     1      21.115  -0.700 -22.382  1.00  0.00     0.016 A 
ATOM      6  C   UNL     1      21.637   0.409 -23.051  1.00  0.00     0.047 A 
ATOM      7  C   UNL     1      20.170  -1.668 -20.347  1.00  0.00     0.019 A 
ATOM      8  C   UNL     1      19.770  -1.497 -19.021  1.00  0.00     0.094 A 
ATOM      9  C   UNL     1      19.907  -0.237 -18.430  1.00  0.00     0.336 A 
ATOM     10  O   UNL     1      19.552  -0.063 -17.235  1.00  0.00    -0.246 OA
ATOM     11  O   UNL     1      20.413   0.781 -19.122  1.00  0.00    -0.423 OA
ENDROOT
BRANCH   1  12
ATOM     12  O   UNL     1      22.281   2.728 -23.125  1.00  0.00    -0.497 OA
ATOM     13  C   UNL     1      22.631   3.983 -22.550  1.00  0.00     0.278 C 
ENDBRANCH   1  12
TORSDOF 1
ENDMDL
MODEL 2
REMARK VINA RESULT:    -5.331      1.033      4.756
REMARK INTER + INTRA:          -5.681
REMARK INTER:                  -5.643
REMARK INTRA:                  -0.038
REMARK UNBOUND:                -0.039
REMARK SMILES COc1ccc2ccc(=O)oc2c1
REMARK SMILES IDX 3 1 13 2 12 3 6 4 5 5 4 6 7 7 8 8 9 9 10 10 11 11 2 12 1 13
REMARK H PARENT
REMARK Flexibility Score: inf
ROOT
ATOM      1  C   UNL     1      19.920  -0.319 -18.474  1.00  0.00     0.122 A 
ATOM      2  C   UNL     1      20.430   0.801 -19.160  1.00  0.00     0.094 A 
ATOM      3  C   UNL     1      20.838   0.685 -20.494  1.00  0.00     0.142 A 
ATOM      4  C   UNL     1      20.738  -0.557 -21.153  1.00  0.00     0.018 A 
ATOM      5  C   UNL     1      20.231  -1.672 -20.472  1.00  0.00     0.016 A 
ATOM      6  C   UNL     1      19.825  -1.548 -19.140  1.00  0.00     0.047 A 
ATOM      7  C   UNL     1      21.154  -0.642 -22.486  1.00  0.00     0.019 A 
ATOM      8  C   UNL     1      21.652   0.497 -23.120  1.00  0.00     0.094 A 
ATOM      9  C   UNL     1      21.722   1.696 -22.403  1.00  0.00     0.336 A 
ATOM     10  O   UNL     1      22.167   2.734 -22.958  1.00  0.00    -0.246 OA
ATOM     11  O   UNL     1      21.319   1.747 -21.136  1.00  0.00    -0.423 OA
ENDROOT
BRANCH   1  12
ATOM     12  O   UNL     1      19.498  -0.254 -17.137  1.00  0.00    -0.497 OA
ATOM     13  C   UNL     1      18.518  -1.112 -16.561  1.00  0.00     0.278 C 
ENDBRANCH   1  12
TORSDOF 1
ENDMDL
MODEL 3
REMARK VINA RESULT:    -5.095      1.356      4.658
REMARK INTER + INTRA:          -5.431
REMARK INTER:                  -5.394
REMARK INTRA:                  -0.038
REMARK UNBOUND:                -0.039
REMARK SMILES COc1ccc2ccc(=O)oc2c1
REMARK SMILES IDX 3 1 13 2 12 3 6 4 5 5 4 6 7 7 8 8 9 9 10 10 11 11 2 12 1 13
REMARK H PARENT
REMARK Flexibility Score: inf
ROOT
ATOM      1  C   UNL     1      20.638  -0.351 -19.692  1.00  0.00     0.122 A 
ATOM      2  C   UNL     1      21.060   0.990 -19.603  1.00  0.00     0.094 A 
ATOM      3  C   UNL     1      21.479   1.675 -20.749  1.00  0.00     0.142 A 
ATOM      4  C   UNL     1      21.479   1.020 -21.998  1.00  0.00     0.018 A 
ATOM      5  C   UNL     1      21.059  -0.314 -22.088  1.00  0.00     0.016 A 
ATOM      6  C   UNL     1      20.641  -0.991 -20.939  1.00  0.00     0.047 A 
ATOM      7  C   UNL     1      21.904   1.731 -23.125  1.00  0.00     0.019 A 
ATOM      8  C   UNL     1      22.312   3.057 -22.983  1.00  0.00     0.094 A 
ATOM      9  C   UNL     1      22.286   3.641 -21.712  1.00  0.00     0.336 A 
ATOM     10  O   UNL     1      22.650   4.837 -21.564  1.00  0.00    -0.246 OA
ATOM     11  O   UNL     1      21.877   2.942 -20.657  1.00  0.00    -0.423 OA
ENDROOT
BRANCH   1  12
ATOM     12  O   UNL     1      20.209  -1.081 -18.573  1.00  0.00    -0.497 OA
ATOM     13  C   UNL     1      19.598  -0.503 -17.423  1.00  0.00     0.278 C 
ENDBRANCH   1  12
TORSDOF 1
ENDMDL
MODEL 4
REMARK VINA RESULT:    -5.087      1.217      1.719
REMARK INTER + INTRA:          -5.423
REMARK INTER:                  -5.386
REMARK INTRA:                  -0.038
REMARK UNBOUND:                -0.039
REMARK SMILES COc1ccc2ccc(=O)oc2c1
REMARK SMILES IDX 3 1 13 2 12 3 6 4 5 5 4 6 7 7 8 8 9 9 10 10 11 11 2 12 1 13
REMARK H PARENT
REMARK Flexibility Score: inf
ROOT
ATOM      1  C   UNL     1      22.257   3.398 -21.965  1.00  0.00     0.122 A 
ATOM      2  C   UNL     1      21.849   2.831 -20.741  1.00  0.00     0.094 A 
ATOM      3  C   UNL     1      21.433   1.496 -20.686  1.00  0.00     0.142 A 
ATOM      4  C   UNL     1      21.423   0.715 -21.860  1.00  0.00     0.018 A 
ATOM      5  C   UNL     1      21.829   1.278 -23.078  1.00  0.00     0.016 A 
ATOM      6  C   UNL     1      22.243   2.611 -23.125  1.00  0.00     0.047 A 
ATOM      7  C   UNL     1      21.002  -0.616 -21.773  1.00  0.00     0.019 A 
ATOM      8  C   UNL     1      20.608  -1.129 -20.537  1.00  0.00     0.094 A 
ATOM      9  C   UNL     1      20.644  -0.294 -19.415  1.00  0.00     0.336 A 
ATOM     10  O   UNL     1      20.292  -0.739 -18.291  1.00  0.00    -0.246 OA
ATOM     11  O   UNL     1      21.049   0.968 -19.527  1.00  0.00    -0.423 OA
ENDROOT
BRANCH   1  12
ATOM     12  O   UNL     1      22.683   4.731 -22.072  1.00  0.00    -0.497 OA
ATOM     13  C   UNL     1      23.658   5.191 -23.002  1.00  0.00     0.278 C 
ENDBRANCH   1  12
TORSDOF 1
ENDMDL
MODEL 5
REMARK VINA RESULT:    -4.924     18.924     20.047
REMARK INTER + INTRA:          -5.251
REMARK INTER:                  -5.217
REMARK INTRA:                  -0.034
REMARK UNBOUND:                -0.039
REMARK SMILES COc1ccc2ccc(=O)oc2c1
REMARK SMILES IDX 3 1 13 2 12 3 6 4 5 5 4 6 7 7 8 8 9 9 10 10 11 11 2 12 1 13
REMARK H PARENT
REMARK Flexibility Score: inf
ROOT
ATOM      1  C   UNL     1       4.996   6.422 -10.109  1.00  0.00     0.122 A 
ATOM      2  C   UNL     1       6.066   5.513  -9.986  1.00  0.00     0.094 A 
ATOM      3  C   UNL     1       6.057   4.545  -8.976  1.00  0.00     0.142 A 
ATOM      4  C   UNL     1       4.972   4.479  -8.077  1.00  0.00     0.018 A 
ATOM      5  C   UNL     1       3.908   5.382  -8.198  1.00  0.00     0.016 A 
ATOM      6  C   UNL     1       3.923   6.345  -9.210  1.00  0.00     0.047 A 
ATOM      7  C   UNL     1       4.992   3.501  -7.078  1.00  0.00     0.019 A 
ATOM      8  C   UNL     1       6.075   2.625  -6.999  1.00  0.00     0.094 A 
ATOM      9  C   UNL     1       7.116   2.751  -7.926  1.00  0.00     0.336 A 
ATOM     10  O   UNL     1       8.102   1.970  -7.872  1.00  0.00    -0.246 OA
ATOM     11  O   UNL     1       7.071   3.690  -8.867  1.00  0.00    -0.423 OA
ENDROOT
BRANCH   1  12
ATOM     12  O   UNL     1       4.958   7.410 -11.105  1.00  0.00    -0.497 OA
ATOM     13  C   UNL     1       3.884   7.585 -12.023  1.00  0.00     0.278 C 
ENDBRANCH   1  12
TORSDOF 1
ENDMDL
MODEL 6
REMARK VINA RESULT:    -4.810      2.055      5.641
REMARK INTER + INTRA:          -5.130
REMARK INTER:                  -5.090
REMARK INTRA:                  -0.040
REMARK UNBOUND:                -0.039
REMARK SMILES COc1ccc2ccc(=O)oc2c1
REMARK SMILES IDX 3 1 13 2 12 3 6 4 5 5 4 6 7 7 8 8 9 9 10 10 11 11 2 12 1 13
REMARK H PARENT
REMARK Flexibility Score: inf
ROOT
ATOM      1  C   UNL     1      18.939  -1.783 -17.719  1.00  0.00     0.122 A 
ATOM      2  C   UNL     1      19.267  -1.995 -19.074  1.00  0.00     0.094 A 
ATOM      3  C   UNL     1      19.974  -1.022 -19.788  1.00  0.00     0.142 A 
ATOM      4  C   UNL     1      20.361   0.175 -19.150  1.00  0.00     0.018 A 
ATOM      5  C   UNL     1      20.036   0.386 -17.804  1.00  0.00     0.016 A 
ATOM      6  C   UNL     1      19.329  -0.590 -17.096  1.00  0.00     0.047 A 
ATOM      7  C   UNL     1      21.067   1.129 -19.891  1.00  0.00     0.019 A 
ATOM      8  C   UNL     1      21.367   0.870 -21.229  1.00  0.00     0.094 A 
ATOM      9  C   UNL     1      20.950  -0.339 -21.794  1.00  0.00     0.336 A 
ATOM     10  O   UNL     1      21.211  -0.591 -23.000  1.00  0.00    -0.246 OA
ATOM     11  O   UNL     1      20.280  -1.229 -21.066  1.00  0.00    -0.423 OA
ENDROOT
BRANCH   1  12
ATOM     12  O   UNL     1      18.231  -2.728 -16.960  1.00  0.00    -0.497 OA
ATOM     13  C   UNL     1      17.936  -2.587 -15.574  1.00  0.00     0.278 C 
ENDBRANCH   1  12
TORSDOF 1
ENDMDL
MODEL 7
REMARK VINA RESULT:    -4.770     14.751     17.477
REMARK INTER + INTRA:          -5.088
REMARK INTER:                  -5.054
REMARK INTRA:                  -0.033
REMARK UNBOUND:                -0.039
REMARK SMILES COc1ccc2ccc(=O)oc2c1
REMARK SMILES IDX 3 1 13 2 12 3 6 4 5 5 4 6 7 7 8 8 9 9 10 10 11 11 2 12 1 13
REMARK H PARENT
REMARK Flexibility Score: inf
ROOT
ATOM      1  C   UNL     1      11.707  -5.919 -10.067  1.00  0.00     0.122 A 
ATOM      2  C   UNL     1      11.252  -6.207  -8.765  1.00  0.00     0.094 A 
ATOM      3  C   UNL     1       9.907  -6.014  -8.429  1.00  0.00     0.142 A 
ATOM      4  C   UNL     1       9.004  -5.529  -9.398  1.00  0.00     0.018 A 
ATOM      5  C   UNL     1       9.456  -5.242 -10.693  1.00  0.00     0.016 A 
ATOM      6  C   UNL     1      10.800  -5.438 -11.021  1.00  0.00     0.047 A 
ATOM      7  C   UNL     1       7.667  -5.345  -9.033  1.00  0.00     0.019 A 
ATOM      8  C   UNL     1       7.267  -5.646  -7.730  1.00  0.00     0.094 A 
ATOM      9  C   UNL     1       8.219  -6.124  -6.823  1.00  0.00     0.336 A 
ATOM     10  O   UNL     1       7.877  -6.401  -5.643  1.00  0.00    -0.246 OA
ATOM     11  O   UNL     1       9.484  -6.289  -7.198  1.00  0.00    -0.423 OA
ENDROOT
BRANCH   1  12
ATOM     12  O   UNL     1      13.045  -6.096 -10.453  1.00  0.00    -0.497 OA
ATOM     13  C   UNL     1      13.999  -5.043 -10.550  1.00  0.00     0.278 C 
ENDBRANCH   1  12
TORSDOF 1
ENDMDL
MODEL 8
REMARK VINA RESULT:    -4.738     15.205     18.387
REMARK INTER + INTRA:          -5.054
REMARK INTER:                  -5.020
REMARK INTRA:                  -0.034
REMARK UNBOUND:                -0.039
REMARK SMILES COc1ccc2ccc(=O)oc2c1
REMARK SMILES IDX 3 1 13 2 12 3 6 4 5 5 4 6 7 7 8 8 9 9 10 10 11 11 2 12 1 13
REMARK H PARENT
REMARK Flexibility Score: inf
ROOT
ATOM      1  C   UNL     1       8.449  -5.967  -6.819  1.00  0.00     0.122 A 
ATOM      2  C   UNL     1       9.812  -6.088  -7.156  1.00  0.00     0.094 A 
ATOM      3  C   UNL     1      10.230  -5.897  -8.477  1.00  0.00     0.142 A 
ATOM      4  C   UNL     1       9.285  -5.581  -9.475  1.00  0.00     0.018 A 
ATOM      5  C   UNL     1       7.929  -5.460  -9.140  1.00  0.00     0.016 A 
ATOM      6  C   UNL     1       7.519  -5.652  -7.819  1.00  0.00     0.047 A 
ATOM      7  C   UNL     1       9.734  -5.396 -10.787  1.00  0.00     0.019 A 
ATOM      8  C   UNL     1      11.094  -5.527 -11.068  1.00  0.00     0.094 A 
ATOM      9  C   UNL     1      11.974  -5.842 -10.027  1.00  0.00     0.336 A 
ATOM     10  O   UNL     1      13.205  -5.965 -10.262  1.00  0.00    -0.246 OA
ATOM     11  O   UNL     1      11.519  -6.013  -8.789  1.00  0.00    -0.423 OA
ENDROOT
BRANCH   1  12
ATOM     12  O   UNL     1       7.979  -6.149  -5.509  1.00  0.00    -0.497 OA
ATOM     13  C   UNL     1       8.300  -5.296  -4.414  1.00  0.00     0.278 C 
ENDBRANCH   1  12
TORSDOF 1
ENDMDL
MODEL 9
REMARK VINA RESULT:    -4.640     16.634     18.949
REMARK INTER + INTRA:          -4.950
REMARK INTER:                  -4.912
REMARK INTRA:                  -0.038
REMARK UNBOUND:                -0.039
REMARK SMILES COc1ccc2ccc(=O)oc2c1
REMARK SMILES IDX 3 1 13 2 12 3 6 4 5 5 4 6 7 7 8 8 9 9 10 10 11 11 2 12 1 13
REMARK H PARENT
REMARK Flexibility Score: inf
ROOT
ATOM      1  C   UNL     1       8.006  -5.938 -10.972  1.00  0.00     0.122 A 
ATOM      2  C   UNL     1       8.006  -5.338  -9.697  1.00  0.00     0.094 A 
ATOM      3  C   UNL     1       8.001  -6.131  -8.544  1.00  0.00     0.142 A 
ATOM      4  C   UNL     1       7.996  -7.537  -8.659  1.00  0.00     0.018 A 
ATOM      5  C   UNL     1       7.996  -8.134  -9.926  1.00  0.00     0.016 A 
ATOM      6  C   UNL     1       8.002  -7.336 -11.073  1.00  0.00     0.047 A 
ATOM      7  C   UNL     1       7.990  -8.303  -7.489  1.00  0.00     0.019 A 
ATOM      8  C   UNL     1       7.991  -7.659  -6.251  1.00  0.00     0.094 A 
ATOM      9  C   UNL     1       7.996  -6.261  -6.214  1.00  0.00     0.336 A 
ATOM     10  O   UNL     1       7.996  -5.662  -5.107  1.00  0.00    -0.246 OA
ATOM     11  O   UNL     1       8.001  -5.557  -7.343  1.00  0.00    -0.423 OA
ENDROOT
BRANCH   1  12
ATOM     12  O   UNL     1       8.012  -5.186 -12.157  1.00  0.00    -0.497 OA
ATOM     13  C   UNL     1       7.654  -3.810 -12.237  1.00  0.00     0.278 C 
ENDBRANCH   1  12
TORSDOF 1
ENDMDL
