MODEL 1
REMARK VINA RESULT:    -3.274      0.000      0.000
REMARK INTER + INTRA:          -4.503
REMARK INTER:                  -3.848
REMARK INTRA:                  -0.655
REMARK UNBOUND:                -0.655
REMARK SMILES C=C(C)[C@@H]1CC[C@@]2(C(=O)[O-])CC[C@@]3(C)[C@H](CC[C@@H]4[C@@]5(C)C[C@@H](O)[C@H](O)C(C)(C)[C@@H]5CC[C@@]43C)[C@@H]12
REMARK SMILES IDX 7 1 6 2 34 3 11 4 5 5 15 6 4 7 12 8 16 9 13 10 17 11 32 12
REMARK SMILES IDX 14 13 18 14 31 15 33 16 19 17 30 18 29 19 21 20 20 21 26 22
REMARK SMILES IDX 22 23 24 24 27 25 28 26 8 27 9 28 10 29 2 30 3 31 1 32 23 33
REMARK SMILES IDX 25 35
REMARK H PARENT 23 34 25 36
REMARK Flexibility Score: inf
ROOT
ATOM      1  C   UNL     1      40.994  23.915  13.064  1.00  0.00     0.014 C 
ATOM      2  C   UNL     1      40.208  22.742  13.717  1.00  0.00     0.014 C 
ATOM      3  C   UNL     1      39.853  25.062  12.782  1.00  0.00     0.012 C 
ATOM      4  C   UNL     1      41.608  23.468  11.772  1.00  0.00     0.014 C 
ATOM      5  C   UNL     1      38.799  23.170  13.987  1.00  0.00     0.009 C 
ATOM      6  C   UNL     1      39.382  25.174  11.264  1.00  0.00     0.000 C 
ATOM      7  C   UNL     1      38.694  24.685  13.758  1.00  0.00     0.018 C 
ATOM      8  C   UNL     1      40.663  22.980  10.707  1.00  0.00     0.008 C 
ATOM      9  C   UNL     1      40.390  26.206  10.690  1.00  0.00     0.005 C 
ATOM     10  C   UNL     1      39.331  23.810  10.364  1.00  0.00    -0.024 C 
ATOM     11  C   UNL     1      40.122  26.415   9.287  1.00  0.00     0.005 C 
ATOM     12  C   UNL     1      39.336  23.912   8.717  1.00  0.00    -0.024 C 
ATOM     13  C   UNL     1      37.994  23.087  10.824  1.00  0.00     0.012 C 
ATOM     14  C   UNL     1      40.235  25.221   8.325  1.00  0.00     0.002 C 
ATOM     15  C   UNL     1      37.875  24.044   7.992  1.00  0.00     0.008 C 
ATOM     16  C   UNL     1      39.915  22.532   8.085  1.00  0.00     0.012 C 
ATOM     17  C   UNL     1      40.023  25.822   6.847  1.00  0.00    -0.023 C 
ATOM     18  C   UNL     1      37.971  24.332   6.462  1.00  0.00     0.005 C 
ATOM     19  C   UNL     1      39.418  24.714   5.934  1.00  0.00     0.004 C 
ATOM     20  C   UNL     1      41.445  26.203   6.343  1.00  0.00     0.042 C 
ATOM     21  C   UNL     1      39.114  27.124   6.793  1.00  0.00     0.012 C 
ATOM     22  C   UNL     1      39.449  25.053   4.385  1.00  0.00    -0.003 C 
ATOM     23  C   UNL     1      41.431  26.711   4.898  1.00  0.00     0.144 C 
ATOM     24  C   UNL     1      40.883  25.585   3.998  1.00  0.00     0.149 C 
ATOM     25  C   UNL     1      39.277  23.739   3.595  1.00  0.00     0.014 C 
ATOM     26  C   UNL     1      38.316  26.044   3.908  1.00  0.00     0.014 C 
ENDROOT
BRANCH   1  27
ATOM     27  C   UNL     1      42.219  24.373  13.781  1.00  0.00     0.048 C 
ATOM     28  O   UNL     1      42.591  25.567  13.719  1.00  0.00    -0.550 OA
ATOM     29  O   UNL     1      43.240  23.395  14.125  1.00  0.00    -0.550 OA
ENDBRANCH   1  27
BRANCH   7  30
ATOM     30  C   UNL     1      38.827  25.316  15.125  1.00  0.00    -0.077 C 
ATOM     31  C   UNL     1      39.280  26.740  15.142  1.00  0.00     0.039 C 
ATOM     32  C   UNL     1      38.284  24.823  16.253  1.00  0.00     0.008 C 
ENDBRANCH   7  30
BRANCH  23  33
ATOM     33  O   UNL     1      42.735  27.125   4.477  1.00  0.00    -0.390 OA
ATOM     34  H   UNL     1      42.959  27.992   4.924  1.00  0.00     0.211 HD
ENDBRANCH  23  33
BRANCH  24  35
ATOM     35  O   UNL     1      40.896  25.970   2.658  1.00  0.00    -0.390 OA
ATOM     36  H   UNL     1      41.670  25.498   2.241  1.00  0.00     0.211 HD
ENDBRANCH  24  35
TORSDOF 4
ENDMDL
MODEL 2
REMARK VINA RESULT:    -3.056      2.067      8.418
REMARK INTER + INTRA:          -4.248
REMARK INTER:                  -3.695
REMARK INTRA:                  -0.553
REMARK UNBOUND:                -0.655
REMARK SMILES C=C(C)[C@@H]1CC[C@@]2(C(=O)[O-])CC[C@@]3(C)[C@H](CC[C@@H]4[C@@]5(C)C[C@@H](O)[C@H](O)C(C)(C)[C@@H]5CC[C@@]43C)[C@@H]12
REMARK SMILES IDX 7 1 6 2 34 3 11 4 5 5 15 6 4 7 12 8 16 9 13 10 17 11 32 12
REMARK SMILES IDX 14 13 18 14 31 15 33 16 19 17 30 18 29 19 21 20 20 21 26 22
REMARK SMILES IDX 22 23 24 24 27 25 28 26 8 27 9 28 10 29 2 30 3 31 1 32 23 33
REMARK SMILES IDX 25 35
REMARK H PARENT 23 34 25 36
REMARK Flexibility Score: inf
ROOT
ATOM      1  C   UNL     1      40.810  24.403   5.611  1.00  0.00     0.014 C 
ATOM      2  C   UNL     1      41.976  25.233   5.002  1.00  0.00     0.014 C 
ATOM      3  C   UNL     1      39.700  25.528   6.059  1.00  0.00     0.012 C 
ATOM      4  C   UNL     1      41.289  23.643   6.810  1.00  0.00     0.014 C 
ATOM      5  C   UNL     1      41.571  26.671   4.904  1.00  0.00     0.009 C 
ATOM      6  C   UNL     1      39.654  25.831   7.623  1.00  0.00     0.000 C 
ATOM      7  C   UNL     1      40.068  26.779   5.200  1.00  0.00     0.018 C 
ATOM      8  C   UNL     1      41.837  24.457   7.952  1.00  0.00     0.008 C 
ATOM      9  C   UNL     1      38.621  24.787   8.123  1.00  0.00     0.005 C 
ATOM     10  C   UNL     1      41.051  25.759   8.470  1.00  0.00    -0.024 C 
ATOM     11  C   UNL     1      38.470  24.903   9.554  1.00  0.00     0.005 C 
ATOM     12  C   UNL     1      41.009  25.575  10.108  1.00  0.00    -0.024 C 
ATOM     13  C   UNL     1      41.788  27.124   8.129  1.00  0.00     0.012 C 
ATOM     14  C   UNL     1      39.695  24.664  10.452  1.00  0.00     0.002 C 
ATOM     15  C   UNL     1      40.937  26.950  10.993  1.00  0.00     0.008 C 
ATOM     16  C   UNL     1      42.398  24.905  10.620  1.00  0.00     0.012 C 
ATOM     17  C   UNL     1      39.154  24.724  11.966  1.00  0.00    -0.023 C 
ATOM     18  C   UNL     1      40.703  26.693  12.513  1.00  0.00     0.005 C 
ATOM     19  C   UNL     1      40.307  25.205  12.895  1.00  0.00     0.004 C 
ATOM     20  C   UNL     1      38.758  23.263  12.327  1.00  0.00     0.042 C 
ATOM     21  C   UNL     1      37.875  25.647  12.168  1.00  0.00     0.012 C 
ATOM     22  C   UNL     1      40.025  25.011  14.444  1.00  0.00    -0.003 C 
ATOM     23  C   UNL     1      38.303  23.129  13.784  1.00  0.00     0.144 C 
ATOM     24  C   UNL     1      39.474  23.554  14.694  1.00  0.00     0.149 C 
ATOM     25  C   UNL     1      41.369  25.070  15.196  1.00  0.00     0.014 C 
ATOM     26  C   UNL     1      39.078  26.104  15.079  1.00  0.00     0.014 C 
ENDROOT
BRANCH   1  27
ATOM     27  C   UNL     1      40.297  23.273   4.783  1.00  0.00     0.048 C 
ATOM     28  O   UNL     1      39.098  23.230   4.426  1.00  0.00    -0.550 OA
ATOM     29  O   UNL     1      41.010  22.004   4.806  1.00  0.00    -0.550 OA
ENDBRANCH   1  27
BRANCH   7  30
ATOM     30  C   UNL     1      39.385  26.808   3.853  1.00  0.00    -0.077 C 
ATOM     31  C   UNL     1      37.902  26.991   3.880  1.00  0.00     0.039 C 
ATOM     32  C   UNL     1      40.013  26.999   2.679  1.00  0.00     0.008 C 
ENDBRANCH   7  30
BRANCH  23  33
ATOM     33  O   UNL     1      37.875  21.795  14.076  1.00  0.00    -0.390 OA
ATOM     34  H   UNL     1      37.207  21.826  14.821  1.00  0.00     0.211 HD
ENDBRANCH  23  33
BRANCH  24  35
ATOM     35  O   UNL     1      39.138  23.402  16.038  1.00  0.00    -0.390 OA
ATOM     36  H   UNL     1      38.321  23.957  16.184  1.00  0.00     0.211 HD
ENDBRANCH  24  35
TORSDOF 4
ENDMDL
MODEL 3
REMARK VINA RESULT:    -2.262      1.491      8.317
REMARK INTER + INTRA:          -3.314
REMARK INTER:                  -2.761
REMARK INTRA:                  -0.553
REMARK UNBOUND:                -0.655
REMARK SMILES C=C(C)[C@@H]1CC[C@@]2(C(=O)[O-])CC[C@@]3(C)[C@H](CC[C@@H]4[C@@]5(C)C[C@@H](O)[C@H](O)C(C)(C)[C@@H]5CC[C@@]43C)[C@@H]12
REMARK SMILES IDX 7 1 6 2 34 3 11 4 5 5 15 6 4 7 12 8 16 9 13 10 17 11 32 12
REMARK SMILES IDX 14 13 18 14 31 15 33 16 19 17 30 18 29 19 21 20 20 21 26 22
REMARK SMILES IDX 22 23 24 24 27 25 28 26 8 27 9 28 10 29 2 30 3 31 1 32 23 33
REMARK SMILES IDX 25 35
REMARK H PARENT 23 34 25 36
REMARK Flexibility Score: inf
ROOT
ATOM      1  C   UNL     1      40.536  25.503   5.663  1.00  0.00     0.014 C 
ATOM      2  C   UNL     1      40.057  26.851   5.051  1.00  0.00     0.014 C 
ATOM      3  C   UNL     1      39.148  24.718   6.054  1.00  0.00     0.012 C 
ATOM      4  C   UNL     1      41.352  25.756   6.893  1.00  0.00     0.014 C 
ATOM      5  C   UNL     1      38.568  26.833   4.901  1.00  0.00     0.009 C 
ATOM      6  C   UNL     1      38.789  24.735   7.607  1.00  0.00     0.000 C 
ATOM      7  C   UNL     1      38.065  25.406   5.165  1.00  0.00     0.018 C 
ATOM      8  C   UNL     1      40.669  26.483   8.020  1.00  0.00     0.008 C 
ATOM      9  C   UNL     1      39.514  23.461   8.119  1.00  0.00     0.005 C 
ATOM     10  C   UNL     1      39.191  26.056   8.482  1.00  0.00    -0.024 C 
ATOM     11  C   UNL     1      39.313  23.329   9.542  1.00  0.00     0.005 C 
ATOM     12  C   UNL     1      39.301  25.950  10.125  1.00  0.00    -0.024 C 
ATOM     13  C   UNL     1      38.075  27.125   8.115  1.00  0.00     0.012 C 
ATOM     14  C   UNL     1      39.829  24.441  10.470  1.00  0.00     0.002 C 
ATOM     15  C   UNL     1      37.925  26.227  10.966  1.00  0.00     0.008 C 
ATOM     16  C   UNL     1      40.290  27.112  10.684  1.00  0.00     0.012 C 
ATOM     17  C   UNL     1      39.579  23.918  11.971  1.00  0.00    -0.023 C 
ATOM     18  C   UNL     1      38.060  25.918  12.488  1.00  0.00     0.005 C 
ATOM     19  C   UNL     1      39.382  25.146  12.908  1.00  0.00     0.004 C 
ATOM     20  C   UNL     1      40.875  23.154  12.369  1.00  0.00     0.042 C 
ATOM     21  C   UNL     1      38.352  22.919  12.120  1.00  0.00     0.012 C 
ATOM     22  C   UNL     1      39.442  24.806  14.456  1.00  0.00    -0.003 C 
ATOM     23  C   UNL     1      40.837  22.664  13.820  1.00  0.00     0.144 C 
ATOM     24  C   UNL     1      40.698  23.895  14.739  1.00  0.00     0.149 C 
ATOM     25  C   UNL     1      39.707  26.112  15.231  1.00  0.00     0.014 C 
ATOM     26  C   UNL     1      38.121  24.168  15.038  1.00  0.00     0.014 C 
ENDROOT
BRANCH   1  27
ATOM     27  C   UNL     1      41.524  24.725   4.859  1.00  0.00     0.048 C 
ATOM     28  O   UNL     1      41.330  24.503   3.642  1.00  0.00    -0.550 OA
ATOM     29  O   UNL     1      42.426  23.812   5.546  1.00  0.00    -0.550 OA
ENDBRANCH   1  27
BRANCH   7  30
ATOM     30  C   UNL     1      37.906  24.768   3.805  1.00  0.00    -0.077 C 
ATOM     31  C   UNL     1      38.023  25.691   2.636  1.00  0.00     0.039 C 
ATOM     32  C   UNL     1      37.988  23.447   3.564  1.00  0.00     0.008 C 
ENDBRANCH   7  30
BRANCH  23  33
ATOM     33  O   UNL     1      42.005  21.902  14.144  1.00  0.00    -0.390 OA
ATOM     34  H   UNL     1      42.734  22.137  13.501  1.00  0.00     0.211 HD
ENDBRANCH  23  33
BRANCH  24  35
ATOM     35  O   UNL     1      40.712  23.516  16.081  1.00  0.00    -0.390 OA
ATOM     36  H   UNL     1      39.782  23.653  16.417  1.00  0.00     0.211 HD
ENDBRANCH  24  35
TORSDOF 4
ENDMDL
MODEL 4
REMARK VINA RESULT:    -1.734      1.920      3.112
REMARK INTER + INTRA:          -2.694
REMARK INTER:                  -2.417
REMARK INTRA:                  -0.277
REMARK UNBOUND:                -0.655
REMARK SMILES C=C(C)[C@@H]1CC[C@@]2(C(=O)[O-])CC[C@@]3(C)[C@H](CC[C@@H]4[C@@]5(C)C[C@@H](O)[C@H](O)C(C)(C)[C@@H]5CC[C@@]43C)[C@@H]12
REMARK SMILES IDX 7 1 6 2 34 3 11 4 5 5 15 6 4 7 12 8 16 9 13 10 17 11 32 12
REMARK SMILES IDX 14 13 18 14 31 15 33 16 19 17 30 18 29 19 21 20 20 21 26 22
REMARK SMILES IDX 22 23 24 24 27 25 28 26 8 27 9 28 10 29 2 30 3 31 1 32 23 33
REMARK SMILES IDX 25 35
REMARK H PARENT 23 34 25 36
REMARK Flexibility Score: inf
ROOT
ATOM      1  C   UNL     1      38.704  23.066  12.535  1.00  0.00     0.014 C 
ATOM      2  C   UNL     1      37.875  24.051  13.410  1.00  0.00     0.014 C 
ATOM      3  C   UNL     1      40.190  23.759  12.439  1.00  0.00     0.012 C 
ATOM      4  C   UNL     1      38.097  22.952  11.171  1.00  0.00     0.014 C 
ATOM      5  C   UNL     1      38.773  25.120  13.950  1.00  0.00     0.009 C 
ATOM      6  C   UNL     1      40.498  24.483  11.053  1.00  0.00     0.000 C 
ATOM      7  C   UNL     1      40.230  24.730  13.662  1.00  0.00     0.018 C 
ATOM      8  C   UNL     1      38.005  24.219  10.363  1.00  0.00     0.008 C 
ATOM      9  C   UNL     1      41.113  23.329  10.217  1.00  0.00     0.005 C 
ATOM     10  C   UNL     1      39.264  25.211  10.266  1.00  0.00    -0.024 C 
ATOM     11  C   UNL     1      41.437  23.808   8.895  1.00  0.00     0.005 C 
ATOM     12  C   UNL     1      39.395  25.534   8.654  1.00  0.00    -0.024 C 
ATOM     13  C   UNL     1      39.056  26.581  11.044  1.00  0.00     0.012 C 
ATOM     14  C   UNL     1      40.304  24.341   8.002  1.00  0.00     0.002 C 
ATOM     15  C   UNL     1      40.058  26.976   8.252  1.00  0.00     0.008 C 
ATOM     16  C   UNL     1      37.914  25.636   7.994  1.00  0.00     0.012 C 
ATOM     17  C   UNL     1      40.975  24.648   6.572  1.00  0.00    -0.023 C 
ATOM     18  C   UNL     1      40.327  27.125   6.723  1.00  0.00     0.005 C 
ATOM     19  C   UNL     1      40.179  25.791   5.876  1.00  0.00     0.004 C 
ATOM     20  C   UNL     1      40.833  23.332   5.753  1.00  0.00     0.042 C 
ATOM     21  C   UNL     1      42.517  25.025   6.639  1.00  0.00     0.012 C 
ATOM     22  C   UNL     1      40.519  25.986   4.339  1.00  0.00    -0.003 C 
ATOM     23  C   UNL     1      41.346  23.485   4.318  1.00  0.00     0.144 C 
ATOM     24  C   UNL     1      40.512  24.580   3.623  1.00  0.00     0.149 C 
ATOM     25  C   UNL     1      39.373  26.781   3.683  1.00  0.00     0.014 C 
ATOM     26  C   UNL     1      41.861  26.771   4.060  1.00  0.00     0.014 C 
ENDROOT
BRANCH   1  27
ATOM     27  C   UNL     1      38.677  21.632  12.946  1.00  0.00     0.048 C 
ATOM     28  O   UNL     1      37.962  21.250  13.900  1.00  0.00    -0.550 OA
ATOM     29  O   UNL     1      39.808  20.781  12.605  1.00  0.00    -0.550 OA
ENDBRANCH   1  27
BRANCH   7  30
ATOM     30  C   UNL     1      40.740  24.084  14.929  1.00  0.00    -0.077 C 
ATOM     31  C   UNL     1      39.705  23.760  15.956  1.00  0.00     0.039 C 
ATOM     32  C   UNL     1      41.950  23.510  15.062  1.00  0.00     0.008 C 
ENDBRANCH   7  30
BRANCH  23  33
ATOM     33  O   UNL     1      41.276  22.246   3.604  1.00  0.00    -0.390 OA
ATOM     34  H   UNL     1      41.851  21.572   4.068  1.00  0.00     0.211 HD
ENDBRANCH  23  33
BRANCH  24  35
ATOM     35  O   UNL     1      40.898  24.729   2.292  1.00  0.00    -0.390 OA
ATOM     36  H   UNL     1      41.041  23.806   1.940  1.00  0.00     0.211 HD
ENDBRANCH  24  35
TORSDOF 4
ENDMDL
MODEL 5
REMARK VINA RESULT:    -1.695      2.218      3.870
REMARK INTER + INTRA:          -2.647
REMARK INTER:                  -2.069
REMARK INTRA:                  -0.579
REMARK UNBOUND:                -0.655
REMARK SMILES C=C(C)[C@@H]1CC[C@@]2(C(=O)[O-])CC[C@@]3(C)[C@H](CC[C@@H]4[C@@]5(C)C[C@@H](O)[C@H](O)C(C)(C)[C@@H]5CC[C@@]43C)[C@@H]12
REMARK SMILES IDX 7 1 6 2 34 3 11 4 5 5 15 6 4 7 12 8 16 9 13 10 17 11 32 12
REMARK SMILES IDX 14 13 18 14 31 15 33 16 19 17 30 18 29 19 21 20 20 21 26 22
REMARK SMILES IDX 22 23 24 24 27 25 28 26 8 27 9 28 10 29 2 30 3 31 1 32 23 33
REMARK SMILES IDX 25 35
REMARK H PARENT 23 34 25 36
REMARK Flexibility Score: inf
ROOT
ATOM      1  C   UNL     1      41.182  22.741  13.272  1.00  0.00     0.014 C 
ATOM      2  C   UNL     1      41.234  23.793  14.417  1.00  0.00     0.014 C 
ATOM      3  C   UNL     1      42.506  23.070  12.357  1.00  0.00     0.012 C 
ATOM      4  C   UNL     1      39.935  22.920  12.462  1.00  0.00     0.014 C 
ATOM      5  C   UNL     1      42.519  24.556  14.340  1.00  0.00     0.009 C 
ATOM      6  C   UNL     1      42.199  23.846  10.999  1.00  0.00     0.000 C 
ATOM      7  C   UNL     1      43.440  23.867  13.323  1.00  0.00     0.018 C 
ATOM      8  C   UNL     1      39.754  24.253  11.786  1.00  0.00     0.008 C 
ATOM      9  C   UNL     1      41.953  22.676  10.009  1.00  0.00     0.005 C 
ATOM     10  C   UNL     1      40.971  24.925  10.981  1.00  0.00    -0.024 C 
ATOM     11  C   UNL     1      41.630  23.205   8.705  1.00  0.00     0.005 C 
ATOM     12  C   UNL     1      40.299  25.380   9.545  1.00  0.00    -0.024 C 
ATOM     13  C   UNL     1      41.570  26.213  11.693  1.00  0.00     0.012 C 
ATOM     14  C   UNL     1      40.378  24.083   8.551  1.00  0.00     0.002 C 
ATOM     15  C   UNL     1      40.988  26.659   8.792  1.00  0.00     0.008 C 
ATOM     16  C   UNL     1      38.779  25.899   9.792  1.00  0.00     0.012 C 
ATOM     17  C   UNL     1      40.233  24.376   6.975  1.00  0.00    -0.023 C 
ATOM     18  C   UNL     1      40.427  26.904   7.357  1.00  0.00     0.005 C 
ATOM     19  C   UNL     1      39.513  25.742   6.780  1.00  0.00     0.004 C 
ATOM     20  C   UNL     1      39.344  23.226   6.417  1.00  0.00     0.042 C 
ATOM     21  C   UNL     1      41.608  24.369   6.179  1.00  0.00     0.012 C 
ATOM     22  C   UNL     1      39.017  26.016   5.298  1.00  0.00    -0.003 C 
ATOM     23  C   UNL     1      39.030  23.407   4.929  1.00  0.00     0.144 C 
ATOM     24  C   UNL     1      38.268  24.737   4.757  1.00  0.00     0.149 C 
ATOM     25  C   UNL     1      37.946  27.125   5.340  1.00  0.00     0.014 C 
ATOM     26  C   UNL     1      40.150  26.487   4.305  1.00  0.00     0.014 C 
ENDROOT
BRANCH   1  27
ATOM     27  C   UNL     1      41.012  21.318  13.687  1.00  0.00     0.048 C 
ATOM     28  O   UNL     1      41.972  20.668  14.161  1.00  0.00    -0.550 OA
ATOM     29  O   UNL     1      39.930  20.539  13.103  1.00  0.00    -0.550 OA
ENDBRANCH   1  27
BRANCH   7  30
ATOM     30  C   UNL     1      44.362  22.986  14.133  1.00  0.00    -0.077 C 
ATOM     31  C   UNL     1      45.046  21.893  13.379  1.00  0.00     0.039 C 
ATOM     32  C   UNL     1      44.841  23.295  15.352  1.00  0.00     0.008 C 
ENDBRANCH   7  30
BRANCH  23  33
ATOM     33  O   UNL     1      38.275  22.305   4.417  1.00  0.00    -0.390 OA
ATOM     34  H   UNL     1      38.603  21.461   4.844  1.00  0.00     0.211 HD
ENDBRANCH  23  33
BRANCH  24  35
ATOM     35  O   UNL     1      37.906  24.933   3.425  1.00  0.00    -0.390 OA
ATOM     36  H   UNL     1      37.652  25.895   3.345  1.00  0.00     0.211 HD
ENDBRANCH  24  35
TORSDOF 4
ENDMDL
MODEL 6
REMARK VINA RESULT:    -0.925      1.805      2.949
REMARK INTER + INTRA:          -1.742
REMARK INTER:                  -1.393
REMARK INTRA:                  -0.350
REMARK UNBOUND:                -0.655
REMARK SMILES C=C(C)[C@@H]1CC[C@@]2(C(=O)[O-])CC[C@@]3(C)[C@H](CC[C@@H]4[C@@]5(C)C[C@@H](O)[C@H](O)C(C)(C)[C@@H]5CC[C@@]43C)[C@@H]12
REMARK SMILES IDX 7 1 6 2 34 3 11 4 5 5 15 6 4 7 12 8 16 9 13 10 17 11 32 12
REMARK SMILES IDX 14 13 18 14 31 15 33 16 19 17 30 18 29 19 21 20 20 21 26 22
REMARK SMILES IDX 22 23 24 24 27 25 28 26 8 27 9 28 10 29 2 30 3 31 1 32 23 33
REMARK SMILES IDX 25 35
REMARK H PARENT 23 34 25 36
REMARK Flexibility Score: inf
ROOT
ATOM      1  C   UNL     1      40.368  25.775  12.901  1.00  0.00     0.014 C 
ATOM      2  C   UNL     1      41.612  25.268  13.687  1.00  0.00     0.014 C 
ATOM      3  C   UNL     1      39.587  24.402  12.448  1.00  0.00     0.012 C 
ATOM      4  C   UNL     1      40.800  26.547  11.693  1.00  0.00     0.014 C 
ATOM      5  C   UNL     1      41.522  23.785  13.868  1.00  0.00     0.009 C 
ATOM      6  C   UNL     1      39.782  24.000  10.919  1.00  0.00     0.000 C 
ATOM      7  C   UNL     1      40.122  23.322  13.441  1.00  0.00     0.018 C 
ATOM      8  C   UNL     1      41.635  25.809  10.681  1.00  0.00     0.008 C 
ATOM      9  C   UNL     1      38.608  24.752  10.236  1.00  0.00     0.005 C 
ATOM     10  C   UNL     1      41.215  24.334  10.204  1.00  0.00    -0.024 C 
ATOM     11  C   UNL     1      38.646  24.515   8.812  1.00  0.00     0.005 C 
ATOM     12  C   UNL     1      41.316  24.401   8.559  1.00  0.00    -0.024 C 
ATOM     13  C   UNL     1      42.190  23.194  10.728  1.00  0.00     0.012 C 
ATOM     14  C   UNL     1      39.881  24.969   8.017  1.00  0.00     0.002 C 
ATOM     15  C   UNL     1      41.644  22.993   7.792  1.00  0.00     0.008 C 
ATOM     16  C   UNL     1      42.573  25.335   8.126  1.00  0.00     0.012 C 
ATOM     17  C   UNL     1      39.537  24.694   6.469  1.00  0.00    -0.023 C 
ATOM     18  C   UNL     1      41.530  23.096   6.240  1.00  0.00     0.005 C 
ATOM     19  C   UNL     1      40.863  24.430   5.697  1.00  0.00     0.004 C 
ATOM     20  C   UNL     1      38.876  26.003   5.950  1.00  0.00     0.042 C 
ATOM     21  C   UNL     1      38.521  23.496   6.227  1.00  0.00     0.012 C 
ATOM     22  C   UNL     1      40.719  24.459   4.118  1.00  0.00    -0.003 C 
ATOM     23  C   UNL     1      38.567  25.941   4.450  1.00  0.00     0.144 C 
ATOM     24  C   UNL     1      39.895  25.736   3.694  1.00  0.00     0.149 C 
ATOM     25  C   UNL     1      42.120  24.658   3.504  1.00  0.00     0.014 C 
ATOM     26  C   UNL     1      40.110  23.143   3.492  1.00  0.00     0.014 C 
ENDROOT
BRANCH   1  27
ATOM     27  C   UNL     1      39.533  26.809  13.578  1.00  0.00     0.048 C 
ATOM     28  O   UNL     1      39.744  27.125  14.771  1.00  0.00    -0.550 OA
ATOM     29  O   UNL     1      38.200  27.084  13.063  1.00  0.00    -0.550 OA
ENDBRANCH   1  27
BRANCH   7  30
ATOM     30  C   UNL     1      39.316  23.223  14.715  1.00  0.00    -0.077 C 
ATOM     31  C   UNL     1      39.994  23.712  15.954  1.00  0.00     0.039 C 
ATOM     32  C   UNL     1      37.984  23.039  14.767  1.00  0.00     0.008 C 
ENDBRANCH   7  30
BRANCH  23  33
ATOM     33  O   UNL     1      37.893  27.123   4.006  1.00  0.00    -0.390 OA
ATOM     34  H   UNL     1      37.927  27.808   4.736  1.00  0.00     0.211 HD
ENDBRANCH  23  33
BRANCH  24  35
ATOM     35  O   UNL     1      39.685  25.724   2.316  1.00  0.00    -0.390 OA
ATOM     36  H   UNL     1      40.587  25.807   1.897  1.00  0.00     0.211 HD
ENDBRANCH  24  35
TORSDOF 4
ENDMDL
