MODEL 1
REMARK VINA RESULT:    -6.968      0.000      0.000
REMARK INTER + INTRA:          -8.895
REMARK INTER:                  -8.597
REMARK INTRA:                  -0.297
REMARK UNBOUND:                -0.297
REMARK SMILES O=c1c(O)c(-c2cc(O)c(O)c(O)c2)oc2cc(O)cc(O)c12
REMARK SMILES IDX 5 1 3 2 2 3 1 4 23 5 21 6 20 7 18 8 17 9 16 10 15 11 6 12
REMARK SMILES IDX 7 13 8 14 14 15 10 16 12 17 9 18 11 20 13 22 4 24 22 26
REMARK SMILES IDX 19 28
REMARK H PARENT 9 19 11 21 13 23 4 25 22 27 19 29
REMARK Flexibility Score: inf
ROOT
ATOM      1  C   UNL     1      18.450  24.426  41.904  1.00  0.00     0.180 A 
ATOM      2  C   UNL     1      17.208  24.095  42.478  1.00  0.00     0.208 A 
ATOM      3  C   UNL     1      16.760  24.822  43.593  1.00  0.00     0.238 A 
ATOM      4  O   UNL     1      15.654  24.528  44.122  1.00  0.00    -0.285 OA
ATOM      5  C   UNL     1      17.548  25.877  44.099  1.00  0.00     0.111 A 
ATOM      6  C   UNL     1      17.168  26.660  45.216  1.00  0.00     0.134 A 
ATOM      7  C   UNL     1      18.003  27.698  45.654  1.00  0.00     0.093 A 
ATOM      8  C   UNL     1      19.210  27.968  44.997  1.00  0.00     0.123 A 
ATOM      9  C   UNL     1      19.589  27.196  43.897  1.00  0.00     0.094 A 
ATOM     10  C   UNL     1      18.772  26.157  43.446  1.00  0.00     0.146 A 
ATOM     11  O   UNL     1      19.160  25.437  42.399  1.00  0.00    -0.452 OA
ENDROOT
BRANCH   1  12
ATOM     12  C   UNL     1      18.999  23.694  40.739  1.00  0.00     0.029 A 
ATOM     13  C   UNL     1      20.008  22.741  40.935  1.00  0.00     0.062 A 
ATOM     14  C   UNL     1      20.534  22.016  39.860  1.00  0.00     0.162 A 
ATOM     15  C   UNL     1      18.487  23.892  39.447  1.00  0.00     0.062 A 
ATOM     16  C   UNL     1      20.030  22.237  38.556  1.00  0.00     0.200 A 
ATOM     17  C   UNL     1      19.004  23.173  38.361  1.00  0.00     0.162 A 
BRANCH  14  18
ATOM     18  O   UNL     1      21.546  21.093  40.131  1.00  0.00    -0.504 OA
ATOM     19  H   UNL     1      22.496  21.348  40.364  1.00  0.00     0.293 HD
ENDBRANCH  14  18
BRANCH  16  20
ATOM     20  O   UNL     1      20.514  21.552  37.438  1.00  0.00    -0.502 OA
ATOM     21  H   UNL     1      20.469  20.550  37.325  1.00  0.00     0.293 HD
ENDBRANCH  16  20
BRANCH  17  22
ATOM     22  O   UNL     1      18.497  23.380  37.080  1.00  0.00    -0.504 OA
ATOM     23  H   UNL     1      17.889  24.163  36.869  1.00  0.00     0.293 HD
ENDBRANCH  17  22
ENDBRANCH   1  12
BRANCH   2  24
ATOM     24  O   UNL     1      16.423  23.079  41.927  1.00  0.00    -0.502 OA
ATOM     25  H   UNL     1      15.626  23.271  41.333  1.00  0.00     0.293 HD
ENDBRANCH   2  24
BRANCH   6  26
ATOM     26  O   UNL     1      15.970  26.417  45.889  1.00  0.00    -0.507 OA
ATOM     27  H   UNL     1      15.427  25.578  45.727  1.00  0.00     0.293 HD
ENDBRANCH   6  26
BRANCH   8  28
ATOM     28  O   UNL     1      20.039  28.999  45.432  1.00  0.00    -0.508 OA
ATOM     29  H   UNL     1      20.681  28.873  46.205  1.00  0.00     0.293 HD
ENDBRANCH   8  28
TORSDOF 7
ENDMDL
MODEL 2
REMARK VINA RESULT:    -6.817      1.041      2.090
REMARK INTER + INTRA:          -8.709
REMARK INTER:                  -8.342
REMARK INTRA:                  -0.367
REMARK UNBOUND:                -0.297
REMARK SMILES O=c1c(O)c(-c2cc(O)c(O)c(O)c2)oc2cc(O)cc(O)c12
REMARK SMILES IDX 5 1 3 2 2 3 1 4 23 5 21 6 20 7 18 8 17 9 16 10 15 11 6 12
REMARK SMILES IDX 7 13 8 14 14 15 10 16 12 17 9 18 11 20 13 22 4 24 22 26
REMARK SMILES IDX 19 28
REMARK H PARENT 9 19 11 21 13 23 4 25 22 27 19 29
REMARK Flexibility Score: inf
ROOT
ATOM      1  C   UNL     1      17.897  24.469  42.600  1.00  0.00     0.180 A 
ATOM      2  C   UNL     1      16.921  23.766  43.331  1.00  0.00     0.208 A 
ATOM      3  C   UNL     1      16.433  24.325  44.523  1.00  0.00     0.238 A 
ATOM      4  O   UNL     1      15.566  23.700  45.192  1.00  0.00    -0.285 OA
ATOM      5  C   UNL     1      16.912  25.580  44.951  1.00  0.00     0.111 A 
ATOM      6  C   UNL     1      16.470  26.214  46.138  1.00  0.00     0.134 A 
ATOM      7  C   UNL     1      16.988  27.468  46.492  1.00  0.00     0.093 A 
ATOM      8  C   UNL     1      17.939  28.100  45.682  1.00  0.00     0.123 A 
ATOM      9  C   UNL     1      18.379  27.479  44.512  1.00  0.00     0.094 A 
ATOM     10  C   UNL     1      17.875  26.229  44.143  1.00  0.00     0.146 A 
ATOM     11  O   UNL     1      18.315  25.658  43.026  1.00  0.00    -0.452 OA
ENDROOT
BRANCH   1  12
ATOM     12  C   UNL     1      18.474  23.938  41.343  1.00  0.00     0.029 A 
ATOM     13  C   UNL     1      17.920  24.320  40.114  1.00  0.00     0.062 A 
ATOM     14  C   UNL     1      18.453  23.854  38.907  1.00  0.00     0.162 A 
ATOM     15  C   UNL     1      19.604  23.105  41.354  1.00  0.00     0.062 A 
ATOM     16  C   UNL     1      19.578  22.995  38.925  1.00  0.00     0.200 A 
ATOM     17  C   UNL     1      20.148  22.631  40.154  1.00  0.00     0.162 A 
BRANCH  14  18
ATOM     18  O   UNL     1      17.839  24.268  37.722  1.00  0.00    -0.504 OA
ATOM     19  H   UNL     1      18.205  24.079  36.800  1.00  0.00     0.293 HD
ENDBRANCH  14  18
BRANCH  16  20
ATOM     20  O   UNL     1      20.156  22.489  37.759  1.00  0.00    -0.502 OA
ATOM     21  H   UNL     1      20.447  23.060  36.978  1.00  0.00     0.293 HD
ENDBRANCH  16  20
BRANCH  17  22
ATOM     22  O   UNL     1      21.265  21.798  40.173  1.00  0.00    -0.504 OA
ATOM     23  H   UNL     1      22.202  22.162  40.049  1.00  0.00     0.293 HD
ENDBRANCH  17  22
ENDBRANCH   1  12
BRANCH   2  24
ATOM     24  O   UNL     1      16.427  22.548  42.859  1.00  0.00    -0.502 OA
ATOM     25  H   UNL     1      16.946  21.683  42.944  1.00  0.00     0.293 HD
ENDBRANCH   2  24
BRANCH   6  26
ATOM     26  O   UNL     1      15.521  25.609  46.965  1.00  0.00    -0.507 OA
ATOM     27  H   UNL     1      14.850  26.153  47.493  1.00  0.00     0.293 HD
ENDBRANCH   6  26
BRANCH   8  28
ATOM     28  O   UNL     1      18.453  29.347  46.033  1.00  0.00    -0.508 OA
ATOM     29  H   UNL     1      18.259  30.174  45.482  1.00  0.00     0.293 HD
ENDBRANCH   8  28
TORSDOF 7
ENDMDL
MODEL 3
REMARK VINA RESULT:    -6.714      1.288      3.362
REMARK INTER + INTRA:          -8.581
REMARK INTER:                  -8.250
REMARK INTRA:                  -0.330
REMARK UNBOUND:                -0.297
REMARK SMILES O=c1c(O)c(-c2cc(O)c(O)c(O)c2)oc2cc(O)cc(O)c12
REMARK SMILES IDX 5 1 3 2 2 3 1 4 23 5 21 6 20 7 18 8 17 9 16 10 15 11 6 12
REMARK SMILES IDX 7 13 8 14 14 15 10 16 12 17 9 18 11 20 13 22 4 24 22 26
REMARK SMILES IDX 19 28
REMARK H PARENT 9 19 11 21 13 23 4 25 22 27 19 29
REMARK Flexibility Score: inf
ROOT
ATOM      1  C   UNL     1      19.270  25.173  41.409  1.00  0.00     0.180 A 
ATOM      2  C   UNL     1      20.154  26.220  41.732  1.00  0.00     0.208 A 
ATOM      3  C   UNL     1      19.913  26.980  42.887  1.00  0.00     0.238 A 
ATOM      4  O   UNL     1      20.693  27.927  43.181  1.00  0.00    -0.285 OA
ATOM      5  C   UNL     1      18.809  26.669  43.707  1.00  0.00     0.111 A 
ATOM      6  C   UNL     1      18.498  27.384  44.890  1.00  0.00     0.134 A 
ATOM      7  C   UNL     1      17.386  27.008  45.658  1.00  0.00     0.093 A 
ATOM      8  C   UNL     1      16.581  25.932  45.266  1.00  0.00     0.123 A 
ATOM      9  C   UNL     1      16.883  25.226  44.100  1.00  0.00     0.094 A 
ATOM     10  C   UNL     1      17.985  25.586  43.321  1.00  0.00     0.146 A 
ATOM     11  O   UNL     1      18.247  24.899  42.214  1.00  0.00    -0.452 OA
ENDROOT
BRANCH   1  12
ATOM     12  C   UNL     1      19.447  24.339  40.198  1.00  0.00     0.029 A 
ATOM     13  C   UNL     1      19.038  24.834  38.952  1.00  0.00     0.062 A 
ATOM     14  C   UNL     1      19.210  24.081  37.785  1.00  0.00     0.162 A 
ATOM     15  C   UNL     1      20.071  23.083  40.263  1.00  0.00     0.062 A 
ATOM     16  C   UNL     1      19.818  22.805  37.860  1.00  0.00     0.200 A 
ATOM     17  C   UNL     1      20.249  22.318  39.103  1.00  0.00     0.162 A 
BRANCH  14  18
ATOM     18  O   UNL     1      18.766  24.636  36.583  1.00  0.00    -0.504 OA
ATOM     19  H   UNL     1      18.101  25.394  36.521  1.00  0.00     0.293 HD
ENDBRANCH  14  18
BRANCH  16  20
ATOM     20  O   UNL     1      20.015  22.000  36.736  1.00  0.00    -0.502 OA
ATOM     21  H   UNL     1      20.352  22.341  35.848  1.00  0.00     0.293 HD
ENDBRANCH  16  20
BRANCH  17  22
ATOM     22  O   UNL     1      20.863  21.069  39.176  1.00  0.00    -0.504 OA
ATOM     23  H   UNL     1      20.956  20.573  40.054  1.00  0.00     0.293 HD
ENDBRANCH  17  22
ENDBRANCH   1  12
BRANCH   2  24
ATOM     24  O   UNL     1      21.269  26.475  40.929  1.00  0.00    -0.502 OA
ATOM     25  H   UNL     1      22.217  26.336  41.257  1.00  0.00     0.293 HD
ENDBRANCH   2  24
BRANCH   6  26
ATOM     26  O   UNL     1      19.283  28.460  45.307  1.00  0.00    -0.507 OA
ATOM     27  H   UNL     1      19.532  29.215  44.679  1.00  0.00     0.293 HD
ENDBRANCH   6  26
BRANCH   8  28
ATOM     28  O   UNL     1      15.477  25.558  46.029  1.00  0.00    -0.508 OA
ATOM     29  H   UNL     1      15.488  24.724  46.604  1.00  0.00     0.293 HD
ENDBRANCH   8  28
TORSDOF 7
ENDMDL
MODEL 4
REMARK VINA RESULT:    -6.710      1.260      2.889
REMARK INTER + INTRA:          -8.577
REMARK INTER:                  -8.219
REMARK INTRA:                  -0.358
REMARK UNBOUND:                -0.297
REMARK SMILES O=c1c(O)c(-c2cc(O)c(O)c(O)c2)oc2cc(O)cc(O)c12
REMARK SMILES IDX 5 1 3 2 2 3 1 4 23 5 21 6 20 7 18 8 17 9 16 10 15 11 6 12
REMARK SMILES IDX 7 13 8 14 14 15 10 16 12 17 9 18 11 20 13 22 4 24 22 26
REMARK SMILES IDX 19 28
REMARK H PARENT 9 19 11 21 13 23 4 25 22 27 19 29
REMARK Flexibility Score: inf
ROOT
ATOM      1  C   UNL     1      19.317  25.206  41.427  1.00  0.00     0.180 A 
ATOM      2  C   UNL     1      20.186  26.266  41.749  1.00  0.00     0.208 A 
ATOM      3  C   UNL     1      19.928  27.028  42.900  1.00  0.00     0.238 A 
ATOM      4  O   UNL     1      20.694  27.986  43.194  1.00  0.00    -0.285 OA
ATOM      5  C   UNL     1      18.825  26.705  43.716  1.00  0.00     0.111 A 
ATOM      6  C   UNL     1      18.498  27.421  44.894  1.00  0.00     0.134 A 
ATOM      7  C   UNL     1      17.387  27.033  45.659  1.00  0.00     0.093 A 
ATOM      8  C   UNL     1      16.599  25.944  45.268  1.00  0.00     0.123 A 
ATOM      9  C   UNL     1      16.916  25.238  44.106  1.00  0.00     0.094 A 
ATOM     10  C   UNL     1      18.017  25.609  43.331  1.00  0.00     0.146 A 
ATOM     11  O   UNL     1      18.294  24.921  42.229  1.00  0.00    -0.452 OA
ENDROOT
BRANCH   1  12
ATOM     12  C   UNL     1      19.511  24.368  40.221  1.00  0.00     0.029 A 
ATOM     13  C   UNL     1      20.121  23.112  40.343  1.00  0.00     0.062 A 
ATOM     14  C   UNL     1      20.301  22.286  39.228  1.00  0.00     0.162 A 
ATOM     15  C   UNL     1      19.043  24.780  38.963  1.00  0.00     0.062 A 
ATOM     16  C   UNL     1      19.848  22.717  37.959  1.00  0.00     0.200 A 
ATOM     17  C   UNL     1      19.216  23.963  37.839  1.00  0.00     0.162 A 
BRANCH  14  18
ATOM     18  O   UNL     1      20.928  21.054  39.427  1.00  0.00    -0.504 OA
ATOM     19  H   UNL     1      21.912  20.946  39.628  1.00  0.00     0.293 HD
ENDBRANCH  14  18
BRANCH  16  20
ATOM     20  O   UNL     1      20.000  21.945  36.805  1.00  0.00    -0.502 OA
ATOM     21  H   UNL     1      19.530  22.134  35.931  1.00  0.00     0.293 HD
ENDBRANCH  16  20
BRANCH  17  22
ATOM     22  O   UNL     1      18.755  24.383  36.592  1.00  0.00    -0.504 OA
ATOM     23  H   UNL     1      18.867  25.340  36.279  1.00  0.00     0.293 HD
ENDBRANCH  17  22
ENDBRANCH   1  12
BRANCH   2  24
ATOM     24  O   UNL     1      21.301  26.532  40.951  1.00  0.00    -0.502 OA
ATOM     25  H   UNL     1      22.101  25.913  40.913  1.00  0.00     0.293 HD
ENDBRANCH   2  24
BRANCH   6  26
ATOM     26  O   UNL     1      19.266  28.509  45.310  1.00  0.00    -0.507 OA
ATOM     27  H   UNL     1      18.847  29.402  45.541  1.00  0.00     0.293 HD
ENDBRANCH   6  26
BRANCH   8  28
ATOM     28  O   UNL     1      15.496  25.559  46.027  1.00  0.00    -0.508 OA
ATOM     29  H   UNL     1      15.477  24.676  46.524  1.00  0.00     0.293 HD
ENDBRANCH   8  28
TORSDOF 7
ENDMDL
MODEL 5
REMARK VINA RESULT:    -6.473      1.528      7.085
REMARK INTER + INTRA:          -8.283
REMARK INTER:                  -7.934
REMARK INTRA:                  -0.349
REMARK UNBOUND:                -0.297
REMARK SMILES O=c1c(O)c(-c2cc(O)c(O)c(O)c2)oc2cc(O)cc(O)c12
REMARK SMILES IDX 5 1 3 2 2 3 1 4 23 5 21 6 20 7 18 8 17 9 16 10 15 11 6 12
REMARK SMILES IDX 7 13 8 14 14 15 10 16 12 17 9 18 11 20 13 22 4 24 22 26
REMARK SMILES IDX 19 28
REMARK H PARENT 9 19 11 21 13 23 4 25 22 27 19 29
REMARK Flexibility Score: inf
ROOT
ATOM      1  C   UNL     1      17.462  25.209  42.438  1.00  0.00     0.180 A 
ATOM      2  C   UNL     1      16.648  25.511  41.329  1.00  0.00     0.208 A 
ATOM      3  C   UNL     1      16.960  24.942  40.084  1.00  0.00     0.238 A 
ATOM      4  O   UNL     1      16.244  25.213  39.082  1.00  0.00    -0.285 OA
ATOM      5  C   UNL     1      18.062  24.070  39.973  1.00  0.00     0.111 A 
ATOM      6  C   UNL     1      18.442  23.453  38.756  1.00  0.00     0.134 A 
ATOM      7  C   UNL     1      19.547  22.589  38.728  1.00  0.00     0.093 A 
ATOM      8  C   UNL     1      20.278  22.331  39.894  1.00  0.00     0.123 A 
ATOM      9  C   UNL     1      19.909  22.938  41.095  1.00  0.00     0.094 A 
ATOM     10  C   UNL     1      18.812  23.803  41.142  1.00  0.00     0.146 A 
ATOM     11  O   UNL     1      18.485  24.370  42.299  1.00  0.00    -0.452 OA
ENDROOT
BRANCH   1  12
ATOM     12  C   UNL     1      17.209  25.783  43.779  1.00  0.00     0.029 A 
ATOM     13  C   UNL     1      17.860  26.965  44.158  1.00  0.00     0.062 A 
ATOM     14  C   UNL     1      17.628  27.547  45.410  1.00  0.00     0.162 A 
ATOM     15  C   UNL     1      16.284  25.201  44.660  1.00  0.00     0.062 A 
ATOM     16  C   UNL     1      16.712  26.941  46.302  1.00  0.00     0.200 A 
ATOM     17  C   UNL     1      16.042  25.772  45.916  1.00  0.00     0.162 A 
BRANCH  14  18
ATOM     18  O   UNL     1      18.324  28.718  45.722  1.00  0.00    -0.504 OA
ATOM     19  H   UNL     1      18.720  28.915  46.629  1.00  0.00     0.293 HD
ENDBRANCH  14  18
BRANCH  16  20
ATOM     20  O   UNL     1      16.438  27.466  47.568  1.00  0.00    -0.502 OA
ATOM     21  H   UNL     1      15.778  28.210  47.742  1.00  0.00     0.293 HD
ENDBRANCH  16  20
BRANCH  17  22
ATOM     22  O   UNL     1      15.128  25.184  46.787  1.00  0.00    -0.504 OA
ATOM     23  H   UNL     1      15.350  24.338  47.299  1.00  0.00     0.293 HD
ENDBRANCH  17  22
ENDBRANCH   1  12
BRANCH   2  24
ATOM     24  O   UNL     1      15.533  26.339  41.477  1.00  0.00    -0.502 OA
ATOM     25  H   UNL     1      15.466  27.244  41.028  1.00  0.00     0.293 HD
ENDBRANCH   2  24
BRANCH   6  26
ATOM     26  O   UNL     1      17.731  23.689  37.578  1.00  0.00    -0.507 OA
ATOM     27  H   UNL     1      17.995  23.260  36.700  1.00  0.00     0.293 HD
ENDBRANCH   6  26
BRANCH   8  28
ATOM     28  O   UNL     1      21.375  21.473  39.866  1.00  0.00    -0.508 OA
ATOM     29  H   UNL     1      21.376  20.632  39.302  1.00  0.00     0.293 HD
ENDBRANCH   8  28
TORSDOF 7
ENDMDL
MODEL 6
REMARK VINA RESULT:    -6.429      3.018      5.901
REMARK INTER + INTRA:          -8.229
REMARK INTER:                  -7.875
REMARK INTRA:                  -0.354
REMARK UNBOUND:                -0.297
REMARK SMILES O=c1c(O)c(-c2cc(O)c(O)c(O)c2)oc2cc(O)cc(O)c12
REMARK SMILES IDX 5 1 3 2 2 3 1 4 23 5 21 6 20 7 18 8 17 9 16 10 15 11 6 12
REMARK SMILES IDX 7 13 8 14 14 15 10 16 12 17 9 18 11 20 13 22 4 24 22 26
REMARK SMILES IDX 19 28
REMARK H PARENT 9 19 11 21 13 23 4 25 22 27 19 29
REMARK Flexibility Score: inf
ROOT
ATOM      1  C   UNL     1      17.242  24.282  42.911  1.00  0.00     0.180 A 
ATOM      2  C   UNL     1      15.917  24.562  42.527  1.00  0.00     0.208 A 
ATOM      3  C   UNL     1      14.947  23.554  42.653  1.00  0.00     0.238 A 
ATOM      4  O   UNL     1      13.759  23.790  42.303  1.00  0.00    -0.285 OA
ATOM      5  C   UNL     1      15.312  22.298  43.177  1.00  0.00     0.111 A 
ATOM      6  C   UNL     1      14.395  21.231  43.340  1.00  0.00     0.134 A 
ATOM      7  C   UNL     1      14.834  20.011  43.877  1.00  0.00     0.093 A 
ATOM      8  C   UNL     1      16.171  19.840  44.256  1.00  0.00     0.123 A 
ATOM      9  C   UNL     1      17.078  20.888  44.096  1.00  0.00     0.094 A 
ATOM     10  C   UNL     1      16.661  22.110  43.561  1.00  0.00     0.146 A 
ATOM     11  O   UNL     1      17.547  23.089  43.416  1.00  0.00    -0.452 OA
ENDROOT
BRANCH   1  12
ATOM     12  C   UNL     1      18.325  25.285  42.792  1.00  0.00     0.029 A 
ATOM     13  C   UNL     1      18.993  25.439  41.569  1.00  0.00     0.062 A 
ATOM     14  C   UNL     1      20.006  26.392  41.415  1.00  0.00     0.162 A 
ATOM     15  C   UNL     1      18.659  26.130  43.863  1.00  0.00     0.062 A 
ATOM     16  C   UNL     1      20.353  27.224  42.506  1.00  0.00     0.200 A 
ATOM     17  C   UNL     1      19.670  27.088  43.723  1.00  0.00     0.162 A 
BRANCH  14  18
ATOM     18  O   UNL     1      20.634  26.478  40.170  1.00  0.00    -0.504 OA
ATOM     19  H   UNL     1      20.161  26.734  39.315  1.00  0.00     0.293 HD
ENDBRANCH  14  18
BRANCH  16  20
ATOM     20  O   UNL     1      21.358  28.191  42.422  1.00  0.00    -0.502 OA
ATOM     21  H   UNL     1      21.185  29.175  42.272  1.00  0.00     0.293 HD
ENDBRANCH  16  20
BRANCH  17  22
ATOM     22  O   UNL     1      20.001  27.917  44.793  1.00  0.00    -0.504 OA
ATOM     23  H   UNL     1      20.271  28.884  44.653  1.00  0.00     0.293 HD
ENDBRANCH  17  22
ENDBRANCH   1  12
BRANCH   2  24
ATOM     24  O   UNL     1      15.572  25.832  42.057  1.00  0.00    -0.502 OA
ATOM     25  H   UNL     1      15.885  26.681  42.511  1.00  0.00     0.293 HD
ENDBRANCH   2  24
BRANCH   6  26
ATOM     26  O   UNL     1      13.055  21.372  42.974  1.00  0.00    -0.507 OA
ATOM     27  H   UNL     1      12.302  21.187  43.624  1.00  0.00     0.293 HD
ENDBRANCH   6  26
BRANCH   8  28
ATOM     28  O   UNL     1      16.606  18.629  44.791  1.00  0.00    -0.508 OA
ATOM     29  H   UNL     1      16.708  18.498  45.790  1.00  0.00     0.293 HD
ENDBRANCH   8  28
TORSDOF 7
ENDMDL
MODEL 7
REMARK VINA RESULT:    -6.335      3.100      5.978
REMARK INTER + INTRA:          -8.114
REMARK INTER:                  -7.750
REMARK INTRA:                  -0.364
REMARK UNBOUND:                -0.297
REMARK SMILES O=c1c(O)c(-c2cc(O)c(O)c(O)c2)oc2cc(O)cc(O)c12
REMARK SMILES IDX 5 1 3 2 2 3 1 4 23 5 21 6 20 7 18 8 17 9 16 10 15 11 6 12
REMARK SMILES IDX 7 13 8 14 14 15 10 16 12 17 9 18 11 20 13 22 4 24 22 26
REMARK SMILES IDX 19 28
REMARK H PARENT 9 19 11 21 13 23 4 25 22 27 19 29
REMARK Flexibility Score: inf
ROOT
ATOM      1  C   UNL     1      16.990  23.851  43.091  1.00  0.00     0.180 A 
ATOM      2  C   UNL     1      15.632  24.026  42.764  1.00  0.00     0.208 A 
ATOM      3  C   UNL     1      14.747  22.951  42.940  1.00  0.00     0.238 A 
ATOM      4  O   UNL     1      13.530  23.093  42.640  1.00  0.00    -0.285 OA
ATOM      5  C   UNL     1      15.228  21.731  43.458  1.00  0.00     0.111 A 
ATOM      6  C   UNL     1      14.401  20.600  43.669  1.00  0.00     0.134 A 
ATOM      7  C   UNL     1      14.954  19.423  44.196  1.00  0.00     0.093 A 
ATOM      8  C   UNL     1      16.315  19.356  44.517  1.00  0.00     0.123 A 
ATOM      9  C   UNL     1      17.133  20.468  44.309  1.00  0.00     0.094 A 
ATOM     10  C   UNL     1      16.602  21.649  43.783  1.00  0.00     0.146 A 
ATOM     11  O   UNL     1      17.405  22.690  43.592  1.00  0.00    -0.452 OA
ENDROOT
BRANCH   1  12
ATOM     12  C   UNL     1      17.987  24.931  42.917  1.00  0.00     0.029 A 
ATOM     13  C   UNL     1      18.236  25.819  43.972  1.00  0.00     0.062 A 
ATOM     14  C   UNL     1      19.187  26.838  43.849  1.00  0.00     0.162 A 
ATOM     15  C   UNL     1      18.735  25.049  41.735  1.00  0.00     0.062 A 
ATOM     16  C   UNL     1      19.921  26.967  42.646  1.00  0.00     0.200 A 
ATOM     17  C   UNL     1      19.691  26.064  41.597  1.00  0.00     0.162 A 
BRANCH  14  18
ATOM     18  O   UNL     1      19.369  27.693  44.939  1.00  0.00    -0.504 OA
ATOM     19  H   UNL     1      19.731  27.397  45.835  1.00  0.00     0.293 HD
ENDBRANCH  14  18
BRANCH  16  20
ATOM     20  O   UNL     1      20.880  27.964  42.454  1.00  0.00    -0.502 OA
ATOM     21  H   UNL     1      20.862  28.629  41.694  1.00  0.00     0.293 HD
ENDBRANCH  16  20
BRANCH  17  22
ATOM     22  O   UNL     1      20.424  26.180  40.418  1.00  0.00    -0.504 OA
ATOM     23  H   UNL     1      20.325  25.512  39.663  1.00  0.00     0.293 HD
ENDBRANCH  17  22
ENDBRANCH   1  12
BRANCH   2  24
ATOM     24  O   UNL     1      15.171  25.261  42.300  1.00  0.00    -0.502 OA
ATOM     25  H   UNL     1      15.014  26.048  42.917  1.00  0.00     0.293 HD
ENDBRANCH   2  24
BRANCH   6  26
ATOM     26  O   UNL     1      13.040  20.637  43.361  1.00  0.00    -0.507 OA
ATOM     27  H   UNL     1      12.506  19.791  43.205  1.00  0.00     0.293 HD
ENDBRANCH   6  26
BRANCH   8  28
ATOM     28  O   UNL     1      16.863  18.188  45.042  1.00  0.00    -0.508 OA
ATOM     29  H   UNL     1      17.095  18.107  46.024  1.00  0.00     0.293 HD
ENDBRANCH   8  28
TORSDOF 7
ENDMDL
MODEL 8
REMARK VINA RESULT:    -6.263      4.165      7.558
REMARK INTER + INTRA:          -8.025
REMARK INTER:                  -7.954
REMARK INTRA:                  -0.071
REMARK UNBOUND:                -0.297
REMARK SMILES O=c1c(O)c(-c2cc(O)c(O)c(O)c2)oc2cc(O)cc(O)c12
REMARK SMILES IDX 5 1 3 2 2 3 1 4 23 5 21 6 20 7 18 8 17 9 16 10 15 11 6 12
REMARK SMILES IDX 7 13 8 14 14 15 10 16 12 17 9 18 11 20 13 22 4 24 22 26
REMARK SMILES IDX 19 28
REMARK H PARENT 9 19 11 21 13 23 4 25 22 27 19 29
REMARK Flexibility Score: inf
ROOT
ATOM      1  C   UNL     1      16.891  23.572  45.711  1.00  0.00     0.180 A 
ATOM      2  C   UNL     1      16.569  22.866  44.536  1.00  0.00     0.208 A 
ATOM      3  C   UNL     1      16.376  21.477  44.611  1.00  0.00     0.238 A 
ATOM      4  O   UNL     1      16.097  20.832  43.564  1.00  0.00    -0.285 OA
ATOM      5  C   UNL     1      16.486  20.825  45.856  1.00  0.00     0.111 A 
ATOM      6  C   UNL     1      16.303  19.430  46.018  1.00  0.00     0.134 A 
ATOM      7  C   UNL     1      16.421  18.856  47.293  1.00  0.00     0.093 A 
ATOM      8  C   UNL     1      16.717  19.649  48.407  1.00  0.00     0.123 A 
ATOM      9  C   UNL     1      16.901  21.024  48.251  1.00  0.00     0.094 A 
ATOM     10  C   UNL     1      16.789  21.615  46.990  1.00  0.00     0.146 A 
ATOM     11  O   UNL     1      16.972  22.926  46.871  1.00  0.00    -0.452 OA
ENDROOT
BRANCH   1  12
ATOM     12  C   UNL     1      17.128  25.034  45.710  1.00  0.00     0.029 A 
ATOM     13  C   UNL     1      16.481  25.839  46.658  1.00  0.00     0.062 A 
ATOM     14  C   UNL     1      16.699  27.221  46.700  1.00  0.00     0.162 A 
ATOM     15  C   UNL     1      18.034  25.626  44.817  1.00  0.00     0.062 A 
ATOM     16  C   UNL     1      17.596  27.815  45.780  1.00  0.00     0.200 A 
ATOM     17  C   UNL     1      18.262  27.008  44.847  1.00  0.00     0.162 A 
BRANCH  14  18
ATOM     18  O   UNL     1      16.009  27.959  47.665  1.00  0.00    -0.504 OA
ATOM     19  H   UNL     1      16.446  28.618  48.292  1.00  0.00     0.293 HD
ENDBRANCH  14  18
BRANCH  16  20
ATOM     20  O   UNL     1      17.854  29.187  45.763  1.00  0.00    -0.502 OA
ATOM     21  H   UNL     1      17.567  29.808  45.021  1.00  0.00     0.293 HD
ENDBRANCH  16  20
BRANCH  17  22
ATOM     22  O   UNL     1      19.157  27.589  43.951  1.00  0.00    -0.504 OA
ATOM     23  H   UNL     1      19.626  27.043  43.238  1.00  0.00     0.293 HD
ENDBRANCH  17  22
ENDBRANCH   1  12
BRANCH   2  24
ATOM     24  O   UNL     1      16.417  23.544  43.324  1.00  0.00    -0.502 OA
ATOM     25  H   UNL     1      15.687  23.313  42.662  1.00  0.00     0.293 HD
ENDBRANCH   2  24
BRANCH   6  26
ATOM     26  O   UNL     1      16.004  18.613  44.926  1.00  0.00    -0.507 OA
ATOM     27  H   UNL     1      15.470  17.758  45.030  1.00  0.00     0.293 HD
ENDBRANCH   6  26
BRANCH   8  28
ATOM     28  O   UNL     1      16.834  19.079  49.673  1.00  0.00    -0.508 OA
ATOM     29  H   UNL     1      16.545  19.577  50.506  1.00  0.00     0.293 HD
ENDBRANCH   8  28
TORSDOF 7
ENDMDL
MODEL 9
REMARK VINA RESULT:    -6.223      2.058      7.034
REMARK INTER + INTRA:          -7.975
REMARK INTER:                  -7.674
REMARK INTRA:                  -0.301
REMARK UNBOUND:                -0.297
REMARK SMILES O=c1c(O)c(-c2cc(O)c(O)c(O)c2)oc2cc(O)cc(O)c12
REMARK SMILES IDX 5 1 3 2 2 3 1 4 23 5 21 6 20 7 18 8 17 9 16 10 15 11 6 12
REMARK SMILES IDX 7 13 8 14 14 15 10 16 12 17 9 18 11 20 13 22 4 24 22 26
REMARK SMILES IDX 19 28
REMARK H PARENT 9 19 11 21 13 23 4 25 22 27 19 29
REMARK Flexibility Score: inf
ROOT
ATOM      1  C   UNL     1      18.898  25.224  40.965  1.00  0.00     0.180 A 
ATOM      2  C   UNL     1      19.281  23.890  40.733  1.00  0.00     0.208 A 
ATOM      3  C   UNL     1      19.561  23.483  39.419  1.00  0.00     0.238 A 
ATOM      4  O   UNL     1      19.895  22.287  39.197  1.00  0.00    -0.285 OA
ATOM      5  C   UNL     1      19.475  24.418  38.367  1.00  0.00     0.111 A 
ATOM      6  C   UNL     1      19.744  24.090  37.016  1.00  0.00     0.134 A 
ATOM      7  C   UNL     1      19.644  25.080  36.027  1.00  0.00     0.093 A 
ATOM      8  C   UNL     1      19.282  26.390  36.363  1.00  0.00     0.123 A 
ATOM      9  C   UNL     1      19.014  26.716  37.694  1.00  0.00     0.094 A 
ATOM     10  C   UNL     1      19.106  25.745  38.693  1.00  0.00     0.146 A 
ATOM     11  O   UNL     1      18.842  26.083  39.951  1.00  0.00    -0.452 OA
ENDROOT
BRANCH   1  12
ATOM     12  C   UNL     1      18.569  25.724  42.320  1.00  0.00     0.029 A 
ATOM     13  C   UNL     1      19.446  26.609  42.962  1.00  0.00     0.062 A 
ATOM     14  C   UNL     1      19.156  27.118  44.233  1.00  0.00     0.162 A 
ATOM     15  C   UNL     1      17.365  25.377  42.953  1.00  0.00     0.062 A 
ATOM     16  C   UNL     1      17.952  26.745  44.876  1.00  0.00     0.200 A 
ATOM     17  C   UNL     1      17.062  25.879  44.226  1.00  0.00     0.162 A 
BRANCH  14  18
ATOM     18  O   UNL     1      20.085  27.984  44.813  1.00  0.00    -0.504 OA
ATOM     19  H   UNL     1      20.369  27.943  45.782  1.00  0.00     0.293 HD
ENDBRANCH  14  18
BRANCH  16  20
ATOM     20  O   UNL     1      17.604  27.211  46.146  1.00  0.00    -0.502 OA
ATOM     21  H   UNL     1      18.130  27.904  46.659  1.00  0.00     0.293 HD
ENDBRANCH  16  20
BRANCH  17  22
ATOM     22  O   UNL     1      15.868  25.523  44.851  1.00  0.00    -0.504 OA
ATOM     23  H   UNL     1      15.480  26.074  45.608  1.00  0.00     0.293 HD
ENDBRANCH  17  22
ENDBRANCH   1  12
BRANCH   2  24
ATOM     24  O   UNL     1      19.407  22.996  41.800  1.00  0.00    -0.502 OA
ATOM     25  H   UNL     1      18.745  22.247  41.961  1.00  0.00     0.293 HD
ENDBRANCH   2  24
BRANCH   6  26
ATOM     26  O   UNL     1      20.110  22.794  36.650  1.00  0.00    -0.507 OA
ATOM     27  H   UNL     1      19.566  21.987  36.929  1.00  0.00     0.293 HD
ENDBRANCH   6  26
BRANCH   8  28
ATOM     28  O   UNL     1      19.183  27.373  35.381  1.00  0.00    -0.508 OA
ATOM     29  H   UNL     1      19.910  28.067  35.252  1.00  0.00     0.293 HD
ENDBRANCH   8  28
TORSDOF 7
ENDMDL
