MODEL 1
REMARK VINA RESULT:    -4.405      0.000      0.000
REMARK INTER + INTRA:          -5.199
REMARK INTER:                  -5.049
REMARK INTRA:                  -0.150
REMARK UNBOUND:                -0.150
REMARK SMILES CC=Cc1ccc(O)c(OC)c1
REMARK SMILES IDX 4 1 12 2 9 3 7 4 6 5 5 6 3 7 1 8 2 9 10 10 11 11 8 12
REMARK H PARENT 8 13
REMARK Flexibility Score: inf
ROOT
ATOM      1  C   UNL     1      10.075 -32.201  14.138  1.00  0.00    -0.022 A 
ATOM      2  C   UNL     1       9.661 -32.157  15.479  1.00  0.00     0.058 A 
ATOM      3  C   UNL     1       8.299 -32.286  15.820  1.00  0.00     0.161 A 
ATOM      4  C   UNL     1       7.350 -32.451  14.803  1.00  0.00     0.157 A 
ATOM      5  C   UNL     1       7.754 -32.481  13.464  1.00  0.00     0.051 A 
ATOM      6  C   UNL     1       9.103 -32.354  13.130  1.00  0.00     0.012 A 
ENDROOT
BRANCH   1   7
ATOM      7  C   UNL     1      11.520 -32.051  13.835  1.00  0.00     0.003 C 
ATOM      8  C   UNL     1      13.759 -31.045  14.042  1.00  0.00     0.035 C 
ATOM      9  C   UNL     1      12.315 -31.142  14.413  1.00  0.00    -0.030 C 
ENDBRANCH   1   7
BRANCH   3  10
ATOM     10  O   UNL     1       7.854 -32.254  17.151  1.00  0.00    -0.493 OA
ATOM     11  C   UNL     1       8.677 -31.940  18.270  1.00  0.00     0.278 C 
ENDBRANCH   3  10
BRANCH   4  12
ATOM     12  O   UNL     1       6.001 -32.580  15.133  1.00  0.00    -0.504 OA
ATOM     13  H   UNL     1       5.552 -33.487  15.181  1.00  0.00     0.293 HD
ENDBRANCH   4  12
TORSDOF 3
ENDMDL
MODEL 2
REMARK VINA RESULT:    -3.469      1.054      2.666
REMARK INTER + INTRA:          -4.125
REMARK INTER:                  -4.071
REMARK INTRA:                  -0.055
REMARK UNBOUND:                -0.150
REMARK SMILES CC=Cc1ccc(O)c(OC)c1
REMARK SMILES IDX 4 1 12 2 9 3 7 4 6 5 5 6 3 7 1 8 2 9 10 10 11 11 8 12
REMARK H PARENT 8 13
REMARK Flexibility Score: inf
ROOT
ATOM      1  C   UNL     1      10.007 -32.184  14.543  1.00  0.00    -0.022 A 
ATOM      2  C   UNL     1       9.060 -32.560  13.576  1.00  0.00     0.058 A 
ATOM      3  C   UNL     1       7.690 -32.636  13.898  1.00  0.00     0.161 A 
ATOM      4  C   UNL     1       7.273 -32.340  15.203  1.00  0.00     0.157 A 
ATOM      5  C   UNL     1       8.213 -31.979  16.175  1.00  0.00     0.051 A 
ATOM      6  C   UNL     1       9.569 -31.905  15.853  1.00  0.00     0.012 A 
ENDROOT
BRANCH   1   7
ATOM      7  C   UNL     1      11.438 -32.129  14.153  1.00  0.00     0.003 C 
ATOM      8  C   UNL     1      13.681 -31.122  13.997  1.00  0.00     0.035 C 
ATOM      9  C   UNL     1      12.253 -31.107  14.440  1.00  0.00    -0.030 C 
ENDBRANCH   1   7
BRANCH   3  10
ATOM     10  O   UNL     1       6.718 -33.000  12.953  1.00  0.00    -0.493 OA
ATOM     11  C   UNL     1       6.106 -34.283  12.878  1.00  0.00     0.278 C 
ENDBRANCH   3  10
BRANCH   4  12
ATOM     12  O   UNL     1       5.919 -32.412  15.527  1.00  0.00    -0.504 OA
ATOM     13  H   UNL     1       5.476 -33.293  15.761  1.00  0.00     0.293 HD
ENDBRANCH   4  12
TORSDOF 3
ENDMDL
MODEL 3
REMARK VINA RESULT:    -3.430      1.284      2.786
REMARK INTER + INTRA:          -4.082
REMARK INTER:                  -3.905
REMARK INTRA:                  -0.177
REMARK UNBOUND:                -0.150
REMARK SMILES CC=Cc1ccc(O)c(OC)c1
REMARK SMILES IDX 4 1 12 2 9 3 7 4 6 5 5 6 3 7 1 8 2 9 10 10 11 11 8 12
REMARK H PARENT 8 13
REMARK Flexibility Score: inf
ROOT
ATOM      1  C   UNL     1      11.071 -31.301  15.276  1.00  0.00    -0.022 A 
ATOM      2  C   UNL     1       9.940 -32.074  14.964  1.00  0.00     0.058 A 
ATOM      3  C   UNL     1       8.885 -32.217  15.887  1.00  0.00     0.161 A 
ATOM      4  C   UNL     1       8.975 -31.586  17.136  1.00  0.00     0.157 A 
ATOM      5  C   UNL     1      10.105 -30.827  17.459  1.00  0.00     0.051 A 
ATOM      6  C   UNL     1      11.148 -30.687  16.541  1.00  0.00     0.012 A 
ENDROOT
BRANCH   1   7
ATOM      7  C   UNL     1      12.157 -31.192  14.270  1.00  0.00     0.003 C 
ATOM      8  C   UNL     1      14.444 -30.722  13.484  1.00  0.00     0.035 C 
ATOM      9  C   UNL     1      13.410 -30.822  14.559  1.00  0.00    -0.030 C 
ENDBRANCH   1   7
BRANCH   3  10
ATOM     10  O   UNL     1       7.738 -32.974  15.602  1.00  0.00    -0.493 OA
ATOM     11  C   UNL     1       6.889 -32.761  14.479  1.00  0.00     0.278 C 
ENDBRANCH   3  10
BRANCH   4  12
ATOM     12  O   UNL     1       7.934 -31.723  18.053  1.00  0.00    -0.504 OA
ATOM     13  H   UNL     1       7.491 -30.916  18.475  1.00  0.00     0.293 HD
ENDBRANCH   4  12
TORSDOF 3
ENDMDL
MODEL 4
REMARK VINA RESULT:    -3.386      2.553      4.779
REMARK INTER + INTRA:          -4.031
REMARK INTER:                  -3.855
REMARK INTRA:                  -0.176
REMARK UNBOUND:                -0.150
REMARK SMILES CC=Cc1ccc(O)c(OC)c1
REMARK SMILES IDX 4 1 12 2 9 3 7 4 6 5 5 6 3 7 1 8 2 9 10 10 11 11 8 12
REMARK H PARENT 8 13
REMARK Flexibility Score: inf
ROOT
ATOM      1  C   UNL     1       8.375 -34.133  14.493  1.00  0.00    -0.022 A 
ATOM      2  C   UNL     1       9.416 -33.312  14.029  1.00  0.00     0.058 A 
ATOM      3  C   UNL     1       9.836 -32.190  14.770  1.00  0.00     0.161 A 
ATOM      4  C   UNL     1       9.197 -31.888  15.981  1.00  0.00     0.157 A 
ATOM      5  C   UNL     1       8.150 -32.693  16.441  1.00  0.00     0.051 A 
ATOM      6  C   UNL     1       7.736 -33.805  15.704  1.00  0.00     0.012 A 
ENDROOT
BRANCH   1   7
ATOM      7  C   UNL     1       7.967 -35.297  13.667  1.00  0.00     0.003 C 
ATOM      8  C   UNL     1       6.477 -37.124  12.951  1.00  0.00     0.035 C 
ATOM      9  C   UNL     1       6.808 -35.950  13.815  1.00  0.00    -0.030 C 
ENDBRANCH   1   7
BRANCH   3  10
ATOM     10  O   UNL     1      10.879 -31.354  14.339  1.00  0.00    -0.493 OA
ATOM     11  C   UNL     1      12.179 -31.809  13.976  1.00  0.00     0.278 C 
ENDBRANCH   3  10
BRANCH   4  12
ATOM     12  O   UNL     1       9.608 -30.779  16.720  1.00  0.00    -0.504 OA
ATOM     13  H   UNL     1      10.451 -30.801  17.281  1.00  0.00     0.293 HD
ENDBRANCH   4  12
TORSDOF 3
ENDMDL
MODEL 5
REMARK VINA RESULT:    -3.377      2.837      5.234
REMARK INTER + INTRA:          -4.021
REMARK INTER:                  -3.857
REMARK INTRA:                  -0.164
REMARK UNBOUND:                -0.150
REMARK SMILES CC=Cc1ccc(O)c(OC)c1
REMARK SMILES IDX 4 1 12 2 9 3 7 4 6 5 5 6 3 7 1 8 2 9 10 10 11 11 8 12
REMARK H PARENT 8 13
REMARK Flexibility Score: inf
ROOT
ATOM      1  C   UNL     1       8.112 -33.748  15.120  1.00  0.00    -0.022 A 
ATOM      2  C   UNL     1       9.079 -33.740  14.101  1.00  0.00     0.058 A 
ATOM      3  C   UNL     1      10.140 -32.812  14.118  1.00  0.00     0.161 A 
ATOM      4  C   UNL     1      10.221 -31.881  15.163  1.00  0.00     0.157 A 
ATOM      5  C   UNL     1       9.253 -31.874  16.174  1.00  0.00     0.051 A 
ATOM      6  C   UNL     1       8.204 -32.795  16.153  1.00  0.00     0.012 A 
ENDROOT
BRANCH   1   7
ATOM      7  C   UNL     1       7.011 -34.740  15.047  1.00  0.00     0.003 C 
ATOM      8  C   UNL     1       5.879 -36.871  15.544  1.00  0.00     0.035 C 
ATOM      9  C   UNL     1       7.023 -35.919  15.680  1.00  0.00    -0.030 C 
ENDBRANCH   1   7
BRANCH   3  10
ATOM     10  O   UNL     1      11.127 -32.784  13.120  1.00  0.00    -0.493 OA
ATOM     11  C   UNL     1      12.060 -33.832  12.879  1.00  0.00     0.278 C 
ENDBRANCH   3  10
BRANCH   4  12
ATOM     12  O   UNL     1      11.269 -30.962  15.187  1.00  0.00    -0.504 OA
ATOM     13  H   UNL     1      11.208 -30.102  15.720  1.00  0.00     0.293 HD
ENDBRANCH   4  12
TORSDOF 3
ENDMDL
MODEL 6
REMARK VINA RESULT:    -2.944      2.770      4.405
REMARK INTER + INTRA:          -3.524
REMARK INTER:                  -3.369
REMARK INTRA:                  -0.156
REMARK UNBOUND:                -0.150
REMARK SMILES CC=Cc1ccc(O)c(OC)c1
REMARK SMILES IDX 4 1 12 2 9 3 7 4 6 5 5 6 3 7 1 8 2 9 10 10 11 11 8 12
REMARK H PARENT 8 13
REMARK Flexibility Score: inf
ROOT
ATOM      1  C   UNL     1       8.468 -33.033  15.880  1.00  0.00    -0.022 A 
ATOM      2  C   UNL     1       9.464 -33.100  14.893  1.00  0.00     0.058 A 
ATOM      3  C   UNL     1       9.416 -34.081  13.882  1.00  0.00     0.161 A 
ATOM      4  C   UNL     1       8.363 -35.006  13.873  1.00  0.00     0.157 A 
ATOM      5  C   UNL     1       7.374 -34.954  14.862  1.00  0.00     0.051 A 
ATOM      6  C   UNL     1       7.425 -33.981  15.861  1.00  0.00     0.012 A 
ENDROOT
BRANCH   1   7
ATOM      7  C   UNL     1       8.573 -31.985  16.926  1.00  0.00     0.003 C 
ATOM      8  C   UNL     1       8.886 -31.128  19.214  1.00  0.00     0.035 C 
ATOM      9  C   UNL     1       8.809 -32.240  18.219  1.00  0.00    -0.030 C 
ENDBRANCH   1   7
BRANCH   3  10
ATOM     10  O   UNL     1      10.391 -34.169  12.876  1.00  0.00    -0.493 OA
ATOM     11  C   UNL     1      11.768 -33.853  13.057  1.00  0.00     0.278 C 
ENDBRANCH   3  10
BRANCH   4  12
ATOM     12  O   UNL     1       8.308 -35.978  12.875  1.00  0.00    -0.504 OA
ATOM     13  H   UNL     1       8.523 -36.949  13.069  1.00  0.00     0.293 HD
ENDBRANCH   4  12
TORSDOF 3
ENDMDL
MODEL 7
REMARK VINA RESULT:    -2.932     15.682     17.445
REMARK INTER + INTRA:          -3.511
REMARK INTER:                  -3.352
REMARK INTRA:                  -0.158
REMARK UNBOUND:                -0.150
REMARK SMILES CC=Cc1ccc(O)c(OC)c1
REMARK SMILES IDX 4 1 12 2 9 3 7 4 6 5 5 6 3 7 1 8 2 9 10 10 11 11 8 12
REMARK H PARENT 8 13
REMARK Flexibility Score: inf
ROOT
ATOM      1  C   UNL     1      16.865 -35.927  29.748  1.00  0.00    -0.022 A 
ATOM      2  C   UNL     1      16.310 -34.722  30.209  1.00  0.00     0.058 A 
ATOM      3  C   UNL     1      15.470 -34.700  31.340  1.00  0.00     0.161 A 
ATOM      4  C   UNL     1      15.180 -35.900  32.004  1.00  0.00     0.157 A 
ATOM      5  C   UNL     1      15.718 -37.105  31.541  1.00  0.00     0.051 A 
ATOM      6  C   UNL     1      16.550 -37.124  30.421  1.00  0.00     0.012 A 
ENDROOT
BRANCH   1   7
ATOM      7  C   UNL     1      17.736 -35.895  28.546  1.00  0.00     0.003 C 
ATOM      8  C   UNL     1      18.422 -36.503  26.260  1.00  0.00     0.035 C 
ATOM      9  C   UNL     1      17.486 -36.578  27.422  1.00  0.00    -0.030 C 
ENDBRANCH   1   7
BRANCH   3  10
ATOM     10  O   UNL     1      14.907 -33.511  31.832  1.00  0.00    -0.493 OA
ATOM     11  C   UNL     1      15.554 -32.629  32.744  1.00  0.00     0.278 C 
ENDBRANCH   3  10
BRANCH   4  12
ATOM     12  O   UNL     1      14.351 -35.884  33.125  1.00  0.00    -0.504 OA
ATOM     13  H   UNL     1      14.726 -35.958  34.063  1.00  0.00     0.293 HD
ENDBRANCH   4  12
TORSDOF 3
ENDMDL
