MODEL 1
REMARK VINA RESULT:    -3.723      0.000      0.000
REMARK INTER + INTRA:          -4.760
REMARK INTER:                  -4.594
REMARK INTRA:                  -0.166
REMARK UNBOUND:                -0.166
REMARK SMILES CCCCCC(=O)[O-]
REMARK SMILES IDX 4 1 5 2 6 3 7 4 8 5 3 6 2 7 1 8
REMARK H PARENT
REMARK Flexibility Score: inf
ROOT
ATOM      1  C   UNL     1     -37.340  19.444 -29.756  1.00  0.00     0.006 C 
ENDROOT
BRANCH   1   2
ATOM      2  C   UNL     1     -38.246  18.878 -30.857  1.00  0.00     0.053 C 
BRANCH   2   3
ATOM      3  C   UNL     1     -38.436  17.399 -30.716  1.00  0.00     0.041 C 
ATOM      4  O   UNL     1     -39.411  16.829 -31.274  1.00  0.00    -0.550 OA
ATOM      5  O   UNL     1     -37.555  16.655 -29.942  1.00  0.00    -0.550 OA
ENDBRANCH   2   3
ENDBRANCH   1   2
BRANCH   1   6
ATOM      6  C   UNL     1     -38.129  19.836 -28.497  1.00  0.00     0.000 C 
BRANCH   6   7
ATOM      7  C   UNL     1     -39.521  20.362 -28.864  1.00  0.00    -0.003 C 
ATOM      8  C   UNL     1     -40.611  19.620 -28.097  1.00  0.00     0.004 C 
ENDBRANCH   6   7
ENDBRANCH   1   6
TORSDOF 4
ENDMDL
MODEL 2
REMARK VINA RESULT:    -3.615      2.947      3.948
REMARK INTER + INTRA:          -4.626
REMARK INTER:                  -4.500
REMARK INTRA:                  -0.127
REMARK UNBOUND:                -0.166
REMARK SMILES CCCCCC(=O)[O-]
REMARK SMILES IDX 4 1 5 2 6 3 7 4 8 5 3 6 2 7 1 8
REMARK H PARENT
REMARK Flexibility Score: inf
ROOT
ATOM      1  C   UNL     1     -38.114  19.520 -28.522  1.00  0.00     0.006 C 
ENDROOT
BRANCH   1   2
ATOM      2  C   UNL     1     -39.522  20.031 -28.853  1.00  0.00     0.053 C 
BRANCH   2   3
ATOM      3  C   UNL     1     -39.537  21.512 -29.083  1.00  0.00     0.041 C 
ATOM      4  O   UNL     1     -40.552  22.066 -29.581  1.00  0.00    -0.550 OA
ATOM      5  O   UNL     1     -38.417  22.275 -28.779  1.00  0.00    -0.550 OA
ENDBRANCH   2   3
ENDBRANCH   1   2
BRANCH   1   6
ATOM      6  C   UNL     1     -37.653  18.418 -29.488  1.00  0.00     0.000 C 
BRANCH   6   7
ATOM      7  C   UNL     1     -38.450  18.468 -30.797  1.00  0.00    -0.003 C 
ATOM      8  C   UNL     1     -39.062  17.108 -31.122  1.00  0.00     0.004 C 
ENDBRANCH   6   7
ENDBRANCH   1   6
TORSDOF 4
ENDMDL
MODEL 3
REMARK VINA RESULT:    -3.600      1.381      1.910
REMARK INTER + INTRA:          -4.608
REMARK INTER:                  -4.413
REMARK INTRA:                  -0.195
REMARK UNBOUND:                -0.166
REMARK SMILES CCCCCC(=O)[O-]
REMARK SMILES IDX 4 1 5 2 6 3 7 4 8 5 3 6 2 7 1 8
REMARK H PARENT
REMARK Flexibility Score: inf
ROOT
ATOM      1  C   UNL     1     -38.201  19.304 -28.421  1.00  0.00     0.006 C 
ENDROOT
BRANCH   1   2
ATOM      2  C   UNL     1     -37.797  18.124 -29.314  1.00  0.00     0.053 C 
BRANCH   2   3
ATOM      3  C   UNL     1     -38.432  18.209 -30.668  1.00  0.00     0.041 C 
ATOM      4  O   UNL     1     -39.111  17.244 -31.111  1.00  0.00    -0.550 OA
ATOM      5  O   UNL     1     -38.246  19.338 -31.455  1.00  0.00    -0.550 OA
ENDBRANCH   2   3
ENDBRANCH   1   2
BRANCH   1   6
ATOM      6  C   UNL     1     -39.712  19.580 -28.470  1.00  0.00     0.000 C 
BRANCH   6   7
ATOM      7  C   UNL     1     -39.991  21.024 -28.902  1.00  0.00    -0.003 C 
ATOM      8  C   UNL     1     -38.702  21.838 -28.972  1.00  0.00     0.004 C 
ENDBRANCH   6   7
ENDBRANCH   1   6
TORSDOF 4
ENDMDL
MODEL 4
REMARK VINA RESULT:    -3.551      2.634      3.998
REMARK INTER + INTRA:          -4.548
REMARK INTER:                  -4.410
REMARK INTRA:                  -0.138
REMARK UNBOUND:                -0.166
REMARK SMILES CCCCCC(=O)[O-]
REMARK SMILES IDX 4 1 5 2 6 3 7 4 8 5 3 6 2 7 1 8
REMARK H PARENT
REMARK Flexibility Score: inf
ROOT
ATOM      1  C   UNL     1     -37.926  19.085 -29.706  1.00  0.00     0.006 C 
ENDROOT
BRANCH   1   2
ATOM      2  C   UNL     1     -38.590  19.328 -28.344  1.00  0.00     0.053 C 
BRANCH   2   3
ATOM      3  C   UNL     1     -39.916  20.011 -28.487  1.00  0.00     0.041 C 
ATOM      4  O   UNL     1     -40.956  19.480 -28.015  1.00  0.00    -0.550 OA
ATOM      5  O   UNL     1     -40.009  21.216 -29.171  1.00  0.00    -0.550 OA
ENDBRANCH   2   3
ENDBRANCH   1   2
BRANCH   1   6
ATOM      6  C   UNL     1     -38.308  17.723 -30.305  1.00  0.00     0.000 C 
BRANCH   6   7
ATOM      7  C   UNL     1     -37.356  16.624 -29.820  1.00  0.00    -0.003 C 
ATOM      8  C   UNL     1     -35.901  17.075 -29.913  1.00  0.00     0.004 C 
ENDBRANCH   6   7
ENDBRANCH   1   6
TORSDOF 4
ENDMDL
MODEL 5
REMARK VINA RESULT:    -3.531      1.336      1.809
REMARK INTER + INTRA:          -4.524
REMARK INTER:                  -4.323
REMARK INTRA:                  -0.201
REMARK UNBOUND:                -0.166
REMARK SMILES CCCCCC(=O)[O-]
REMARK SMILES IDX 4 1 5 2 6 3 7 4 8 5 3 6 2 7 1 8
REMARK H PARENT
REMARK Flexibility Score: inf
ROOT
ATOM      1  C   UNL     1     -37.660  18.671 -27.931  1.00  0.00     0.006 C 
ENDROOT
BRANCH   1   2
ATOM      2  C   UNL     1     -36.683  17.836 -28.769  1.00  0.00     0.053 C 
BRANCH   2   3
ATOM      3  C   UNL     1     -37.395  16.807 -29.592  1.00  0.00     0.041 C 
ATOM      4  O   UNL     1     -37.222  15.581 -29.362  1.00  0.00    -0.550 OA
ATOM      5  O   UNL     1     -38.223  17.201 -30.636  1.00  0.00    -0.550 OA
ENDBRANCH   2   3
ENDBRANCH   1   2
BRANCH   1   6
ATOM      6  C   UNL     1     -37.894  20.067 -28.528  1.00  0.00     0.000 C 
BRANCH   6   7
ATOM      7  C   UNL     1     -39.306  20.184 -29.112  1.00  0.00    -0.003 C 
ATOM      8  C   UNL     1     -40.345  19.587 -28.167  1.00  0.00     0.004 C 
ENDBRANCH   6   7
ENDBRANCH   1   6
TORSDOF 4
ENDMDL
MODEL 6
REMARK VINA RESULT:    -3.528      1.385      1.724
REMARK INTER + INTRA:          -4.519
REMARK INTER:                  -4.434
REMARK INTRA:                  -0.086
REMARK UNBOUND:                -0.166
REMARK SMILES CCCCCC(=O)[O-]
REMARK SMILES IDX 4 1 5 2 6 3 7 4 8 5 3 6 2 7 1 8
REMARK H PARENT
REMARK Flexibility Score: inf
ROOT
ATOM      1  C   UNL     1     -38.094  19.130 -30.709  1.00  0.00     0.006 C 
ENDROOT
BRANCH   1   2
ATOM      2  C   UNL     1     -38.384  17.669 -30.342  1.00  0.00     0.053 C 
BRANCH   2   3
ATOM      3  C   UNL     1     -37.140  16.941 -29.931  1.00  0.00     0.041 C 
ATOM      4  O   UNL     1     -36.018  17.507 -30.014  1.00  0.00    -0.550 OA
ATOM      5  O   UNL     1     -37.217  15.627 -29.488  1.00  0.00    -0.550 OA
ENDBRANCH   2   3
ENDBRANCH   1   2
BRANCH   1   6
ATOM      6  C   UNL     1     -38.646  20.113 -29.666  1.00  0.00     0.000 C 
BRANCH   6   7
ATOM      7  C   UNL     1     -39.164  19.368 -28.430  1.00  0.00    -0.003 C 
ATOM      8  C   UNL     1     -40.634  19.686 -28.171  1.00  0.00     0.004 C 
ENDBRANCH   6   7
ENDBRANCH   1   6
TORSDOF 4
ENDMDL
MODEL 7
REMARK VINA RESULT:    -3.444      2.065      2.460
REMARK INTER + INTRA:          -4.416
REMARK INTER:                  -4.141
REMARK INTRA:                  -0.275
REMARK UNBOUND:                -0.166
REMARK SMILES CCCCCC(=O)[O-]
REMARK SMILES IDX 4 1 5 2 6 3 7 4 8 5 3 6 2 7 1 8
REMARK H PARENT
REMARK Flexibility Score: inf
ROOT
ATOM      1  C   UNL     1     -38.726  18.281 -30.038  1.00  0.00     0.006 C 
ENDROOT
BRANCH   1   2
ATOM      2  C   UNL     1     -37.443  17.447 -29.932  1.00  0.00     0.053 C 
BRANCH   2   3
ATOM      3  C   UNL     1     -36.644  17.808 -28.717  1.00  0.00     0.041 C 
ATOM      4  O   UNL     1     -35.420  18.088 -28.824  1.00  0.00    -0.550 OA
ATOM      5  O   UNL     1     -37.241  17.802 -27.463  1.00  0.00    -0.550 OA
ENDBRANCH   2   3
ENDBRANCH   1   2
BRANCH   1   6
ATOM      6  C   UNL     1     -38.436  19.788 -30.111  1.00  0.00     0.000 C 
BRANCH   6   7
ATOM      7  C   UNL     1     -39.224  20.550 -29.039  1.00  0.00    -0.003 C 
ATOM      8  C   UNL     1     -40.234  19.640 -28.345  1.00  0.00     0.004 C 
ENDBRANCH   6   7
ENDBRANCH   1   6
TORSDOF 4
ENDMDL
MODEL 8
REMARK VINA RESULT:    -3.289      2.875      3.660
REMARK INTER + INTRA:          -4.225
REMARK INTER:                  -4.003
REMARK INTRA:                  -0.222
REMARK UNBOUND:                -0.166
REMARK SMILES CCCCCC(=O)[O-]
REMARK SMILES IDX 4 1 5 2 6 3 7 4 8 5 3 6 2 7 1 8
REMARK H PARENT
REMARK Flexibility Score: inf
ROOT
ATOM      1  C   UNL     1     -38.714  18.298 -30.207  1.00  0.00     0.006 C 
ENDROOT
BRANCH   1   2
ATOM      2  C   UNL     1     -38.214  19.434 -31.108  1.00  0.00     0.053 C 
BRANCH   2   3
ATOM      3  C   UNL     1     -38.193  20.747 -30.387  1.00  0.00     0.041 C 
ATOM      4  O   UNL     1     -37.101  21.239 -29.997  1.00  0.00    -0.550 OA
ATOM      5  O   UNL     1     -39.383  21.411 -30.114  1.00  0.00    -0.550 OA
ENDBRANCH   2   3
ENDBRANCH   1   2
BRANCH   1   6
ATOM      6  C   UNL     1     -37.654  17.203 -30.007  1.00  0.00     0.000 C 
BRANCH   6   7
ATOM      7  C   UNL     1     -36.577  17.658 -29.016  1.00  0.00    -0.003 C 
ATOM      8  C   UNL     1     -37.196  18.101 -27.693  1.00  0.00     0.004 C 
ENDBRANCH   6   7
ENDBRANCH   1   6
TORSDOF 4
ENDMDL
MODEL 9
REMARK VINA RESULT:    -3.253      1.923      2.985
REMARK INTER + INTRA:          -4.180
REMARK INTER:                  -3.956
REMARK INTRA:                  -0.224
REMARK UNBOUND:                -0.166
REMARK SMILES CCCCCC(=O)[O-]
REMARK SMILES IDX 4 1 5 2 6 3 7 4 8 5 3 6 2 7 1 8
REMARK H PARENT
REMARK Flexibility Score: inf
ROOT
ATOM      1  C   UNL     1     -38.174  19.526 -28.203  1.00  0.00     0.006 C 
ENDROOT
BRANCH   1   2
ATOM      2  C   UNL     1     -39.200  19.081 -29.254  1.00  0.00     0.053 C 
BRANCH   2   3
ATOM      3  C   UNL     1     -38.543  18.710 -30.549  1.00  0.00     0.041 C 
ATOM      4  O   UNL     1     -37.728  19.500 -31.095  1.00  0.00    -0.550 OA
ATOM      5  O   UNL     1     -38.858  17.508 -31.170  1.00  0.00    -0.550 OA
ENDBRANCH   2   3
ENDBRANCH   1   2
BRANCH   1   6
ATOM      6  C   UNL     1     -37.369  18.345 -27.639  1.00  0.00     0.000 C 
BRANCH   6   7
ATOM      7  C   UNL     1     -35.951  18.783 -27.254  1.00  0.00    -0.003 C 
ATOM      8  C   UNL     1     -35.362  19.725 -28.299  1.00  0.00     0.004 C 
ENDBRANCH   6   7
ENDBRANCH   1   6
TORSDOF 4
ENDMDL
