MODEL 1
REMARK VINA RESULT:    -3.910      0.000      0.000
REMARK INTER + INTRA:          -5.485
REMARK INTER:                  -5.281
REMARK INTRA:                  -0.203
REMARK UNBOUND:                -0.203
REMARK SMILES CCCCCCCC(=O)[O-]
REMARK SMILES IDX 5 1 6 2 7 3 8 4 9 5 10 6 4 7 3 8 2 9 1 10
REMARK H PARENT
REMARK Flexibility Score: inf
ROOT
ATOM      1  C   UNL     1       5.117  44.075  10.989  1.00  0.00     0.000 C 
ENDROOT
BRANCH   1   2
ATOM      2  C   UNL     1       6.342  44.697  11.684  1.00  0.00     0.006 C 
BRANCH   2   3
ATOM      3  C   UNL     1       7.670  43.986  11.382  1.00  0.00     0.053 C 
BRANCH   3   4
ATOM      4  C   UNL     1       7.655  42.555  11.825  1.00  0.00     0.041 C 
ATOM      5  O   UNL     1       7.592  42.271  13.050  1.00  0.00    -0.550 OA
ATOM      6  O   UNL     1       7.676  41.535  10.882  1.00  0.00    -0.550 OA
ENDBRANCH   3   4
ENDBRANCH   2   3
ENDBRANCH   1   2
BRANCH   1   7
ATOM      7  C   UNL     1       3.794  44.728  11.418  1.00  0.00     0.000 C 
BRANCH   7   8
ATOM      8  C   UNL     1       2.746  43.666  11.770  1.00  0.00    -0.000 C 
BRANCH   8   9
ATOM      9  C   UNL     1       2.201  42.990  10.506  1.00  0.00    -0.003 C 
ATOM     10  C   UNL     1       0.736  42.600  10.677  1.00  0.00     0.004 C 
ENDBRANCH   8   9
ENDBRANCH   7   8
ENDBRANCH   1   7
TORSDOF 6
ENDMDL
MODEL 2
REMARK VINA RESULT:    -3.860      0.796      1.384
REMARK INTER + INTRA:          -5.417
REMARK INTER:                  -5.118
REMARK INTRA:                  -0.299
REMARK UNBOUND:                -0.203
REMARK SMILES CCCCCCCC(=O)[O-]
REMARK SMILES IDX 5 1 6 2 7 3 8 4 9 5 10 6 4 7 3 8 2 9 1 10
REMARK H PARENT
REMARK Flexibility Score: inf
ROOT
ATOM      1  C   UNL     1       4.433  44.338  11.844  1.00  0.00     0.000 C 
ENDROOT
BRANCH   1   2
ATOM      2  C   UNL     1       5.735  45.038  12.278  1.00  0.00     0.006 C 
BRANCH   2   3
ATOM      3  C   UNL     1       6.996  44.529  11.561  1.00  0.00     0.053 C 
BRANCH   3   4
ATOM      4  C   UNL     1       7.210  43.063  11.772  1.00  0.00     0.041 C 
ATOM      5  O   UNL     1       7.356  42.294  10.785  1.00  0.00    -0.550 OA
ATOM      6  O   UNL     1       7.284  42.549  13.061  1.00  0.00    -0.550 OA
ENDBRANCH   3   4
ENDBRANCH   2   3
ENDBRANCH   1   2
BRANCH   1   7
ATOM      7  C   UNL     1       3.904  44.849  10.495  1.00  0.00     0.000 C 
BRANCH   7   8
ATOM      8  C   UNL     1       2.750  43.974   9.991  1.00  0.00    -0.000 C 
BRANCH   8   9
ATOM      9  C   UNL     1       2.016  43.305  11.158  1.00  0.00    -0.003 C 
ATOM     10  C   UNL     1       0.754  42.593  10.680  1.00  0.00     0.004 C 
ENDBRANCH   8   9
ENDBRANCH   7   8
ENDBRANCH   1   7
TORSDOF 6
ENDMDL
MODEL 3
REMARK VINA RESULT:    -3.651      3.058      5.252
REMARK INTER + INTRA:          -5.135
REMARK INTER:                  -4.906
REMARK INTRA:                  -0.229
REMARK UNBOUND:                -0.203
REMARK SMILES CCCCCCCC(=O)[O-]
REMARK SMILES IDX 5 1 6 2 7 3 8 4 9 5 10 6 4 7 3 8 2 9 1 10
REMARK H PARENT
REMARK Flexibility Score: inf
ROOT
ATOM      1  C   UNL     1       5.401  43.795  10.495  1.00  0.00     0.000 C 
ENDROOT
BRANCH   1   2
ATOM      2  C   UNL     1       3.955  44.256  10.757  1.00  0.00     0.006 C 
BRANCH   2   3
ATOM      3  C   UNL     1       2.881  43.366  10.114  1.00  0.00     0.053 C 
BRANCH   3   4
ATOM      4  C   UNL     1       1.688  43.191  11.002  1.00  0.00     0.041 C 
ATOM      5  O   UNL     1       1.653  43.746  12.133  1.00  0.00    -0.550 OA
ATOM      6  O   UNL     1       0.600  42.444  10.568  1.00  0.00    -0.550 OA
ENDBRANCH   3   4
ENDBRANCH   2   3
ENDBRANCH   1   2
BRANCH   1   7
ATOM      7  C   UNL     1       6.447  44.756  11.080  1.00  0.00     0.000 C 
BRANCH   7   8
ATOM      8  C   UNL     1       7.819  44.078  11.181  1.00  0.00    -0.000 C 
BRANCH   8   9
ATOM      9  C   UNL     1       7.673  42.559  11.330  1.00  0.00    -0.003 C 
ATOM     10  C   UNL     1       7.723  42.142  12.797  1.00  0.00     0.004 C 
ENDBRANCH   8   9
ENDBRANCH   7   8
ENDBRANCH   1   7
TORSDOF 6
ENDMDL
MODEL 4
REMARK VINA RESULT:    -3.472      1.076      1.417
REMARK INTER + INTRA:          -4.892
REMARK INTER:                  -4.583
REMARK INTRA:                  -0.310
REMARK UNBOUND:                -0.203
REMARK SMILES CCCCCCCC(=O)[O-]
REMARK SMILES IDX 5 1 6 2 7 3 8 4 9 5 10 6 4 7 3 8 2 9 1 10
REMARK H PARENT
REMARK Flexibility Score: inf
ROOT
ATOM      1  C   UNL     1       5.356  43.381  10.131  1.00  0.00     0.000 C 
ENDROOT
BRANCH   1   2
ATOM      2  C   UNL     1       6.363  44.317  10.824  1.00  0.00     0.006 C 
BRANCH   2   3
ATOM      3  C   UNL     1       7.493  43.589  11.569  1.00  0.00     0.053 C 
BRANCH   3   4
ATOM      4  C   UNL     1       7.001  42.903  12.805  1.00  0.00     0.041 C 
ATOM      5  O   UNL     1       5.993  43.345  13.418  1.00  0.00    -0.550 OA
ATOM      6  O   UNL     1       7.633  41.752  13.262  1.00  0.00    -0.550 OA
ENDBRANCH   3   4
ENDBRANCH   2   3
ENDBRANCH   1   2
BRANCH   1   7
ATOM      7  C   UNL     1       3.998  44.052   9.875  1.00  0.00     0.000 C 
BRANCH   7   8
ATOM      8  C   UNL     1       3.346  44.492  11.192  1.00  0.00    -0.000 C 
BRANCH   8   9
ATOM      9  C   UNL     1       2.409  43.406  11.732  1.00  0.00    -0.003 C 
ATOM     10  C   UNL     1       1.486  42.881  10.636  1.00  0.00     0.004 C 
ENDBRANCH   8   9
ENDBRANCH   7   8
ENDBRANCH   1   7
TORSDOF 6
ENDMDL
MODEL 5
REMARK VINA RESULT:    -2.795      1.860      2.887
REMARK INTER + INTRA:          -3.979
REMARK INTER:                  -3.647
REMARK INTRA:                  -0.332
REMARK UNBOUND:                -0.203
REMARK SMILES CCCCCCCC(=O)[O-]
REMARK SMILES IDX 5 1 6 2 7 3 8 4 9 5 10 6 4 7 3 8 2 9 1 10
REMARK H PARENT
REMARK Flexibility Score: inf
ROOT
ATOM      1  C   UNL     1       6.718  42.918  13.559  1.00  0.00     0.000 C 
ENDROOT
BRANCH   1   2
ATOM      2  C   UNL     1       7.473  42.135  12.469  1.00  0.00     0.006 C 
BRANCH   2   3
ATOM      3  C   UNL     1       8.430  42.991  11.624  1.00  0.00     0.053 C 
BRANCH   3   4
ATOM      4  C   UNL     1       7.735  43.636  10.466  1.00  0.00     0.041 C 
ATOM      5  O   UNL     1       6.797  43.037   9.876  1.00  0.00    -0.550 OA
ATOM      6  O   UNL     1       8.098  44.914  10.060  1.00  0.00    -0.550 OA
ENDBRANCH   3   4
ENDBRANCH   2   3
ENDBRANCH   1   2
BRANCH   1   7
ATOM      7  C   UNL     1       5.346  43.422  13.087  1.00  0.00     0.000 C 
BRANCH   7   8
ATOM      8  C   UNL     1       5.442  44.859  12.558  1.00  0.00    -0.000 C 
BRANCH   8   9
ATOM      9  C   UNL     1       4.387  45.118  11.476  1.00  0.00    -0.003 C 
ATOM     10  C   UNL     1       3.519  43.884  11.247  1.00  0.00     0.004 C 
ENDBRANCH   8   9
ENDBRANCH   7   8
ENDBRANCH   1   7
TORSDOF 6
ENDMDL
MODEL 6
REMARK VINA RESULT:    -2.419      2.640      4.532
REMARK INTER + INTRA:          -3.471
REMARK INTER:                  -2.883
REMARK INTRA:                  -0.588
REMARK UNBOUND:                -0.203
REMARK SMILES CCCCCCCC(=O)[O-]
REMARK SMILES IDX 5 1 6 2 7 3 8 4 9 5 10 6 4 7 3 8 2 9 1 10
REMARK H PARENT
REMARK Flexibility Score: inf
ROOT
ATOM      1  C   UNL     1       7.061  42.329  10.274  1.00  0.00     0.000 C 
ENDROOT
BRANCH   1   2
ATOM      2  C   UNL     1       6.045  43.415   9.875  1.00  0.00     0.006 C 
BRANCH   2   3
ATOM      3  C   UNL     1       4.598  43.113  10.295  1.00  0.00     0.053 C 
BRANCH   3   4
ATOM      4  C   UNL     1       4.071  44.123  11.266  1.00  0.00     0.041 C 
ATOM      5  O   UNL     1       4.767  45.125  11.579  1.00  0.00    -0.550 OA
ATOM      6  O   UNL     1       2.796  43.976  11.800  1.00  0.00    -0.550 OA
ENDBRANCH   3   4
ENDBRANCH   2   3
ENDBRANCH   1   2
BRANCH   1   7
ATOM      7  C   UNL     1       8.223  42.881  11.115  1.00  0.00     0.000 C 
BRANCH   7   8
ATOM      8  C   UNL     1       7.720  43.413  12.463  1.00  0.00    -0.000 C 
BRANCH   8   9
ATOM      9  C   UNL     1       7.006  42.312  13.257  1.00  0.00    -0.003 C 
ATOM     10  C   UNL     1       5.841  42.881  14.060  1.00  0.00     0.004 C 
ENDBRANCH   8   9
ENDBRANCH   7   8
ENDBRANCH   1   7
TORSDOF 6
ENDMDL
MODEL 7
REMARK VINA RESULT:    -1.772      2.622      3.746
REMARK INTER + INTRA:          -2.596
REMARK INTER:                  -2.397
REMARK INTRA:                  -0.199
REMARK UNBOUND:                -0.203
REMARK SMILES CCCCCCCC(=O)[O-]
REMARK SMILES IDX 5 1 6 2 7 3 8 4 9 5 10 6 4 7 3 8 2 9 1 10
REMARK H PARENT
REMARK Flexibility Score: inf
ROOT
ATOM      1  C   UNL     1       1.814  43.234  11.059  1.00  0.00     0.000 C 
ENDROOT
BRANCH   1   2
ATOM      2  C   UNL     1       2.980  43.829  10.247  1.00  0.00     0.006 C 
BRANCH   2   3
ATOM      3  C   UNL     1       3.774  44.918  10.986  1.00  0.00     0.053 C 
BRANCH   3   4
ATOM      4  C   UNL     1       5.132  44.441  11.399  1.00  0.00     0.041 C 
ATOM      5  O   UNL     1       5.701  43.516  10.760  1.00  0.00    -0.550 OA
ATOM      6  O   UNL     1       5.785  45.042  12.468  1.00  0.00    -0.550 OA
ENDBRANCH   3   4
ENDBRANCH   2   3
ENDBRANCH   1   2
BRANCH   1   7
ATOM      7  C   UNL     1       1.549  43.997  12.366  1.00  0.00     0.000 C 
BRANCH   7   8
ATOM      8  C   UNL     1       0.132  43.723  12.884  1.00  0.00    -0.000 C 
BRANCH   8   9
ATOM      9  C   UNL     1      -0.246  44.705  13.999  1.00  0.00    -0.003 C 
ATOM     10  C   UNL     1      -1.656  44.435  14.516  1.00  0.00     0.004 C 
ENDBRANCH   8   9
ENDBRANCH   7   8
ENDBRANCH   1   7
TORSDOF 6
ENDMDL
MODEL 8
REMARK VINA RESULT:    -1.586      3.209      5.472
REMARK INTER + INTRA:          -2.346
REMARK INTER:                  -2.719
REMARK INTRA:                   0.373
REMARK UNBOUND:                -0.203
REMARK SMILES CCCCCCCC(=O)[O-]
REMARK SMILES IDX 5 1 6 2 7 3 8 4 9 5 10 6 4 7 3 8 2 9 1 10
REMARK H PARENT
REMARK Flexibility Score: inf
ROOT
ATOM      1  C   UNL     1       3.411  44.675  11.011  1.00  0.00     0.000 C 
ENDROOT
BRANCH   1   2
ATOM      2  C   UNL     1       2.904  43.669  12.061  1.00  0.00     0.006 C 
BRANCH   2   3
ATOM      3  C   UNL     1       1.421  43.294  11.914  1.00  0.00     0.053 C 
BRANCH   3   4
ATOM      4  C   UNL     1       1.142  42.599  10.618  1.00  0.00     0.041 C 
ATOM      5  O   UNL     1       2.092  42.236   9.876  1.00  0.00    -0.550 OA
ATOM      6  O   UNL     1      -0.168  42.319  10.246  1.00  0.00    -0.550 OA
ENDBRANCH   3   4
ENDBRANCH   2   3
ENDBRANCH   1   2
BRANCH   1   7
ATOM      7  C   UNL     1       4.491  44.083  10.093  1.00  0.00     0.000 C 
BRANCH   7   8
ATOM      8  C   UNL     1       5.638  45.079   9.881  1.00  0.00    -0.000 C 
BRANCH   8   9
ATOM      9  C   UNL     1       6.632  45.029  11.047  1.00  0.00    -0.003 C 
ATOM     10  C   UNL     1       7.976  44.461  10.600  1.00  0.00     0.004 C 
ENDBRANCH   8   9
ENDBRANCH   7   8
ENDBRANCH   1   7
TORSDOF 6
ENDMDL
