MODEL 1
REMARK VINA RESULT:    -5.004      0.000      0.000
REMARK INTER + INTRA:          -8.034
REMARK INTER:                  -7.638
REMARK INTRA:                  -0.397
REMARK UNBOUND:                -0.397
REMARK SMILES O=C([O-])CCCCCCCCC(=O)[O-]
REMARK SMILES IDX 7 1 6 2 5 3 4 4 2 5 1 6 3 7 8 8 9 9 10 10 11 11 12 12 13 13
REMARK SMILES IDX 14 14
REMARK H PARENT
REMARK Flexibility Score: inf
ROOT
ATOM      1  C   UNL     1      40.893  63.269   8.339  1.00  0.00     0.000 C 
ENDROOT
BRANCH   1   2
ATOM      2  C   UNL     1      41.122  61.761   8.143  1.00  0.00     0.000 C 
BRANCH   2   3
ATOM      3  C   UNL     1      39.859  60.928   8.421  1.00  0.00     0.006 C 
BRANCH   3   4
ATOM      4  C   UNL     1      39.453  60.073   7.212  1.00  0.00     0.053 C 
BRANCH   4   5
ATOM      5  C   UNL     1      39.378  58.618   7.557  1.00  0.00     0.041 C 
ATOM      6  O   UNL     1      40.418  57.906   7.531  1.00  0.00    -0.550 OA
ATOM      7  O   UNL     1      38.168  58.053   7.937  1.00  0.00    -0.550 OA
ENDBRANCH   4   5
ENDBRANCH   3   4
ENDBRANCH   2   3
ENDBRANCH   1   2
BRANCH   1   8
ATOM      8  C   UNL     1      39.453  63.597   8.769  1.00  0.00     0.000 C 
BRANCH   8   9
ATOM      9  C   UNL     1      39.029  65.022   8.377  1.00  0.00     0.000 C 
BRANCH   9  10
ATOM     10  C   UNL     1      38.676  65.147   6.885  1.00  0.00     0.006 C 
BRANCH  10  11
ATOM     11  C   UNL     1      37.486  66.088   6.649  1.00  0.00     0.053 C 
BRANCH  11  12
ATOM     12  C   UNL     1      37.712  66.987   5.472  1.00  0.00     0.041 C 
ATOM     13  O   UNL     1      37.127  68.100   5.404  1.00  0.00    -0.550 OA
ATOM     14  O   UNL     1      38.545  66.583   4.437  1.00  0.00    -0.550 OA
ENDBRANCH  11  12
ENDBRANCH  10  11
ENDBRANCH   9  10
ENDBRANCH   8   9
ENDBRANCH   1   8
TORSDOF 9
ENDMDL
MODEL 2
REMARK VINA RESULT:    -4.946      0.455      7.084
REMARK INTER + INTRA:          -7.946
REMARK INTER:                  -7.569
REMARK INTRA:                  -0.377
REMARK UNBOUND:                -0.397
REMARK SMILES O=C([O-])CCCCCCCCC(=O)[O-]
REMARK SMILES IDX 7 1 6 2 5 3 4 4 2 5 1 6 3 7 8 8 9 9 10 10 11 11 12 12 13 13
REMARK SMILES IDX 14 14
REMARK H PARENT
REMARK Flexibility Score: inf
ROOT
ATOM      1  C   UNL     1      39.386  63.711   8.854  1.00  0.00     0.000 C 
ENDROOT
BRANCH   1   2
ATOM      2  C   UNL     1      39.101  65.128   8.330  1.00  0.00     0.000 C 
BRANCH   2   3
ATOM      3  C   UNL     1      38.488  65.126   6.919  1.00  0.00     0.006 C 
BRANCH   3   4
ATOM      4  C   UNL     1      37.396  66.193   6.762  1.00  0.00     0.053 C 
BRANCH   4   5
ATOM      5  C   UNL     1      37.622  67.051   5.555  1.00  0.00     0.041 C 
ATOM      6  O   UNL     1      37.019  68.151   5.437  1.00  0.00    -0.550 OA
ATOM      7  O   UNL     1      38.522  66.652   4.575  1.00  0.00    -0.550 OA
ENDBRANCH   4   5
ENDBRANCH   3   4
ENDBRANCH   2   3
ENDBRANCH   1   2
BRANCH   1   8
ATOM      8  C   UNL     1      40.873  63.328   8.745  1.00  0.00     0.000 C 
BRANCH   8   9
ATOM      9  C   UNL     1      41.102  62.102   7.845  1.00  0.00     0.000 C 
BRANCH   9  10
ATOM     10  C   UNL     1      40.396  60.841   8.370  1.00  0.00     0.006 C 
BRANCH  10  11
ATOM     11  C   UNL     1      39.464  60.219   7.320  1.00  0.00     0.053 C 
BRANCH  11  12
ATOM     12  C   UNL     1      38.930  58.892   7.765  1.00  0.00     0.041 C 
ATOM     13  O   UNL     1      37.705  58.628   7.639  1.00  0.00    -0.550 OA
ATOM     14  O   UNL     1      39.779  57.958   8.344  1.00  0.00    -0.550 OA
ENDBRANCH  11  12
ENDBRANCH  10  11
ENDBRANCH   9  10
ENDBRANCH   8   9
ENDBRANCH   1   8
TORSDOF 9
ENDMDL
MODEL 3
REMARK VINA RESULT:    -4.876      1.397      7.316
REMARK INTER + INTRA:          -7.839
REMARK INTER:                  -7.379
REMARK INTRA:                  -0.460
REMARK UNBOUND:                -0.397
REMARK SMILES O=C([O-])CCCCCCCCC(=O)[O-]
REMARK SMILES IDX 7 1 6 2 5 3 4 4 2 5 1 6 3 7 8 8 9 9 10 10 11 11 12 12 13 13
REMARK SMILES IDX 14 14
REMARK H PARENT
REMARK Flexibility Score: inf
ROOT
ATOM      1  C   UNL     1      40.924  63.435   8.148  1.00  0.00     0.000 C 
ENDROOT
BRANCH   1   2
ATOM      2  C   UNL     1      39.604  63.753   8.869  1.00  0.00     0.000 C 
BRANCH   2   3
ATOM      3  C   UNL     1      38.904  65.000   8.302  1.00  0.00     0.006 C 
BRANCH   3   4
ATOM      4  C   UNL     1      39.006  65.075   6.772  1.00  0.00     0.053 C 
BRANCH   4   5
ATOM      5  C   UNL     1      38.061  66.085   6.198  1.00  0.00     0.041 C 
ATOM      6  O   UNL     1      37.073  66.482   6.871  1.00  0.00    -0.550 OA
ATOM      7  O   UNL     1      38.287  66.610   4.932  1.00  0.00    -0.550 OA
ENDBRANCH   4   5
ENDBRANCH   3   4
ENDBRANCH   2   3
ENDBRANCH   1   2
BRANCH   1   8
ATOM      8  C   UNL     1      41.163  61.923   7.991  1.00  0.00     0.000 C 
BRANCH   8   9
ATOM      9  C   UNL     1      39.935  61.087   8.385  1.00  0.00     0.000 C 
BRANCH   9  10
ATOM     10  C   UNL     1      39.901  59.717   7.686  1.00  0.00     0.006 C 
BRANCH  10  11
ATOM     11  C   UNL     1      40.619  58.633   8.500  1.00  0.00     0.053 C 
BRANCH  11  12
ATOM     12  C   UNL     1      41.554  57.825   7.652  1.00  0.00     0.041 C 
ATOM     13  O   UNL     1      42.196  58.375   6.718  1.00  0.00    -0.550 OA
ATOM     14  O   UNL     1      41.694  56.462   7.875  1.00  0.00    -0.550 OA
ENDBRANCH  11  12
ENDBRANCH  10  11
ENDBRANCH   9  10
ENDBRANCH   8   9
ENDBRANCH   1   8
TORSDOF 9
ENDMDL
MODEL 4
REMARK VINA RESULT:    -4.830      1.474      7.463
REMARK INTER + INTRA:          -7.768
REMARK INTER:                  -7.390
REMARK INTRA:                  -0.378
REMARK UNBOUND:                -0.397
REMARK SMILES O=C([O-])CCCCCCCCC(=O)[O-]
REMARK SMILES IDX 7 1 6 2 5 3 4 4 2 5 1 6 3 7 8 8 9 9 10 10 11 11 12 12 13 13
REMARK SMILES IDX 14 14
REMARK H PARENT
REMARK Flexibility Score: inf
ROOT
ATOM      1  C   UNL     1      40.896  63.051   8.372  1.00  0.00     0.000 C 
ENDROOT
BRANCH   1   2
ATOM      2  C   UNL     1      39.402  63.403   8.452  1.00  0.00     0.000 C 
BRANCH   2   3
ATOM      3  C   UNL     1      39.116  64.867   8.074  1.00  0.00     0.006 C 
BRANCH   3   4
ATOM      4  C   UNL     1      39.196  65.099   6.558  1.00  0.00     0.053 C 
BRANCH   4   5
ATOM      5  C   UNL     1      38.155  66.067   6.086  1.00  0.00     0.041 C 
ATOM      6  O   UNL     1      38.242  66.581   4.939  1.00  0.00    -0.550 OA
ATOM      7  O   UNL     1      37.072  66.378   6.898  1.00  0.00    -0.550 OA
ENDBRANCH   4   5
ENDBRANCH   3   4
ENDBRANCH   2   3
ENDBRANCH   1   2
BRANCH   1   8
ATOM      8  C   UNL     1      41.138  61.580   7.991  1.00  0.00     0.000 C 
BRANCH   8   9
ATOM      9  C   UNL     1      39.996  60.657   8.447  1.00  0.00     0.000 C 
BRANCH   9  10
ATOM     10  C   UNL     1      40.073  59.259   7.809  1.00  0.00     0.006 C 
BRANCH  10  11
ATOM     11  C   UNL     1      41.032  58.330   8.566  1.00  0.00     0.053 C 
BRANCH  11  12
ATOM     12  C   UNL     1      41.877  57.519   7.630  1.00  0.00     0.041 C 
ATOM     13  O   UNL     1      41.778  56.263   7.616  1.00  0.00    -0.550 OA
ATOM     14  O   UNL     1      42.792  58.148   6.796  1.00  0.00    -0.550 OA
ENDBRANCH  11  12
ENDBRANCH  10  11
ENDBRANCH   9  10
ENDBRANCH   8   9
ENDBRANCH   1   8
TORSDOF 9
ENDMDL
MODEL 5
REMARK VINA RESULT:    -4.794      1.695      7.407
REMARK INTER + INTRA:          -7.713
REMARK INTER:                  -7.253
REMARK INTRA:                  -0.461
REMARK UNBOUND:                -0.397
REMARK SMILES O=C([O-])CCCCCCCCC(=O)[O-]
REMARK SMILES IDX 7 1 6 2 5 3 4 4 2 5 1 6 3 7 8 8 9 9 10 10 11 11 12 12 13 13
REMARK SMILES IDX 14 14
REMARK H PARENT
REMARK Flexibility Score: inf
ROOT
ATOM      1  C   UNL     1      39.810  62.160   8.280  1.00  0.00     0.000 C 
ENDROOT
BRANCH   1   2
ATOM      2  C   UNL     1      40.865  63.267   8.436  1.00  0.00     0.000 C 
BRANCH   2   3
ATOM      3  C   UNL     1      40.439  64.590   7.774  1.00  0.00     0.006 C 
BRANCH   3   4
ATOM      4  C   UNL     1      38.918  64.788   7.806  1.00  0.00     0.053 C 
BRANCH   4   5
ATOM      5  C   UNL     1      38.442  65.644   6.673  1.00  0.00     0.041 C 
ATOM      6  O   UNL     1      39.146  65.771   5.636  1.00  0.00    -0.550 OA
ATOM      7  O   UNL     1      37.208  66.278   6.747  1.00  0.00    -0.550 OA
ENDBRANCH   4   5
ENDBRANCH   3   4
ENDBRANCH   2   3
ENDBRANCH   1   2
BRANCH   1   8
ATOM      8  C   UNL     1      40.415  60.749   8.376  1.00  0.00     0.000 C 
BRANCH   8   9
ATOM      9  C   UNL     1      41.856  60.687   7.844  1.00  0.00     0.000 C 
BRANCH   9  10
ATOM     10  C   UNL     1      42.466  59.278   7.946  1.00  0.00     0.006 C 
BRANCH  10  11
ATOM     11  C   UNL     1      41.442  58.236   8.418  1.00  0.00     0.053 C 
BRANCH  11  12
ATOM     12  C   UNL     1      41.206  57.179   7.383  1.00  0.00     0.041 C 
ATOM     13  O   UNL     1      40.321  57.342   6.502  1.00  0.00    -0.550 OA
ATOM     14  O   UNL     1      41.942  56.002   7.409  1.00  0.00    -0.550 OA
ENDBRANCH  11  12
ENDBRANCH  10  11
ENDBRANCH   9  10
ENDBRANCH   8   9
ENDBRANCH   1   8
TORSDOF 9
ENDMDL
MODEL 6
REMARK VINA RESULT:    -4.720      1.804      2.885
REMARK INTER + INTRA:          -7.600
REMARK INTER:                  -7.218
REMARK INTRA:                  -0.383
REMARK UNBOUND:                -0.397
REMARK SMILES O=C([O-])CCCCCCCCC(=O)[O-]
REMARK SMILES IDX 7 1 6 2 5 3 4 4 2 5 1 6 3 7 8 8 9 9 10 10 11 11 12 12 13 13
REMARK SMILES IDX 14 14
REMARK H PARENT
REMARK Flexibility Score: inf
ROOT
ATOM      1  C   UNL     1      40.366  60.507   8.423  1.00  0.00     0.000 C 
ENDROOT
BRANCH   1   2
ATOM      2  C   UNL     1      39.525  59.441   7.702  1.00  0.00     0.000 C 
BRANCH   2   3
ATOM      3  C   UNL     1      39.674  58.044   8.330  1.00  0.00     0.006 C 
BRANCH   3   4
ATOM      4  C   UNL     1      41.118  57.759   8.769  1.00  0.00     0.053 C 
BRANCH   4   5
ATOM      5  C   UNL     1      41.945  57.210   7.647  1.00  0.00     0.041 C 
ATOM      6  O   UNL     1      41.904  55.981   7.372  1.00  0.00    -0.550 OA
ATOM      7  O   UNL     1      42.737  58.059   6.884  1.00  0.00    -0.550 OA
ENDBRANCH   4   5
ENDBRANCH   3   4
ENDBRANCH   2   3
ENDBRANCH   1   2
BRANCH   1   8
ATOM      8  C   UNL     1      39.858  61.936   8.163  1.00  0.00     0.000 C 
BRANCH   8   9
ATOM      9  C   UNL     1      40.931  63.003   8.436  1.00  0.00     0.000 C 
BRANCH   9  10
ATOM     10  C   UNL     1      40.539  64.390   7.898  1.00  0.00     0.006 C 
BRANCH  10  11
ATOM     11  C   UNL     1      39.017  64.584   7.852  1.00  0.00     0.053 C 
BRANCH  11  12
ATOM     12  C   UNL     1      38.603  65.485   6.727  1.00  0.00     0.041 C 
ATOM     13  O   UNL     1      39.324  65.586   5.700  1.00  0.00    -0.550 OA
ATOM     14  O   UNL     1      37.437  66.232   6.827  1.00  0.00    -0.550 OA
ENDBRANCH  11  12
ENDBRANCH  10  11
ENDBRANCH   9  10
ENDBRANCH   8   9
ENDBRANCH   1   8
TORSDOF 9
ENDMDL
MODEL 7
REMARK VINA RESULT:    -4.678      2.690      3.186
REMARK INTER + INTRA:          -7.537
REMARK INTER:                  -6.593
REMARK INTRA:                  -0.944
REMARK UNBOUND:                -0.397
REMARK SMILES O=C([O-])CCCCCCCCC(=O)[O-]
REMARK SMILES IDX 7 1 6 2 5 3 4 4 2 5 1 6 3 7 8 8 9 9 10 10 11 11 12 12 13 13
REMARK SMILES IDX 14 14
REMARK H PARENT
REMARK Flexibility Score: inf
ROOT
ATOM      1  C   UNL     1      39.866  62.553   8.498  1.00  0.00     0.000 C 
ENDROOT
BRANCH   1   2
ATOM      2  C   UNL     1      40.380  61.121   8.277  1.00  0.00     0.000 C 
BRANCH   2   3
ATOM      3  C   UNL     1      41.556  61.059   7.286  1.00  0.00     0.006 C 
BRANCH   3   4
ATOM      4  C   UNL     1      41.080  61.042   5.826  1.00  0.00     0.053 C 
BRANCH   4   5
ATOM      5  C   UNL     1      41.545  62.250   5.073  1.00  0.00     0.041 C 
ATOM      6  O   UNL     1      40.918  62.640   4.052  1.00  0.00    -0.550 OA
ATOM      7  O   UNL     1      42.651  62.965   5.515  1.00  0.00    -0.550 OA
ENDBRANCH   4   5
ENDBRANCH   3   4
ENDBRANCH   2   3
ENDBRANCH   1   2
BRANCH   1   8
ATOM      8  C   UNL     1      41.002  63.588   8.548  1.00  0.00     0.000 C 
BRANCH   8   9
ATOM      9  C   UNL     1      40.677  64.862   7.751  1.00  0.00     0.000 C 
BRANCH   9  10
ATOM     10  C   UNL     1      39.417  64.713   6.882  1.00  0.00     0.006 C 
BRANCH  10  11
ATOM     11  C   UNL     1      39.462  65.609   5.637  1.00  0.00     0.053 C 
BRANCH  11  12
ATOM     12  C   UNL     1      38.192  66.385   5.462  1.00  0.00     0.041 C 
ATOM     13  O   UNL     1      37.960  66.983   4.378  1.00  0.00    -0.550 OA
ATOM     14  O   UNL     1      37.279  66.472   6.505  1.00  0.00    -0.550 OA
ENDBRANCH  11  12
ENDBRANCH  10  11
ENDBRANCH   9  10
ENDBRANCH   8   9
ENDBRANCH   1   8
TORSDOF 9
ENDMDL
MODEL 8
REMARK VINA RESULT:    -4.577     14.344     15.716
REMARK INTER + INTRA:          -7.381
REMARK INTER:                  -6.782
REMARK INTRA:                  -0.599
REMARK UNBOUND:                -0.397
REMARK SMILES O=C([O-])CCCCCCCCC(=O)[O-]
REMARK SMILES IDX 7 1 6 2 5 3 4 4 2 5 1 6 3 7 8 8 9 9 10 10 11 11 12 12 13 13
REMARK SMILES IDX 14 14
REMARK H PARENT
REMARK Flexibility Score: inf
ROOT
ATOM      1  C   UNL     1      28.884  56.867  -3.280  1.00  0.00     0.000 C 
ENDROOT
BRANCH   1   2
ATOM      2  C   UNL     1      28.522  56.097  -4.560  1.00  0.00     0.000 C 
BRANCH   2   3
ATOM      3  C   UNL     1      29.232  56.651  -5.808  1.00  0.00     0.006 C 
BRANCH   3   4
ATOM      4  C   UNL     1      30.487  57.458  -5.447  1.00  0.00     0.053 C 
BRANCH   4   5
ATOM      5  C   UNL     1      30.475  58.820  -6.071  1.00  0.00     0.041 C 
ATOM      6  O   UNL     1      31.100  59.770  -5.530  1.00  0.00    -0.550 OA
ATOM      7  O   UNL     1      29.798  59.033  -7.265  1.00  0.00    -0.550 OA
ENDBRANCH   4   5
ENDBRANCH   3   4
ENDBRANCH   2   3
ENDBRANCH   1   2
BRANCH   1   8
ATOM      8  C   UNL     1      27.981  56.495  -2.091  1.00  0.00     0.000 C 
BRANCH   8   9
ATOM      9  C   UNL     1      28.490  57.072  -0.760  1.00  0.00     0.000 C 
BRANCH   9  10
ATOM     10  C   UNL     1      28.986  58.522  -0.892  1.00  0.00     0.006 C 
BRANCH  10  11
ATOM     11  C   UNL     1      30.319  58.747  -0.165  1.00  0.00     0.053 C 
BRANCH  11  12
ATOM     12  C   UNL     1      31.493  58.465  -1.052  1.00  0.00     0.041 C 
ATOM     13  O   UNL     1      31.515  58.905  -2.232  1.00  0.00    -0.550 OA
ATOM     14  O   UNL     1      32.549  57.694  -0.585  1.00  0.00    -0.550 OA
ENDBRANCH  11  12
ENDBRANCH  10  11
ENDBRANCH   9  10
ENDBRANCH   8   9
ENDBRANCH   1   8
TORSDOF 9
ENDMDL
MODEL 9
REMARK VINA RESULT:    -4.560      1.653      6.661
REMARK INTER + INTRA:          -7.357
REMARK INTER:                  -6.914
REMARK INTRA:                  -0.442
REMARK UNBOUND:                -0.397
REMARK SMILES O=C([O-])CCCCCCCCC(=O)[O-]
REMARK SMILES IDX 7 1 6 2 5 3 4 4 2 5 1 6 3 7 8 8 9 9 10 10 11 11 12 12 13 13
REMARK SMILES IDX 14 14
REMARK H PARENT
REMARK Flexibility Score: inf
ROOT
ATOM      1  C   UNL     1      41.355  61.630   8.160  1.00  0.00     0.000 C 
ENDROOT
BRANCH   1   2
ATOM      2  C   UNL     1      40.915  63.092   8.337  1.00  0.00     0.000 C 
BRANCH   2   3
ATOM      3  C   UNL     1      39.433  63.313   7.985  1.00  0.00     0.006 C 
BRANCH   3   4
ATOM      4  C   UNL     1      39.008  64.777   8.166  1.00  0.00     0.053 C 
BRANCH   4   5
ATOM      5  C   UNL     1      38.681  65.428   6.857  1.00  0.00     0.041 C 
ATOM      6  O   UNL     1      37.585  66.030   6.705  1.00  0.00    -0.550 OA
ATOM      7  O   UNL     1      39.599  65.399   5.815  1.00  0.00    -0.550 OA
ENDBRANCH   4   5
ENDBRANCH   3   4
ENDBRANCH   2   3
ENDBRANCH   1   2
BRANCH   1   8
ATOM      8  C   UNL     1      40.197  60.636   8.358  1.00  0.00     0.000 C 
BRANCH   8   9
ATOM      9  C   UNL     1      40.684  59.232   8.753  1.00  0.00     0.000 C 
BRANCH   9  10
ATOM     10  C   UNL     1      40.005  58.118   7.938  1.00  0.00     0.006 C 
BRANCH  10  11
ATOM     11  C   UNL     1      38.518  58.404   7.693  1.00  0.00     0.053 C 
BRANCH  11  12
ATOM     12  C   UNL     1      38.171  58.345   6.236  1.00  0.00     0.041 C 
ATOM     13  O   UNL     1      37.792  57.261   5.719  1.00  0.00    -0.550 OA
ATOM     14  O   UNL     1      38.293  59.480   5.445  1.00  0.00    -0.550 OA
ENDBRANCH  11  12
ENDBRANCH  10  11
ENDBRANCH   9  10
ENDBRANCH   8   9
ENDBRANCH   1   8
TORSDOF 9
ENDMDL
