MODEL 1
REMARK VINA RESULT:    -8.109      0.000      0.000
REMARK INTER + INTRA:          -8.820
REMARK INTER:                  -8.820
REMARK INTRA:                   0.000
REMARK UNBOUND:                 0.000
REMARK SMILES Cc1cc(O)c2c(c1)C(=O)c1cc(O)cc(O)c1C2=O
REMARK SMILES IDX 1 1 2 2 8 3 7 4 6 5 4 6 3 7 19 8 20 9 18 10 11 11 9 12 10 13
REMARK SMILES IDX 12 14 13 15 15 16 16 17 5 18 17 20 14 22
REMARK H PARENT 5 19 17 21 14 23
REMARK Flexibility Score: inf
ROOT
ATOM      1  C   UNL     1     166.019 158.658 151.879  1.00  0.00     0.044 C 
ATOM      2  C   UNL     1     165.516 157.244 151.927  1.00  0.00    -0.047 A 
ATOM      3  C   UNL     1     165.892 156.330 150.938  1.00  0.00     0.016 A 
ATOM      4  C   UNL     1     165.462 154.993 150.997  1.00  0.00     0.038 A 
ATOM      5  C   UNL     1     164.663 154.558 152.078  1.00  0.00     0.076 A 
ATOM      6  C   UNL     1     164.247 155.501 153.054  1.00  0.00     0.127 A 
ATOM      7  C   UNL     1     164.704 156.821 152.984  1.00  0.00     0.050 A 
ATOM      8  C   UNL     1     164.354 153.109 152.184  1.00  0.00     0.201 C 
ATOM      9  O   UNL     1     164.179 152.585 153.316  1.00  0.00    -0.288 OA
ATOM     10  C   UNL     1     164.435 152.247 150.976  1.00  0.00     0.076 A 
ATOM     11  C   UNL     1     165.235 152.686 149.896  1.00  0.00     0.041 A 
ATOM     12  C   UNL     1     165.840 154.038 149.928  1.00  0.00     0.194 C 
ATOM     13  O   UNL     1     166.657 154.386 149.031  1.00  0.00    -0.289 OA
ATOM     14  C   UNL     1     165.449 151.839 148.796  1.00  0.00     0.059 A 
ATOM     15  C   UNL     1     164.863 150.570 148.752  1.00  0.00     0.120 A 
ATOM     16  C   UNL     1     164.041 150.151 149.798  1.00  0.00     0.093 A 
ATOM     17  C   UNL     1     163.797 150.983 150.895  1.00  0.00     0.131 A 
ENDROOT
BRANCH   6  18
ATOM     18  O   UNL     1     163.360 155.181 154.084  1.00  0.00    -0.507 OA
ATOM     19  H   UNL     1     163.469 155.505 155.036  1.00  0.00     0.293 HD
ENDBRANCH   6  18
BRANCH  17  20
ATOM     20  O   UNL     1     162.891 150.530 151.857  1.00  0.00    -0.507 OA
ATOM     21  H   UNL     1     163.166 150.198 152.771  1.00  0.00     0.293 HD
ENDBRANCH  17  20
BRANCH  15  22
ATOM     22  O   UNL     1     165.084 149.723 147.669  1.00  0.00    -0.508 OA
ATOM     23  H   UNL     1     164.499 148.913 147.502  1.00  0.00     0.293 HD
ENDBRANCH  15  22
TORSDOF 3
ENDMDL
MODEL 2
REMARK VINA RESULT:    -8.073      1.644      6.574
REMARK INTER + INTRA:          -8.781
REMARK INTER:                  -8.781
REMARK INTRA:                   0.000
REMARK UNBOUND:                 0.000
REMARK SMILES Cc1cc(O)c2c(c1)C(=O)c1cc(O)cc(O)c1C2=O
REMARK SMILES IDX 1 1 2 2 8 3 7 4 6 5 4 6 3 7 19 8 20 9 18 10 11 11 9 12 10 13
REMARK SMILES IDX 12 14 13 15 15 16 16 17 5 18 17 20 14 22
REMARK H PARENT 5 19 17 21 14 23
REMARK Flexibility Score: inf
ROOT
ATOM      1  C   UNL     1     162.417 147.304 150.157  1.00  0.00     0.044 C 
ATOM      2  C   UNL     1     163.250 148.488 149.759  1.00  0.00    -0.047 A 
ATOM      3  C   UNL     1     163.460 149.535 150.661  1.00  0.00     0.016 A 
ATOM      4  C   UNL     1     164.274 150.627 150.315  1.00  0.00     0.038 A 
ATOM      5  C   UNL     1     164.910 150.658 149.054  1.00  0.00     0.076 A 
ATOM      6  C   UNL     1     164.658 149.615 148.126  1.00  0.00     0.127 A 
ATOM      7  C   UNL     1     163.860 148.530 148.501  1.00  0.00     0.050 A 
ATOM      8  C   UNL     1     165.879 151.753 148.783  1.00  0.00     0.201 C 
ATOM      9  O   UNL     1     166.850 151.553 148.007  1.00  0.00    -0.288 OA
ATOM     10  C   UNL     1     165.807 153.012 149.568  1.00  0.00     0.076 A 
ATOM     11  C   UNL     1     165.170 152.977 150.829  1.00  0.00     0.041 A 
ATOM     12  C   UNL     1     164.465 151.748 151.266  1.00  0.00     0.194 C 
ATOM     13  O   UNL     1     164.006 151.667 152.439  1.00  0.00    -0.289 OA
ATOM     14  C   UNL     1     165.202 154.109 151.661  1.00  0.00     0.059 A 
ATOM     15  C   UNL     1     165.847 155.277 151.244  1.00  0.00     0.120 A 
ATOM     16  C   UNL     1     166.443 155.327 149.984  1.00  0.00     0.093 A 
ATOM     17  C   UNL     1     166.406 154.221 149.130  1.00  0.00     0.131 A 
ENDROOT
BRANCH   6  18
ATOM     18  O   UNL     1     165.148 149.632 146.818  1.00  0.00    -0.507 OA
ATOM     19  H   UNL     1     164.697 149.159 146.046  1.00  0.00     0.293 HD
ENDBRANCH   6  18
BRANCH  17  20
ATOM     20  O   UNL     1     166.943 154.377 147.850  1.00  0.00    -0.507 OA
ATOM     21  H   UNL     1     166.980 155.262 147.363  1.00  0.00     0.293 HD
ENDBRANCH  17  20
BRANCH  15  22
ATOM     22  O   UNL     1     165.893 156.397 152.071  1.00  0.00    -0.508 OA
ATOM     23  H   UNL     1     165.883 157.336 151.692  1.00  0.00     0.293 HD
ENDBRANCH  15  22
TORSDOF 3
ENDMDL
MODEL 3
REMARK VINA RESULT:    -7.775      2.574      5.605
REMARK INTER + INTRA:          -8.457
REMARK INTER:                  -8.457
REMARK INTRA:                   0.000
REMARK UNBOUND:                 0.000
REMARK SMILES Cc1cc(O)c2c(c1)C(=O)c1cc(O)cc(O)c1C2=O
REMARK SMILES IDX 1 1 2 2 8 3 7 4 6 5 4 6 3 7 19 8 20 9 18 10 11 11 9 12 10 13
REMARK SMILES IDX 12 14 13 15 15 16 16 17 5 18 17 20 14 22
REMARK H PARENT 5 19 17 21 14 23
REMARK Flexibility Score: inf
ROOT
ATOM      1  C   UNL     1     169.220 151.434 145.875  1.00  0.00     0.044 C 
ATOM      2  C   UNL     1     168.111 151.393 146.886  1.00  0.00    -0.047 A 
ATOM      3  C   UNL     1     168.230 152.096 148.089  1.00  0.00     0.016 A 
ATOM      4  C   UNL     1     167.180 152.101 149.024  1.00  0.00     0.038 A 
ATOM      5  C   UNL     1     165.981 151.413 148.737  1.00  0.00     0.076 A 
ATOM      6  C   UNL     1     165.883 150.664 147.535  1.00  0.00     0.127 A 
ATOM      7  C   UNL     1     166.933 150.691 146.612  1.00  0.00     0.050 A 
ATOM      8  C   UNL     1     164.842 151.564 149.680  1.00  0.00     0.201 C 
ATOM      9  O   UNL     1     163.659 151.493 149.252  1.00  0.00    -0.288 OA
ATOM     10  C   UNL     1     165.097 151.984 151.082  1.00  0.00     0.076 A 
ATOM     11  C   UNL     1     166.298 152.673 151.365  1.00  0.00     0.041 A 
ATOM     12  C   UNL     1     167.328 152.822 150.310  1.00  0.00     0.194 C 
ATOM     13  O   UNL     1     168.343 153.544 150.517  1.00  0.00    -0.289 OA
ATOM     14  C   UNL     1     166.513 153.207 152.646  1.00  0.00     0.059 A 
ATOM     15  C   UNL     1     165.553 153.050 153.650  1.00  0.00     0.120 A 
ATOM     16  C   UNL     1     164.384 152.337 153.386  1.00  0.00     0.093 A 
ATOM     17  C   UNL     1     164.156 151.778 152.125  1.00  0.00     0.131 A 
ENDROOT
BRANCH   6  18
ATOM     18  O   UNL     1     164.781 149.860 147.234  1.00  0.00    -0.507 OA
ATOM     19  H   UNL     1     164.314 149.865 146.337  1.00  0.00     0.293 HD
ENDBRANCH   6  18
BRANCH  17  20
ATOM     20  O   UNL     1     163.007 151.001 151.962  1.00  0.00    -0.507 OA
ATOM     21  H   UNL     1     163.022 149.996 151.859  1.00  0.00     0.293 HD
ENDBRANCH  17  20
BRANCH  15  22
ATOM     22  O   UNL     1     165.757 153.589 154.918  1.00  0.00    -0.508 OA
ATOM     23  H   UNL     1     165.182 154.344 155.272  1.00  0.00     0.293 HD
ENDBRANCH  15  22
TORSDOF 3
ENDMDL
MODEL 4
REMARK VINA RESULT:    -7.774      1.925      4.094
REMARK INTER + INTRA:          -8.456
REMARK INTER:                  -8.456
REMARK INTRA:                   0.000
REMARK UNBOUND:                 0.000
REMARK SMILES Cc1cc(O)c2c(c1)C(=O)c1cc(O)cc(O)c1C2=O
REMARK SMILES IDX 1 1 2 2 8 3 7 4 6 5 4 6 3 7 19 8 20 9 18 10 11 11 9 12 10 13
REMARK SMILES IDX 12 14 13 15 15 16 16 17 5 18 17 20 14 22
REMARK H PARENT 5 19 17 21 14 23
REMARK Flexibility Score: inf
ROOT
ATOM      1  C   UNL     1     166.644 155.144 153.325  1.00  0.00     0.044 C 
ATOM      2  C   UNL     1     166.276 154.208 152.211  1.00  0.00    -0.047 A 
ATOM      3  C   UNL     1     165.419 153.130 152.453  1.00  0.00     0.016 A 
ATOM      4  C   UNL     1     165.032 152.273 151.409  1.00  0.00     0.038 A 
ATOM      5  C   UNL     1     165.491 152.513 150.095  1.00  0.00     0.076 A 
ATOM      6  C   UNL     1     166.397 153.581 149.863  1.00  0.00     0.127 A 
ATOM      7  C   UNL     1     166.751 154.432 150.915  1.00  0.00     0.050 A 
ATOM      8  C   UNL     1     164.944 151.677 148.996  1.00  0.00     0.201 C 
ATOM      9  O   UNL     1     164.837 152.156 147.835  1.00  0.00    -0.288 OA
ATOM     10  C   UNL     1     164.352 150.349 149.303  1.00  0.00     0.076 A 
ATOM     11  C   UNL     1     163.894 150.112 150.619  1.00  0.00     0.041 A 
ATOM     12  C   UNL     1     164.148 151.115 151.681  1.00  0.00     0.194 C 
ATOM     13  O   UNL     1     163.632 150.968 152.824  1.00  0.00    -0.289 OA
ATOM     14  C   UNL     1     163.205 148.924 150.917  1.00  0.00     0.059 A 
ATOM     15  C   UNL     1     162.982 147.966 149.923  1.00  0.00     0.120 A 
ATOM     16  C   UNL     1     163.467 148.180 148.633  1.00  0.00     0.093 A 
ATOM     17  C   UNL     1     164.173 149.344 148.318  1.00  0.00     0.131 A 
ENDROOT
BRANCH   6  18
ATOM     18  O   UNL     1     166.992 153.812 148.621  1.00  0.00    -0.507 OA
ATOM     19  H   UNL     1     166.999 153.134 147.871  1.00  0.00     0.293 HD
ENDBRANCH   6  18
BRANCH  17  20
ATOM     20  O   UNL     1     164.707 149.446 147.031  1.00  0.00    -0.507 OA
ATOM     21  H   UNL     1     165.676 149.665 146.843  1.00  0.00     0.293 HD
ENDBRANCH  17  20
BRANCH  15  22
ATOM     22  O   UNL     1     162.288 146.794 150.210  1.00  0.00    -0.508 OA
ATOM     23  H   UNL     1     162.461 145.936 149.699  1.00  0.00     0.293 HD
ENDBRANCH  15  22
TORSDOF 3
ENDMDL
MODEL 5
REMARK VINA RESULT:    -7.729      1.666      6.003
REMARK INTER + INTRA:          -8.407
REMARK INTER:                  -8.407
REMARK INTRA:                   0.000
REMARK UNBOUND:                 0.000
REMARK SMILES Cc1cc(O)c2c(c1)C(=O)c1cc(O)cc(O)c1C2=O
REMARK SMILES IDX 1 1 2 2 8 3 7 4 6 5 4 6 3 7 19 8 20 9 18 10 11 11 9 12 10 13
REMARK SMILES IDX 12 14 13 15 15 16 16 17 5 18 17 20 14 22
REMARK H PARENT 5 19 17 21 14 23
REMARK Flexibility Score: inf
ROOT
ATOM      1  C   UNL     1     166.095 149.485 146.343  1.00  0.00     0.044 C 
ATOM      2  C   UNL     1     166.069 150.707 147.213  1.00  0.00    -0.047 A 
ATOM      3  C   UNL     1     165.278 150.733 148.366  1.00  0.00     0.016 A 
ATOM      4  C   UNL     1     165.280 151.856 149.212  1.00  0.00     0.038 A 
ATOM      5  C   UNL     1     166.108 152.960 148.913  1.00  0.00     0.076 A 
ATOM      6  C   UNL     1     166.873 152.947 147.718  1.00  0.00     0.127 A 
ATOM      7  C   UNL     1     166.870 151.811 146.903  1.00  0.00     0.050 A 
ATOM      8  C   UNL     1     166.195 154.062 149.906  1.00  0.00     0.201 C 
ATOM      9  O   UNL     1     167.255 154.735 150.006  1.00  0.00    -0.288 OA
ATOM     10  C   UNL     1     165.107 154.246 150.901  1.00  0.00     0.076 A 
ATOM     11  C   UNL     1     164.281 153.138 151.198  1.00  0.00     0.041 A 
ATOM     12  C   UNL     1     164.415 151.887 150.415  1.00  0.00     0.194 C 
ATOM     13  O   UNL     1     163.772 150.856 150.758  1.00  0.00    -0.289 OA
ATOM     14  C   UNL     1     163.333 153.229 152.231  1.00  0.00     0.059 A 
ATOM     15  C   UNL     1     163.189 154.415 152.958  1.00  0.00     0.120 A 
ATOM     16  C   UNL     1     163.975 155.522 152.641  1.00  0.00     0.093 A 
ATOM     17  C   UNL     1     164.911 155.462 151.605  1.00  0.00     0.131 A 
ENDROOT
BRANCH   6  18
ATOM     18  O   UNL     1     167.621 154.046 147.287  1.00  0.00    -0.507 OA
ATOM     19  H   UNL     1     167.216 154.944 147.063  1.00  0.00     0.293 HD
ENDBRANCH   6  18
BRANCH  17  20
ATOM     20  O   UNL     1     165.596 156.637 151.286  1.00  0.00    -0.507 OA
ATOM     21  H   UNL     1     165.139 157.483 150.974  1.00  0.00     0.293 HD
ENDBRANCH  17  20
BRANCH  15  22
ATOM     22  O   UNL     1     162.259 154.505 153.991  1.00  0.00    -0.508 OA
ATOM     23  H   UNL     1     161.262 154.512 153.809  1.00  0.00     0.293 HD
ENDBRANCH  15  22
TORSDOF 3
ENDMDL
MODEL 6
REMARK VINA RESULT:    -7.614      5.371      8.128
REMARK INTER + INTRA:          -8.281
REMARK INTER:                  -8.281
REMARK INTRA:                   0.000
REMARK UNBOUND:                 0.000
REMARK SMILES Cc1cc(O)c2c(c1)C(=O)c1cc(O)cc(O)c1C2=O
REMARK SMILES IDX 1 1 2 2 8 3 7 4 6 5 4 6 3 7 19 8 20 9 18 10 11 11 9 12 10 13
REMARK SMILES IDX 12 14 13 15 15 16 16 17 5 18 17 20 14 22
REMARK H PARENT 5 19 17 21 14 23
REMARK Flexibility Score: inf
ROOT
ATOM      1  C   UNL     1     171.956 146.607 146.625  1.00  0.00     0.044 C 
ATOM      2  C   UNL     1     171.181 147.882 146.795  1.00  0.00    -0.047 A 
ATOM      3  C   UNL     1     169.791 147.885 146.646  1.00  0.00     0.016 A 
ATOM      4  C   UNL     1     169.051 149.063 146.846  1.00  0.00     0.038 A 
ATOM      5  C   UNL     1     169.712 150.252 147.228  1.00  0.00     0.076 A 
ATOM      6  C   UNL     1     171.127 150.253 147.334  1.00  0.00     0.127 A 
ATOM      7  C   UNL     1     171.839 149.064 147.149  1.00  0.00     0.050 A 
ATOM      8  C   UNL     1     168.883 151.436 147.575  1.00  0.00     0.201 C 
ATOM      9  O   UNL     1     169.302 152.269 148.422  1.00  0.00    -0.288 OA
ATOM     10  C   UNL     1     167.491 151.535 147.067  1.00  0.00     0.076 A 
ATOM     11  C   UNL     1     166.833 150.344 146.686  1.00  0.00     0.041 A 
ATOM     12  C   UNL     1     167.582 149.065 146.655  1.00  0.00     0.194 C 
ATOM     13  O   UNL     1     166.971 147.981 146.441  1.00  0.00    -0.289 OA
ATOM     14  C   UNL     1     165.474 150.377 146.332  1.00  0.00     0.059 A 
ATOM     15  C   UNL     1     164.769 151.585 146.340  1.00  0.00     0.120 A 
ATOM     16  C   UNL     1     165.425 152.768 146.677  1.00  0.00     0.093 A 
ATOM     17  C   UNL     1     166.782 152.763 147.013  1.00  0.00     0.131 A 
ENDROOT
BRANCH   6  18
ATOM     18  O   UNL     1     171.865 151.412 147.587  1.00  0.00    -0.507 OA
ATOM     19  H   UNL     1     172.601 151.466 148.278  1.00  0.00     0.293 HD
ENDBRANCH   6  18
BRANCH  17  20
ATOM     20  O   UNL     1     167.392 153.998 147.250  1.00  0.00    -0.507 OA
ATOM     21  H   UNL     1     168.090 154.402 146.641  1.00  0.00     0.293 HD
ENDBRANCH  17  20
BRANCH  15  22
ATOM     22  O   UNL     1     163.418 151.620 146.003  1.00  0.00    -0.508 OA
ATOM     23  H   UNL     1     163.072 151.193 145.152  1.00  0.00     0.293 HD
ENDBRANCH  15  22
TORSDOF 3
ENDMDL
MODEL 7
REMARK VINA RESULT:    -7.549      2.907      5.857
REMARK INTER + INTRA:          -8.211
REMARK INTER:                  -8.211
REMARK INTRA:                   0.000
REMARK UNBOUND:                 0.000
REMARK SMILES Cc1cc(O)c2c(c1)C(=O)c1cc(O)cc(O)c1C2=O
REMARK SMILES IDX 1 1 2 2 8 3 7 4 6 5 4 6 3 7 19 8 20 9 18 10 11 11 9 12 10 13
REMARK SMILES IDX 12 14 13 15 15 16 16 17 5 18 17 20 14 22
REMARK H PARENT 5 19 17 21 14 23
REMARK Flexibility Score: inf
ROOT
ATOM      1  C   UNL     1     162.387 147.255 148.925  1.00  0.00     0.044 C 
ATOM      2  C   UNL     1     163.175 148.459 149.353  1.00  0.00    -0.047 A 
ATOM      3  C   UNL     1     164.146 149.001 148.506  1.00  0.00     0.016 A 
ATOM      4  C   UNL     1     164.858 150.154 148.877  1.00  0.00     0.038 A 
ATOM      5  C   UNL     1     164.575 150.790 150.107  1.00  0.00     0.076 A 
ATOM      6  C   UNL     1     163.621 150.210 150.982  1.00  0.00     0.127 A 
ATOM      7  C   UNL     1     162.911 149.074 150.581  1.00  0.00     0.050 A 
ATOM      8  C   UNL     1     165.241 152.087 150.396  1.00  0.00     0.201 C 
ATOM      9  O   UNL     1     164.660 152.945 151.113  1.00  0.00    -0.288 OA
ATOM     10  C   UNL     1     166.500 152.442 149.692  1.00  0.00     0.076 A 
ATOM     11  C   UNL     1     166.780 151.804 148.463  1.00  0.00     0.041 A 
ATOM     12  C   UNL     1     165.908 150.704 147.988  1.00  0.00     0.194 C 
ATOM     13  O   UNL     1     166.077 150.218 146.834  1.00  0.00    -0.289 OA
ATOM     14  C   UNL     1     167.887 152.211 147.699  1.00  0.00     0.059 A 
ATOM     15  C   UNL     1     168.724 153.235 148.154  1.00  0.00     0.120 A 
ATOM     16  C   UNL     1     168.473 153.839 149.385  1.00  0.00     0.093 A 
ATOM     17  C   UNL     1     167.390 153.438 150.173  1.00  0.00     0.131 A 
ENDROOT
BRANCH   6  18
ATOM     18  O   UNL     1     163.371 150.706 152.264  1.00  0.00    -0.507 OA
ATOM     19  H   UNL     1     163.901 151.456 152.686  1.00  0.00     0.293 HD
ENDBRANCH   6  18
BRANCH  17  20
ATOM     20  O   UNL     1     167.256 154.025 151.433  1.00  0.00    -0.507 OA
ATOM     21  H   UNL     1     166.973 153.517 152.259  1.00  0.00     0.293 HD
ENDBRANCH  17  20
BRANCH  15  22
ATOM     22  O   UNL     1     169.815 153.650 147.394  1.00  0.00    -0.508 OA
ATOM     23  H   UNL     1     169.775 153.682 146.382  1.00  0.00     0.293 HD
ENDBRANCH  15  22
TORSDOF 3
ENDMDL
MODEL 8
REMARK VINA RESULT:    -7.479      2.750      4.548
REMARK INTER + INTRA:          -8.135
REMARK INTER:                  -8.135
REMARK INTRA:                   0.000
REMARK UNBOUND:                 0.000
REMARK SMILES Cc1cc(O)c2c(c1)C(=O)c1cc(O)cc(O)c1C2=O
REMARK SMILES IDX 1 1 2 2 8 3 7 4 6 5 4 6 3 7 19 8 20 9 18 10 11 11 9 12 10 13
REMARK SMILES IDX 12 14 13 15 15 16 16 17 5 18 17 20 14 22
REMARK H PARENT 5 19 17 21 14 23
REMARK Flexibility Score: inf
ROOT
ATOM      1  C   UNL     1     165.027 153.610 153.938  1.00  0.00     0.044 C 
ATOM      2  C   UNL     1     165.623 153.215 152.619  1.00  0.00    -0.047 A 
ATOM      3  C   UNL     1     164.968 152.289 151.800  1.00  0.00     0.016 A 
ATOM      4  C   UNL     1     165.495 151.946 150.543  1.00  0.00     0.038 A 
ATOM      5  C   UNL     1     166.683 152.559 150.087  1.00  0.00     0.076 A 
ATOM      6  C   UNL     1     167.367 153.463 150.940  1.00  0.00     0.127 A 
ATOM      7  C   UNL     1     166.813 153.804 152.178  1.00  0.00     0.050 A 
ATOM      8  C   UNL     1     167.126 152.282 148.696  1.00  0.00     0.201 C 
ATOM      9  O   UNL     1     167.768 153.157 148.056  1.00  0.00    -0.288 OA
ATOM     10  C   UNL     1     166.653 151.057 148.001  1.00  0.00     0.076 A 
ATOM     11  C   UNL     1     165.464 150.446 148.460  1.00  0.00     0.041 A 
ATOM     12  C   UNL     1     164.811 150.940 149.696  1.00  0.00     0.194 C 
ATOM     13  O   UNL     1     163.685 150.485 150.039  1.00  0.00    -0.289 OA
ATOM     14  C   UNL     1     164.909 149.371 147.747  1.00  0.00     0.059 A 
ATOM     15  C   UNL     1     165.534 148.888 146.593  1.00  0.00     0.120 A 
ATOM     16  C   UNL     1     166.728 149.463 146.159  1.00  0.00     0.093 A 
ATOM     17  C   UNL     1     167.310 150.521 146.863  1.00  0.00     0.131 A 
ENDROOT
BRANCH   6  18
ATOM     18  O   UNL     1     168.607 154.018 150.616  1.00  0.00    -0.507 OA
ATOM     19  H   UNL     1     169.410 153.989 151.230  1.00  0.00     0.293 HD
ENDBRANCH   6  18
BRANCH  17  20
ATOM     20  O   UNL     1     168.552 150.984 146.421  1.00  0.00    -0.507 OA
ATOM     21  H   UNL     1     169.428 150.532 146.644  1.00  0.00     0.293 HD
ENDBRANCH  17  20
BRANCH  15  22
ATOM     22  O   UNL     1     164.980 147.831 145.875  1.00  0.00    -0.508 OA
ATOM     23  H   UNL     1     165.063 146.873 146.194  1.00  0.00     0.293 HD
ENDBRANCH  15  22
TORSDOF 3
ENDMDL
MODEL 9
REMARK VINA RESULT:    -7.438      2.477      4.184
REMARK INTER + INTRA:          -8.090
REMARK INTER:                  -8.090
REMARK INTRA:                   0.000
REMARK UNBOUND:                 0.000
REMARK SMILES Cc1cc(O)c2c(c1)C(=O)c1cc(O)cc(O)c1C2=O
REMARK SMILES IDX 1 1 2 2 8 3 7 4 6 5 4 6 3 7 19 8 20 9 18 10 11 11 9 12 10 13
REMARK SMILES IDX 12 14 13 15 15 16 16 17 5 18 17 20 14 22
REMARK H PARENT 5 19 17 21 14 23
REMARK Flexibility Score: inf
ROOT
ATOM      1  C   UNL     1     165.299 151.790 155.666  1.00  0.00     0.044 C 
ATOM      2  C   UNL     1     165.561 152.288 154.274  1.00  0.00    -0.047 A 
ATOM      3  C   UNL     1     164.846 151.763 153.194  1.00  0.00     0.016 A 
ATOM      4  C   UNL     1     165.051 152.252 151.892  1.00  0.00     0.038 A 
ATOM      5  C   UNL     1     165.968 153.304 151.673  1.00  0.00     0.076 A 
ATOM      6  C   UNL     1     166.724 153.802 152.766  1.00  0.00     0.127 A 
ATOM      7  C   UNL     1     166.488 153.313 154.055  1.00  0.00     0.050 A 
ATOM      8  C   UNL     1     166.048 153.893 150.311  1.00  0.00     0.201 C 
ATOM      9  O   UNL     1     166.359 155.106 150.170  1.00  0.00    -0.288 OA
ATOM     10  C   UNL     1     165.583 153.108 149.139  1.00  0.00     0.076 A 
ATOM     11  C   UNL     1     164.664 152.057 149.362  1.00  0.00     0.041 A 
ATOM     12  C   UNL     1     164.312 151.668 150.748  1.00  0.00     0.194 C 
ATOM     13  O   UNL     1     163.399 150.820 150.953  1.00  0.00    -0.289 OA
ATOM     14  C   UNL     1     164.095 151.382 148.270  1.00  0.00     0.059 A 
ATOM     15  C   UNL     1     164.440 151.732 146.961  1.00  0.00     0.120 A 
ATOM     16  C   UNL     1     165.376 152.743 146.739  1.00  0.00     0.093 A 
ATOM     17  C   UNL     1     165.972 153.415 147.810  1.00  0.00     0.131 A 
ENDROOT
BRANCH   6  18
ATOM     18  O   UNL     1     167.736 154.753 152.615  1.00  0.00    -0.507 OA
ATOM     19  H   UNL     1     167.576 155.687 152.262  1.00  0.00     0.293 HD
ENDBRANCH   6  18
BRANCH  17  20
ATOM     20  O   UNL     1     166.966 154.350 147.511  1.00  0.00    -0.507 OA
ATOM     21  H   UNL     1     166.895 155.332 147.736  1.00  0.00     0.293 HD
ENDBRANCH  17  20
BRANCH  15  22
ATOM     22  O   UNL     1     163.868 151.074 145.875  1.00  0.00    -0.508 OA
ATOM     23  H   UNL     1     164.338 151.023 144.979  1.00  0.00     0.293 HD
ENDBRANCH  15  22
TORSDOF 3
ENDMDL
