MODEL 1
REMARK VINA RESULT:    -4.944      0.000      0.000
REMARK INTER + INTRA:          -7.315
REMARK INTER:                  -6.967
REMARK INTRA:                  -0.347
REMARK UNBOUND:                -0.347
REMARK SMILES C=CCCCCCCC(=O)[O-]
REMARK SMILES IDX 6 1 7 2 8 3 9 4 10 5 11 6 5 7 4 8 3 9 2 10 1 11
REMARK H PARENT
REMARK Flexibility Score: inf
ROOT
ATOM      1  C   UNL     1      30.066   0.007 -14.924  1.00  0.00     0.000 C 
ENDROOT
BRANCH   1   2
ATOM      2  C   UNL     1      30.670   0.414 -16.277  1.00  0.00     0.006 C 
BRANCH   2   3
ATOM      3  C   UNL     1      32.017   1.135 -16.130  1.00  0.00     0.053 C 
BRANCH   3   4
ATOM      4  C   UNL     1      33.147   0.168 -16.299  1.00  0.00     0.041 C 
ATOM      5  O   UNL     1      33.632  -0.046 -17.441  1.00  0.00    -0.550 OA
ATOM      6  O   UNL     1      33.697  -0.458 -15.188  1.00  0.00    -0.550 OA
ENDBRANCH   3   4
ENDBRANCH   2   3
ENDBRANCH   1   2
BRANCH   1   7
ATOM      7  C   UNL     1      28.753  -0.778 -15.076  1.00  0.00     0.000 C 
BRANCH   7   8
ATOM      8  C   UNL     1      28.406  -1.095 -16.542  1.00  0.00     0.004 C 
BRANCH   8   9
ATOM      9  C   UNL     1      26.941  -1.517 -16.756  1.00  0.00     0.027 C 
BRANCH   9  10
ATOM     10  C   UNL     1      25.963  -0.540 -16.157  1.00  0.00    -0.035 C 
ATOM     11  C   UNL     1      24.812  -0.959 -15.628  1.00  0.00     0.004 C 
ENDBRANCH   9  10
ENDBRANCH   8   9
ENDBRANCH   7   8
ENDBRANCH   1   7
TORSDOF 7
ENDMDL
MODEL 2
REMARK VINA RESULT:    -4.781     11.053     11.620
REMARK INTER + INTRA:          -7.084
REMARK INTER:                  -6.707
REMARK INTRA:                  -0.377
REMARK UNBOUND:                -0.347
REMARK SMILES C=CCCCCCCC(=O)[O-]
REMARK SMILES IDX 6 1 7 2 8 3 9 4 10 5 11 6 5 7 4 8 3 9 2 10 1 11
REMARK H PARENT
REMARK Flexibility Score: inf
ROOT
ATOM      1  C   UNL     1      28.914   4.126 -28.140  1.00  0.00     0.000 C 
ENDROOT
BRANCH   1   2
ATOM      2  C   UNL     1      30.069   3.744 -27.202  1.00  0.00     0.006 C 
BRANCH   2   3
ATOM      3  C   UNL     1      30.936   4.948 -26.809  1.00  0.00     0.053 C 
BRANCH   3   4
ATOM      4  C   UNL     1      30.811   5.225 -25.344  1.00  0.00     0.041 C 
ATOM      5  O   UNL     1      31.753   5.786 -24.723  1.00  0.00    -0.550 OA
ATOM      6  O   UNL     1      29.637   4.908 -24.675  1.00  0.00    -0.550 OA
ENDBRANCH   3   4
ENDBRANCH   2   3
ENDBRANCH   1   2
BRANCH   1   7
ATOM      7  C   UNL     1      27.607   3.393 -27.797  1.00  0.00     0.000 C 
BRANCH   7   8
ATOM      8  C   UNL     1      26.798   4.092 -26.690  1.00  0.00     0.004 C 
BRANCH   8   9
ATOM      9  C   UNL     1      25.628   3.247 -26.149  1.00  0.00     0.027 C 
BRANCH   9  10
ATOM     10  C   UNL     1      25.231   2.140 -27.091  1.00  0.00    -0.035 C 
ATOM     11  C   UNL     1      23.973   1.698 -27.136  1.00  0.00     0.004 C 
ENDBRANCH   9  10
ENDBRANCH   8   9
ENDBRANCH   7   8
ENDBRANCH   1   7
TORSDOF 7
ENDMDL
MODEL 3
REMARK VINA RESULT:    -4.727     11.096     11.817
REMARK INTER + INTRA:          -7.009
REMARK INTER:                  -6.666
REMARK INTRA:                  -0.343
REMARK UNBOUND:                -0.347
REMARK SMILES C=CCCCCCCC(=O)[O-]
REMARK SMILES IDX 6 1 7 2 8 3 9 4 10 5 11 6 5 7 4 8 3 9 2 10 1 11
REMARK H PARENT
REMARK Flexibility Score: inf
ROOT
ATOM      1  C   UNL     1      31.009   5.727 -26.817  1.00  0.00     0.000 C 
ENDROOT
BRANCH   1   2
ATOM      2  C   UNL     1      31.915   6.735 -26.093  1.00  0.00     0.006 C 
BRANCH   2   3
ATOM      3  C   UNL     1      32.029   6.453 -24.588  1.00  0.00     0.053 C 
BRANCH   3   4
ATOM      4  C   UNL     1      33.166   7.226 -23.998  1.00  0.00     0.041 C 
ATOM      5  O   UNL     1      33.975   6.664 -23.213  1.00  0.00    -0.550 OA
ATOM      6  O   UNL     1      33.362   8.554 -24.352  1.00  0.00    -0.550 OA
ENDBRANCH   3   4
ENDBRANCH   2   3
ENDBRANCH   1   2
BRANCH   1   7
ATOM      7  C   UNL     1      30.460   4.644 -25.874  1.00  0.00     0.000 C 
BRANCH   7   8
ATOM      8  C   UNL     1      29.631   3.573 -26.605  1.00  0.00     0.004 C 
BRANCH   8   9
ATOM      9  C   UNL     1      29.287   3.940 -28.061  1.00  0.00     0.027 C 
BRANCH   9  10
ATOM     10  C   UNL     1      27.830   3.730 -28.381  1.00  0.00    -0.035 C 
ATOM     11  C   UNL     1      26.966   3.362 -27.432  1.00  0.00     0.004 C 
ENDBRANCH   9  10
ENDBRANCH   8   9
ENDBRANCH   7   8
ENDBRANCH   1   7
TORSDOF 7
ENDMDL
MODEL 4
REMARK VINA RESULT:    -4.689     13.926     16.111
REMARK INTER + INTRA:          -6.954
REMARK INTER:                  -6.647
REMARK INTRA:                  -0.307
REMARK UNBOUND:                -0.347
REMARK SMILES C=CCCCCCCC(=O)[O-]
REMARK SMILES IDX 6 1 7 2 8 3 9 4 10 5 11 6 5 7 4 8 3 9 2 10 1 11
REMARK H PARENT
REMARK Flexibility Score: inf
ROOT
ATOM      1  C   UNL     1      19.823  -3.110 -27.952  1.00  0.00     0.000 C 
ENDROOT
BRANCH   1   2
ATOM      2  C   UNL     1      18.897  -4.316 -27.732  1.00  0.00     0.006 C 
BRANCH   2   3
ATOM      3  C   UNL     1      17.807  -4.043 -26.686  1.00  0.00     0.053 C 
BRANCH   3   4
ATOM      4  C   UNL     1      17.095  -5.309 -26.331  1.00  0.00     0.041 C 
ATOM      5  O   UNL     1      16.783  -5.547 -25.134  1.00  0.00    -0.550 OA
ATOM      6  O   UNL     1      16.731  -6.205 -27.328  1.00  0.00    -0.550 OA
ENDBRANCH   3   4
ENDBRANCH   2   3
ENDBRANCH   1   2
BRANCH   1   7
ATOM      7  C   UNL     1      21.298  -3.440 -27.678  1.00  0.00     0.000 C 
BRANCH   7   8
ATOM      8  C   UNL     1      21.625  -3.537 -26.177  1.00  0.00     0.004 C 
BRANCH   8   9
ATOM      9  C   UNL     1      22.967  -2.888 -25.790  1.00  0.00     0.027 C 
BRANCH   9  10
ATOM     10  C   UNL     1      23.512  -1.996 -26.875  1.00  0.00    -0.035 C 
ATOM     11  C   UNL     1      24.271  -0.939 -26.576  1.00  0.00     0.004 C 
ENDBRANCH   9  10
ENDBRANCH   8   9
ENDBRANCH   7   8
ENDBRANCH   1   7
TORSDOF 7
ENDMDL
MODEL 5
REMARK VINA RESULT:    -4.644     11.001     11.588
REMARK INTER + INTRA:          -6.891
REMARK INTER:                  -6.655
REMARK INTRA:                  -0.236
REMARK UNBOUND:                -0.347
REMARK SMILES C=CCCCCCCC(=O)[O-]
REMARK SMILES IDX 6 1 7 2 8 3 9 4 10 5 11 6 5 7 4 8 3 9 2 10 1 11
REMARK H PARENT
REMARK Flexibility Score: inf
ROOT
ATOM      1  C   UNL     1      30.345   3.902 -27.141  1.00  0.00     0.000 C 
ENDROOT
BRANCH   1   2
ATOM      2  C   UNL     1      30.425   4.820 -25.911  1.00  0.00     0.006 C 
BRANCH   2   3
ATOM      3  C   UNL     1      31.449   5.951 -26.083  1.00  0.00     0.053 C 
BRANCH   3   4
ATOM      4  C   UNL     1      31.976   6.385 -24.751  1.00  0.00     0.041 C 
ATOM      5  O   UNL     1      31.658   5.754 -23.709  1.00  0.00    -0.550 OA
ATOM      6  O   UNL     1      32.857   7.455 -24.667  1.00  0.00    -0.550 OA
ENDBRANCH   3   4
ENDBRANCH   2   3
ENDBRANCH   1   2
BRANCH   1   7
ATOM      7  C   UNL     1      29.245   4.330 -28.126  1.00  0.00     0.000 C 
BRANCH   7   8
ATOM      8  C   UNL     1      28.029   3.387 -28.117  1.00  0.00     0.004 C 
BRANCH   8   9
ATOM      9  C   UNL     1      26.942   3.783 -27.100  1.00  0.00     0.027 C 
BRANCH   9  10
ATOM     10  C   UNL     1      25.779   2.826 -27.094  1.00  0.00    -0.035 C 
ATOM     11  C   UNL     1      25.125   2.549 -25.964  1.00  0.00     0.004 C 
ENDBRANCH   9  10
ENDBRANCH   8   9
ENDBRANCH   7   8
ENDBRANCH   1   7
TORSDOF 7
ENDMDL
MODEL 6
REMARK VINA RESULT:    -4.628     11.226     12.522
REMARK INTER + INTRA:          -6.869
REMARK INTER:                  -6.384
REMARK INTRA:                  -0.485
REMARK UNBOUND:                -0.347
REMARK SMILES C=CCCCCCCC(=O)[O-]
REMARK SMILES IDX 6 1 7 2 8 3 9 4 10 5 11 6 5 7 4 8 3 9 2 10 1 11
REMARK H PARENT
REMARK Flexibility Score: inf
ROOT
ATOM      1  C   UNL     1      28.659   3.794 -28.210  1.00  0.00     0.000 C 
ENDROOT
BRANCH   1   2
ATOM      2  C   UNL     1      27.335   3.752 -27.431  1.00  0.00     0.006 C 
BRANCH   2   3
ATOM      3  C   UNL     1      27.400   4.533 -26.111  1.00  0.00     0.053 C 
BRANCH   3   4
ATOM      4  C   UNL     1      26.455   3.947 -25.110  1.00  0.00     0.041 C 
ATOM      5  O   UNL     1      25.223   3.883 -25.364  1.00  0.00    -0.550 OA
ATOM      6  O   UNL     1      26.941   3.427 -23.918  1.00  0.00    -0.550 OA
ENDBRANCH   3   4
ENDBRANCH   2   3
ENDBRANCH   1   2
BRANCH   1   7
ATOM      7  C   UNL     1      29.869   4.066 -27.303  1.00  0.00     0.000 C 
BRANCH   7   8
ATOM      8  C   UNL     1      30.700   5.281 -27.755  1.00  0.00     0.004 C 
BRANCH   8   9
ATOM      9  C   UNL     1      31.253   6.123 -26.589  1.00  0.00     0.027 C 
BRANCH   9  10
ATOM     10  C   UNL     1      30.967   5.507 -25.244  1.00  0.00    -0.035 C 
ATOM     11  C   UNL     1      31.694   5.833 -24.173  1.00  0.00     0.004 C 
ENDBRANCH   9  10
ENDBRANCH   8   9
ENDBRANCH   7   8
ENDBRANCH   1   7
TORSDOF 7
ENDMDL
MODEL 7
REMARK VINA RESULT:    -4.611      7.691     10.406
REMARK INTER + INTRA:          -6.844
REMARK INTER:                  -6.447
REMARK INTRA:                  -0.397
REMARK UNBOUND:                -0.347
REMARK SMILES C=CCCCCCCC(=O)[O-]
REMARK SMILES IDX 6 1 7 2 8 3 9 4 10 5 11 6 5 7 4 8 3 9 2 10 1 11
REMARK H PARENT
REMARK Flexibility Score: inf
ROOT
ATOM      1  C   UNL     1      19.123   1.877 -16.451  1.00  0.00     0.000 C 
ENDROOT
BRANCH   1   2
ATOM      2  C   UNL     1      20.509   1.941 -17.111  1.00  0.00     0.006 C 
BRANCH   2   3
ATOM      3  C   UNL     1      21.653   1.758 -16.105  1.00  0.00     0.053 C 
BRANCH   3   4
ATOM      4  C   UNL     1      22.820   1.087 -16.757  1.00  0.00     0.041 C 
ATOM      5  O   UNL     1      23.365   0.091 -16.211  1.00  0.00    -0.550 OA
ATOM      6  O   UNL     1      23.275   1.530 -17.992  1.00  0.00    -0.550 OA
ENDBRANCH   3   4
ENDBRANCH   2   3
ENDBRANCH   1   2
BRANCH   1   7
ATOM      7  C   UNL     1      19.157   1.194 -15.074  1.00  0.00     0.000 C 
BRANCH   7   8
ATOM      8  C   UNL     1      17.789   0.633 -14.646  1.00  0.00     0.004 C 
BRANCH   8   9
ATOM      9  C   UNL     1      17.151  -0.309 -15.685  1.00  0.00     0.027 C 
BRANCH   9  10
ATOM     10  C   UNL     1      15.811   0.184 -16.165  1.00  0.00    -0.035 C 
ATOM     11  C   UNL     1      15.052   0.967 -15.395  1.00  0.00     0.004 C 
ENDBRANCH   9  10
ENDBRANCH   8   9
ENDBRANCH   7   8
ENDBRANCH   1   7
TORSDOF 7
ENDMDL
MODEL 8
REMARK VINA RESULT:    -4.593     10.974     11.637
REMARK INTER + INTRA:          -6.820
REMARK INTER:                  -6.236
REMARK INTRA:                  -0.584
REMARK UNBOUND:                -0.347
REMARK SMILES C=CCCCCCCC(=O)[O-]
REMARK SMILES IDX 6 1 7 2 8 3 9 4 10 5 11 6 5 7 4 8 3 9 2 10 1 11
REMARK H PARENT
REMARK Flexibility Score: inf
ROOT
ATOM      1  C   UNL     1      28.106   3.434 -28.383  1.00  0.00     0.000 C 
ENDROOT
BRANCH   1   2
ATOM      2  C   UNL     1      29.017   4.580 -27.916  1.00  0.00     0.006 C 
BRANCH   2   3
ATOM      3  C   UNL     1      30.306   4.077 -27.251  1.00  0.00     0.053 C 
BRANCH   3   4
ATOM      4  C   UNL     1      31.066   5.221 -26.655  1.00  0.00     0.041 C 
ATOM      5  O   UNL     1      31.468   6.163 -27.387  1.00  0.00    -0.550 OA
ATOM      6  O   UNL     1      31.288   5.269 -25.286  1.00  0.00    -0.550 OA
ENDBRANCH   3   4
ENDBRANCH   2   3
ENDBRANCH   1   2
BRANCH   1   7
ATOM      7  C   UNL     1      26.957   3.156 -27.401  1.00  0.00     0.000 C 
BRANCH   7   8
ATOM      8  C   UNL     1      26.738   4.296 -26.391  1.00  0.00     0.004 C 
BRANCH   8   9
ATOM      9  C   UNL     1      26.746   3.834 -24.921  1.00  0.00     0.027 C 
BRANCH   9  10
ATOM     10  C   UNL     1      28.111   3.936 -24.291  1.00  0.00    -0.035 C 
ATOM     11  C   UNL     1      28.263   4.447 -23.067  1.00  0.00     0.004 C 
ENDBRANCH   9  10
ENDBRANCH   8   9
ENDBRANCH   7   8
ENDBRANCH   1   7
TORSDOF 7
ENDMDL
MODEL 9
REMARK VINA RESULT:    -4.496     11.758     13.126
REMARK INTER + INTRA:          -6.684
REMARK INTER:                  -6.268
REMARK INTRA:                  -0.415
REMARK UNBOUND:                -0.347
REMARK SMILES C=CCCCCCCC(=O)[O-]
REMARK SMILES IDX 6 1 7 2 8 3 9 4 10 5 11 6 5 7 4 8 3 9 2 10 1 11
REMARK H PARENT
REMARK Flexibility Score: inf
ROOT
ATOM      1  C   UNL     1      27.278   4.128 -26.319  1.00  0.00     0.000 C 
ENDROOT
BRANCH   1   2
ATOM      2  C   UNL     1      25.877   3.593 -25.977  1.00  0.00     0.006 C 
BRANCH   2   3
ATOM      3  C   UNL     1      25.349   2.606 -27.026  1.00  0.00     0.053 C 
BRANCH   3   4
ATOM      4  C   UNL     1      24.254   1.766 -26.448  1.00  0.00     0.041 C 
ATOM      5  O   UNL     1      23.559   2.202 -25.492  1.00  0.00    -0.550 OA
ATOM      6  O   UNL     1      23.968   0.523 -26.996  1.00  0.00    -0.550 OA
ENDBRANCH   3   4
ENDBRANCH   2   3
ENDBRANCH   1   2
BRANCH   1   7
ATOM      7  C   UNL     1      27.688   3.822 -27.768  1.00  0.00     0.000 C 
BRANCH   7   8
ATOM      8  C   UNL     1      29.213   3.727 -27.955  1.00  0.00     0.004 C 
BRANCH   8   9
ATOM      9  C   UNL     1      30.001   3.716 -26.631  1.00  0.00     0.027 C 
BRANCH   9  10
ATOM     10  C   UNL     1      31.095   4.752 -26.602  1.00  0.00    -0.035 C 
ATOM     11  C   UNL     1      31.002   5.867 -27.329  1.00  0.00     0.004 C 
ENDBRANCH   9  10
ENDBRANCH   8   9
ENDBRANCH   7   8
ENDBRANCH   1   7
TORSDOF 7
ENDMDL
