MODEL 1
REMARK VINA RESULT:    -4.501      0.000      0.000
REMARK INTER + INTRA:          -6.245
REMARK INTER:                  -5.817
REMARK INTRA:                  -0.428
REMARK UNBOUND:                -0.428
REMARK SMILES CCO[C@@H]1O[C@H](CO)[C@H](O)[C@@H](O)[C@H]1O
REMARK SMILES IDX 4 1 13 2 11 3 9 4 6 5 5 6 3 7 2 8 1 9 14 10 12 12 7 14 8 15
REMARK SMILES IDX 10 17
REMARK H PARENT 14 11 12 13 8 16 10 18
REMARK Flexibility Score: inf
ROOT
ATOM      1  C   UNL     1      -3.036  -1.685  -6.756  1.00  0.00     0.281 C 
ATOM      2  C   UNL     1      -4.500  -1.989  -6.397  1.00  0.00     0.202 C 
ATOM      3  C   UNL     1      -5.443  -1.081  -7.193  1.00  0.00     0.179 C 
ATOM      4  C   UNL     1      -5.145  -1.235  -8.687  1.00  0.00     0.177 C 
ATOM      5  C   UNL     1      -3.642  -0.994  -8.979  1.00  0.00     0.178 C 
ATOM      6  O   UNL     1      -2.776  -1.775  -8.156  1.00  0.00    -0.341 OA
ENDROOT
BRANCH   1   7
ATOM      7  O   UNL     1      -2.667  -0.416  -6.241  1.00  0.00    -0.350 OA
BRANCH   7   8
ATOM      8  C   UNL     1      -1.310  -0.395  -5.841  1.00  0.00     0.160 C 
ATOM      9  C   UNL     1      -0.960  -1.670  -5.083  1.00  0.00     0.035 C 
ENDBRANCH   7   8
ENDBRANCH   1   7
BRANCH   2  10
ATOM     10  O   UNL     1      -4.770  -3.344  -6.667  1.00  0.00    -0.385 OA
ATOM     11  H   UNL     1      -3.894  -3.810  -6.716  1.00  0.00     0.211 HD
ENDBRANCH   2  10
BRANCH   3  12
ATOM     12  O   UNL     1      -6.775  -1.435  -6.922  1.00  0.00    -0.387 OA
ATOM     13  H   UNL     1      -6.910  -2.351  -7.281  1.00  0.00     0.211 HD
ENDBRANCH   3  12
BRANCH   5  14
ATOM     14  C   UNL     1      -3.237   0.497  -9.024  1.00  0.00     0.191 C 
BRANCH  14  15
ATOM     15  O   UNL     1      -3.736   1.106 -10.184  1.00  0.00    -0.394 OA
ATOM     16  H   UNL     1      -4.722   1.141 -10.090  1.00  0.00     0.210 HD
ENDBRANCH  14  15
ENDBRANCH   5  14
BRANCH   4  17
ATOM     17  O   UNL     1      -5.953  -0.353  -9.423  1.00  0.00    -0.387 OA
ATOM     18  H   UNL     1      -6.214  -0.830 -10.254  1.00  0.00     0.211 HD
ENDBRANCH   4  17
TORSDOF 7
ENDMDL
MODEL 2
REMARK VINA RESULT:    -4.393      2.064      3.771
REMARK INTER + INTRA:          -6.105
REMARK INTER:                  -5.727
REMARK INTRA:                  -0.378
REMARK UNBOUND:                -0.428
REMARK SMILES CCO[C@@H]1O[C@H](CO)[C@H](O)[C@@H](O)[C@H]1O
REMARK SMILES IDX 4 1 13 2 11 3 9 4 6 5 5 6 3 7 2 8 1 9 14 10 12 12 7 14 8 15
REMARK SMILES IDX 10 17
REMARK H PARENT 14 11 12 13 8 16 10 18
REMARK Flexibility Score: inf
ROOT
ATOM      1  C   UNL     1      -2.134  -0.008  -8.627  1.00  0.00     0.281 C 
ATOM      2  C   UNL     1      -3.618   0.042  -9.028  1.00  0.00     0.202 C 
ATOM      3  C   UNL     1      -4.274  -1.325  -8.808  1.00  0.00     0.179 C 
ATOM      4  C   UNL     1      -4.057  -1.759  -7.355  1.00  0.00     0.177 C 
ATOM      5  C   UNL     1      -2.553  -1.714  -6.984  1.00  0.00     0.178 C 
ATOM      6  O   UNL     1      -1.933  -0.466  -7.291  1.00  0.00    -0.341 OA
ENDROOT
BRANCH   1   7
ATOM      7  O   UNL     1      -1.410  -0.794  -9.558  1.00  0.00    -0.350 OA
BRANCH   7   8
ATOM      8  C   UNL     1      -0.047  -0.412  -9.609  1.00  0.00     0.160 C 
ATOM      9  C   UNL     1       0.661  -1.125 -10.755  1.00  0.00     0.035 C 
ENDBRANCH   7   8
ENDBRANCH   1   7
BRANCH   2  10
ATOM     10  O   UNL     1      -4.268   1.032  -8.269  1.00  0.00    -0.385 OA
ATOM     11  H   UNL     1      -3.974   1.912  -8.625  1.00  0.00     0.211 HD
ENDBRANCH   2  10
BRANCH   3  12
ATOM     12  O   UNL     1      -5.648  -1.237  -9.091  1.00  0.00    -0.387 OA
ATOM     13  H   UNL     1      -5.797  -0.358  -9.527  1.00  0.00     0.211 HD
ENDBRANCH   3  12
BRANCH   5  14
ATOM     14  C   UNL     1      -1.739  -2.925  -7.496  1.00  0.00     0.191 C 
BRANCH  14  15
ATOM     15  O   UNL     1      -1.962  -4.045  -6.683  1.00  0.00    -0.394 OA
ATOM     16  H   UNL     1      -2.264  -4.778  -7.279  1.00  0.00     0.210 HD
ENDBRANCH  14  15
ENDBRANCH   5  14
BRANCH   4  17
ATOM     17  O   UNL     1      -4.590  -3.044  -7.161  1.00  0.00    -0.387 OA
ATOM     18  H   UNL     1      -3.899  -3.689  -7.463  1.00  0.00     0.211 HD
ENDBRANCH   4  17
TORSDOF 7
ENDMDL
MODEL 3
REMARK VINA RESULT:    -4.366      2.073      3.742
REMARK INTER + INTRA:          -6.070
REMARK INTER:                  -5.684
REMARK INTRA:                  -0.386
REMARK UNBOUND:                -0.428
REMARK SMILES CCO[C@@H]1O[C@H](CO)[C@H](O)[C@@H](O)[C@H]1O
REMARK SMILES IDX 4 1 13 2 11 3 9 4 6 5 5 6 3 7 2 8 1 9 14 10 12 12 7 14 8 15
REMARK SMILES IDX 10 17
REMARK H PARENT 14 11 12 13 8 16 10 18
REMARK Flexibility Score: inf
ROOT
ATOM      1  C   UNL     1      -5.644   0.457  -5.952  1.00  0.00     0.281 C 
ATOM      2  C   UNL     1      -6.314   0.035  -7.270  1.00  0.00     0.202 C 
ATOM      3  C   UNL     1      -5.332  -0.765  -8.133  1.00  0.00     0.179 C 
ATOM      4  C   UNL     1      -4.800  -1.949  -7.322  1.00  0.00     0.177 C 
ATOM      5  C   UNL     1      -4.208  -1.472  -5.970  1.00  0.00     0.178 C 
ATOM      6  O   UNL     1      -5.100  -0.644  -5.226  1.00  0.00    -0.341 OA
ENDROOT
BRANCH   1   7
ATOM      7  O   UNL     1      -4.661   1.446  -6.206  1.00  0.00    -0.350 OA
BRANCH   7   8
ATOM      8  C   UNL     1      -5.252   2.695  -6.517  1.00  0.00     0.160 C 
ATOM      9  C   UNL     1      -4.177   3.720  -6.859  1.00  0.00     0.035 C 
ENDBRANCH   7   8
ENDBRANCH   1   7
BRANCH   2  10
ATOM     10  O   UNL     1      -7.458  -0.732  -6.982  1.00  0.00    -0.385 OA
ATOM     11  H   UNL     1      -7.165  -1.678  -6.915  1.00  0.00     0.211 HD
ENDBRANCH   2  10
BRANCH   3  12
ATOM     12  O   UNL     1      -5.987  -1.221  -9.290  1.00  0.00    -0.387 OA
ATOM     13  H   UNL     1      -6.916  -0.873  -9.251  1.00  0.00     0.211 HD
ENDBRANCH   3  12
BRANCH   5  14
ATOM     14  C   UNL     1      -2.787  -0.872  -6.078  1.00  0.00     0.191 C 
BRANCH  14  15
ATOM     15  O   UNL     1      -1.825  -1.891  -6.109  1.00  0.00    -0.394 OA
ATOM     16  H   UNL     1      -1.108  -1.629  -5.476  1.00  0.00     0.210 HD
ENDBRANCH  14  15
ENDBRANCH   5  14
BRANCH   4  17
ATOM     17  O   UNL     1      -3.842  -2.647  -8.076  1.00  0.00    -0.387 OA
ATOM     18  H   UNL     1      -4.098  -3.606  -8.046  1.00  0.00     0.211 HD
ENDBRANCH   4  17
TORSDOF 7
ENDMDL
MODEL 4
REMARK VINA RESULT:    -4.336      1.353      3.481
REMARK INTER + INTRA:          -6.032
REMARK INTER:                  -5.839
REMARK INTRA:                  -0.193
REMARK UNBOUND:                -0.428
REMARK SMILES CCO[C@@H]1O[C@H](CO)[C@H](O)[C@@H](O)[C@H]1O
REMARK SMILES IDX 4 1 13 2 11 3 9 4 6 5 5 6 3 7 2 8 1 9 14 10 12 12 7 14 8 15
REMARK SMILES IDX 10 17
REMARK H PARENT 14 11 12 13 8 16 10 18
REMARK Flexibility Score: inf
ROOT
ATOM      1  C   UNL     1      -2.668  -0.636  -8.010  1.00  0.00     0.281 C 
ATOM      2  C   UNL     1      -3.763  -0.195  -8.995  1.00  0.00     0.202 C 
ATOM      3  C   UNL     1      -5.093  -0.874  -8.652  1.00  0.00     0.179 C 
ATOM      4  C   UNL     1      -5.443  -0.580  -7.190  1.00  0.00     0.177 C 
ATOM      5  C   UNL     1      -4.273  -0.972  -6.251  1.00  0.00     0.178 C 
ATOM      6  O   UNL     1      -3.022  -0.412  -6.647  1.00  0.00    -0.341 OA
ENDROOT
BRANCH   1   7
ATOM      7  O   UNL     1      -2.330  -1.994  -8.242  1.00  0.00    -0.350 OA
BRANCH   7   8
ATOM      8  C   UNL     1      -1.798  -2.181  -9.540  1.00  0.00     0.160 C 
ATOM      9  C   UNL     1      -1.052  -3.508  -9.621  1.00  0.00     0.035 C 
ENDBRANCH   7   8
ENDBRANCH   1   7
BRANCH   2  10
ATOM     10  O   UNL     1      -3.893   1.205  -8.944  1.00  0.00    -0.385 OA
ATOM     11  H   UNL     1      -3.330   1.576  -9.673  1.00  0.00     0.211 HD
ENDBRANCH   2  10
BRANCH   3  12
ATOM     12  O   UNL     1      -6.101  -0.390  -9.502  1.00  0.00    -0.387 OA
ATOM     13  H   UNL     1      -6.843  -0.076  -8.921  1.00  0.00     0.211 HD
ENDBRANCH   3  12
BRANCH   5  14
ATOM     14  C   UNL     1      -4.181  -2.487  -5.954  1.00  0.00     0.191 C 
BRANCH  14  15
ATOM     15  O   UNL     1      -4.651  -3.230  -7.045  1.00  0.00    -0.394 OA
ATOM     16  H   UNL     1      -3.854  -3.595  -7.509  1.00  0.00     0.210 HD
ENDBRANCH  14  15
ENDBRANCH   5  14
BRANCH   4  17
ATOM     17  O   UNL     1      -6.623  -1.259  -6.841  1.00  0.00    -0.387 OA
ATOM     18  H   UNL     1      -6.650  -1.293  -5.849  1.00  0.00     0.211 HD
ENDBRANCH   4  17
TORSDOF 7
ENDMDL
MODEL 5
REMARK VINA RESULT:    -4.319      1.509      2.063
REMARK INTER + INTRA:          -6.010
REMARK INTER:                  -5.573
REMARK INTRA:                  -0.436
REMARK UNBOUND:                -0.428
REMARK SMILES CCO[C@@H]1O[C@H](CO)[C@H](O)[C@@H](O)[C@H]1O
REMARK SMILES IDX 4 1 13 2 11 3 9 4 6 5 5 6 3 7 2 8 1 9 14 10 12 12 7 14 8 15
REMARK SMILES IDX 10 17
REMARK H PARENT 14 11 12 13 8 16 10 18
REMARK Flexibility Score: inf
ROOT
ATOM      1  C   UNL     1      -1.223  -1.404  -7.244  1.00  0.00     0.281 C 
ATOM      2  C   UNL     1      -2.206  -2.471  -6.735  1.00  0.00     0.202 C 
ATOM      3  C   UNL     1      -3.637  -2.120  -7.156  1.00  0.00     0.179 C 
ATOM      4  C   UNL     1      -3.683  -1.934  -8.675  1.00  0.00     0.177 C 
ATOM      5  C   UNL     1      -2.619  -0.906  -9.138  1.00  0.00     0.178 C 
ATOM      6  O   UNL     1      -1.308  -1.194  -8.652  1.00  0.00    -0.341 OA
ENDROOT
BRANCH   1   7
ATOM      7  O   UNL     1      -1.412  -0.195  -6.527  1.00  0.00    -0.350 OA
BRANCH   7   8
ATOM      8  C   UNL     1      -0.176   0.416  -6.207  1.00  0.00     0.160 C 
ATOM      9  C   UNL     1       0.058   1.635  -7.092  1.00  0.00     0.035 C 
ENDBRANCH   7   8
ENDBRANCH   1   7
BRANCH   2  10
ATOM     10  O   UNL     1      -1.832  -3.726  -7.250  1.00  0.00    -0.385 OA
ATOM     11  H   UNL     1      -2.025  -3.711  -8.224  1.00  0.00     0.211 HD
ENDBRANCH   2  10
BRANCH   3  12
ATOM     12  O   UNL     1      -4.508  -3.151  -6.764  1.00  0.00    -0.387 OA
ATOM     13  H   UNL     1      -3.943  -3.891  -6.418  1.00  0.00     0.211 HD
ENDBRANCH   3  12
BRANCH   5  14
ATOM     14  C   UNL     1      -3.026   0.569  -8.918  1.00  0.00     0.191 C 
BRANCH  14  15
ATOM     15  O   UNL     1      -3.742   1.050 -10.022  1.00  0.00    -0.394 OA
ATOM     16  H   UNL     1      -3.086   1.190 -10.752  1.00  0.00     0.210 HD
ENDBRANCH  14  15
ENDBRANCH   5  14
BRANCH   4  17
ATOM     17  O   UNL     1      -4.973  -1.539  -9.064  1.00  0.00    -0.387 OA
ATOM     18  H   UNL     1      -5.588  -2.275  -8.807  1.00  0.00     0.211 HD
ENDBRANCH   4  17
TORSDOF 7
ENDMDL
MODEL 6
REMARK VINA RESULT:    -4.317      1.734      4.263
REMARK INTER + INTRA:          -6.007
REMARK INTER:                  -5.574
REMARK INTRA:                  -0.433
REMARK UNBOUND:                -0.428
REMARK SMILES CCO[C@@H]1O[C@H](CO)[C@H](O)[C@@H](O)[C@H]1O
REMARK SMILES IDX 4 1 13 2 11 3 9 4 6 5 5 6 3 7 2 8 1 9 14 10 12 12 7 14 8 15
REMARK SMILES IDX 10 17
REMARK H PARENT 14 11 12 13 8 16 10 18
REMARK Flexibility Score: inf
ROOT
ATOM      1  C   UNL     1      -4.652   0.538  -7.908  1.00  0.00     0.281 C 
ATOM      2  C   UNL     1      -3.375   0.739  -8.740  1.00  0.00     0.202 C 
ATOM      3  C   UNL     1      -2.440  -0.465  -8.580  1.00  0.00     0.179 C 
ATOM      4  C   UNL     1      -3.201  -1.743  -8.944  1.00  0.00     0.177 C 
ATOM      5  C   UNL     1      -4.517  -1.853  -8.131  1.00  0.00     0.178 C 
ATOM      6  O   UNL     1      -5.327  -0.682  -8.210  1.00  0.00    -0.341 OA
ENDROOT
BRANCH   1   7
ATOM      7  O   UNL     1      -4.346   0.632  -6.527  1.00  0.00    -0.350 OA
BRANCH   7   8
ATOM      8  C   UNL     1      -5.449   1.117  -5.784  1.00  0.00     0.160 C 
ATOM      9  C   UNL     1      -5.953   2.428  -6.378  1.00  0.00     0.035 C 
ENDBRANCH   7   8
ENDBRANCH   1   7
BRANCH   2  10
ATOM     10  O   UNL     1      -3.727   0.917 -10.091  1.00  0.00    -0.385 OA
ATOM     11  H   UNL     1      -4.615   1.362 -10.104  1.00  0.00     0.211 HD
ENDBRANCH   2  10
BRANCH   3  12
ATOM     12  O   UNL     1      -1.323  -0.307  -9.418  1.00  0.00    -0.387 OA
ATOM     13  H   UNL     1      -0.518  -0.454  -8.856  1.00  0.00     0.211 HD
ENDBRANCH   3  12
BRANCH   5  14
ATOM     14  C   UNL     1      -4.324  -2.348  -6.679  1.00  0.00     0.191 C 
BRANCH  14  15
ATOM     15  O   UNL     1      -4.380  -3.747  -6.626  1.00  0.00    -0.394 OA
ATOM     16  H   UNL     1      -5.278  -3.987  -6.280  1.00  0.00     0.210 HD
ENDBRANCH  14  15
ENDBRANCH   5  14
BRANCH   4  17
ATOM     17  O   UNL     1      -2.378  -2.861  -8.729  1.00  0.00    -0.387 OA
ATOM     18  H   UNL     1      -2.916  -3.662  -8.964  1.00  0.00     0.211 HD
ENDBRANCH   4  17
TORSDOF 7
ENDMDL
MODEL 7
REMARK VINA RESULT:    -4.305      1.610      3.496
REMARK INTER + INTRA:          -5.992
REMARK INTER:                  -5.595
REMARK INTRA:                  -0.396
REMARK UNBOUND:                -0.428
REMARK SMILES CCO[C@@H]1O[C@H](CO)[C@H](O)[C@@H](O)[C@H]1O
REMARK SMILES IDX 4 1 13 2 11 3 9 4 6 5 5 6 3 7 2 8 1 9 14 10 12 12 7 14 8 15
REMARK SMILES IDX 10 17
REMARK H PARENT 14 11 12 13 8 16 10 18
REMARK Flexibility Score: inf
ROOT
ATOM      1  C   UNL     1      -2.705   0.911  -6.616  1.00  0.00     0.281 C 
ATOM      2  C   UNL     1      -3.010   1.482  -8.011  1.00  0.00     0.202 C 
ATOM      3  C   UNL     1      -3.534   0.378  -8.935  1.00  0.00     0.179 C 
ATOM      4  C   UNL     1      -4.745  -0.292  -8.281  1.00  0.00     0.177 C 
ATOM      5  C   UNL     1      -4.402  -0.778  -6.850  1.00  0.00     0.178 C 
ATOM      6  O   UNL     1      -3.820   0.238  -6.034  1.00  0.00    -0.341 OA
ENDROOT
BRANCH   1   7
ATOM      7  O   UNL     1      -1.567   0.068  -6.680  1.00  0.00    -0.350 OA
BRANCH   7   8
ATOM      8  C   UNL     1      -0.389   0.808  -6.940  1.00  0.00     0.160 C 
ATOM      9  C   UNL     1       0.386   0.184  -8.095  1.00  0.00     0.035 C 
ENDBRANCH   7   8
ENDBRANCH   1   7
BRANCH   2  10
ATOM     10  O   UNL     1      -3.956   2.517  -7.889  1.00  0.00    -0.385 OA
ATOM     11  H   UNL     1      -4.330   2.463  -6.970  1.00  0.00     0.211 HD
ENDBRANCH   2  10
BRANCH   3  12
ATOM     12  O   UNL     1      -3.894   0.935 -10.174  1.00  0.00    -0.387 OA
ATOM     13  H   UNL     1      -3.729   1.912 -10.111  1.00  0.00     0.211 HD
ENDBRANCH   3  12
BRANCH   5  14
ATOM     14  C   UNL     1      -3.608  -2.104  -6.805  1.00  0.00     0.191 C 
BRANCH  14  15
ATOM     15  O   UNL     1      -4.451  -3.189  -7.084  1.00  0.00    -0.394 OA
ATOM     16  H   UNL     1      -5.324  -2.812  -7.361  1.00  0.00     0.210 HD
ENDBRANCH  14  15
ENDBRANCH   5  14
BRANCH   4  17
ATOM     17  O   UNL     1      -5.189  -1.355  -9.085  1.00  0.00    -0.387 OA
ATOM     18  H   UNL     1      -5.531  -2.055  -8.470  1.00  0.00     0.211 HD
ENDBRANCH   4  17
TORSDOF 7
ENDMDL
MODEL 8
REMARK VINA RESULT:    -4.282      1.592      3.402
REMARK INTER + INTRA:          -5.962
REMARK INTER:                  -5.595
REMARK INTRA:                  -0.366
REMARK UNBOUND:                -0.428
REMARK SMILES CCO[C@@H]1O[C@H](CO)[C@H](O)[C@@H](O)[C@H]1O
REMARK SMILES IDX 4 1 13 2 11 3 9 4 6 5 5 6 3 7 2 8 1 9 14 10 12 12 7 14 8 15
REMARK SMILES IDX 10 17
REMARK H PARENT 14 11 12 13 8 16 10 18
REMARK Flexibility Score: inf
ROOT
ATOM      1  C   UNL     1      -3.542  -2.193  -6.140  1.00  0.00     0.281 C 
ATOM      2  C   UNL     1      -2.688  -2.210  -7.419  1.00  0.00     0.202 C 
ATOM      3  C   UNL     1      -3.529  -1.778  -8.625  1.00  0.00     0.179 C 
ATOM      4  C   UNL     1      -4.156  -0.411  -8.337  1.00  0.00     0.177 C 
ATOM      5  C   UNL     1      -4.937  -0.432  -6.998  1.00  0.00     0.178 C 
ATOM      6  O   UNL     1      -4.169  -0.934  -5.905  1.00  0.00    -0.341 OA
ENDROOT
BRANCH   1   7
ATOM      7  O   UNL     1      -4.491  -3.245  -6.181  1.00  0.00    -0.350 OA
BRANCH   7   8
ATOM      8  C   UNL     1      -4.589  -3.903  -4.931  1.00  0.00     0.160 C 
ATOM      9  C   UNL     1      -4.231  -5.377  -5.078  1.00  0.00     0.035 C 
ENDBRANCH   7   8
ENDBRANCH   1   7
BRANCH   2  10
ATOM     10  O   UNL     1      -1.586  -1.351  -7.250  1.00  0.00    -0.385 OA
ATOM     11  H   UNL     1      -0.881  -1.871  -6.782  1.00  0.00     0.211 HD
ENDBRANCH   2  10
BRANCH   3  12
ATOM     12  O   UNL     1      -2.713  -1.710  -9.766  1.00  0.00    -0.387 OA
ATOM     13  H   UNL     1      -1.837  -1.345  -9.474  1.00  0.00     0.211 HD
ENDBRANCH   3  12
BRANCH   5  14
ATOM     14  C   UNL     1      -6.336  -1.085  -7.092  1.00  0.00     0.191 C 
BRANCH  14  15
ATOM     15  O   UNL     1      -7.209  -0.270  -7.826  1.00  0.00    -0.394 OA
ATOM     16  H   UNL     1      -7.106  -0.523  -8.779  1.00  0.00     0.210 HD
ENDBRANCH  14  15
ENDBRANCH   5  14
BRANCH   4  17
ATOM     17  O   UNL     1      -4.989  -0.039  -9.405  1.00  0.00    -0.387 OA
ATOM     18  H   UNL     1      -4.964  -0.783 -10.061  1.00  0.00     0.211 HD
ENDBRANCH   4  17
TORSDOF 7
ENDMDL
MODEL 9
REMARK VINA RESULT:    -4.275      3.050      4.506
REMARK INTER + INTRA:          -5.953
REMARK INTER:                  -5.620
REMARK INTRA:                  -0.333
REMARK UNBOUND:                -0.428
REMARK SMILES CCO[C@@H]1O[C@H](CO)[C@H](O)[C@@H](O)[C@H]1O
REMARK SMILES IDX 4 1 13 2 11 3 9 4 6 5 5 6 3 7 2 8 1 9 14 10 12 12 7 14 8 15
REMARK SMILES IDX 10 17
REMARK H PARENT 14 11 12 13 8 16 10 18
REMARK Flexibility Score: inf
ROOT
ATOM      1  C   UNL     1      -1.037  -0.414  -8.960  1.00  0.00     0.281 C 
ATOM      2  C   UNL     1      -1.224  -1.508  -7.897  1.00  0.00     0.202 C 
ATOM      3  C   UNL     1      -1.643  -2.826  -8.557  1.00  0.00     0.179 C 
ATOM      4  C   UNL     1      -0.616  -3.198  -9.630  1.00  0.00     0.177 C 
ATOM      5  C   UNL     1      -0.410  -2.030 -10.628  1.00  0.00     0.178 C 
ATOM      6  O   UNL     1      -0.121  -0.787  -9.988  1.00  0.00    -0.341 OA
ENDROOT
BRANCH   1   7
ATOM      7  O   UNL     1      -2.295  -0.043  -9.497  1.00  0.00    -0.350 OA
BRANCH   7   8
ATOM      8  C   UNL     1      -3.192   0.363  -8.480  1.00  0.00     0.160 C 
ATOM      9  C   UNL     1      -3.048   1.857  -8.210  1.00  0.00     0.035 C 
ENDBRANCH   7   8
ENDBRANCH   1   7
BRANCH   2  10
ATOM     10  O   UNL     1      -0.022  -1.671  -7.184  1.00  0.00    -0.385 OA
ATOM     11  H   UNL     1       0.054  -2.635  -6.958  1.00  0.00     0.211 HD
ENDBRANCH   2  10
BRANCH   3  12
ATOM     12  O   UNL     1      -1.720  -3.836  -7.584  1.00  0.00    -0.387 OA
ATOM     13  H   UNL     1      -1.530  -3.408  -6.708  1.00  0.00     0.211 HD
ENDBRANCH   3  12
BRANCH   5  14
ATOM     14  C   UNL     1      -1.521  -1.906 -11.695  1.00  0.00     0.191 C 
BRANCH  14  15
ATOM     15  O   UNL     1      -1.161  -2.598 -12.860  1.00  0.00    -0.394 OA
ATOM     16  H   UNL     1      -1.976  -3.062 -13.182  1.00  0.00     0.210 HD
ENDBRANCH  14  15
ENDBRANCH   5  14
BRANCH   4  17
ATOM     17  O   UNL     1      -1.028  -4.365 -10.294  1.00  0.00    -0.387 OA
ATOM     18  H   UNL     1      -1.902  -4.624  -9.902  1.00  0.00     0.211 HD
ENDBRANCH   4  17
TORSDOF 7
ENDMDL
