MODEL 1
REMARK VINA RESULT:    -2.760      0.000      0.000
REMARK INTER + INTRA:          -6.805
REMARK INTER:                  -4.776
REMARK INTRA:                  -2.029
REMARK UNBOUND:                -2.029
REMARK SMILES CCCCCCCCCCCCCCO
REMARK SMILES IDX 8 1 7 2 6 3 5 4 4 5 3 6 2 7 1 8 9 9 10 10 11 11 12 12 13 13
REMARK SMILES IDX 14 14 15 15
REMARK H PARENT 15 16
REMARK Flexibility Score: inf
ROOT
ATOM      1  C   UNL     1     110.414 107.896 104.617  1.00  0.00     0.000 C 
ENDROOT
BRANCH   1   2
ATOM      2  C   UNL     1     111.436 108.338 105.677  1.00  0.00    -0.000 C 
BRANCH   2   3
ATOM      3  C   UNL     1     112.569 109.189 105.084  1.00  0.00    -0.000 C 
BRANCH   3   4
ATOM      4  C   UNL     1     112.109 110.025 103.876  1.00  0.00    -0.000 C 
BRANCH   4   5
ATOM      5  C   UNL     1     111.320 111.277 104.288  1.00  0.00    -0.000 C 
BRANCH   5   6
ATOM      6  C   UNL     1     111.928 111.980 105.515  1.00  0.00    -0.000 C 
BRANCH   6   7
ATOM      7  C   UNL     1     110.896 112.216 106.629  1.00  0.00    -0.003 C 
ATOM      8  C   UNL     1     111.185 111.399 107.888  1.00  0.00     0.004 C 
ENDBRANCH   6   7
ENDBRANCH   5   6
ENDBRANCH   4   5
ENDBRANCH   3   4
ENDBRANCH   2   3
ENDBRANCH   1   2
BRANCH   1   9
ATOM      9  C   UNL     1     108.961 107.988 105.116  1.00  0.00     0.000 C 
BRANCH   9  10
ATOM     10  C   UNL     1     108.778 108.759 106.438  1.00  0.00     0.000 C 
BRANCH  10  11
ATOM     11  C   UNL     1     107.935 110.047 106.335  1.00  0.00     0.000 C 
BRANCH  11  12
ATOM     12  C   UNL     1     107.829 110.641 104.919  1.00  0.00     0.002 C 
BRANCH  12  13
ATOM     13  C   UNL     1     107.405 112.117 104.924  1.00  0.00     0.028 C 
BRANCH  13  14
ATOM     14  C   UNL     1     107.133 112.606 106.346  1.00  0.00     0.156 C 
BRANCH  14  15
ATOM     15  O   UNL     1     105.796 113.007 106.454  1.00  0.00    -0.396 OA
ATOM     16  H   UNL     1     105.663 113.271 107.401  1.00  0.00     0.210 HD
ENDBRANCH  14  15
ENDBRANCH  13  14
ENDBRANCH  12  13
ENDBRANCH  11  12
ENDBRANCH  10  11
ENDBRANCH   9  10
ENDBRANCH   1   9
TORSDOF 13
ENDMDL
MODEL 2
REMARK VINA RESULT:    -2.717      2.662      4.840
REMARK INTER + INTRA:          -6.730
REMARK INTER:                  -5.224
REMARK INTRA:                  -1.507
REMARK UNBOUND:                -2.029
REMARK SMILES CCCCCCCCCCCCCCO
REMARK SMILES IDX 8 1 7 2 6 3 5 4 4 5 3 6 2 7 1 8 9 9 10 10 11 11 12 12 13 13
REMARK SMILES IDX 14 14 15 15
REMARK H PARENT 15 16
REMARK Flexibility Score: inf
ROOT
ATOM      1  C   UNL     1     111.896 109.316 105.137  1.00  0.00     0.000 C 
ENDROOT
BRANCH   1   2
ATOM      2  C   UNL     1     111.387 108.019 104.486  1.00  0.00    -0.000 C 
BRANCH   2   3
ATOM      3  C   UNL     1     109.864 107.857 104.608  1.00  0.00    -0.000 C 
BRANCH   3   4
ATOM      4  C   UNL     1     109.314 108.428 105.928  1.00  0.00    -0.000 C 
BRANCH   4   5
ATOM      5  C   UNL     1     108.099 109.344 105.718  1.00  0.00    -0.000 C 
BRANCH   5   6
ATOM      6  C   UNL     1     107.763 109.545 104.230  1.00  0.00    -0.000 C 
BRANCH   6   7
ATOM      7  C   UNL     1     107.525 111.021 103.875  1.00  0.00    -0.003 C 
ATOM      8  C   UNL     1     107.054 111.850 105.070  1.00  0.00     0.004 C 
ENDBRANCH   6   7
ENDBRANCH   5   6
ENDBRANCH   4   5
ENDBRANCH   3   4
ENDBRANCH   2   3
ENDBRANCH   1   2
BRANCH   1   9
ATOM      9  C   UNL     1     112.392 110.345 104.106  1.00  0.00     0.000 C 
BRANCH   9  10
ATOM     10  C   UNL     1     111.692 111.717 104.170  1.00  0.00     0.000 C 
BRANCH  10  11
ATOM     11  C   UNL     1     110.801 111.941 105.408  1.00  0.00     0.000 C 
BRANCH  11  12
ATOM     12  C   UNL     1     111.526 112.521 106.635  1.00  0.00     0.002 C 
BRANCH  12  13
ATOM     13  C   UNL     1     112.809 113.280 106.264  1.00  0.00     0.028 C 
BRANCH  13  14
ATOM     14  C   UNL     1     113.598 113.669 107.513  1.00  0.00     0.156 C 
BRANCH  14  15
ATOM     15  O   UNL     1     114.923 113.949 107.160  1.00  0.00    -0.396 OA
ATOM     16  H   UNL     1     114.898 114.797 106.645  1.00  0.00     0.210 HD
ENDBRANCH  14  15
ENDBRANCH  13  14
ENDBRANCH  12  13
ENDBRANCH  11  12
ENDBRANCH  10  11
ENDBRANCH   9  10
ENDBRANCH   1   9
TORSDOF 13
ENDMDL
MODEL 3
REMARK VINA RESULT:    -2.691      2.342      3.702
REMARK INTER + INTRA:          -6.686
REMARK INTER:                  -5.008
REMARK INTRA:                  -1.678
REMARK UNBOUND:                -2.029
REMARK SMILES CCCCCCCCCCCCCCO
REMARK SMILES IDX 8 1 7 2 6 3 5 4 4 5 3 6 2 7 1 8 9 9 10 10 11 11 12 12 13 13
REMARK SMILES IDX 14 14 15 15
REMARK H PARENT 15 16
REMARK Flexibility Score: inf
ROOT
ATOM      1  C   UNL     1     111.292 108.780 106.121  1.00  0.00     0.000 C 
ENDROOT
BRANCH   1   2
ATOM      2  C   UNL     1     112.142 110.049 106.297  1.00  0.00    -0.000 C 
BRANCH   2   3
ATOM      3  C   UNL     1     111.934 111.060 105.159  1.00  0.00    -0.000 C 
BRANCH   3   4
ATOM      4  C   UNL     1     111.181 112.320 105.620  1.00  0.00    -0.000 C 
BRANCH   4   5
ATOM      5  C   UNL     1     111.079 112.424 107.149  1.00  0.00    -0.000 C 
BRANCH   5   6
ATOM      6  C   UNL     1     109.623 112.369 107.647  1.00  0.00    -0.000 C 
BRANCH   6   7
ATOM      7  C   UNL     1     108.667 111.771 106.604  1.00  0.00    -0.003 C 
ATOM      8  C   UNL     1     107.948 110.519 107.107  1.00  0.00     0.004 C 
ENDBRANCH   6   7
ENDBRANCH   5   6
ENDBRANCH   4   5
ENDBRANCH   3   4
ENDBRANCH   2   3
ENDBRANCH   1   2
BRANCH   1   9
ATOM      9  C   UNL     1     111.604 108.032 104.813  1.00  0.00     0.000 C 
BRANCH   9  10
ATOM     10  C   UNL     1     110.384 107.773 103.907  1.00  0.00     0.000 C 
BRANCH  10  11
ATOM     11  C   UNL     1     109.211 108.758 104.091  1.00  0.00     0.000 C 
BRANCH  11  12
ATOM     12  C   UNL     1     107.834 108.099 104.282  1.00  0.00     0.002 C 
BRANCH  12  13
ATOM     13  C   UNL     1     107.919 106.729 104.970  1.00  0.00     0.028 C 
BRANCH  13  14
ATOM     14  C   UNL     1     107.566 106.835 106.453  1.00  0.00     0.156 C 
BRANCH  14  15
ATOM     15  O   UNL     1     106.714 105.781 106.806  1.00  0.00    -0.396 OA
ATOM     16  H   UNL     1     105.795 106.153 106.791  1.00  0.00     0.210 HD
ENDBRANCH  14  15
ENDBRANCH  13  14
ENDBRANCH  12  13
ENDBRANCH  11  12
ENDBRANCH  10  11
ENDBRANCH   9  10
ENDBRANCH   1   9
TORSDOF 13
ENDMDL
MODEL 4
REMARK VINA RESULT:    -2.683      3.088      5.939
REMARK INTER + INTRA:          -6.671
REMARK INTER:                  -5.222
REMARK INTRA:                  -1.450
REMARK UNBOUND:                -2.029
REMARK SMILES CCCCCCCCCCCCCCO
REMARK SMILES IDX 8 1 7 2 6 3 5 4 4 5 3 6 2 7 1 8 9 9 10 10 11 11 12 12 13 13
REMARK SMILES IDX 14 14 15 15
REMARK H PARENT 15 16
REMARK Flexibility Score: inf
ROOT
ATOM      1  C   UNL     1     110.575 112.165 105.897  1.00  0.00     0.000 C 
ENDROOT
BRANCH   1   2
ATOM      2  C   UNL     1     109.547 112.477 104.796  1.00  0.00    -0.000 C 
BRANCH   2   3
ATOM      3  C   UNL     1     108.245 111.679 104.963  1.00  0.00    -0.000 C 
BRANCH   3   4
ATOM      4  C   UNL     1     108.258 110.357 104.174  1.00  0.00    -0.000 C 
BRANCH   4   5
ATOM      5  C   UNL     1     108.708 109.161 105.028  1.00  0.00    -0.000 C 
BRANCH   5   6
ATOM      6  C   UNL     1     109.066 107.931 104.176  1.00  0.00    -0.000 C 
BRANCH   6   7
ATOM      7  C   UNL     1     108.252 106.687 104.568  1.00  0.00    -0.003 C 
ATOM      8  C   UNL     1     107.653 106.789 105.971  1.00  0.00     0.004 C 
ENDBRANCH   6   7
ENDBRANCH   5   6
ENDBRANCH   4   5
ENDBRANCH   3   4
ENDBRANCH   2   3
ENDBRANCH   1   2
BRANCH   1   9
ATOM      9  C   UNL     1     111.982 111.895 105.337  1.00  0.00     0.000 C 
BRANCH   9  10
ATOM     10  C   UNL     1     112.016 111.058 104.043  1.00  0.00     0.000 C 
BRANCH  10  11
ATOM     11  C   UNL     1     112.551 109.621 104.206  1.00  0.00     0.000 C 
BRANCH  11  12
ATOM     12  C   UNL     1     112.369 109.015 105.609  1.00  0.00     0.002 C 
BRANCH  12  13
ATOM     13  C   UNL     1     112.606 107.498 105.639  1.00  0.00     0.028 C 
BRANCH  13  14
ATOM     14  C   UNL     1     113.259 107.069 106.952  1.00  0.00     0.156 C 
BRANCH  14  15
ATOM     15  O   UNL     1     114.589 106.703 106.715  1.00  0.00    -0.396 OA
ATOM     16  H   UNL     1     114.928 107.330 106.025  1.00  0.00     0.210 HD
ENDBRANCH  14  15
ENDBRANCH  13  14
ENDBRANCH  12  13
ENDBRANCH  11  12
ENDBRANCH  10  11
ENDBRANCH   9  10
ENDBRANCH   1   9
TORSDOF 13
ENDMDL
MODEL 5
REMARK VINA RESULT:    -2.674      2.134      3.944
REMARK INTER + INTRA:          -6.656
REMARK INTER:                  -4.638
REMARK INTRA:                  -2.018
REMARK UNBOUND:                -2.029
REMARK SMILES CCCCCCCCCCCCCCO
REMARK SMILES IDX 8 1 7 2 6 3 5 4 4 5 3 6 2 7 1 8 9 9 10 10 11 11 12 12 13 13
REMARK SMILES IDX 14 14 15 15
REMARK H PARENT 15 16
REMARK Flexibility Score: inf
ROOT
ATOM      1  C   UNL     1     110.079 111.947 107.235  1.00  0.00     0.000 C 
ENDROOT
BRANCH   1   2
ATOM      2  C   UNL     1     111.168 112.282 106.202  1.00  0.00    -0.000 C 
BRANCH   2   3
ATOM      3  C   UNL     1     110.614 112.368 104.771  1.00  0.00    -0.000 C 
BRANCH   3   4
ATOM      4  C   UNL     1     110.974 111.134 103.925  1.00  0.00    -0.000 C 
BRANCH   4   5
ATOM      5  C   UNL     1     112.133 110.322 104.522  1.00  0.00    -0.000 C 
BRANCH   5   6
ATOM      6  C   UNL     1     112.009 108.816 104.232  1.00  0.00    -0.000 C 
BRANCH   6   7
ATOM      7  C   UNL     1     112.229 107.955 105.485  1.00  0.00    -0.003 C 
ATOM      8  C   UNL     1     112.147 108.761 106.781  1.00  0.00     0.004 C 
ENDBRANCH   6   7
ENDBRANCH   5   6
ENDBRANCH   4   5
ENDBRANCH   3   4
ENDBRANCH   2   3
ENDBRANCH   1   2
BRANCH   1   9
ATOM      9  C   UNL     1     108.660 112.249 106.723  1.00  0.00     0.000 C 
BRANCH   9  10
ATOM     10  C   UNL     1     107.745 111.015 106.583  1.00  0.00     0.000 C 
BRANCH  10  11
ATOM     11  C   UNL     1     108.475 109.657 106.572  1.00  0.00     0.000 C 
BRANCH  11  12
ATOM     12  C   UNL     1     108.365 108.871 105.253  1.00  0.00     0.002 C 
BRANCH  12  13
ATOM     13  C   UNL     1     108.365 107.350 105.464  1.00  0.00     0.028 C 
BRANCH  13  14
ATOM     14  C   UNL     1     107.671 106.977 106.774  1.00  0.00     0.156 C 
BRANCH  14  15
ATOM     15  O   UNL     1     106.534 106.209 106.497  1.00  0.00    -0.396 OA
ATOM     16  H   UNL     1     106.835 105.478 105.898  1.00  0.00     0.210 HD
ENDBRANCH  14  15
ENDBRANCH  13  14
ENDBRANCH  12  13
ENDBRANCH  11  12
ENDBRANCH  10  11
ENDBRANCH   9  10
ENDBRANCH   1   9
TORSDOF 13
ENDMDL
MODEL 6
REMARK VINA RESULT:    -2.664      2.603      5.190
REMARK INTER + INTRA:          -6.639
REMARK INTER:                  -5.015
REMARK INTRA:                  -1.624
REMARK UNBOUND:                -2.029
REMARK SMILES CCCCCCCCCCCCCCO
REMARK SMILES IDX 8 1 7 2 6 3 5 4 4 5 3 6 2 7 1 8 9 9 10 10 11 11 12 12 13 13
REMARK SMILES IDX 14 14 15 15
REMARK H PARENT 15 16
REMARK Flexibility Score: inf
ROOT
ATOM      1  C   UNL     1     107.576 112.251 105.711  1.00  0.00     0.000 C 
ENDROOT
BRANCH   1   2
ATOM      2  C   UNL     1     108.317 111.654 106.919  1.00  0.00    -0.000 C 
BRANCH   2   3
ATOM      3  C   UNL     1     107.774 110.274 107.319  1.00  0.00    -0.000 C 
BRANCH   3   4
ATOM      4  C   UNL     1     108.875 109.338 107.850  1.00  0.00    -0.000 C 
BRANCH   4   5
ATOM      5  C   UNL     1     109.731 108.733 106.726  1.00  0.00    -0.000 C 
BRANCH   5   6
ATOM      6  C   UNL     1     108.935 107.764 105.835  1.00  0.00    -0.000 C 
BRANCH   6   7
ATOM      7  C   UNL     1     108.813 108.262 104.387  1.00  0.00    -0.003 C 
ATOM      8  C   UNL     1     107.365 108.318 103.899  1.00  0.00     0.004 C 
ENDBRANCH   6   7
ENDBRANCH   5   6
ENDBRANCH   4   5
ENDBRANCH   3   4
ENDBRANCH   2   3
ENDBRANCH   1   2
BRANCH   1   9
ATOM      9  C   UNL     1     108.293 111.977 104.378  1.00  0.00     0.000 C 
BRANCH   9  10
ATOM     10  C   UNL     1     109.808 111.716 104.498  1.00  0.00     0.000 C 
BRANCH  10  11
ATOM     11  C   UNL     1     110.712 112.829 103.931  1.00  0.00     0.000 C 
BRANCH  11  12
ATOM     12  C   UNL     1     111.957 113.149 104.777  1.00  0.00     0.002 C 
BRANCH  12  13
ATOM     13  C   UNL     1     111.811 112.710 106.241  1.00  0.00     0.028 C 
BRANCH  13  14
ATOM     14  C   UNL     1     112.989 113.200 107.082  1.00  0.00     0.156 C 
BRANCH  14  15
ATOM     15  O   UNL     1     113.345 114.493 106.679  1.00  0.00    -0.396 OA
ATOM     16  H   UNL     1     112.973 114.609 105.766  1.00  0.00     0.210 HD
ENDBRANCH  14  15
ENDBRANCH  13  14
ENDBRANCH  12  13
ENDBRANCH  11  12
ENDBRANCH  10  11
ENDBRANCH   9  10
ENDBRANCH   1   9
TORSDOF 13
ENDMDL
MODEL 7
REMARK VINA RESULT:    -2.637      2.224      3.942
REMARK INTER + INTRA:          -6.592
REMARK INTER:                  -4.981
REMARK INTRA:                  -1.612
REMARK UNBOUND:                -2.029
REMARK SMILES CCCCCCCCCCCCCCO
REMARK SMILES IDX 8 1 7 2 6 3 5 4 4 5 3 6 2 7 1 8 9 9 10 10 11 11 12 12 13 13
REMARK SMILES IDX 14 14 15 15
REMARK H PARENT 15 16
REMARK Flexibility Score: inf
ROOT
ATOM      1  C   UNL     1     108.098 109.364 105.043  1.00  0.00     0.000 C 
ENDROOT
BRANCH   1   2
ATOM      2  C   UNL     1     108.346 108.284 103.977  1.00  0.00    -0.000 C 
BRANCH   2   3
ATOM      3  C   UNL     1     109.716 107.607 104.134  1.00  0.00    -0.000 C 
BRANCH   3   4
ATOM      4  C   UNL     1     110.885 108.578 103.892  1.00  0.00    -0.000 C 
BRANCH   4   5
ATOM      5  C   UNL     1     112.018 108.410 104.917  1.00  0.00    -0.000 C 
BRANCH   5   6
ATOM      6  C   UNL     1     111.543 108.636 106.363  1.00  0.00    -0.000 C 
BRANCH   6   7
ATOM      7  C   UNL     1     112.190 107.657 107.355  1.00  0.00    -0.003 C 
ATOM      8  C   UNL     1     113.475 107.028 106.815  1.00  0.00     0.004 C 
ENDBRANCH   6   7
ENDBRANCH   5   6
ENDBRANCH   4   5
ENDBRANCH   3   4
ENDBRANCH   2   3
ENDBRANCH   1   2
BRANCH   1   9
ATOM      9  C   UNL     1     107.746 110.732 104.434  1.00  0.00     0.000 C 
BRANCH   9  10
ATOM     10  C   UNL     1     108.365 111.944 105.159  1.00  0.00     0.000 C 
BRANCH  10  11
ATOM     11  C   UNL     1     109.325 111.595 106.314  1.00  0.00     0.000 C 
BRANCH  11  12
ATOM     12  C   UNL     1     110.724 112.228 106.209  1.00  0.00     0.002 C 
BRANCH  12  13
ATOM     13  C   UNL     1     111.331 112.103 104.804  1.00  0.00     0.028 C 
BRANCH  13  14
ATOM     14  C   UNL     1     111.847 113.452 104.306  1.00  0.00     0.156 C 
BRANCH  14  15
ATOM     15  O   UNL     1     112.492 114.121 105.354  1.00  0.00    -0.396 OA
ATOM     16  H   UNL     1     113.271 114.583 104.948  1.00  0.00     0.210 HD
ENDBRANCH  14  15
ENDBRANCH  13  14
ENDBRANCH  12  13
ENDBRANCH  11  12
ENDBRANCH  10  11
ENDBRANCH   9  10
ENDBRANCH   1   9
TORSDOF 13
ENDMDL
MODEL 8
REMARK VINA RESULT:    -2.635      1.971      3.708
REMARK INTER + INTRA:          -6.589
REMARK INTER:                  -4.760
REMARK INTRA:                  -1.829
REMARK UNBOUND:                -2.029
REMARK SMILES CCCCCCCCCCCCCCO
REMARK SMILES IDX 8 1 7 2 6 3 5 4 4 5 3 6 2 7 1 8 9 9 10 10 11 11 12 12 13 13
REMARK SMILES IDX 14 14 15 15
REMARK H PARENT 15 16
REMARK Flexibility Score: inf
ROOT
ATOM      1  C   UNL     1     107.753 108.412 104.231  1.00  0.00     0.000 C 
ENDROOT
BRANCH   1   2
ATOM      2  C   UNL     1     108.052 107.010 104.787  1.00  0.00    -0.000 C 
BRANCH   2   3
ATOM      3  C   UNL     1     107.463 106.796 106.190  1.00  0.00    -0.000 C 
BRANCH   3   4
ATOM      4  C   UNL     1     107.791 107.953 107.150  1.00  0.00    -0.000 C 
BRANCH   4   5
ATOM      5  C   UNL     1     108.557 107.490 108.399  1.00  0.00    -0.000 C 
BRANCH   5   6
ATOM      6  C   UNL     1     110.066 107.776 108.304  1.00  0.00    -0.000 C 
BRANCH   6   7
ATOM      7  C   UNL     1     110.383 108.960 107.377  1.00  0.00    -0.003 C 
ATOM      8  C   UNL     1     111.496 108.649 106.376  1.00  0.00     0.004 C 
ENDBRANCH   6   7
ENDBRANCH   5   6
ENDBRANCH   4   5
ENDBRANCH   3   4
ENDBRANCH   2   3
ENDBRANCH   1   2
BRANCH   1   9
ATOM      9  C   UNL     1     109.028 109.196 103.875  1.00  0.00     0.000 C 
BRANCH   9  10
ATOM     10  C   UNL     1     109.013 110.681 104.290  1.00  0.00     0.000 C 
BRANCH  10  11
ATOM     11  C   UNL     1     107.788 111.118 105.117  1.00  0.00     0.000 C 
BRANCH  11  12
ATOM     12  C   UNL     1     108.096 112.085 106.274  1.00  0.00     0.002 C 
BRANCH  12  13
ATOM     13  C   UNL     1     107.335 111.735 107.561  1.00  0.00     0.028 C 
BRANCH  13  14
ATOM     14  C   UNL     1     106.469 112.907 108.023  1.00  0.00     0.156 C 
BRANCH  14  15
ATOM     15  O   UNL     1     105.679 113.352 106.957  1.00  0.00    -0.396 OA
ATOM     16  H   UNL     1     106.135 114.154 106.593  1.00  0.00     0.210 HD
ENDBRANCH  14  15
ENDBRANCH  13  14
ENDBRANCH  12  13
ENDBRANCH  11  12
ENDBRANCH  10  11
ENDBRANCH   9  10
ENDBRANCH   1   9
TORSDOF 13
ENDMDL
MODEL 9
REMARK VINA RESULT:    -2.584      2.604      4.668
REMARK INTER + INTRA:          -6.501
REMARK INTER:                  -4.854
REMARK INTRA:                  -1.647
REMARK UNBOUND:                -2.029
REMARK SMILES CCCCCCCCCCCCCCO
REMARK SMILES IDX 8 1 7 2 6 3 5 4 4 5 3 6 2 7 1 8 9 9 10 10 11 11 12 12 13 13
REMARK SMILES IDX 14 14 15 15
REMARK H PARENT 15 16
REMARK Flexibility Score: inf
ROOT
ATOM      1  C   UNL     1     108.915 110.852 104.244  1.00  0.00     0.000 C 
ENDROOT
BRANCH   1   2
ATOM      2  C   UNL     1     108.974 109.975 105.507  1.00  0.00    -0.000 C 
BRANCH   2   3
ATOM      3  C   UNL     1     109.896 108.759 105.335  1.00  0.00    -0.000 C 
BRANCH   3   4
ATOM      4  C   UNL     1     110.792 108.869 104.089  1.00  0.00    -0.000 C 
BRANCH   4   5
ATOM      5  C   UNL     1     112.280 108.651 104.406  1.00  0.00    -0.000 C 
BRANCH   5   6
ATOM      6  C   UNL     1     112.588 108.792 105.908  1.00  0.00    -0.000 C 
BRANCH   6   7
ATOM      7  C   UNL     1     113.289 107.551 106.482  1.00  0.00    -0.003 C 
ATOM      8  C   UNL     1     112.678 107.084 107.804  1.00  0.00     0.004 C 
ENDBRANCH   6   7
ENDBRANCH   5   6
ENDBRANCH   4   5
ENDBRANCH   3   4
ENDBRANCH   2   3
ENDBRANCH   1   2
BRANCH   1   9
ATOM      9  C   UNL     1     109.377 112.297 104.501  1.00  0.00     0.000 C 
BRANCH   9  10
ATOM     10  C   UNL     1     110.792 112.626 103.985  1.00  0.00     0.000 C 
BRANCH  10  11
ATOM     11  C   UNL     1     111.917 112.499 105.032  1.00  0.00     0.000 C 
BRANCH  11  12
ATOM     12  C   UNL     1     111.461 112.634 106.496  1.00  0.00     0.002 C 
BRANCH  12  13
ATOM     13  C   UNL     1     112.617 112.488 107.496  1.00  0.00     0.028 C 
BRANCH  13  14
ATOM     14  C   UNL     1     113.790 113.392 107.116  1.00  0.00     0.156 C 
BRANCH  14  15
ATOM     15  O   UNL     1     113.464 114.723 107.400  1.00  0.00    -0.396 OA
ATOM     16  H   UNL     1     112.493 114.813 107.221  1.00  0.00     0.210 HD
ENDBRANCH  14  15
ENDBRANCH  13  14
ENDBRANCH  12  13
ENDBRANCH  11  12
ENDBRANCH  10  11
ENDBRANCH   9  10
ENDBRANCH   1   9
TORSDOF 13
ENDMDL
