MODEL 1
REMARK VINA RESULT:    -4.589      0.000      0.000
REMARK INTER + INTRA:          -7.173
REMARK INTER:                  -5.662
REMARK INTRA:                  -1.510
REMARK UNBOUND:                -1.510
REMARK SMILES CC(C)=CCC[C@@H](C)c1ccc(C)cc1
REMARK SMILES IDX 6 1 7 2 8 3 9 4 13 5 12 6 11 7 14 8 10 9 15 10 5 11 4 12
REMARK SMILES IDX 2 13 1 14 3 15
REMARK H PARENT
REMARK Flexibility Score: inf
ROOT
ATOM      1  C   UNL     1      89.767  63.996  87.144  1.00  0.00     0.012 C 
ENDROOT
BRANCH   1   2
ATOM      2  C   UNL     1      89.486  65.241  88.019  1.00  0.00     0.016 C 
ATOM      3  C   UNL     1      88.357  66.084  87.412  1.00  0.00     0.013 C 
BRANCH   2   4
ATOM      4  C   UNL     1      89.162  64.870  89.456  1.00  0.00    -0.045 A 
ATOM      5  C   UNL     1      88.259  63.735  93.524  1.00  0.00     0.044 C 
ATOM      6  C   UNL     1      88.583  64.158  92.122  1.00  0.00    -0.051 A 
ATOM      7  C   UNL     1      87.604  64.768  91.324  1.00  0.00     0.004 A 
ATOM      8  C   UNL     1      89.844  63.883  91.574  1.00  0.00     0.004 A 
ATOM      9  C   UNL     1      87.892  65.127  90.005  1.00  0.00     0.004 A 
ATOM     10  C   UNL     1      90.133  64.241  90.254  1.00  0.00     0.004 A 
ENDBRANCH   2   4
ENDBRANCH   1   2
BRANCH   1  11
ATOM     11  C   UNL     1      88.659  62.929  87.216  1.00  0.00     0.028 C 
BRANCH  11  12
ATOM     12  C   UNL     1      89.164  61.617  87.764  1.00  0.00    -0.028 C 
ATOM     13  C   UNL     1      88.608  60.952  88.802  1.00  0.00    -0.080 C 
ATOM     14  C   UNL     1      87.430  61.505  89.568  1.00  0.00     0.039 C 
ATOM     15  C   UNL     1      89.206  59.631  89.209  1.00  0.00     0.039 C 
ENDBRANCH  11  12
ENDBRANCH   1  11
TORSDOF 4
ENDMDL
MODEL 2
REMARK VINA RESULT:    -4.568     18.233     20.791
REMARK INTER + INTRA:          -7.147
REMARK INTER:                  -6.674
REMARK INTRA:                  -0.473
REMARK UNBOUND:                -1.510
REMARK SMILES CC(C)=CCC[C@@H](C)c1ccc(C)cc1
REMARK SMILES IDX 6 1 7 2 8 3 9 4 13 5 12 6 11 7 14 8 10 9 15 10 5 11 4 12
REMARK SMILES IDX 2 13 1 14 3 15
REMARK H PARENT
REMARK Flexibility Score: inf
ROOT
ATOM      1  C   UNL     1      93.089  48.122 102.074  1.00  0.00     0.012 C 
ENDROOT
BRANCH   1   2
ATOM      2  C   UNL     1      93.174  48.357 103.601  1.00  0.00     0.016 C 
ATOM      3  C   UNL     1      93.940  49.650 103.907  1.00  0.00     0.013 C 
BRANCH   2   4
ATOM      4  C   UNL     1      91.803  48.381 104.254  1.00  0.00    -0.045 A 
ATOM      5  C   UNL     1      87.877  48.396 106.055  1.00  0.00     0.044 C 
ATOM      6  C   UNL     1      89.253  48.396 105.458  1.00  0.00    -0.051 A 
ATOM      7  C   UNL     1      89.812  49.587 104.970  1.00  0.00     0.004 A 
ATOM      8  C   UNL     1      89.964  47.196 105.320  1.00  0.00     0.004 A 
ATOM      9  C   UNL     1      91.078  49.582 104.379  1.00  0.00     0.004 A 
ATOM     10  C   UNL     1      91.230  47.189 104.728  1.00  0.00     0.004 A 
ENDBRANCH   2   4
ENDBRANCH   1   2
BRANCH   1  11
ATOM     11  C   UNL     1      94.374  48.506 101.318  1.00  0.00     0.028 C 
BRANCH  11  12
ATOM     12  C   UNL     1      94.780  47.456 100.312  1.00  0.00    -0.028 C 
ATOM     13  C   UNL     1      94.690  47.601  98.970  1.00  0.00    -0.080 C 
ATOM     14  C   UNL     1      94.105  48.841  98.336  1.00  0.00     0.039 C 
ATOM     15  C   UNL     1      95.173  46.475  98.094  1.00  0.00     0.039 C 
ENDBRANCH  11  12
ENDBRANCH   1  11
TORSDOF 4
ENDMDL
MODEL 3
REMARK VINA RESULT:    -4.556      3.435      6.498
REMARK INTER + INTRA:          -7.132
REMARK INTER:                  -5.585
REMARK INTRA:                  -1.547
REMARK UNBOUND:                -1.510
REMARK SMILES CC(C)=CCC[C@@H](C)c1ccc(C)cc1
REMARK SMILES IDX 6 1 7 2 8 3 9 4 13 5 12 6 11 7 14 8 10 9 15 10 5 11 4 12
REMARK SMILES IDX 2 13 1 14 3 15
REMARK H PARENT
REMARK Flexibility Score: inf
ROOT
ATOM      1  C   UNL     1      85.244  59.683  88.413  1.00  0.00     0.012 C 
ENDROOT
BRANCH   1   2
ATOM      2  C   UNL     1      85.449  58.151  88.348  1.00  0.00     0.016 C 
ATOM      3  C   UNL     1      86.187  57.758  87.061  1.00  0.00     0.013 C 
BRANCH   2   4
ATOM      4  C   UNL     1      86.184  57.619  89.567  1.00  0.00    -0.045 A 
ATOM      5  C   UNL     1      88.251  56.027  93.010  1.00  0.00     0.044 C 
ATOM      6  C   UNL     1      87.554  56.604  91.813  1.00  0.00    -0.051 A 
ATOM      7  C   UNL     1      86.507  57.522  91.979  1.00  0.00     0.004 A 
ATOM      8  C   UNL     1      87.896  56.176  90.522  1.00  0.00     0.004 A 
ATOM      9  C   UNL     1      85.832  58.031  90.866  1.00  0.00     0.004 A 
ATOM     10  C   UNL     1      87.221  56.684  89.408  1.00  0.00     0.004 A 
ENDBRANCH   2   4
ENDBRANCH   1   2
BRANCH   1  11
ATOM     11  C   UNL     1      86.510  60.490  88.072  1.00  0.00     0.028 C 
BRANCH  11  12
ATOM     12  C   UNL     1      87.139  61.112  89.295  1.00  0.00    -0.028 C 
ATOM     13  C   UNL     1      88.363  60.795  89.775  1.00  0.00    -0.080 C 
ATOM     14  C   UNL     1      89.216  59.719  89.148  1.00  0.00     0.039 C 
ATOM     15  C   UNL     1      88.869  61.533  90.988  1.00  0.00     0.039 C 
ENDBRANCH  11  12
ENDBRANCH   1  11
TORSDOF 4
ENDMDL
MODEL 4
REMARK VINA RESULT:    -4.420      1.363      4.179
REMARK INTER + INTRA:          -6.964
REMARK INTER:                  -5.469
REMARK INTRA:                  -1.495
REMARK UNBOUND:                -1.510
REMARK SMILES CC(C)=CCC[C@@H](C)c1ccc(C)cc1
REMARK SMILES IDX 6 1 7 2 8 3 9 4 13 5 12 6 11 7 14 8 10 9 15 10 5 11 4 12
REMARK SMILES IDX 2 13 1 14 3 15
REMARK H PARENT
REMARK Flexibility Score: inf
ROOT
ATOM      1  C   UNL     1      88.037  61.894  93.813  1.00  0.00     0.012 C 
ENDROOT
BRANCH   1   2
ATOM      2  C   UNL     1      87.666  63.378  93.584  1.00  0.00     0.016 C 
ATOM      3  C   UNL     1      88.175  64.247  94.743  1.00  0.00     0.013 C 
BRANCH   2   4
ATOM      4  C   UNL     1      88.188  63.901  92.257  1.00  0.00    -0.045 A 
ATOM      5  C   UNL     1      89.729  65.435  88.525  1.00  0.00     0.044 C 
ATOM      6  C   UNL     1      89.186  64.875  89.807  1.00  0.00    -0.051 A 
ATOM      7  C   UNL     1      87.846  65.093  90.161  1.00  0.00     0.004 A 
ATOM      8  C   UNL     1      90.030  64.190  90.692  1.00  0.00     0.004 A 
ATOM      9  C   UNL     1      87.349  64.606  91.373  1.00  0.00     0.004 A 
ATOM     10  C   UNL     1      89.534  63.702  91.905  1.00  0.00     0.004 A 
ENDBRANCH   2   4
ENDBRANCH   1   2
BRANCH   1  11
ATOM     11  C   UNL     1      87.308  60.923  92.865  1.00  0.00     0.028 C 
BRANCH  11  12
ATOM     12  C   UNL     1      88.241  60.304  91.853  1.00  0.00    -0.028 C 
ATOM     13  C   UNL     1      88.164  60.499  90.517  1.00  0.00    -0.080 C 
ATOM     14  C   UNL     1      87.073  61.334  89.890  1.00  0.00     0.039 C 
ATOM     15  C   UNL     1      89.195  59.841  89.637  1.00  0.00     0.039 C 
ENDBRANCH  11  12
ENDBRANCH   1  11
TORSDOF 4
ENDMDL
MODEL 5
REMARK VINA RESULT:    -4.408     11.769     13.810
REMARK INTER + INTRA:          -6.950
REMARK INTER:                  -6.268
REMARK INTRA:                  -0.681
REMARK UNBOUND:                -1.510
REMARK SMILES CC(C)=CCC[C@@H](C)c1ccc(C)cc1
REMARK SMILES IDX 6 1 7 2 8 3 9 4 13 5 12 6 11 7 14 8 10 9 15 10 5 11 4 12
REMARK SMILES IDX 2 13 1 14 3 15
REMARK H PARENT
REMARK Flexibility Score: inf
ROOT
ATOM      1  C   UNL     1      86.589  61.738 102.436  1.00  0.00     0.012 C 
ENDROOT
BRANCH   1   2
ATOM      2  C   UNL     1      87.328  61.689 103.794  1.00  0.00     0.016 C 
ATOM      3  C   UNL     1      87.556  60.236 104.234  1.00  0.00     0.013 C 
BRANCH   2   4
ATOM      4  C   UNL     1      88.643  62.447 103.758  1.00  0.00    -0.045 A 
ATOM      5  C   UNL     1      92.382  64.603 103.571  1.00  0.00     0.044 C 
ATOM      6  C   UNL     1      91.076  63.869 103.663  1.00  0.00    -0.051 A 
ATOM      7  C   UNL     1      91.007  62.631 104.318  1.00  0.00     0.004 A 
ATOM      8  C   UNL     1      89.932  64.382 103.036  1.00  0.00     0.004 A 
ATOM      9  C   UNL     1      89.800  61.928 104.371  1.00  0.00     0.004 A 
ATOM     10  C   UNL     1      88.724  63.680 103.088  1.00  0.00     0.004 A 
ENDBRANCH   2   4
ENDBRANCH   1   2
BRANCH   1  11
ATOM     11  C   UNL     1      85.766  60.471 102.136  1.00  0.00     0.028 C 
BRANCH  11  12
ATOM     12  C   UNL     1      86.201  59.797 100.857  1.00  0.00    -0.028 C 
ATOM     13  C   UNL     1      86.519  58.488 100.748  1.00  0.00    -0.080 C 
ATOM     14  C   UNL     1      86.524  57.563 101.942  1.00  0.00     0.039 C 
ATOM     15  C   UNL     1      86.899  57.952  99.392  1.00  0.00     0.039 C 
ENDBRANCH  11  12
ENDBRANCH   1  11
TORSDOF 4
ENDMDL
MODEL 6
REMARK VINA RESULT:    -4.334      1.301      4.856
REMARK INTER + INTRA:          -6.857
REMARK INTER:                  -5.338
REMARK INTRA:                  -1.519
REMARK UNBOUND:                -1.510
REMARK SMILES CC(C)=CCC[C@@H](C)c1ccc(C)cc1
REMARK SMILES IDX 6 1 7 2 8 3 9 4 13 5 12 6 11 7 14 8 10 9 15 10 5 11 4 12
REMARK SMILES IDX 2 13 1 14 3 15
REMARK H PARENT
REMARK Flexibility Score: inf
ROOT
ATOM      1  C   UNL     1      89.336  63.874  91.898  1.00  0.00     0.012 C 
ENDROOT
BRANCH   1   2
ATOM      2  C   UNL     1      89.066  62.357  92.041  1.00  0.00     0.016 C 
ATOM      3  C   UNL     1      88.225  62.074  93.293  1.00  0.00     0.013 C 
BRANCH   2   4
ATOM      4  C   UNL     1      88.398  61.776  90.807  1.00  0.00    -0.045 A 
ATOM      5  C   UNL     1      86.571  60.134  87.254  1.00  0.00     0.044 C 
ATOM      6  C   UNL     1      87.188  60.685  88.506  1.00  0.00    -0.051 A 
ATOM      7  C   UNL     1      86.627  61.806  89.135  1.00  0.00     0.004 A 
ATOM      8  C   UNL     1      88.368  60.127  89.017  1.00  0.00     0.004 A 
ATOM      9  C   UNL     1      87.223  62.344  90.279  1.00  0.00     0.004 A 
ATOM     10  C   UNL     1      88.965  60.664  90.161  1.00  0.00     0.004 A 
ENDBRANCH   2   4
ENDBRANCH   1   2
BRANCH   1  11
ATOM     11  C   UNL     1      90.322  64.221  90.767  1.00  0.00     0.028 C 
BRANCH  11  12
ATOM     12  C   UNL     1      89.693  65.093  89.708  1.00  0.00    -0.028 C 
ATOM     13  C   UNL     1      89.525  64.733  88.416  1.00  0.00    -0.080 C 
ATOM     14  C   UNL     1      90.016  63.408  87.883  1.00  0.00     0.039 C 
ATOM     15  C   UNL     1      88.843  65.701  87.485  1.00  0.00     0.039 C 
ENDBRANCH  11  12
ENDBRANCH   1  11
TORSDOF 4
ENDMDL
MODEL 7
REMARK VINA RESULT:    -4.331      2.565      4.187
REMARK INTER + INTRA:          -6.855
REMARK INTER:                  -5.806
REMARK INTRA:                  -1.049
REMARK UNBOUND:                -1.510
REMARK SMILES CC(C)=CCC[C@@H](C)c1ccc(C)cc1
REMARK SMILES IDX 6 1 7 2 8 3 9 4 13 5 12 6 11 7 14 8 10 9 15 10 5 11 4 12
REMARK SMILES IDX 2 13 1 14 3 15
REMARK H PARENT
REMARK Flexibility Score: inf
ROOT
ATOM      1  C   UNL     1      89.333  59.324  89.177  1.00  0.00     0.012 C 
ENDROOT
BRANCH   1   2
ATOM      2  C   UNL     1      88.721  60.744  89.237  1.00  0.00     0.016 C 
ATOM      3  C   UNL     1      87.274  60.731  88.727  1.00  0.00     0.013 C 
BRANCH   2   4
ATOM      4  C   UNL     1      88.789  61.339  90.633  1.00  0.00    -0.045 A 
ATOM      5  C   UNL     1      88.898  63.018  94.611  1.00  0.00     0.044 C 
ATOM      6  C   UNL     1      88.890  62.424  93.234  1.00  0.00    -0.051 A 
ATOM      7  C   UNL     1      89.309  63.185  92.133  1.00  0.00     0.004 A 
ATOM      8  C   UNL     1      88.397  61.128  93.026  1.00  0.00     0.004 A 
ATOM      9  C   UNL     1      89.265  62.646  90.845  1.00  0.00     0.004 A 
ATOM     10  C   UNL     1      88.353  60.587  91.738  1.00  0.00     0.004 A 
ENDBRANCH   2   4
ENDBRANCH   1   2
BRANCH   1  11
ATOM     11  C   UNL     1      88.282  58.204  89.073  1.00  0.00     0.028 C 
BRANCH  11  12
ATOM     12  C   UNL     1      88.397  57.206  90.201  1.00  0.00    -0.028 C 
ATOM     13  C   UNL     1      87.445  56.989  91.135  1.00  0.00    -0.080 C 
ATOM     14  C   UNL     1      86.163  57.787  91.173  1.00  0.00     0.039 C 
ATOM     15  C   UNL     1      87.691  55.929  92.177  1.00  0.00     0.039 C 
ENDBRANCH  11  12
ENDBRANCH   1  11
TORSDOF 4
ENDMDL
MODEL 8
REMARK VINA RESULT:    -4.238      1.752      2.825
REMARK INTER + INTRA:          -6.740
REMARK INTER:                  -5.200
REMARK INTRA:                  -1.540
REMARK UNBOUND:                -1.510
REMARK SMILES CC(C)=CCC[C@@H](C)c1ccc(C)cc1
REMARK SMILES IDX 6 1 7 2 8 3 9 4 13 5 12 6 11 7 14 8 10 9 15 10 5 11 4 12
REMARK SMILES IDX 2 13 1 14 3 15
REMARK H PARENT
REMARK Flexibility Score: inf
ROOT
ATOM      1  C   UNL     1      88.820  63.263  87.345  1.00  0.00     0.012 C 
ENDROOT
BRANCH   1   2
ATOM      2  C   UNL     1      89.832  63.854  88.355  1.00  0.00     0.016 C 
ATOM      3  C   UNL     1      89.855  65.385  88.265  1.00  0.00     0.013 C 
BRANCH   2   4
ATOM      4  C   UNL     1      89.547  63.408  89.779  1.00  0.00    -0.045 A 
ATOM      5  C   UNL     1      88.820  62.155  93.848  1.00  0.00     0.044 C 
ATOM      6  C   UNL     1      89.043  62.600  92.433  1.00  0.00    -0.051 A 
ATOM      7  C   UNL     1      88.814  61.715  91.370  1.00  0.00     0.004 A 
ATOM      8  C   UNL     1      89.548  63.881  92.167  1.00  0.00     0.004 A 
ATOM      9  C   UNL     1      89.058  62.117  90.053  1.00  0.00     0.004 A 
ATOM     10  C   UNL     1      89.793  64.283  90.851  1.00  0.00     0.004 A 
ENDBRANCH   2   4
ENDBRANCH   1   2
BRANCH   1  11
ATOM     11  C   UNL     1      87.531  64.094  87.206  1.00  0.00     0.028 C 
BRANCH  11  12
ATOM     12  C   UNL     1      86.393  63.526  88.019  1.00  0.00    -0.028 C 
ATOM     13  C   UNL     1      85.878  64.103  89.128  1.00  0.00    -0.080 C 
ATOM     14  C   UNL     1      86.446  65.378  89.705  1.00  0.00     0.039 C 
ATOM     15  C   UNL     1      84.715  63.431  89.810  1.00  0.00     0.039 C 
ENDBRANCH  11  12
ENDBRANCH   1  11
TORSDOF 4
ENDMDL
MODEL 9
REMARK VINA RESULT:    -4.187      1.434      4.587
REMARK INTER + INTRA:          -6.677
REMARK INTER:                  -5.645
REMARK INTRA:                  -1.031
REMARK UNBOUND:                -1.510
REMARK SMILES CC(C)=CCC[C@@H](C)c1ccc(C)cc1
REMARK SMILES IDX 6 1 7 2 8 3 9 4 13 5 12 6 11 7 14 8 10 9 15 10 5 11 4 12
REMARK SMILES IDX 2 13 1 14 3 15
REMARK H PARENT
REMARK Flexibility Score: inf
ROOT
ATOM      1  C   UNL     1      90.043  64.029  90.761  1.00  0.00     0.012 C 
ENDROOT
BRANCH   1   2
ATOM      2  C   UNL     1      89.058  63.182  91.602  1.00  0.00     0.016 C 
ATOM      3  C   UNL     1      87.728  63.924  91.786  1.00  0.00     0.013 C 
BRANCH   2   4
ATOM      4  C   UNL     1      88.824  61.808  90.999  1.00  0.00    -0.045 A 
ATOM      5  C   UNL     1      88.207  57.867  89.343  1.00  0.00     0.044 C 
ATOM      6  C   UNL     1      88.392  59.244  89.909  1.00  0.00    -0.051 A 
ATOM      7  C   UNL     1      88.963  60.258  89.126  1.00  0.00     0.004 A 
ATOM      8  C   UNL     1      88.061  59.510  91.245  1.00  0.00     0.004 A 
ATOM      9  C   UNL     1      89.172  61.531  89.663  1.00  0.00     0.004 A 
ATOM     10  C   UNL     1      88.270  60.783  91.784  1.00  0.00     0.004 A 
ENDBRANCH   2   4
ENDBRANCH   1   2
BRANCH   1  11
ATOM     11  C   UNL     1      89.349  65.063  89.855  1.00  0.00     0.028 C 
BRANCH  11  12
ATOM     12  C   UNL     1      89.846  65.000  88.431  1.00  0.00    -0.028 C 
ATOM     13  C   UNL     1      89.104  64.594  87.376  1.00  0.00    -0.080 C 
ATOM     14  C   UNL     1      87.687  64.098  87.536  1.00  0.00     0.039 C 
ATOM     15  C   UNL     1      89.732  64.624  86.006  1.00  0.00     0.039 C 
ENDBRANCH  11  12
ENDBRANCH   1  11
TORSDOF 4
ENDMDL
