MODEL 1
REMARK VINA RESULT:    -4.156      0.000      0.000
REMARK INTER + INTRA:          -4.848
REMARK INTER:                  -4.642
REMARK INTRA:                  -0.205
REMARK UNBOUND:                -0.205
REMARK SMILES CC(C)c1ccc(C(=O)[O-])cc1
REMARK SMILES IDX 7 1 6 2 11 3 5 4 12 5 4 6 8 7 9 8 10 9 2 10 1 11 3 12
REMARK H PARENT
REMARK Flexibility Score: inf
ROOT
ATOM      1  C   UNL     1      54.747  19.232  51.727  1.00  0.00    -0.003 A 
ATOM      2  C   UNL     1      54.677  18.913  50.362  1.00  0.00     0.010 A 
ATOM      3  C   UNL     1      55.875  18.831  52.463  1.00  0.00     0.010 A 
ATOM      4  C   UNL     1      55.714  18.208  49.743  1.00  0.00     0.004 A 
ATOM      5  C   UNL     1      56.912  18.127  51.846  1.00  0.00     0.004 A 
ATOM      6  C   UNL     1      56.844  17.808  50.479  1.00  0.00    -0.045 A 
ENDROOT
BRANCH   1   7
ATOM      7  C   UNL     1      53.647  19.977  52.378  1.00  0.00     0.071 C 
ATOM      8  O   UNL     1      52.875  19.401  53.191  1.00  0.00    -0.545 OA
ATOM      9  O   UNL     1      53.449  21.326  52.101  1.00  0.00    -0.545 OA
ENDBRANCH   1   7
BRANCH   6  10
ATOM     10  C   UNL     1      57.978  17.042  49.821  1.00  0.00     0.013 C 
ATOM     11  C   UNL     1      58.892  17.985  49.029  1.00  0.00     0.012 C 
ATOM     12  C   UNL     1      58.774  16.238  50.854  1.00  0.00     0.012 C 
ENDBRANCH   6  10
TORSDOF 2
ENDMDL
MODEL 2
REMARK VINA RESULT:    -4.057      8.598      9.210
REMARK INTER + INTRA:          -4.737
REMARK INTER:                  -4.517
REMARK INTRA:                  -0.220
REMARK UNBOUND:                -0.205
REMARK SMILES CC(C)c1ccc(C(=O)[O-])cc1
REMARK SMILES IDX 7 1 6 2 11 3 5 4 12 5 4 6 8 7 9 8 10 9 2 10 1 11 3 12
REMARK H PARENT
REMARK Flexibility Score: inf
ROOT
ATOM      1  C   UNL     1      56.927  28.182  49.774  1.00  0.00    -0.003 A 
ATOM      2  C   UNL     1      58.084  28.601  49.098  1.00  0.00     0.010 A 
ATOM      3  C   UNL     1      56.838  26.849  50.209  1.00  0.00     0.010 A 
ATOM      4  C   UNL     1      59.132  27.706  48.863  1.00  0.00     0.004 A 
ATOM      5  C   UNL     1      57.885  25.954  49.975  1.00  0.00     0.004 A 
ATOM      6  C   UNL     1      59.044  26.372  49.299  1.00  0.00    -0.045 A 
ENDROOT
BRANCH   1   7
ATOM      7  C   UNL     1      55.821  29.132  50.020  1.00  0.00     0.071 C 
ATOM      8  O   UNL     1      55.768  30.229  49.402  1.00  0.00    -0.545 OA
ATOM      9  O   UNL     1      54.822  28.829  50.939  1.00  0.00    -0.545 OA
ENDBRANCH   1   7
BRANCH   6  10
ATOM     10  C   UNL     1      60.174  25.389  49.051  1.00  0.00     0.013 C 
ATOM     11  C   UNL     1      61.530  26.004  49.419  1.00  0.00     0.012 C 
ATOM     12  C   UNL     1      59.940  24.076  49.806  1.00  0.00     0.012 C 
ENDBRANCH   6  10
TORSDOF 2
ENDMDL
MODEL 3
REMARK VINA RESULT:    -4.037      9.308     10.710
REMARK INTER + INTRA:          -4.715
REMARK INTER:                  -4.496
REMARK INTRA:                  -0.219
REMARK UNBOUND:                -0.205
REMARK SMILES CC(C)c1ccc(C(=O)[O-])cc1
REMARK SMILES IDX 7 1 6 2 11 3 5 4 12 5 4 6 8 7 9 8 10 9 2 10 1 11 3 12
REMARK H PARENT
REMARK Flexibility Score: inf
ROOT
ATOM      1  C   UNL     1      59.047  26.918  49.299  1.00  0.00    -0.003 A 
ATOM      2  C   UNL     1      58.881  28.251  48.890  1.00  0.00     0.010 A 
ATOM      3  C   UNL     1      57.985  26.269  49.951  1.00  0.00     0.010 A 
ATOM      4  C   UNL     1      57.678  28.922  49.128  1.00  0.00     0.004 A 
ATOM      5  C   UNL     1      56.782  26.939  50.190  1.00  0.00     0.004 A 
ATOM      6  C   UNL     1      56.615  28.273  49.781  1.00  0.00    -0.045 A 
ENDROOT
BRANCH   1   7
ATOM      7  C   UNL     1      60.322  26.212  49.044  1.00  0.00     0.071 C 
ATOM      8  O   UNL     1      60.372  24.953  49.061  1.00  0.00    -0.545 OA
ATOM      9  O   UNL     1      61.485  26.928  48.784  1.00  0.00    -0.545 OA
ENDBRANCH   1   7
BRANCH   6  10
ATOM     10  C   UNL     1      55.302  28.989  50.046  1.00  0.00     0.013 C 
ATOM     11  C   UNL     1      54.853  28.797  51.499  1.00  0.00     0.012 C 
ATOM     12  C   UNL     1      55.404  30.476  49.691  1.00  0.00     0.012 C 
ENDBRANCH   6  10
TORSDOF 2
ENDMDL
MODEL 4
REMARK VINA RESULT:    -4.031      9.272     10.695
REMARK INTER + INTRA:          -4.708
REMARK INTER:                  -4.489
REMARK INTRA:                  -0.219
REMARK UNBOUND:                -0.205
REMARK SMILES CC(C)c1ccc(C(=O)[O-])cc1
REMARK SMILES IDX 7 1 6 2 11 3 5 4 12 5 4 6 8 7 9 8 10 9 2 10 1 11 3 12
REMARK H PARENT
REMARK Flexibility Score: inf
ROOT
ATOM      1  C   UNL     1      59.048  26.894  49.312  1.00  0.00    -0.003 A 
ATOM      2  C   UNL     1      57.991  26.219  49.943  1.00  0.00     0.010 A 
ATOM      3  C   UNL     1      58.868  28.234  48.929  1.00  0.00     0.010 A 
ATOM      4  C   UNL     1      56.778  26.872  50.188  1.00  0.00     0.004 A 
ATOM      5  C   UNL     1      57.657  28.887  49.173  1.00  0.00     0.004 A 
ATOM      6  C   UNL     1      56.598  28.213  49.806  1.00  0.00    -0.045 A 
ENDROOT
BRANCH   1   7
ATOM      7  C   UNL     1      60.329  26.200  49.055  1.00  0.00     0.071 C 
ATOM      8  O   UNL     1      60.399  24.943  49.107  1.00  0.00    -0.545 OA
ATOM      9  O   UNL     1      61.475  26.926  48.751  1.00  0.00    -0.545 OA
ENDBRANCH   1   7
BRANCH   6  10
ATOM     10  C   UNL     1      55.288  28.934  50.065  1.00  0.00     0.013 C 
ATOM     11  C   UNL     1      54.840  28.757  51.521  1.00  0.00     0.012 C 
ATOM     12  C   UNL     1      55.391  30.417  49.695  1.00  0.00     0.012 C 
ENDBRANCH   6  10
TORSDOF 2
ENDMDL
MODEL 5
REMARK VINA RESULT:    -3.932      1.730      2.503
REMARK INTER + INTRA:          -4.597
REMARK INTER:                  -4.381
REMARK INTRA:                  -0.216
REMARK UNBOUND:                -0.205
REMARK SMILES CC(C)c1ccc(C(=O)[O-])cc1
REMARK SMILES IDX 7 1 6 2 11 3 5 4 12 5 4 6 8 7 9 8 10 9 2 10 1 11 3 12
REMARK H PARENT
REMARK Flexibility Score: inf
ROOT
ATOM      1  C   UNL     1      56.106  18.204  50.806  1.00  0.00    -0.003 A 
ATOM      2  C   UNL     1      56.859  17.672  49.747  1.00  0.00     0.010 A 
ATOM      3  C   UNL     1      56.583  18.061  52.119  1.00  0.00     0.010 A 
ATOM      4  C   UNL     1      58.065  17.011  49.996  1.00  0.00     0.004 A 
ATOM      5  C   UNL     1      57.789  17.400  52.369  1.00  0.00     0.004 A 
ATOM      6  C   UNL     1      58.544  16.868  51.311  1.00  0.00    -0.045 A 
ENDROOT
BRANCH   1   7
ATOM      7  C   UNL     1      54.830  18.903  50.537  1.00  0.00     0.071 C 
ATOM      8  O   UNL     1      54.312  18.874  49.388  1.00  0.00    -0.545 OA
ATOM      9  O   UNL     1      54.182  19.602  51.550  1.00  0.00    -0.545 OA
ENDBRANCH   1   7
BRANCH   6  10
ATOM     10  C   UNL     1      59.852  16.153  51.596  1.00  0.00     0.013 C 
ATOM     11  C   UNL     1      61.045  16.945  51.046  1.00  0.00     0.012 C 
ATOM     12  C   UNL     1      60.015  15.877  53.095  1.00  0.00     0.012 C 
ENDBRANCH   6  10
TORSDOF 2
ENDMDL
MODEL 6
REMARK VINA RESULT:    -3.925     21.114     21.841
REMARK INTER + INTRA:          -4.590
REMARK INTER:                  -4.368
REMARK INTRA:                  -0.221
REMARK UNBOUND:                -0.205
REMARK SMILES CC(C)c1ccc(C(=O)[O-])cc1
REMARK SMILES IDX 7 1 6 2 11 3 5 4 12 5 4 6 8 7 9 8 10 9 2 10 1 11 3 12
REMARK H PARENT
REMARK Flexibility Score: inf
ROOT
ATOM      1  C   UNL     1      71.028  32.233  58.568  1.00  0.00    -0.003 A 
ATOM      2  C   UNL     1      71.407  31.103  57.826  1.00  0.00     0.010 A 
ATOM      3  C   UNL     1      71.308  32.269  59.944  1.00  0.00     0.010 A 
ATOM      4  C   UNL     1      72.056  30.031  58.447  1.00  0.00     0.004 A 
ATOM      5  C   UNL     1      71.956  31.199  60.566  1.00  0.00     0.004 A 
ATOM      6  C   UNL     1      72.338  30.068  59.825  1.00  0.00    -0.045 A 
ENDROOT
BRANCH   1   7
ATOM      7  C   UNL     1      70.342  33.364  57.906  1.00  0.00     0.071 C 
ATOM      8  O   UNL     1      70.064  33.316  56.678  1.00  0.00    -0.545 OA
ATOM      9  O   UNL     1      69.994  34.499  58.630  1.00  0.00    -0.545 OA
ENDBRANCH   1   7
BRANCH   6  10
ATOM     10  C   UNL     1      73.041  28.911  60.513  1.00  0.00     0.013 C 
ATOM     11  C   UNL     1      72.938  29.032  62.038  1.00  0.00     0.012 C 
ATOM     12  C   UNL     1      72.493  27.565  60.027  1.00  0.00     0.012 C 
ENDBRANCH   6  10
TORSDOF 2
ENDMDL
MODEL 7
REMARK VINA RESULT:    -3.818     21.485     22.294
REMARK INTER + INTRA:          -4.470
REMARK INTER:                  -4.261
REMARK INTRA:                  -0.209
REMARK UNBOUND:                -0.205
REMARK SMILES CC(C)c1ccc(C(=O)[O-])cc1
REMARK SMILES IDX 7 1 6 2 11 3 5 4 12 5 4 6 8 7 9 8 10 9 2 10 1 11 3 12
REMARK H PARENT
REMARK Flexibility Score: inf
ROOT
ATOM      1  C   UNL     1      71.651  31.020  59.881  1.00  0.00    -0.003 A 
ATOM      2  C   UNL     1      71.296  32.345  60.179  1.00  0.00     0.010 A 
ATOM      3  C   UNL     1      71.670  30.607  58.538  1.00  0.00     0.010 A 
ATOM      4  C   UNL     1      70.968  33.240  59.156  1.00  0.00     0.004 A 
ATOM      5  C   UNL     1      71.342  31.500  57.515  1.00  0.00     0.004 A 
ATOM      6  C   UNL     1      70.987  32.827  57.812  1.00  0.00    -0.045 A 
ENDROOT
BRANCH   1   7
ATOM      7  C   UNL     1      71.997  30.077  60.966  1.00  0.00     0.071 C 
ATOM      8  O   UNL     1      73.061  30.223  61.627  1.00  0.00    -0.545 OA
ATOM      9  O   UNL     1      71.155  29.014  61.274  1.00  0.00    -0.545 OA
ENDBRANCH   1   7
BRANCH   6  10
ATOM     10  C   UNL     1      70.634  33.787  56.691  1.00  0.00     0.013 C 
ATOM     11  C   UNL     1      70.196  35.147  57.248  1.00  0.00     0.012 C 
ATOM     12  C   UNL     1      71.799  33.942  55.708  1.00  0.00     0.012 C 
ENDBRANCH   6  10
TORSDOF 2
ENDMDL
MODEL 8
REMARK VINA RESULT:    -3.794     21.397     22.208
REMARK INTER + INTRA:          -4.443
REMARK INTER:                  -4.228
REMARK INTRA:                  -0.214
REMARK UNBOUND:                -0.205
REMARK SMILES CC(C)c1ccc(C(=O)[O-])cc1
REMARK SMILES IDX 7 1 6 2 11 3 5 4 12 5 4 6 8 7 9 8 10 9 2 10 1 11 3 12
REMARK H PARENT
REMARK Flexibility Score: inf
ROOT
ATOM      1  C   UNL     1      72.072  30.540  60.026  1.00  0.00    -0.003 A 
ATOM      2  C   UNL     1      72.080  30.057  58.708  1.00  0.00     0.010 A 
ATOM      3  C   UNL     1      71.612  31.845  60.270  1.00  0.00     0.010 A 
ATOM      4  C   UNL     1      71.635  30.861  57.654  1.00  0.00     0.004 A 
ATOM      5  C   UNL     1      71.167  32.650  59.217  1.00  0.00     0.004 A 
ATOM      6  C   UNL     1      71.174  32.167  57.898  1.00  0.00    -0.045 A 
ENDROOT
BRANCH   1   7
ATOM      7  C   UNL     1      72.544  29.685  61.138  1.00  0.00     0.071 C 
ATOM      8  O   UNL     1      73.125  30.193  62.135  1.00  0.00    -0.545 OA
ATOM      9  O   UNL     1      72.353  28.309  61.099  1.00  0.00    -0.545 OA
ENDBRANCH   1   7
BRANCH   6  10
ATOM     10  C   UNL     1      70.688  33.052  56.764  1.00  0.00     0.013 C 
ATOM     11  C   UNL     1      70.122  34.372  57.298  1.00  0.00     0.012 C 
ATOM     12  C   UNL     1      71.803  33.301  55.742  1.00  0.00     0.012 C 
ENDBRANCH   6  10
TORSDOF 2
ENDMDL
MODEL 9
REMARK VINA RESULT:    -3.685      9.641     10.934
REMARK INTER + INTRA:          -4.322
REMARK INTER:                  -4.114
REMARK INTRA:                  -0.208
REMARK UNBOUND:                -0.205
REMARK SMILES CC(C)c1ccc(C(=O)[O-])cc1
REMARK SMILES IDX 7 1 6 2 11 3 5 4 12 5 4 6 8 7 9 8 10 9 2 10 1 11 3 12
REMARK H PARENT
REMARK Flexibility Score: inf
ROOT
ATOM      1  C   UNL     1      61.042  27.061  49.072  1.00  0.00    -0.003 A 
ATOM      2  C   UNL     1      60.526  28.332  49.366  1.00  0.00     0.010 A 
ATOM      3  C   UNL     1      60.165  25.964  49.023  1.00  0.00     0.010 A 
ATOM      4  C   UNL     1      59.159  28.506  49.604  1.00  0.00     0.004 A 
ATOM      5  C   UNL     1      58.799  26.136  49.261  1.00  0.00     0.004 A 
ATOM      6  C   UNL     1      58.280  27.409  49.554  1.00  0.00    -0.045 A 
ENDROOT
BRANCH   1   7
ATOM      7  C   UNL     1      62.489  26.882  48.820  1.00  0.00     0.071 C 
ATOM      8  O   UNL     1      63.061  27.514  47.892  1.00  0.00    -0.545 OA
ATOM      9  O   UNL     1      63.240  26.014  49.605  1.00  0.00    -0.545 OA
ENDBRANCH   1   7
BRANCH   6  10
ATOM     10  C   UNL     1      56.794  27.582  49.810  1.00  0.00     0.013 C 
ATOM     11  C   UNL     1      56.379  26.907  51.123  1.00  0.00     0.012 C 
ATOM     12  C   UNL     1      56.401  29.063  49.802  1.00  0.00     0.012 C 
ENDBRANCH   6  10
TORSDOF 2
ENDMDL
