MODEL 1
REMARK VINA RESULT:    -4.725      0.000      0.000
REMARK INTER + INTRA:          -5.789
REMARK INTER:                  -5.692
REMARK INTRA:                  -0.097
REMARK UNBOUND:                -0.097
REMARK SMILES NC(=O)C[C@H]([NH3+])C(=O)[O-]
REMARK SMILES IDX 4 1 5 2 6 3 7 7 8 8 9 9 2 10 3 11 1 12
REMARK H PARENT 6 4 6 5 6 6 1 13 1 14
REMARK Flexibility Score: inf
ROOT
ATOM      1  C   UNL     1      13.503  33.865  14.232  1.00  0.00     0.171 C 
ENDROOT
BRANCH   1   2
ATOM      2  C   UNL     1      13.218  32.636  13.344  1.00  0.00     0.237 C 
BRANCH   2   3
ATOM      3  N   UNL     1      12.214  31.753  13.952  1.00  0.00    -0.350 N 
ATOM      4  H   UNL     1      11.492  31.488  13.244  1.00  0.00     0.345 HD
ATOM      5  H   UNL     1      12.672  30.872  14.286  1.00  0.00     0.345 HD
ATOM      6  H   UNL     1      11.747  32.224  14.761  1.00  0.00     0.345 HD
ENDBRANCH   2   3
BRANCH   2   7
ATOM      7  C   UNL     1      14.495  31.880  13.094  1.00  0.00     0.100 C 
ATOM      8  O   UNL     1      15.514  32.094  13.803  1.00  0.00    -0.544 OA
ATOM      9  O   UNL     1      14.562  30.951  12.063  1.00  0.00    -0.544 OA
ENDBRANCH   2   7
ENDBRANCH   1   2
BRANCH   1  10
ATOM     10  C   UNL     1      13.583  35.127  13.425  1.00  0.00     0.223 C 
ATOM     11  O   UNL     1      14.492  35.261  12.563  1.00  0.00    -0.275 OA
ATOM     12  N   UNL     1      12.617  36.164  13.600  1.00  0.00    -0.369 N 
ATOM     13  H   UNL     1      12.670  37.036  13.029  1.00  0.00     0.159 HD
ATOM     14  H   UNL     1      11.842  36.059  14.293  1.00  0.00     0.159 HD
ENDBRANCH   1  10
TORSDOF 4
ENDMDL
MODEL 2
REMARK VINA RESULT:    -4.411      1.696      2.138
REMARK INTER + INTRA:          -5.410
REMARK INTER:                  -5.157
REMARK INTRA:                  -0.253
REMARK UNBOUND:                -0.097
REMARK SMILES NC(=O)C[C@H]([NH3+])C(=O)[O-]
REMARK SMILES IDX 4 1 5 2 6 3 7 7 8 8 9 9 2 10 3 11 1 12
REMARK H PARENT 6 4 6 5 6 6 1 13 1 14
REMARK Flexibility Score: inf
ROOT
ATOM      1  C   UNL     1      14.331  35.187  12.790  1.00  0.00     0.171 C 
ENDROOT
BRANCH   1   2
ATOM      2  C   UNL     1      13.462  33.983  13.209  1.00  0.00     0.237 C 
BRANCH   2   3
ATOM      3  N   UNL     1      13.039  34.087  14.612  1.00  0.00    -0.350 N 
ATOM      4  H   UNL     1      12.039  33.796  14.708  1.00  0.00     0.345 HD
ATOM      5  H   UNL     1      13.616  33.446  15.205  1.00  0.00     0.345 HD
ATOM      6  H   UNL     1      13.147  35.067  14.961  1.00  0.00     0.345 HD
ENDBRANCH   2   3
BRANCH   2   7
ATOM      7  C   UNL     1      14.221  32.703  12.987  1.00  0.00     0.100 C 
ATOM      8  O   UNL     1      13.887  31.914  12.063  1.00  0.00    -0.544 OA
ATOM      9  O   UNL     1      15.288  32.375  13.814  1.00  0.00    -0.544 OA
ENDBRANCH   2   7
ENDBRANCH   1   2
BRANCH   1  10
ATOM     10  C   UNL     1      13.499  36.408  12.526  1.00  0.00     0.223 C 
ATOM     11  O   UNL     1      12.693  36.816  13.404  1.00  0.00    -0.275 OA
ATOM     12  N   UNL     1      13.639  37.132  11.304  1.00  0.00    -0.369 N 
ATOM     13  H   UNL     1      13.066  37.987  11.129  1.00  0.00     0.159 HD
ATOM     14  H   UNL     1      14.320  36.822  10.575  1.00  0.00     0.159 HD
ENDBRANCH   1  10
TORSDOF 4
ENDMDL
MODEL 3
REMARK VINA RESULT:    -4.330      1.608      3.965
REMARK INTER + INTRA:          -5.313
REMARK INTER:                  -5.062
REMARK INTRA:                  -0.251
REMARK UNBOUND:                -0.097
REMARK SMILES NC(=O)C[C@H]([NH3+])C(=O)[O-]
REMARK SMILES IDX 4 1 5 2 6 3 7 7 8 8 9 9 2 10 3 11 1 12
REMARK H PARENT 6 4 6 5 6 6 1 13 1 14
REMARK Flexibility Score: inf
ROOT
ATOM      1  C   UNL     1      13.098  33.778  13.987  1.00  0.00     0.171 C 
ENDROOT
BRANCH   1   2
ATOM      2  C   UNL     1      14.090  34.494  13.048  1.00  0.00     0.237 C 
BRANCH   2   3
ATOM      3  N   UNL     1      15.435  34.560  13.635  1.00  0.00    -0.350 N 
ATOM      4  H   UNL     1      16.158  34.532  12.880  1.00  0.00     0.345 HD
ATOM      5  H   UNL     1      15.552  35.461  14.154  1.00  0.00     0.345 HD
ATOM      6  H   UNL     1      15.593  33.762  14.292  1.00  0.00     0.345 HD
ENDBRANCH   2   3
BRANCH   2   7
ATOM      7  C   UNL     1      13.589  35.878  12.736  1.00  0.00     0.100 C 
ATOM      8  O   UNL     1      12.841  36.485  13.547  1.00  0.00    -0.544 OA
ATOM      9  O   UNL     1      13.936  36.489  11.537  1.00  0.00    -0.544 OA
ENDBRANCH   2   7
ENDBRANCH   1   2
BRANCH   1  10
ATOM     10  C   UNL     1      13.085  32.295  13.756  1.00  0.00     0.223 C 
ATOM     11  O   UNL     1      14.062  31.744  13.182  1.00  0.00    -0.275 OA
ATOM     12  N   UNL     1      11.993  31.498  14.213  1.00  0.00    -0.369 N 
ATOM     13  H   UNL     1      11.993  30.466  14.059  1.00  0.00     0.159 HD
ATOM     14  H   UNL     1      11.186  31.934  14.712  1.00  0.00     0.159 HD
ENDBRANCH   1  10
TORSDOF 4
ENDMDL
MODEL 4
REMARK VINA RESULT:    -4.303     16.857     18.136
REMARK INTER + INTRA:          -5.280
REMARK INTER:                  -4.779
REMARK INTRA:                  -0.501
REMARK UNBOUND:                -0.097
REMARK SMILES NC(=O)C[C@H]([NH3+])C(=O)[O-]
REMARK SMILES IDX 4 1 5 2 6 3 7 7 8 8 9 9 2 10 3 11 1 12
REMARK H PARENT 6 4 6 5 6 6 1 13 1 14
REMARK Flexibility Score: inf
ROOT
ATOM      1  C   UNL     1       5.829  49.984  10.123  1.00  0.00     0.171 C 
ENDROOT
BRANCH   1   2
ATOM      2  C   UNL     1       6.184  49.093   8.915  1.00  0.00     0.237 C 
BRANCH   2   3
ATOM      3  N   UNL     1       5.065  49.000   7.967  1.00  0.00    -0.350 N 
ATOM      4  H   UNL     1       5.260  48.262   7.252  1.00  0.00     0.345 HD
ATOM      5  H   UNL     1       4.191  48.729   8.475  1.00  0.00     0.345 HD
ATOM      6  H   UNL     1       4.911  49.915   7.484  1.00  0.00     0.345 HD
ENDBRANCH   2   3
BRANCH   2   7
ATOM      7  C   UNL     1       6.579  47.721   9.391  1.00  0.00     0.100 C 
ATOM      8  O   UNL     1       7.795  47.411   9.507  1.00  0.00    -0.544 OA
ATOM      9  O   UNL     1       5.602  46.780   9.688  1.00  0.00    -0.544 OA
ENDBRANCH   2   7
ENDBRANCH   1   2
BRANCH   1  10
ATOM     10  C   UNL     1       4.364  49.927  10.444  1.00  0.00     0.223 C 
ATOM     11  O   UNL     1       3.569  50.719   9.873  1.00  0.00    -0.275 OA
ATOM     12  N   UNL     1       3.859  48.959  11.364  1.00  0.00    -0.369 N 
ATOM     13  H   UNL     1       2.838  48.916  11.576  1.00  0.00     0.159 HD
ATOM     14  H   UNL     1       4.501  48.278  11.828  1.00  0.00     0.159 HD
ENDBRANCH   1  10
TORSDOF 4
ENDMDL
MODEL 5
REMARK VINA RESULT:    -4.178     12.343     13.876
REMARK INTER + INTRA:          -5.129
REMARK INTER:                  -4.877
REMARK INTRA:                  -0.252
REMARK UNBOUND:                -0.097
REMARK SMILES NC(=O)C[C@H]([NH3+])C(=O)[O-]
REMARK SMILES IDX 4 1 5 2 6 3 7 7 8 8 9 9 2 10 3 11 1 12
REMARK H PARENT 6 4 6 5 6 6 1 13 1 14
REMARK Flexibility Score: inf
ROOT
ATOM      1  C   UNL     1       2.624  40.188  12.806  1.00  0.00     0.171 C 
ENDROOT
BRANCH   1   2
ATOM      2  C   UNL     1       2.912  41.388  11.880  1.00  0.00     0.237 C 
BRANCH   2   3
ATOM      3  N   UNL     1       4.281  41.891  12.061  1.00  0.00    -0.350 N 
ATOM      4  H   UNL     1       4.707  41.473  12.920  1.00  0.00     0.345 HD
ATOM      5  H   UNL     1       4.873  41.612  11.244  1.00  0.00     0.345 HD
ATOM      6  H   UNL     1       4.285  42.933  12.147  1.00  0.00     0.345 HD
ENDBRANCH   2   3
BRANCH   2   7
ATOM      7  C   UNL     1       1.915  42.484  12.139  1.00  0.00     0.100 C 
ATOM      8  O   UNL     1       2.162  43.669  11.788  1.00  0.00    -0.544 OA
ATOM      9  O   UNL     1       0.719  42.198  12.786  1.00  0.00    -0.544 OA
ENDBRANCH   2   7
ENDBRANCH   1   2
BRANCH   1  10
ATOM     10  C   UNL     1       3.757  39.205  12.810  1.00  0.00     0.223 C 
ATOM     11  O   UNL     1       4.801  39.457  13.469  1.00  0.00    -0.275 OA
ATOM     12  N   UNL     1       3.649  37.969  12.103  1.00  0.00    -0.369 N 
ATOM     13  H   UNL     1       4.436  37.283  12.117  1.00  0.00     0.159 HD
ATOM     14  H   UNL     1       2.782  37.732  11.571  1.00  0.00     0.159 HD
ENDBRANCH   1  10
TORSDOF 4
ENDMDL
MODEL 6
REMARK VINA RESULT:    -4.155     15.469     16.444
REMARK INTER + INTRA:          -5.102
REMARK INTER:                  -4.845
REMARK INTRA:                  -0.257
REMARK UNBOUND:                -0.097
REMARK SMILES NC(=O)C[C@H]([NH3+])C(=O)[O-]
REMARK SMILES IDX 4 1 5 2 6 3 7 7 8 8 9 9 2 10 3 11 1 12
REMARK H PARENT 6 4 6 5 6 6 1 13 1 14
REMARK Flexibility Score: inf
ROOT
ATOM      1  C   UNL     1       5.158  46.965   9.925  1.00  0.00     0.171 C 
ENDROOT
BRANCH   1   2
ATOM      2  C   UNL     1       4.432  45.764   9.287  1.00  0.00     0.237 C 
BRANCH   2   3
ATOM      3  N   UNL     1       3.140  46.159   8.709  1.00  0.00    -0.350 N 
ATOM      4  H   UNL     1       3.135  45.974   7.680  1.00  0.00     0.345 HD
ATOM      5  H   UNL     1       2.372  45.593   9.138  1.00  0.00     0.345 HD
ATOM      6  H   UNL     1       2.953  47.174   8.878  1.00  0.00     0.345 HD
ENDBRANCH   2   3
BRANCH   2   7
ATOM      7  C   UNL     1       4.235  44.681  10.314  1.00  0.00     0.100 C 
ATOM      8  O   UNL     1       4.187  43.472   9.966  1.00  0.00    -0.544 OA
ATOM      9  O   UNL     1       4.086  45.014  11.654  1.00  0.00    -0.544 OA
ENDBRANCH   2   7
ENDBRANCH   1   2
BRANCH   1  10
ATOM     10  C   UNL     1       5.674  47.919   8.888  1.00  0.00     0.223 C 
ATOM     11  O   UNL     1       4.868  48.661   8.265  1.00  0.00    -0.275 OA
ATOM     12  N   UNL     1       7.073  48.018   8.625  1.00  0.00    -0.369 N 
ATOM     13  H   UNL     1       7.429  48.690   7.910  1.00  0.00     0.159 HD
ATOM     14  H   UNL     1       7.758  47.428   9.149  1.00  0.00     0.159 HD
ENDBRANCH   1  10
TORSDOF 4
ENDMDL
MODEL 7
REMARK VINA RESULT:    -4.114     14.594     15.751
REMARK INTER + INTRA:          -5.052
REMARK INTER:                  -4.569
REMARK INTRA:                  -0.483
REMARK UNBOUND:                -0.097
REMARK SMILES NC(=O)C[C@H]([NH3+])C(=O)[O-]
REMARK SMILES IDX 4 1 5 2 6 3 7 7 8 8 9 9 2 10 3 11 1 12
REMARK H PARENT 6 4 6 5 6 6 1 13 1 14
REMARK Flexibility Score: inf
ROOT
ATOM      1  C   UNL     1       2.315  43.073   9.877  1.00  0.00     0.171 C 
ENDROOT
BRANCH   1   2
ATOM      2  C   UNL     1       3.666  43.746   9.562  1.00  0.00     0.237 C 
BRANCH   2   3
ATOM      3  N   UNL     1       4.698  43.365  10.537  1.00  0.00    -0.350 N 
ATOM      4  H   UNL     1       4.312  43.418  11.507  1.00  0.00     0.345 HD
ATOM      5  H   UNL     1       4.998  42.377  10.367  1.00  0.00     0.345 HD
ATOM      6  H   UNL     1       5.530  43.994  10.462  1.00  0.00     0.345 HD
ENDBRANCH   2   3
BRANCH   2   7
ATOM      7  C   UNL     1       3.498  45.241   9.539  1.00  0.00     0.100 C 
ATOM      8  O   UNL     1       4.386  45.976   9.029  1.00  0.00    -0.544 OA
ATOM      9  O   UNL     1       2.367  45.823  10.098  1.00  0.00    -0.544 OA
ENDBRANCH   2   7
ENDBRANCH   1   2
BRANCH   1  10
ATOM     10  C   UNL     1       2.220  42.663  11.318  1.00  0.00     0.223 C 
ATOM     11  O   UNL     1       2.651  41.535  11.676  1.00  0.00    -0.275 OA
ATOM     12  N   UNL     1       1.679  43.554  12.293  1.00  0.00    -0.369 N 
ATOM     13  H   UNL     1       1.625  43.269  13.295  1.00  0.00     0.159 HD
ATOM     14  H   UNL     1       1.339  44.503  12.018  1.00  0.00     0.159 HD
ENDBRANCH   1  10
TORSDOF 4
ENDMDL
MODEL 8
REMARK VINA RESULT:    -4.106     16.604     17.421
REMARK INTER + INTRA:          -5.042
REMARK INTER:                  -4.651
REMARK INTRA:                  -0.391
REMARK UNBOUND:                -0.097
REMARK SMILES NC(=O)C[C@H]([NH3+])C(=O)[O-]
REMARK SMILES IDX 4 1 5 2 6 3 7 7 8 8 9 9 2 10 3 11 1 12
REMARK H PARENT 6 4 6 5 6 6 1 13 1 14
REMARK Flexibility Score: inf
ROOT
ATOM      1  C   UNL     1       4.720  48.574   8.778  1.00  0.00     0.171 C 
ENDROOT
BRANCH   1   2
ATOM      2  C   UNL     1       3.868  47.925   9.887  1.00  0.00     0.237 C 
BRANCH   2   3
ATOM      3  N   UNL     1       4.047  48.610  11.175  1.00  0.00    -0.350 N 
ATOM      4  H   UNL     1       3.272  49.295  11.328  1.00  0.00     0.345 HD
ATOM      5  H   UNL     1       4.015  47.913  11.955  1.00  0.00     0.345 HD
ATOM      6  H   UNL     1       4.963  49.114  11.203  1.00  0.00     0.345 HD
ENDBRANCH   2   3
BRANCH   2   7
ATOM      7  C   UNL     1       4.223  46.468  10.018  1.00  0.00     0.100 C 
ATOM      8  O   UNL     1       4.633  45.819   9.019  1.00  0.00    -0.544 OA
ATOM      9  O   UNL     1       4.083  45.825  11.241  1.00  0.00    -0.544 OA
ENDBRANCH   2   7
ENDBRANCH   1   2
BRANCH   1  10
ATOM     10  C   UNL     1       6.149  48.745   9.203  1.00  0.00     0.223 C 
ATOM     11  O   UNL     1       6.452  49.645  10.031  1.00  0.00    -0.275 OA
ATOM     12  N   UNL     1       7.164  47.873   8.706  1.00  0.00    -0.369 N 
ATOM     13  H   UNL     1       8.155  47.988   9.012  1.00  0.00     0.159 HD
ATOM     14  H   UNL     1       6.928  47.105   8.037  1.00  0.00     0.159 HD
ENDBRANCH   1  10
TORSDOF 4
ENDMDL
MODEL 9
REMARK VINA RESULT:    -4.091     16.911     17.836
REMARK INTER + INTRA:          -5.025
REMARK INTER:                  -4.530
REMARK INTRA:                  -0.494
REMARK UNBOUND:                -0.097
REMARK SMILES NC(=O)C[C@H]([NH3+])C(=O)[O-]
REMARK SMILES IDX 4 1 5 2 6 3 7 7 8 8 9 9 2 10 3 11 1 12
REMARK H PARENT 6 4 6 5 6 6 1 13 1 14
REMARK Flexibility Score: inf
ROOT
ATOM      1  C   UNL     1       6.731  48.488   9.523  1.00  0.00     0.171 C 
ENDROOT
BRANCH   1   2
ATOM      2  C   UNL     1       5.611  47.610   8.931  1.00  0.00     0.237 C 
BRANCH   2   3
ATOM      3  N   UNL     1       4.772  48.367   7.991  1.00  0.00    -0.350 N 
ATOM      4  H   UNL     1       4.686  47.847   7.088  1.00  0.00     0.345 HD
ATOM      5  H   UNL     1       3.810  48.480   8.387  1.00  0.00     0.345 HD
ATOM      6  H   UNL     1       5.181  49.312   7.807  1.00  0.00     0.345 HD
ENDBRANCH   2   3
BRANCH   2   7
ATOM      7  C   UNL     1       4.768  47.040  10.040  1.00  0.00     0.100 C 
ATOM      8  O   UNL     1       4.835  45.816  10.329  1.00  0.00    -0.544 OA
ATOM      9  O   UNL     1       3.895  47.863  10.741  1.00  0.00    -0.544 OA
ENDBRANCH   2   7
ENDBRANCH   1   2
BRANCH   1  10
ATOM     10  C   UNL     1       6.313  49.925   9.630  1.00  0.00     0.223 C 
ATOM     11  O   UNL     1       6.437  50.688   8.635  1.00  0.00    -0.275 OA
ATOM     12  N   UNL     1       5.741  50.428  10.838  1.00  0.00    -0.369 N 
ATOM     13  H   UNL     1       5.441  51.425  10.904  1.00  0.00     0.159 HD
ATOM     14  H   UNL     1       5.608  49.804  11.665  1.00  0.00     0.159 HD
ENDBRANCH   1  10
TORSDOF 4
ENDMDL
