MODEL 1
REMARK VINA RESULT:    -5.292      0.000      0.000
REMARK INTER + INTRA:          -5.292
REMARK INTER:                  -5.292
REMARK INTRA:                   0.000
REMARK UNBOUND:                 0.000
REMARK SMILES CC1=CC(=O)[C@H]2C[C@@H]1C2(C)C
REMARK SMILES IDX 1 1 2 2 3 3 4 4 5 5 6 6 7 7 8 8 9 9 10 10 11 11
REMARK H PARENT
REMARK Flexibility Score: inf
ROOT
ATOM      1  C   UNL     1       4.503   1.073  -1.139  1.00  0.00     0.040 C 
ATOM      2  C   UNL     1       4.964  -0.344  -0.990  1.00  0.00    -0.066 C 
ATOM      3  C   UNL     1       5.108  -0.936   0.229  1.00  0.00     0.047 C 
ATOM      4  C   UNL     1       5.580  -2.360   0.221  1.00  0.00     0.159 C 
ATOM      5  O   UNL     1       5.792  -3.003   1.281  1.00  0.00    -0.295 OA
ATOM      6  C   UNL     1       5.783  -2.974  -1.165  1.00  0.00     0.067 C 
ATOM      7  C   UNL     1       4.522  -2.557  -1.952  1.00  0.00     0.021 C 
ATOM      8  C   UNL     1       5.244  -1.218  -2.228  1.00  0.00     0.022 C 
ATOM      9  C   UNL     1       6.592  -1.972  -2.037  1.00  0.00    -0.019 C 
ATOM     10  C   UNL     1       7.102  -2.612  -3.352  1.00  0.00     0.012 C 
ATOM     11  C   UNL     1       7.774  -1.206  -1.377  1.00  0.00     0.012 C 
ENDROOT
TORSDOF 0
ENDMDL
MODEL 2
REMARK VINA RESULT:    -4.867      1.684      3.421
REMARK INTER + INTRA:          -4.867
REMARK INTER:                  -4.867
REMARK INTRA:                   0.000
REMARK UNBOUND:                 0.000
REMARK SMILES CC1=CC(=O)[C@H]2C[C@@H]1C2(C)C
REMARK SMILES IDX 1 1 2 2 3 3 4 4 5 5 6 6 7 7 8 8 9 9 10 10 11 11
REMARK H PARENT
REMARK Flexibility Score: inf
ROOT
ATOM      1  C   UNL     1       4.122  -3.554  -3.014  1.00  0.00     0.040 C 
ATOM      2  C   UNL     1       5.101  -2.698  -2.273  1.00  0.00    -0.066 C 
ATOM      3  C   UNL     1       6.411  -2.610  -2.637  1.00  0.00     0.047 C 
ATOM      4  C   UNL     1       7.272  -1.713  -1.798  1.00  0.00     0.159 C 
ATOM      5  O   UNL     1       8.505  -1.581  -2.005  1.00  0.00    -0.295 OA
ATOM      6  C   UNL     1       6.545  -0.970  -0.676  1.00  0.00     0.067 C 
ATOM      7  C   UNL     1       5.263  -0.431  -1.348  1.00  0.00     0.021 C 
ATOM      8  C   UNL     1       4.646  -1.824  -1.087  1.00  0.00     0.022 C 
ATOM      9  C   UNL     1       5.650  -1.986   0.091  1.00  0.00    -0.019 C 
ATOM     10  C   UNL     1       5.102  -1.404   1.418  1.00  0.00     0.012 C 
ATOM     11  C   UNL     1       6.222  -3.403   0.379  1.00  0.00     0.012 C 
ENDROOT
TORSDOF 0
ENDMDL
MODEL 3
REMARK VINA RESULT:    -4.823      1.763      3.461
REMARK INTER + INTRA:          -4.823
REMARK INTER:                  -4.823
REMARK INTRA:                   0.000
REMARK UNBOUND:                 0.000
REMARK SMILES CC1=CC(=O)[C@H]2C[C@@H]1C2(C)C
REMARK SMILES IDX 1 1 2 2 3 3 4 4 5 5 6 6 7 7 8 8 9 9 10 10 11 11
REMARK H PARENT
REMARK Flexibility Score: inf
ROOT
ATOM      1  C   UNL     1       8.779  -1.172  -1.908  1.00  0.00     0.040 C 
ATOM      2  C   UNL     1       7.358  -1.634  -1.811  1.00  0.00    -0.066 C 
ATOM      3  C   UNL     1       6.617  -1.941  -2.912  1.00  0.00     0.047 C 
ATOM      4  C   UNL     1       5.209  -2.388  -2.658  1.00  0.00     0.159 C 
ATOM      5  O   UNL     1       4.411  -2.660  -3.592  1.00  0.00    -0.295 OA
ATOM      6  C   UNL     1       4.811  -2.492  -1.186  1.00  0.00     0.067 C 
ATOM      7  C   UNL     1       6.001  -3.220  -0.523  1.00  0.00     0.021 C 
ATOM      8  C   UNL     1       6.686  -1.837  -0.439  1.00  0.00     0.022 C 
ATOM      9  C   UNL     1       5.268  -1.196  -0.457  1.00  0.00    -0.019 C 
ATOM     10  C   UNL     1       4.659  -1.072   0.963  1.00  0.00     0.012 C 
ATOM     11  C   UNL     1       5.086   0.165  -1.187  1.00  0.00     0.012 C 
ENDROOT
TORSDOF 0
ENDMDL
MODEL 4
REMARK VINA RESULT:    -4.795      1.840      2.960
REMARK INTER + INTRA:          -4.795
REMARK INTER:                  -4.795
REMARK INTRA:                   0.000
REMARK UNBOUND:                 0.000
REMARK SMILES CC1=CC(=O)[C@H]2C[C@@H]1C2(C)C
REMARK SMILES IDX 1 1 2 2 3 3 4 4 5 5 6 6 7 7 8 8 9 9 10 10 11 11
REMARK H PARENT
REMARK Flexibility Score: inf
ROOT
ATOM      1  C   UNL     1       5.201  -1.760   2.109  1.00  0.00     0.040 C 
ATOM      2  C   UNL     1       5.375  -1.586   0.633  1.00  0.00    -0.066 C 
ATOM      3  C   UNL     1       4.571  -0.769  -0.103  1.00  0.00     0.047 C 
ATOM      4  C   UNL     1       4.865  -0.698  -1.571  1.00  0.00     0.159 C 
ATOM      5  O   UNL     1       4.169  -0.013  -2.364  1.00  0.00    -0.295 OA
ATOM      6  C   UNL     1       6.072  -1.513  -2.037  1.00  0.00     0.067 C 
ATOM      7  C   UNL     1       7.168  -1.195  -0.996  1.00  0.00     0.021 C 
ATOM      8  C   UNL     1       6.525  -2.291  -0.114  1.00  0.00     0.022 C 
ATOM      9  C   UNL     1       5.975  -2.937  -1.419  1.00  0.00    -0.019 C 
ATOM     10  C   UNL     1       6.982  -3.927  -2.056  1.00  0.00     0.012 C 
ATOM     11  C   UNL     1       4.581  -3.626  -1.366  1.00  0.00     0.012 C 
ENDROOT
TORSDOF 0
ENDMDL
MODEL 5
REMARK VINA RESULT:    -4.742      1.317      2.945
REMARK INTER + INTRA:          -4.742
REMARK INTER:                  -4.742
REMARK INTRA:                   0.000
REMARK UNBOUND:                 0.000
REMARK SMILES CC1=CC(=O)[C@H]2C[C@@H]1C2(C)C
REMARK SMILES IDX 1 1 2 2 3 3 4 4 5 5 6 6 7 7 8 8 9 9 10 10 11 11
REMARK H PARENT
REMARK Flexibility Score: inf
ROOT
ATOM      1  C   UNL     1       9.168  -1.334  -1.520  1.00  0.00     0.040 C 
ATOM      2  C   UNL     1       7.794  -1.825  -1.184  1.00  0.00    -0.066 C 
ATOM      3  C   UNL     1       7.542  -3.132  -0.890  1.00  0.00     0.047 C 
ATOM      4  C   UNL     1       6.117  -3.476  -0.575  1.00  0.00     0.159 C 
ATOM      5  O   UNL     1       5.748  -4.653  -0.330  1.00  0.00    -0.295 OA
ATOM      6  C   UNL     1       5.144  -2.296  -0.571  1.00  0.00     0.067 C 
ATOM      7  C   UNL     1       5.885  -1.198   0.223  1.00  0.00     0.021 C 
ATOM      8  C   UNL     1       6.605  -0.849  -1.100  1.00  0.00     0.022 C 
ATOM      9  C   UNL     1       5.385  -1.452  -1.856  1.00  0.00    -0.019 C 
ATOM     10  C   UNL     1       4.265  -0.409  -2.095  1.00  0.00     0.012 C 
ATOM     11  C   UNL     1       5.648  -2.201  -3.193  1.00  0.00     0.012 C 
ENDROOT
TORSDOF 0
ENDMDL
MODEL 6
REMARK VINA RESULT:    -4.666      1.405      2.674
REMARK INTER + INTRA:          -4.666
REMARK INTER:                  -4.666
REMARK INTRA:                   0.000
REMARK UNBOUND:                 0.000
REMARK SMILES CC1=CC(=O)[C@H]2C[C@@H]1C2(C)C
REMARK SMILES IDX 1 1 2 2 3 3 4 4 5 5 6 6 7 7 8 8 9 9 10 10 11 11
REMARK H PARENT
REMARK Flexibility Score: inf
ROOT
ATOM      1  C   UNL     1       8.545  -1.646  -1.976  1.00  0.00     0.040 C 
ATOM      2  C   UNL     1       7.086  -1.707  -1.647  1.00  0.00    -0.066 C 
ATOM      3  C   UNL     1       6.562  -1.092  -0.549  1.00  0.00     0.047 C 
ATOM      4  C   UNL     1       5.084  -1.242  -0.349  1.00  0.00     0.159 C 
ATOM      5  O   UNL     1       4.488  -0.758   0.648  1.00  0.00    -0.295 OA
ATOM      6  C   UNL     1       4.351  -2.022  -1.441  1.00  0.00     0.067 C 
ATOM      7  C   UNL     1       4.914  -1.447  -2.759  1.00  0.00     0.021 C 
ATOM      8  C   UNL     1       6.095  -2.429  -2.581  1.00  0.00     0.022 C 
ATOM      9  C   UNL     1       5.146  -3.327  -1.735  1.00  0.00    -0.019 C 
ATOM     10  C   UNL     1       4.342  -4.323  -2.608  1.00  0.00     0.012 C 
ATOM     11  C   UNL     1       5.751  -4.109  -0.535  1.00  0.00     0.012 C 
ENDROOT
TORSDOF 0
ENDMDL
MODEL 7
REMARK VINA RESULT:    -4.446      1.693      2.961
REMARK INTER + INTRA:          -4.446
REMARK INTER:                  -4.446
REMARK INTRA:                   0.000
REMARK UNBOUND:                 0.000
REMARK SMILES CC1=CC(=O)[C@H]2C[C@@H]1C2(C)C
REMARK SMILES IDX 1 1 2 2 3 3 4 4 5 5 6 6 7 7 8 8 9 9 10 10 11 11
REMARK H PARENT
REMARK Flexibility Score: inf
ROOT
ATOM      1  C   UNL     1       3.867  -4.092  -2.123  1.00  0.00     0.040 C 
ATOM      2  C   UNL     1       4.672  -2.915  -1.669  1.00  0.00    -0.066 C 
ATOM      3  C   UNL     1       4.221  -1.635  -1.795  1.00  0.00     0.047 C 
ATOM      4  C   UNL     1       5.139  -0.558  -1.297  1.00  0.00     0.159 C 
ATOM      5  O   UNL     1       4.857   0.664  -1.395  1.00  0.00    -0.295 OA
ATOM      6  C   UNL     1       6.439  -1.050  -0.660  1.00  0.00     0.067 C 
ATOM      7  C   UNL     1       5.994  -2.200   0.270  1.00  0.00     0.021 C 
ATOM      8  C   UNL     1       6.036  -3.109  -0.979  1.00  0.00     0.022 C 
ATOM      9  C   UNL     1       7.072  -2.122  -1.592  1.00  0.00    -0.019 C 
ATOM     10  C   UNL     1       8.527  -2.469  -1.189  1.00  0.00     0.012 C 
ATOM     11  C   UNL     1       7.036  -1.880  -3.128  1.00  0.00     0.012 C 
ENDROOT
TORSDOF 0
ENDMDL
MODEL 8
REMARK VINA RESULT:    -4.361      1.528      2.173
REMARK INTER + INTRA:          -4.361
REMARK INTER:                  -4.361
REMARK INTRA:                   0.000
REMARK UNBOUND:                 0.000
REMARK SMILES CC1=CC(=O)[C@H]2C[C@@H]1C2(C)C
REMARK SMILES IDX 1 1 2 2 3 3 4 4 5 5 6 6 7 7 8 8 9 9 10 10 11 11
REMARK H PARENT
REMARK Flexibility Score: inf
ROOT
ATOM      1  C   UNL     1       4.655   0.448  -1.178  1.00  0.00     0.040 C 
ATOM      2  C   UNL     1       5.400  -0.850  -1.221  1.00  0.00    -0.066 C 
ATOM      3  C   UNL     1       6.750  -0.919  -1.051  1.00  0.00     0.047 C 
ATOM      4  C   UNL     1       7.357  -2.288  -1.123  1.00  0.00     0.159 C 
ATOM      5  O   UNL     1       8.596  -2.479  -1.023  1.00  0.00    -0.295 OA
ATOM      6  C   UNL     1       6.365  -3.434  -1.322  1.00  0.00     0.067 C 
ATOM      7  C   UNL     1       5.227  -3.127  -0.324  1.00  0.00     0.021 C 
ATOM      8  C   UNL     1       4.651  -2.184  -1.406  1.00  0.00     0.022 C 
ATOM      9  C   UNL     1       5.388  -3.049  -2.470  1.00  0.00    -0.019 C 
ATOM     10  C   UNL     1       4.535  -4.251  -2.947  1.00  0.00     0.012 C 
ATOM     11  C   UNL     1       5.968  -2.334  -3.724  1.00  0.00     0.012 C 
ENDROOT
TORSDOF 0
ENDMDL
MODEL 9
REMARK VINA RESULT:    -4.328      1.716      2.502
REMARK INTER + INTRA:          -4.328
REMARK INTER:                  -4.328
REMARK INTRA:                   0.000
REMARK UNBOUND:                 0.000
REMARK SMILES CC1=CC(=O)[C@H]2C[C@@H]1C2(C)C
REMARK SMILES IDX 1 1 2 2 3 3 4 4 5 5 6 6 7 7 8 8 9 9 10 10 11 11
REMARK H PARENT
REMARK Flexibility Score: inf
ROOT
ATOM      1  C   UNL     1       5.238  -1.531   1.543  1.00  0.00     0.040 C 
ATOM      2  C   UNL     1       5.603  -1.968   0.158  1.00  0.00    -0.066 C 
ATOM      3  C   UNL     1       5.078  -3.088  -0.412  1.00  0.00     0.047 C 
ATOM      4  C   UNL     1       5.539  -3.400  -1.805  1.00  0.00     0.159 C 
ATOM      5  O   UNL     1       5.161  -4.428  -2.424  1.00  0.00    -0.295 OA
ATOM      6  C   UNL     1       6.499  -2.381  -2.420  1.00  0.00     0.067 C 
ATOM      7  C   UNL     1       5.863  -1.013  -2.087  1.00  0.00     0.021 C 
ATOM      8  C   UNL     1       6.557  -1.124  -0.710  1.00  0.00     0.022 C 
ATOM      9  C   UNL     1       7.609  -2.056  -1.380  1.00  0.00    -0.019 C 
ATOM     10  C   UNL     1       8.787  -1.265  -2.001  1.00  0.00     0.012 C 
ATOM     11  C   UNL     1       8.196  -3.224  -0.537  1.00  0.00     0.012 C 
ENDROOT
TORSDOF 0
ENDMDL
