MODEL 1
REMARK VINA RESULT:    -3.785      0.000      0.000
REMARK INTER + INTRA:         -12.160
REMARK INTER:                  -8.210
REMARK INTRA:                  -3.950
REMARK UNBOUND:                -3.950
REMARK SMILES CCCCCCCCCCCCCCCCCCCCCC(=O)[O-]
REMARK SMILES IDX 12 1 11 2 10 3 9 4 8 5 7 6 6 7 5 8 4 9 3 10 2 11 1 12 13 13
REMARK SMILES IDX 14 14 15 15 16 16 17 17 18 18 19 19 20 20 21 21 22 22 23 23
REMARK SMILES IDX 24 24
REMARK H PARENT
REMARK Flexibility Score: inf
ROOT
ATOM      1  C   UNL     1     -28.541 -50.572  27.396  1.00  0.00     0.000 C 
ENDROOT
BRANCH   1   2
ATOM      2  C   UNL     1     -27.490 -50.042  26.409  1.00  0.00     0.000 C 
BRANCH   2   3
ATOM      3  C   UNL     1     -27.784 -50.442  24.954  1.00  0.00     0.000 C 
BRANCH   3   4
ATOM      4  C   UNL     1     -26.557 -51.040  24.243  1.00  0.00    -0.000 C 
BRANCH   4   5
ATOM      5  C   UNL     1     -26.928 -52.201  23.307  1.00  0.00    -0.000 C 
BRANCH   5   6
ATOM      6  C   UNL     1     -28.048 -53.087  23.878  1.00  0.00    -0.000 C 
BRANCH   6   7
ATOM      7  C   UNL     1     -29.030 -53.570  22.797  1.00  0.00    -0.000 C 
BRANCH   7   8
ATOM      8  C   UNL     1     -30.470 -53.049  22.996  1.00  0.00    -0.000 C 
BRANCH   8   9
ATOM      9  C   UNL     1     -30.653 -51.622  22.450  1.00  0.00    -0.000 C 
BRANCH   9  10
ATOM     10  C   UNL     1     -31.392 -50.704  23.447  1.00  0.00    -0.000 C 
BRANCH  10  11
ATOM     11  C   UNL     1     -32.546 -51.401  24.190  1.00  0.00    -0.003 C 
ATOM     12  C   UNL     1     -33.785 -50.519  24.332  1.00  0.00     0.004 C 
ENDBRANCH  10  11
ENDBRANCH   9  10
ENDBRANCH   8   9
ENDBRANCH   7   8
ENDBRANCH   6   7
ENDBRANCH   5   6
ENDBRANCH   4   5
ENDBRANCH   3   4
ENDBRANCH   2   3
ENDBRANCH   1   2
BRANCH   1  13
ATOM     13  C   UNL     1     -29.816 -51.008  26.659  1.00  0.00     0.000 C 
BRANCH  13  14
ATOM     14  C   UNL     1     -30.207 -52.468  26.954  1.00  0.00     0.000 C 
BRANCH  14  15
ATOM     15  C   UNL     1     -29.247 -53.227  27.892  1.00  0.00     0.000 C 
BRANCH  15  16
ATOM     16  C   UNL     1     -28.395 -54.315  27.214  1.00  0.00     0.000 C 
BRANCH  16  17
ATOM     17  C   UNL     1     -26.972 -54.400  27.785  1.00  0.00     0.000 C 
BRANCH  17  18
ATOM     18  C   UNL     1     -25.966 -53.706  26.853  1.00  0.00     0.000 C 
BRANCH  18  19
ATOM     19  C   UNL     1     -24.995 -52.786  27.613  1.00  0.00     0.000 C 
BRANCH  19  20
ATOM     20  C   UNL     1     -25.618 -52.194  28.888  1.00  0.00     0.006 C 
BRANCH  20  21
ATOM     21  C   UNL     1     -24.640 -52.210  30.071  1.00  0.00     0.053 C 
BRANCH  21  22
ATOM     22  C   UNL     1     -25.194 -52.957  31.246  1.00  0.00     0.041 C 
ATOM     23  O   UNL     1     -25.386 -52.363  32.340  1.00  0.00    -0.550 OA
ATOM     24  O   UNL     1     -25.532 -54.297  31.122  1.00  0.00    -0.550 OA
ENDBRANCH  21  22
ENDBRANCH  20  21
ENDBRANCH  19  20
ENDBRANCH  18  19
ENDBRANCH  17  18
ENDBRANCH  16  17
ENDBRANCH  15  16
ENDBRANCH  14  15
ENDBRANCH  13  14
ENDBRANCH   1  13
TORSDOF 20
ENDMDL
MODEL 2
REMARK VINA RESULT:    -3.768      3.995      7.182
REMARK INTER + INTRA:         -12.124
REMARK INTER:                  -8.611
REMARK INTRA:                  -3.513
REMARK UNBOUND:                -3.950
REMARK SMILES CCCCCCCCCCCCCCCCCCCCCC(=O)[O-]
REMARK SMILES IDX 12 1 11 2 10 3 9 4 8 5 7 6 6 7 5 8 4 9 3 10 2 11 1 12 13 13
REMARK SMILES IDX 14 14 15 15 16 16 17 17 18 18 19 19 20 20 21 21 22 22 23 23
REMARK SMILES IDX 24 24
REMARK H PARENT
REMARK Flexibility Score: inf
ROOT
ATOM      1  C   UNL     1     -33.753 -46.342  25.131  1.00  0.00     0.000 C 
ENDROOT
BRANCH   1   2
ATOM      2  C   UNL     1     -33.431 -44.840  25.109  1.00  0.00     0.000 C 
BRANCH   2   3
ATOM      3  C   UNL     1     -33.186 -44.304  23.690  1.00  0.00     0.000 C 
BRANCH   3   4
ATOM      4  C   UNL     1     -31.694 -44.088  23.386  1.00  0.00    -0.000 C 
BRANCH   4   5
ATOM      5  C   UNL     1     -31.086 -45.245  22.576  1.00  0.00    -0.000 C 
BRANCH   5   6
ATOM      6  C   UNL     1     -29.807 -45.810  23.218  1.00  0.00    -0.000 C 
BRANCH   6   7
ATOM      7  C   UNL     1     -30.100 -46.896  24.267  1.00  0.00    -0.000 C 
BRANCH   7   8
ATOM      8  C   UNL     1     -29.287 -48.191  24.056  1.00  0.00    -0.000 C 
BRANCH   8   9
ATOM      9  C   UNL     1     -28.625 -48.243  22.668  1.00  0.00    -0.000 C 
BRANCH   9  10
ATOM     10  C   UNL     1     -27.181 -48.787  22.728  1.00  0.00    -0.000 C 
BRANCH  10  11
ATOM     11  C   UNL     1     -26.468 -48.500  24.060  1.00  0.00    -0.003 C 
ATOM     12  C   UNL     1     -25.905 -47.083  24.145  1.00  0.00     0.004 C 
ENDBRANCH  10  11
ENDBRANCH   9  10
ENDBRANCH   8   9
ENDBRANCH   7   8
ENDBRANCH   6   7
ENDBRANCH   5   6
ENDBRANCH   4   5
ENDBRANCH   3   4
ENDBRANCH   2   3
ENDBRANCH   1   2
BRANCH   1  13
ATOM     13  C   UNL     1     -34.306 -46.806  23.775  1.00  0.00     0.000 C 
BRANCH  13  14
ATOM     14  C   UNL     1     -34.139 -48.319  23.548  1.00  0.00     0.000 C 
BRANCH  14  15
ATOM     15  C   UNL     1     -33.333 -48.707  22.292  1.00  0.00     0.000 C 
BRANCH  15  16
ATOM     16  C   UNL     1     -32.179 -49.696  22.535  1.00  0.00     0.000 C 
BRANCH  16  17
ATOM     17  C   UNL     1     -32.190 -50.290  23.951  1.00  0.00     0.000 C 
BRANCH  17  18
ATOM     18  C   UNL     1     -31.481 -51.653  23.980  1.00  0.00     0.000 C 
BRANCH  18  19
ATOM     19  C   UNL     1     -30.674 -51.927  22.699  1.00  0.00     0.000 C 
BRANCH  19  20
ATOM     20  C   UNL     1     -29.159 -51.987  22.957  1.00  0.00     0.006 C 
BRANCH  20  21
ATOM     21  C   UNL     1     -28.824 -51.931  24.454  1.00  0.00     0.053 C 
BRANCH  21  22
ATOM     22  C   UNL     1     -28.361 -53.257  24.974  1.00  0.00     0.041 C 
ATOM     23  O   UNL     1     -28.948 -53.793  25.952  1.00  0.00    -0.550 OA
ATOM     24  O   UNL     1     -27.307 -53.917  24.359  1.00  0.00    -0.550 OA
ENDBRANCH  21  22
ENDBRANCH  20  21
ENDBRANCH  19  20
ENDBRANCH  18  19
ENDBRANCH  17  18
ENDBRANCH  16  17
ENDBRANCH  15  16
ENDBRANCH  14  15
ENDBRANCH  13  14
ENDBRANCH   1  13
TORSDOF 20
ENDMDL
MODEL 3
REMARK VINA RESULT:    -3.759      8.894     12.124
REMARK INTER + INTRA:         -12.104
REMARK INTER:                  -8.468
REMARK INTRA:                  -3.635
REMARK UNBOUND:                -3.950
REMARK SMILES CCCCCCCCCCCCCCCCCCCCCC(=O)[O-]
REMARK SMILES IDX 12 1 11 2 10 3 9 4 8 5 7 6 6 7 5 8 4 9 3 10 2 11 1 12 13 13
REMARK SMILES IDX 14 14 15 15 16 16 17 17 18 18 19 19 20 20 21 21 22 22 23 23
REMARK SMILES IDX 24 24
REMARK H PARENT
REMARK Flexibility Score: inf
ROOT
ATOM      1  C   UNL     1     -34.079 -48.424  31.494  1.00  0.00     0.000 C 
ENDROOT
BRANCH   1   2
ATOM      2  C   UNL     1     -35.532 -48.208  31.045  1.00  0.00     0.000 C 
BRANCH   2   3
ATOM      3  C   UNL     1     -36.410 -47.589  32.144  1.00  0.00     0.000 C 
BRANCH   3   4
ATOM      4  C   UNL     1     -35.585 -46.898  33.244  1.00  0.00    -0.000 C 
BRANCH   4   5
ATOM      5  C   UNL     1     -35.871 -47.472  34.641  1.00  0.00    -0.000 C 
BRANCH   5   6
ATOM      6  C   UNL     1     -35.312 -48.893  34.823  1.00  0.00    -0.000 C 
BRANCH   6   7
ATOM      7  C   UNL     1     -34.061 -48.929  35.718  1.00  0.00    -0.000 C 
BRANCH   7   8
ATOM      8  C   UNL     1     -32.810 -48.314  35.053  1.00  0.00    -0.000 C 
BRANCH   8   9
ATOM      9  C   UNL     1     -32.112 -47.289  35.964  1.00  0.00    -0.000 C 
BRANCH   9  10
ATOM     10  C   UNL     1     -31.426 -46.163  35.160  1.00  0.00    -0.000 C 
BRANCH  10  11
ATOM     11  C   UNL     1     -32.191 -45.758  33.888  1.00  0.00    -0.003 C 
ATOM     12  C   UNL     1     -32.954 -44.444  34.042  1.00  0.00     0.004 C 
ENDBRANCH  10  11
ENDBRANCH   9  10
ENDBRANCH   8   9
ENDBRANCH   7   8
ENDBRANCH   6   7
ENDBRANCH   5   6
ENDBRANCH   4   5
ENDBRANCH   3   4
ENDBRANCH   2   3
ENDBRANCH   1   2
BRANCH   1  13
ATOM     13  C   UNL     1     -33.095 -47.806  30.489  1.00  0.00     0.000 C 
BRANCH  13  14
ATOM     14  C   UNL     1     -33.675 -46.580  29.762  1.00  0.00     0.000 C 
BRANCH  14  15
ATOM     15  C   UNL     1     -33.414 -45.225  30.450  1.00  0.00     0.000 C 
BRANCH  15  16
ATOM     16  C   UNL     1     -34.664 -44.360  30.690  1.00  0.00     0.000 C 
BRANCH  16  17
ATOM     17  C   UNL     1     -35.864 -44.798  29.839  1.00  0.00     0.000 C 
BRANCH  17  18
ATOM     18  C   UNL     1     -35.926 -43.999  28.527  1.00  0.00     0.000 C 
BRANCH  18  19
ATOM     19  C   UNL     1     -35.878 -44.902  27.283  1.00  0.00     0.000 C 
BRANCH  19  20
ATOM     20  C   UNL     1     -34.643 -44.634  26.406  1.00  0.00     0.006 C 
BRANCH  20  21
ATOM     21  C   UNL     1     -33.638 -43.698  27.092  1.00  0.00     0.053 C 
BRANCH  21  22
ATOM     22  C   UNL     1     -32.227 -44.003  26.693  1.00  0.00     0.041 C 
ATOM     23  O   UNL     1     -31.947 -44.237  25.487  1.00  0.00    -0.550 OA
ATOM     24  O   UNL     1     -31.216 -43.993  27.645  1.00  0.00    -0.550 OA
ENDBRANCH  21  22
ENDBRANCH  20  21
ENDBRANCH  19  20
ENDBRANCH  18  19
ENDBRANCH  17  18
ENDBRANCH  16  17
ENDBRANCH  15  16
ENDBRANCH  14  15
ENDBRANCH  13  14
ENDBRANCH   1  13
TORSDOF 20
ENDMDL
MODEL 4
REMARK VINA RESULT:    -3.759      5.999      9.464
REMARK INTER + INTRA:         -12.104
REMARK INTER:                  -8.382
REMARK INTRA:                  -3.722
REMARK UNBOUND:                -3.950
REMARK SMILES CCCCCCCCCCCCCCCCCCCCCC(=O)[O-]
REMARK SMILES IDX 12 1 11 2 10 3 9 4 8 5 7 6 6 7 5 8 4 9 3 10 2 11 1 12 13 13
REMARK SMILES IDX 14 14 15 15 16 16 17 17 18 18 19 19 20 20 21 21 22 22 23 23
REMARK SMILES IDX 24 24
REMARK H PARENT
REMARK Flexibility Score: inf
ROOT
ATOM      1  C   UNL     1     -29.019 -48.291  32.725  1.00  0.00     0.000 C 
ENDROOT
BRANCH   1   2
ATOM      2  C   UNL     1     -29.428 -46.833  32.470  1.00  0.00     0.000 C 
BRANCH   2   3
ATOM      3  C   UNL     1     -30.682 -46.419  33.256  1.00  0.00     0.000 C 
BRANCH   3   4
ATOM      4  C   UNL     1     -30.351 -45.577  34.501  1.00  0.00    -0.000 C 
BRANCH   4   5
ATOM      5  C   UNL     1     -30.571 -46.353  35.809  1.00  0.00    -0.000 C 
BRANCH   5   6
ATOM      6  C   UNL     1     -31.294 -47.693  35.590  1.00  0.00    -0.000 C 
BRANCH   6   7
ATOM      7  C   UNL     1     -30.592 -48.868  36.292  1.00  0.00    -0.000 C 
BRANCH   7   8
ATOM      8  C   UNL     1     -30.560 -50.160  35.446  1.00  0.00    -0.000 C 
BRANCH   8   9
ATOM      9  C   UNL     1     -29.612 -51.218  36.037  1.00  0.00    -0.000 C 
BRANCH   9  10
ATOM     10  C   UNL     1     -28.673 -51.823  34.971  1.00  0.00    -0.000 C 
BRANCH  10  11
ATOM     11  C   UNL     1     -29.219 -53.108  34.325  1.00  0.00    -0.003 C 
ATOM     12  C   UNL     1     -28.126 -53.980  33.710  1.00  0.00     0.004 C 
ENDBRANCH  10  11
ENDBRANCH   9  10
ENDBRANCH   8   9
ENDBRANCH   7   8
ENDBRANCH   6   7
ENDBRANCH   5   6
ENDBRANCH   4   5
ENDBRANCH   3   4
ENDBRANCH   2   3
ENDBRANCH   1   2
BRANCH   1  13
ATOM     13  C   UNL     1     -27.567 -48.377  33.219  1.00  0.00     0.000 C 
BRANCH  13  14
ATOM     14  C   UNL     1     -27.409 -47.952  34.690  1.00  0.00     0.000 C 
BRANCH  14  15
ATOM     15  C   UNL     1     -26.601 -48.926  35.570  1.00  0.00     0.000 C 
BRANCH  15  16
ATOM     16  C   UNL     1     -25.207 -49.293  35.031  1.00  0.00     0.000 C 
BRANCH  16  17
ATOM     17  C   UNL     1     -24.962 -50.807  34.990  1.00  0.00     0.000 C 
BRANCH  17  18
ATOM     18  C   UNL     1     -25.252 -51.373  33.591  1.00  0.00     0.000 C 
BRANCH  18  19
ATOM     19  C   UNL     1     -24.658 -50.504  32.468  1.00  0.00     0.000 C 
BRANCH  19  20
ATOM     20  C   UNL     1     -25.047 -51.005  31.067  1.00  0.00     0.006 C 
BRANCH  20  21
ATOM     21  C   UNL     1     -26.400 -51.730  31.065  1.00  0.00     0.053 C 
BRANCH  21  22
ATOM     22  C   UNL     1     -26.284 -53.131  30.548  1.00  0.00     0.041 C 
ATOM     23  O   UNL     1     -25.474 -53.936  31.078  1.00  0.00    -0.550 OA
ATOM     24  O   UNL     1     -27.095 -53.557  29.505  1.00  0.00    -0.550 OA
ENDBRANCH  21  22
ENDBRANCH  20  21
ENDBRANCH  19  20
ENDBRANCH  18  19
ENDBRANCH  17  18
ENDBRANCH  16  17
ENDBRANCH  15  16
ENDBRANCH  14  15
ENDBRANCH  13  14
ENDBRANCH   1  13
TORSDOF 20
ENDMDL
MODEL 5
REMARK VINA RESULT:    -3.673      7.177     10.241
REMARK INTER + INTRA:         -11.917
REMARK INTER:                  -8.155
REMARK INTRA:                  -3.762
REMARK UNBOUND:                -3.950
REMARK SMILES CCCCCCCCCCCCCCCCCCCCCC(=O)[O-]
REMARK SMILES IDX 12 1 11 2 10 3 9 4 8 5 7 6 6 7 5 8 4 9 3 10 2 11 1 12 13 13
REMARK SMILES IDX 14 14 15 15 16 16 17 17 18 18 19 19 20 20 21 21 22 22 23 23
REMARK SMILES IDX 24 24
REMARK H PARENT
REMARK Flexibility Score: inf
ROOT
ATOM      1  C   UNL     1     -32.488 -46.874  27.743  1.00  0.00     0.000 C 
ENDROOT
BRANCH   1   2
ATOM      2  C   UNL     1     -32.241 -45.556  28.493  1.00  0.00     0.000 C 
BRANCH   2   3
ATOM      3  C   UNL     1     -31.715 -44.439  27.578  1.00  0.00     0.000 C 
BRANCH   3   4
ATOM      4  C   UNL     1     -32.819 -43.460  27.141  1.00  0.00    -0.000 C 
BRANCH   4   5
ATOM      5  C   UNL     1     -34.125 -43.658  27.926  1.00  0.00    -0.000 C 
BRANCH   5   6
ATOM      6  C   UNL     1     -35.280 -44.153  27.040  1.00  0.00    -0.000 C 
BRANCH   6   7
ATOM      7  C   UNL     1     -35.986 -45.390  27.621  1.00  0.00    -0.000 C 
BRANCH   7   8
ATOM      8  C   UNL     1     -36.243 -45.295  29.141  1.00  0.00    -0.000 C 
BRANCH   8   9
ATOM      9  C   UNL     1     -35.535 -46.415  29.922  1.00  0.00    -0.000 C 
BRANCH   9  10
ATOM     10  C   UNL     1     -36.026 -46.511  31.383  1.00  0.00    -0.000 C 
BRANCH  10  11
ATOM     11  C   UNL     1     -35.011 -45.986  32.412  1.00  0.00    -0.003 C 
ATOM     12  C   UNL     1     -34.117 -44.878  31.860  1.00  0.00     0.004 C 
ENDBRANCH  10  11
ENDBRANCH   9  10
ENDBRANCH   8   9
ENDBRANCH   7   8
ENDBRANCH   6   7
ENDBRANCH   5   6
ENDBRANCH   4   5
ENDBRANCH   3   4
ENDBRANCH   2   3
ENDBRANCH   1   2
BRANCH   1  13
ATOM     13  C   UNL     1     -31.644 -46.944  26.463  1.00  0.00     0.000 C 
BRANCH  13  14
ATOM     14  C   UNL     1     -32.393 -47.597  25.287  1.00  0.00     0.000 C 
BRANCH  14  15
ATOM     15  C   UNL     1     -33.931 -47.517  25.366  1.00  0.00     0.000 C 
BRANCH  15  16
ATOM     16  C   UNL     1     -34.587 -46.534  24.380  1.00  0.00     0.000 C 
BRANCH  16  17
ATOM     17  C   UNL     1     -33.594 -45.962  23.358  1.00  0.00     0.000 C 
BRANCH  17  18
ATOM     18  C   UNL     1     -33.321 -44.474  23.632  1.00  0.00     0.000 C 
BRANCH  18  19
ATOM     19  C   UNL     1     -31.821 -44.164  23.770  1.00  0.00     0.000 C 
BRANCH  19  20
ATOM     20  C   UNL     1     -30.996 -44.700  22.587  1.00  0.00     0.006 C 
BRANCH  20  21
ATOM     21  C   UNL     1     -29.885 -45.656  23.042  1.00  0.00     0.053 C 
BRANCH  21  22
ATOM     22  C   UNL     1     -30.027 -47.013  22.424  1.00  0.00     0.041 C 
ATOM     23  O   UNL     1     -29.337 -47.977  22.849  1.00  0.00    -0.550 OA
ATOM     24  O   UNL     1     -30.946 -47.221  21.405  1.00  0.00    -0.550 OA
ENDBRANCH  21  22
ENDBRANCH  20  21
ENDBRANCH  19  20
ENDBRANCH  18  19
ENDBRANCH  17  18
ENDBRANCH  16  17
ENDBRANCH  15  16
ENDBRANCH  14  15
ENDBRANCH  13  14
ENDBRANCH   1  13
TORSDOF 20
ENDMDL
MODEL 6
REMARK VINA RESULT:    -3.666      8.362     11.181
REMARK INTER + INTRA:         -11.901
REMARK INTER:                  -9.869
REMARK INTRA:                  -2.032
REMARK UNBOUND:                -3.950
REMARK SMILES CCCCCCCCCCCCCCCCCCCCCC(=O)[O-]
REMARK SMILES IDX 12 1 11 2 10 3 9 4 8 5 7 6 6 7 5 8 4 9 3 10 2 11 1 12 13 13
REMARK SMILES IDX 14 14 15 15 16 16 17 17 18 18 19 19 20 20 21 21 22 22 23 23
REMARK SMILES IDX 24 24
REMARK H PARENT
REMARK Flexibility Score: inf
ROOT
ATOM      1  C   UNL     1     -33.016 -49.744  35.425  1.00  0.00     0.000 C 
ENDROOT
BRANCH   1   2
ATOM      2  C   UNL     1     -34.195 -49.572  34.457  1.00  0.00     0.000 C 
BRANCH   2   3
ATOM      3  C   UNL     1     -35.207 -48.517  34.931  1.00  0.00     0.000 C 
BRANCH   3   4
ATOM      4  C   UNL     1     -35.136 -47.215  34.113  1.00  0.00    -0.000 C 
BRANCH   4   5
ATOM      5  C   UNL     1     -34.136 -46.207  34.699  1.00  0.00    -0.000 C 
BRANCH   5   6
ATOM      6  C   UNL     1     -33.133 -45.691  33.654  1.00  0.00    -0.000 C 
BRANCH   6   7
ATOM      7  C   UNL     1     -32.712 -44.233  33.904  1.00  0.00    -0.000 C 
BRANCH   7   8
ATOM      8  C   UNL     1     -31.222 -44.078  34.279  1.00  0.00    -0.000 C 
BRANCH   8   9
ATOM      9  C   UNL     1     -30.603 -45.401  34.763  1.00  0.00    -0.000 C 
BRANCH   9  10
ATOM     10  C   UNL     1     -29.360 -45.802  33.939  1.00  0.00    -0.000 C 
BRANCH  10  11
ATOM     11  C   UNL     1     -28.496 -44.606  33.503  1.00  0.00    -0.003 C 
ATOM     12  C   UNL     1     -27.270 -45.018  32.691  1.00  0.00     0.004 C 
ENDBRANCH  10  11
ENDBRANCH   9  10
ENDBRANCH   8   9
ENDBRANCH   7   8
ENDBRANCH   6   7
ENDBRANCH   5   6
ENDBRANCH   4   5
ENDBRANCH   3   4
ENDBRANCH   2   3
ENDBRANCH   1   2
BRANCH   1  13
ATOM     13  C   UNL     1     -31.748 -49.075  34.872  1.00  0.00     0.000 C 
BRANCH  13  14
ATOM     14  C   UNL     1     -30.628 -50.084  34.560  1.00  0.00     0.000 C 
BRANCH  14  15
ATOM     15  C   UNL     1     -30.760 -51.449  35.265  1.00  0.00     0.000 C 
BRANCH  15  16
ATOM     16  C   UNL     1     -30.650 -52.675  34.342  1.00  0.00     0.000 C 
BRANCH  16  17
ATOM     17  C   UNL     1     -31.384 -52.486  33.007  1.00  0.00     0.000 C 
BRANCH  17  18
ATOM     18  C   UNL     1     -32.894 -52.718  33.174  1.00  0.00     0.000 C 
BRANCH  18  19
ATOM     19  C   UNL     1     -33.412 -53.882  32.312  1.00  0.00     0.000 C 
BRANCH  19  20
ATOM     20  C   UNL     1     -33.493 -53.521  30.819  1.00  0.00     0.006 C 
BRANCH  20  21
ATOM     21  C   UNL     1     -34.202 -54.607  29.998  1.00  0.00     0.053 C 
BRANCH  21  22
ATOM     22  C   UNL     1     -35.526 -54.139  29.476  1.00  0.00     0.041 C 
ATOM     23  O   UNL     1     -36.516 -54.917  29.475  1.00  0.00    -0.550 OA
ATOM     24  O   UNL     1     -35.675 -52.835  29.025  1.00  0.00    -0.550 OA
ENDBRANCH  21  22
ENDBRANCH  20  21
ENDBRANCH  19  20
ENDBRANCH  18  19
ENDBRANCH  17  18
ENDBRANCH  16  17
ENDBRANCH  15  16
ENDBRANCH  14  15
ENDBRANCH  13  14
ENDBRANCH   1  13
TORSDOF 20
ENDMDL
MODEL 7
REMARK VINA RESULT:    -3.645      4.409      7.106
REMARK INTER + INTRA:         -11.856
REMARK INTER:                  -8.090
REMARK INTRA:                  -3.765
REMARK UNBOUND:                -3.950
REMARK SMILES CCCCCCCCCCCCCCCCCCCCCC(=O)[O-]
REMARK SMILES IDX 12 1 11 2 10 3 9 4 8 5 7 6 6 7 5 8 4 9 3 10 2 11 1 12 13 13
REMARK SMILES IDX 14 14 15 15 16 16 17 17 18 18 19 19 20 20 21 21 22 22 23 23
REMARK SMILES IDX 24 24
REMARK H PARENT
REMARK Flexibility Score: inf
ROOT
ATOM      1  C   UNL     1     -28.356 -53.856  25.620  1.00  0.00     0.000 C 
ENDROOT
BRANCH   1   2
ATOM      2  C   UNL     1     -27.196 -53.136  26.324  1.00  0.00     0.000 C 
BRANCH   2   3
ATOM      3  C   UNL     1     -26.932 -51.734  25.754  1.00  0.00     0.000 C 
BRANCH   3   4
ATOM      4  C   UNL     1     -25.506 -51.579  25.195  1.00  0.00    -0.000 C 
BRANCH   4   5
ATOM      5  C   UNL     1     -25.381 -50.392  24.227  1.00  0.00    -0.000 C 
BRANCH   5   6
ATOM      6  C   UNL     1     -26.683 -50.115  23.457  1.00  0.00    -0.000 C 
BRANCH   6   7
ATOM      7  C   UNL     1     -26.835 -48.636  23.061  1.00  0.00    -0.000 C 
BRANCH   7   8
ATOM      8  C   UNL     1     -26.048 -47.670  23.972  1.00  0.00    -0.000 C 
BRANCH   8   9
ATOM      9  C   UNL     1     -26.961 -46.632  24.647  1.00  0.00    -0.000 C 
BRANCH   9  10
ATOM     10  C   UNL     1     -28.125 -47.290  25.420  1.00  0.00    -0.000 C 
BRANCH  10  11
ATOM     11  C   UNL     1     -27.667 -48.147  26.613  1.00  0.00    -0.003 C 
ATOM     12  C   UNL     1     -28.829 -48.780  27.376  1.00  0.00     0.004 C 
ENDBRANCH  10  11
ENDBRANCH   9  10
ENDBRANCH   8   9
ENDBRANCH   7   8
ENDBRANCH   6   7
ENDBRANCH   5   6
ENDBRANCH   4   5
ENDBRANCH   3   4
ENDBRANCH   2   3
ENDBRANCH   1   2
BRANCH   1  13
ATOM     13  C   UNL     1     -27.879 -54.534  24.327  1.00  0.00     0.000 C 
BRANCH  13  14
ATOM     14  C   UNL     1     -28.341 -53.795  23.059  1.00  0.00     0.000 C 
BRANCH  14  15
ATOM     15  C   UNL     1     -29.829 -53.983  22.697  1.00  0.00     0.000 C 
BRANCH  15  16
ATOM     16  C   UNL     1     -30.743 -52.796  23.050  1.00  0.00     0.000 C 
BRANCH  16  17
ATOM     17  C   UNL     1     -29.998 -51.455  23.075  1.00  0.00     0.000 C 
BRANCH  17  18
ATOM     18  C   UNL     1     -30.177 -50.753  24.431  1.00  0.00     0.000 C 
BRANCH  18  19
ATOM     19  C   UNL     1     -30.843 -49.372  24.298  1.00  0.00     0.000 C 
BRANCH  19  20
ATOM     20  C   UNL     1     -30.623 -48.741  22.913  1.00  0.00     0.006 C 
BRANCH  20  21
ATOM     21  C   UNL     1     -31.936 -48.257  22.282  1.00  0.00     0.053 C 
BRANCH  21  22
ATOM     22  C   UNL     1     -32.347 -46.915  22.806  1.00  0.00     0.041 C 
ATOM     23  O   UNL     1     -31.486 -46.010  22.972  1.00  0.00    -0.550 OA
ATOM     24  O   UNL     1     -33.683 -46.652  23.075  1.00  0.00    -0.550 OA
ENDBRANCH  21  22
ENDBRANCH  20  21
ENDBRANCH  19  20
ENDBRANCH  18  19
ENDBRANCH  17  18
ENDBRANCH  16  17
ENDBRANCH  15  16
ENDBRANCH  14  15
ENDBRANCH  13  14
ENDBRANCH   1  13
TORSDOF 20
ENDMDL
MODEL 8
REMARK VINA RESULT:    -3.624      5.769      7.999
REMARK INTER + INTRA:         -11.811
REMARK INTER:                  -7.850
REMARK INTRA:                  -3.961
REMARK UNBOUND:                -3.950
REMARK SMILES CCCCCCCCCCCCCCCCCCCCCC(=O)[O-]
REMARK SMILES IDX 12 1 11 2 10 3 9 4 8 5 7 6 6 7 5 8 4 9 3 10 2 11 1 12 13 13
REMARK SMILES IDX 14 14 15 15 16 16 17 17 18 18 19 19 20 20 21 21 22 22 23 23
REMARK SMILES IDX 24 24
REMARK H PARENT
REMARK Flexibility Score: inf
ROOT
ATOM      1  C   UNL     1     -28.006 -48.726  31.908  1.00  0.00     0.000 C 
ENDROOT
BRANCH   1   2
ATOM      2  C   UNL     1     -28.754 -50.027  31.579  1.00  0.00     0.000 C 
BRANCH   2   3
ATOM      3  C   UNL     1     -29.090 -50.854  32.830  1.00  0.00     0.000 C 
BRANCH   3   4
ATOM      4  C   UNL     1     -28.736 -52.343  32.671  1.00  0.00    -0.000 C 
BRANCH   4   5
ATOM      5  C   UNL     1     -28.810 -53.110  34.000  1.00  0.00    -0.000 C 
BRANCH   5   6
ATOM      6  C   UNL     1     -30.190 -53.002  34.670  1.00  0.00    -0.000 C 
BRANCH   6   7
ATOM      7  C   UNL     1     -31.274 -53.803  33.929  1.00  0.00    -0.000 C 
BRANCH   7   8
ATOM      8  C   UNL     1     -32.512 -52.961  33.552  1.00  0.00    -0.000 C 
BRANCH   8   9
ATOM      9  C   UNL     1     -32.948 -53.188  32.094  1.00  0.00    -0.000 C 
BRANCH   9  10
ATOM     10  C   UNL     1     -32.131 -52.335  31.099  1.00  0.00    -0.000 C 
BRANCH  10  11
ATOM     11  C   UNL     1     -32.611 -50.877  30.997  1.00  0.00    -0.003 C 
ATOM     12  C   UNL     1     -32.026 -50.136  29.797  1.00  0.00     0.004 C 
ENDBRANCH  10  11
ENDBRANCH   9  10
ENDBRANCH   8   9
ENDBRANCH   7   8
ENDBRANCH   6   7
ENDBRANCH   5   6
ENDBRANCH   4   5
ENDBRANCH   3   4
ENDBRANCH   2   3
ENDBRANCH   1   2
BRANCH   1  13
ATOM     13  C   UNL     1     -26.670 -48.655  31.155  1.00  0.00     0.000 C 
BRANCH  13  14
ATOM     14  C   UNL     1     -26.299 -49.981  30.468  1.00  0.00     0.000 C 
BRANCH  14  15
ATOM     15  C   UNL     1     -24.984 -50.625  30.952  1.00  0.00     0.000 C 
BRANCH  15  16
ATOM     16  C   UNL     1     -24.680 -50.445  32.450  1.00  0.00     0.000 C 
BRANCH  16  17
ATOM     17  C   UNL     1     -25.302 -51.546  33.321  1.00  0.00     0.000 C 
BRANCH  17  18
ATOM     18  C   UNL     1     -25.805 -50.971  34.654  1.00  0.00     0.000 C 
BRANCH  18  19
ATOM     19  C   UNL     1     -25.315 -49.534  34.902  1.00  0.00     0.000 C 
BRANCH  19  20
ATOM     20  C   UNL     1     -26.469 -48.557  35.182  1.00  0.00     0.006 C 
BRANCH  20  21
ATOM     21  C   UNL     1     -27.585 -49.202  36.015  1.00  0.00     0.053 C 
BRANCH  21  22
ATOM     22  C   UNL     1     -28.919 -48.578  35.742  1.00  0.00     0.041 C 
ATOM     23  O   UNL     1     -29.973 -49.130  36.156  1.00  0.00    -0.550 OA
ATOM     24  O   UNL     1     -28.996 -47.369  35.063  1.00  0.00    -0.550 OA
ENDBRANCH  21  22
ENDBRANCH  20  21
ENDBRANCH  19  20
ENDBRANCH  18  19
ENDBRANCH  17  18
ENDBRANCH  16  17
ENDBRANCH  15  16
ENDBRANCH  14  15
ENDBRANCH  13  14
ENDBRANCH   1  13
TORSDOF 20
ENDMDL
MODEL 9
REMARK VINA RESULT:    -3.597      6.828      9.302
REMARK INTER + INTRA:         -11.752
REMARK INTER:                  -7.415
REMARK INTRA:                  -4.337
REMARK UNBOUND:                -3.950
REMARK SMILES CCCCCCCCCCCCCCCCCCCCCC(=O)[O-]
REMARK SMILES IDX 12 1 11 2 10 3 9 4 8 5 7 6 6 7 5 8 4 9 3 10 2 11 1 12 13 13
REMARK SMILES IDX 14 14 15 15 16 16 17 17 18 18 19 19 20 20 21 21 22 22 23 23
REMARK SMILES IDX 24 24
REMARK H PARENT
REMARK Flexibility Score: inf
ROOT
ATOM      1  C   UNL     1     -31.969 -50.547  31.335  1.00  0.00     0.000 C 
ENDROOT
BRANCH   1   2
ATOM      2  C   UNL     1     -31.743 -49.677  32.581  1.00  0.00     0.000 C 
BRANCH   2   3
ATOM      3  C   UNL     1     -32.977 -48.840  32.955  1.00  0.00     0.000 C 
BRANCH   3   4
ATOM      4  C   UNL     1     -33.635 -49.306  34.265  1.00  0.00    -0.000 C 
BRANCH   4   5
ATOM      5  C   UNL     1     -32.614 -49.858  35.272  1.00  0.00    -0.000 C 
BRANCH   5   6
ATOM      6  C   UNL     1     -32.240 -48.835  36.358  1.00  0.00    -0.000 C 
BRANCH   6   7
ATOM      7  C   UNL     1     -30.724 -48.757  36.603  1.00  0.00    -0.000 C 
BRANCH   7   8
ATOM      8  C   UNL     1     -29.961 -47.986  35.504  1.00  0.00    -0.000 C 
BRANCH   8   9
ATOM      9  C   UNL     1     -30.609 -46.625  35.191  1.00  0.00    -0.000 C 
BRANCH   9  10
ATOM     10  C   UNL     1     -29.870 -45.870  34.066  1.00  0.00    -0.000 C 
BRANCH  10  11
ATOM     11  C   UNL     1     -30.462 -46.113  32.667  1.00  0.00    -0.003 C 
ATOM     12  C   UNL     1     -29.491 -46.815  31.720  1.00  0.00     0.004 C 
ENDBRANCH  10  11
ENDBRANCH   9  10
ENDBRANCH   8   9
ENDBRANCH   7   8
ENDBRANCH   6   7
ENDBRANCH   5   6
ENDBRANCH   4   5
ENDBRANCH   3   4
ENDBRANCH   2   3
ENDBRANCH   1   2
BRANCH   1  13
ATOM     13  C   UNL     1     -31.574 -52.006  31.605  1.00  0.00     0.000 C 
BRANCH  13  14
ATOM     14  C   UNL     1     -32.570 -52.736  32.524  1.00  0.00     0.000 C 
BRANCH  14  15
ATOM     15  C   UNL     1     -31.959 -53.345  33.802  1.00  0.00     0.000 C 
BRANCH  15  16
ATOM     16  C   UNL     1     -30.441 -53.146  33.960  1.00  0.00     0.000 C 
BRANCH  16  17
ATOM     17  C   UNL     1     -30.063 -52.451  35.275  1.00  0.00     0.000 C 
BRANCH  17  18
ATOM     18  C   UNL     1     -28.885 -51.486  35.068  1.00  0.00     0.000 C 
BRANCH  18  19
ATOM     19  C   UNL     1     -28.473 -51.366  33.591  1.00  0.00     0.000 C 
BRANCH  19  20
ATOM     20  C   UNL     1     -27.908 -49.977  33.247  1.00  0.00     0.006 C 
BRANCH  20  21
ATOM     21  C   UNL     1     -26.785 -49.555  34.204  1.00  0.00     0.053 C 
BRANCH  21  22
ATOM     22  C   UNL     1     -25.499 -50.261  33.904  1.00  0.00     0.041 C 
ATOM     23  O   UNL     1     -24.854 -50.823  34.829  1.00  0.00    -0.550 OA
ATOM     24  O   UNL     1     -25.031 -50.330  32.599  1.00  0.00    -0.550 OA
ENDBRANCH  21  22
ENDBRANCH  20  21
ENDBRANCH  19  20
ENDBRANCH  18  19
ENDBRANCH  17  18
ENDBRANCH  16  17
ENDBRANCH  15  16
ENDBRANCH  14  15
ENDBRANCH  13  14
ENDBRANCH   1  13
TORSDOF 20
ENDMDL
