MODEL 1
REMARK VINA RESULT:    -4.026      0.000      0.000
REMARK INTER + INTRA:          -6.783
REMARK INTER:                  -6.144
REMARK INTRA:                  -0.638
REMARK UNBOUND:                -0.638
REMARK SMILES CCCCCCCCCCC(=O)[O-]
REMARK SMILES IDX 7 1 8 2 9 3 10 4 11 5 12 6 13 7 6 8 5 9 4 10 3 11 2 12 1 13
REMARK H PARENT
REMARK Flexibility Score: inf
ROOT
ATOM      1  C   UNL     1       4.376  27.912  55.906  1.00  0.00     0.000 C 
ENDROOT
BRANCH   1   2
ATOM      2  C   UNL     1       5.262  29.143  55.677  1.00  0.00     0.000 C 
BRANCH   2   3
ATOM      3  C   UNL     1       5.238  29.572  54.206  1.00  0.00     0.006 C 
BRANCH   3   4
ATOM      4  C   UNL     1       4.076  28.908  53.460  1.00  0.00     0.053 C 
BRANCH   4   5
ATOM      5  C   UNL     1       4.390  28.791  52.001  1.00  0.00     0.041 C 
ATOM      6  O   UNL     1       4.797  27.698  51.526  1.00  0.00    -0.550 OA
ATOM      7  O   UNL     1       4.187  29.875  51.157  1.00  0.00    -0.550 OA
ENDBRANCH   4   5
ENDBRANCH   3   4
ENDBRANCH   2   3
ENDBRANCH   1   2
BRANCH   1   8
ATOM      8  C   UNL     1       4.228  27.609  57.402  1.00  0.00     0.000 C 
BRANCH   8   9
ATOM      9  C   UNL     1       2.782  27.835  57.869  1.00  0.00    -0.000 C 
BRANCH   9  10
ATOM     10  C   UNL     1       1.955  28.658  56.867  1.00  0.00    -0.000 C 
BRANCH  10  11
ATOM     11  C   UNL     1       0.478  28.780  57.280  1.00  0.00    -0.000 C 
BRANCH  11  12
ATOM     12  C   UNL     1      -0.359  29.552  56.249  1.00  0.00    -0.003 C 
ATOM     13  C   UNL     1       0.328  29.661  54.888  1.00  0.00     0.004 C 
ENDBRANCH  11  12
ENDBRANCH  10  11
ENDBRANCH   9  10
ENDBRANCH   8   9
ENDBRANCH   1   8
TORSDOF 9
ENDMDL
MODEL 2
REMARK VINA RESULT:    -3.836      2.453      4.667
REMARK INTER + INTRA:          -6.492
REMARK INTER:                  -5.886
REMARK INTRA:                  -0.606
REMARK UNBOUND:                -0.638
REMARK SMILES CCCCCCCCCCC(=O)[O-]
REMARK SMILES IDX 7 1 8 2 9 3 10 4 11 5 12 6 13 7 6 8 5 9 4 10 3 11 2 12 1 13
REMARK H PARENT
REMARK Flexibility Score: inf
ROOT
ATOM      1  C   UNL     1       3.891  27.792  56.866  1.00  0.00     0.000 C 
ENDROOT
BRANCH   1   2
ATOM      2  C   UNL     1       2.683  27.878  57.805  1.00  0.00     0.000 C 
BRANCH   2   3
ATOM      3  C   UNL     1       1.758  29.034  57.408  1.00  0.00     0.006 C 
BRANCH   3   4
ATOM      4  C   UNL     1       0.503  28.514  56.701  1.00  0.00     0.053 C 
BRANCH   4   5
ATOM      5  C   UNL     1       0.413  29.074  55.316  1.00  0.00     0.041 C 
ATOM      6  O   UNL     1       1.442  29.521  54.744  1.00  0.00    -0.550 OA
ATOM      7  O   UNL     1      -0.799  29.057  54.637  1.00  0.00    -0.550 OA
ENDBRANCH   4   5
ENDBRANCH   3   4
ENDBRANCH   2   3
ENDBRANCH   1   2
BRANCH   1   8
ATOM      8  C   UNL     1       4.964  28.818  57.251  1.00  0.00     0.000 C 
BRANCH   8   9
ATOM      9  C   UNL     1       5.737  29.297  56.013  1.00  0.00    -0.000 C 
BRANCH   9  10
ATOM     10  C   UNL     1       4.913  29.194  54.719  1.00  0.00    -0.000 C 
BRANCH  10  11
ATOM     11  C   UNL     1       5.348  30.219  53.658  1.00  0.00    -0.000 C 
BRANCH  11  12
ATOM     12  C   UNL     1       4.152  30.902  52.976  1.00  0.00    -0.003 C 
ATOM     13  C   UNL     1       4.573  32.004  52.004  1.00  0.00     0.004 C 
ENDBRANCH  11  12
ENDBRANCH  10  11
ENDBRANCH   9  10
ENDBRANCH   8   9
ENDBRANCH   1   8
TORSDOF 9
ENDMDL
MODEL 3
REMARK VINA RESULT:    -3.813      1.721      2.224
REMARK INTER + INTRA:          -6.457
REMARK INTER:                  -5.514
REMARK INTRA:                  -0.943
REMARK UNBOUND:                -0.638
REMARK SMILES CCCCCCCCCCC(=O)[O-]
REMARK SMILES IDX 7 1 8 2 9 3 10 4 11 5 12 6 13 7 6 8 5 9 4 10 3 11 2 12 1 13
REMARK H PARENT
REMARK Flexibility Score: inf
ROOT
ATOM      1  C   UNL     1       5.228  29.206  55.367  1.00  0.00     0.000 C 
ENDROOT
BRANCH   1   2
ATOM      2  C   UNL     1       4.347  28.613  54.261  1.00  0.00     0.000 C 
BRANCH   2   3
ATOM      3  C   UNL     1       3.820  29.710  53.330  1.00  0.00     0.006 C 
BRANCH   3   4
ATOM      4  C   UNL     1       4.859  30.821  53.148  1.00  0.00     0.053 C 
BRANCH   4   5
ATOM      5  C   UNL     1       4.311  31.914  52.285  1.00  0.00     0.041 C 
ATOM      6  O   UNL     1       5.055  32.857  51.906  1.00  0.00    -0.550 OA
ATOM      7  O   UNL     1       2.990  31.866  51.858  1.00  0.00    -0.550 OA
ENDBRANCH   4   5
ENDBRANCH   3   4
ENDBRANCH   2   3
ENDBRANCH   1   2
BRANCH   1   8
ATOM      8  C   UNL     1       4.674  28.865  56.756  1.00  0.00     0.000 C 
BRANCH   8   9
ATOM      9  C   UNL     1       3.448  27.945  56.649  1.00  0.00    -0.000 C 
BRANCH   9  10
ATOM     10  C   UNL     1       2.394  28.230  57.731  1.00  0.00    -0.000 C 
BRANCH  10  11
ATOM     11  C   UNL     1       1.095  28.815  57.150  1.00  0.00    -0.000 C 
BRANCH  11  12
ATOM     12  C   UNL     1       0.966  28.574  55.639  1.00  0.00    -0.003 C 
ATOM     13  C   UNL     1       0.339  29.757  54.900  1.00  0.00     0.004 C 
ENDBRANCH  11  12
ENDBRANCH  10  11
ENDBRANCH   9  10
ENDBRANCH   8   9
ENDBRANCH   1   8
TORSDOF 9
ENDMDL
MODEL 4
REMARK VINA RESULT:    -3.743      3.231      4.639
REMARK INTER + INTRA:          -6.351
REMARK INTER:                  -5.588
REMARK INTRA:                  -0.762
REMARK UNBOUND:                -0.638
REMARK SMILES CCCCCCCCCCC(=O)[O-]
REMARK SMILES IDX 7 1 8 2 9 3 10 4 11 5 12 6 13 7 6 8 5 9 4 10 3 11 2 12 1 13
REMARK H PARENT
REMARK Flexibility Score: inf
ROOT
ATOM      1  C   UNL     1       5.705  29.596  55.080  1.00  0.00     0.000 C 
ENDROOT
BRANCH   1   2
ATOM      2  C   UNL     1       5.721  29.172  56.554  1.00  0.00     0.000 C 
BRANCH   2   3
ATOM      3  C   UNL     1       5.183  27.747  56.721  1.00  0.00     0.006 C 
BRANCH   3   4
ATOM      4  C   UNL     1       5.181  27.330  58.195  1.00  0.00     0.053 C 
BRANCH   4   5
ATOM      5  C   UNL     1       3.807  26.915  58.621  1.00  0.00     0.041 C 
ATOM      6  O   UNL     1       2.805  27.593  58.274  1.00  0.00    -0.550 OA
ATOM      7  O   UNL     1       3.631  25.752  59.359  1.00  0.00    -0.550 OA
ENDBRANCH   4   5
ENDBRANCH   3   4
ENDBRANCH   2   3
ENDBRANCH   1   2
BRANCH   1   8
ATOM      8  C   UNL     1       4.597  28.869  54.309  1.00  0.00     0.000 C 
BRANCH   8   9
ATOM      9  C   UNL     1       3.609  29.870  53.692  1.00  0.00    -0.000 C 
BRANCH   9  10
ATOM     10  C   UNL     1       2.181  29.711  54.240  1.00  0.00    -0.000 C 
BRANCH  10  11
ATOM     11  C   UNL     1       1.965  28.361  54.946  1.00  0.00    -0.000 C 
BRANCH  11  12
ATOM     12  C   UNL     1       0.540  28.208  55.498  1.00  0.00    -0.003 C 
ATOM     13  C   UNL     1       0.238  29.177  56.641  1.00  0.00     0.004 C 
ENDBRANCH  11  12
ENDBRANCH  10  11
ENDBRANCH   9  10
ENDBRANCH   8   9
ENDBRANCH   1   8
TORSDOF 9
ENDMDL
MODEL 5
REMARK VINA RESULT:    -3.722      1.945      3.178
REMARK INTER + INTRA:          -6.319
REMARK INTER:                  -6.017
REMARK INTRA:                  -0.302
REMARK UNBOUND:                -0.638
REMARK SMILES CCCCCCCCCCC(=O)[O-]
REMARK SMILES IDX 7 1 8 2 9 3 10 4 11 5 12 6 13 7 6 8 5 9 4 10 3 11 2 12 1 13
REMARK H PARENT
REMARK Flexibility Score: inf
ROOT
ATOM      1  C   UNL     1       4.096  28.938  52.934  1.00  0.00     0.000 C 
ENDROOT
BRANCH   1   2
ATOM      2  C   UNL     1       4.705  28.043  51.848  1.00  0.00     0.000 C 
BRANCH   2   3
ATOM      3  C   UNL     1       4.569  28.689  50.464  1.00  0.00     0.006 C 
BRANCH   3   4
ATOM      4  C   UNL     1       4.002  27.693  49.448  1.00  0.00     0.053 C 
BRANCH   4   5
ATOM      5  C   UNL     1       4.801  26.427  49.454  1.00  0.00     0.041 C 
ATOM      6  O   UNL     1       6.004  26.434  49.083  1.00  0.00    -0.550 OA
ATOM      7  O   UNL     1       4.230  25.248  49.918  1.00  0.00    -0.550 OA
ENDBRANCH   4   5
ENDBRANCH   3   4
ENDBRANCH   2   3
ENDBRANCH   1   2
BRANCH   1   8
ATOM      8  C   UNL     1       4.098  28.233  54.296  1.00  0.00     0.000 C 
BRANCH   8   9
ATOM      9  C   UNL     1       2.860  28.620  55.118  1.00  0.00    -0.000 C 
BRANCH   9  10
ATOM     10  C   UNL     1       3.025  28.324  56.618  1.00  0.00    -0.000 C 
BRANCH  10  11
ATOM     11  C   UNL     1       1.728  28.558  57.412  1.00  0.00    -0.000 C 
BRANCH  11  12
ATOM     12  C   UNL     1       0.473  28.447  56.534  1.00  0.00    -0.003 C 
ATOM     13  C   UNL     1      -0.605  29.465  56.907  1.00  0.00     0.004 C 
ENDBRANCH  11  12
ENDBRANCH  10  11
ENDBRANCH   9  10
ENDBRANCH   8   9
ENDBRANCH   1   8
TORSDOF 9
ENDMDL
MODEL 6
REMARK VINA RESULT:    -3.669      2.843      5.512
REMARK INTER + INTRA:          -6.237
REMARK INTER:                  -5.677
REMARK INTRA:                  -0.560
REMARK UNBOUND:                -0.638
REMARK SMILES CCCCCCCCCCC(=O)[O-]
REMARK SMILES IDX 7 1 8 2 9 3 10 4 11 5 12 6 13 7 6 8 5 9 4 10 3 11 2 12 1 13
REMARK H PARENT
REMARK Flexibility Score: inf
ROOT
ATOM      1  C   UNL     1       5.383  29.260  55.310  1.00  0.00     0.000 C 
ENDROOT
BRANCH   1   2
ATOM      2  C   UNL     1       4.886  28.968  56.731  1.00  0.00     0.000 C 
BRANCH   2   3
ATOM      3  C   UNL     1       3.830  27.857  56.726  1.00  0.00     0.006 C 
BRANCH   3   4
ATOM      4  C   UNL     1       2.655  28.213  57.644  1.00  0.00     0.053 C 
BRANCH   4   5
ATOM      5  C   UNL     1       1.459  28.604  56.834  1.00  0.00     0.041 C 
ATOM      6  O   UNL     1       1.327  28.185  55.655  1.00  0.00    -0.550 OA
ATOM      7  O   UNL     1       0.465  29.392  57.401  1.00  0.00    -0.550 OA
ENDBRANCH   4   5
ENDBRANCH   3   4
ENDBRANCH   2   3
ENDBRANCH   1   2
BRANCH   1   8
ATOM      8  C   UNL     1       4.443  28.653  54.261  1.00  0.00     0.000 C 
BRANCH   8   9
ATOM      9  C   UNL     1       3.971  29.720  53.263  1.00  0.00    -0.000 C 
BRANCH   9  10
ATOM     10  C   UNL     1       4.337  29.380  51.809  1.00  0.00    -0.000 C 
BRANCH  10  11
ATOM     11  C   UNL     1       4.713  27.899  51.626  1.00  0.00    -0.000 C 
BRANCH  11  12
ATOM     12  C   UNL     1       5.015  27.546  50.162  1.00  0.00    -0.003 C 
ATOM     13  C   UNL     1       4.414  26.206  49.738  1.00  0.00     0.004 C 
ENDBRANCH  11  12
ENDBRANCH  10  11
ENDBRANCH   9  10
ENDBRANCH   8   9
ENDBRANCH   1   8
TORSDOF 9
ENDMDL
MODEL 7
REMARK VINA RESULT:    -3.625      3.255      6.283
REMARK INTER + INTRA:          -6.171
REMARK INTER:                  -5.744
REMARK INTRA:                  -0.427
REMARK UNBOUND:                -0.638
REMARK SMILES CCCCCCCCCCC(=O)[O-]
REMARK SMILES IDX 7 1 8 2 9 3 10 4 11 5 12 6 13 7 6 8 5 9 4 10 3 11 2 12 1 13
REMARK H PARENT
REMARK Flexibility Score: inf
ROOT
ATOM      1  C   UNL     1       3.908  29.275  53.202  1.00  0.00     0.000 C 
ENDROOT
BRANCH   1   2
ATOM      2  C   UNL     1       4.570  29.051  54.567  1.00  0.00     0.000 C 
BRANCH   2   3
ATOM      3  C   UNL     1       3.951  27.847  55.287  1.00  0.00     0.006 C 
BRANCH   3   4
ATOM      4  C   UNL     1       3.247  28.281  56.576  1.00  0.00     0.053 C 
BRANCH   4   5
ATOM      5  C   UNL     1       1.790  28.516  56.323  1.00  0.00     0.041 C 
ATOM      6  O   UNL     1       1.233  28.014  55.312  1.00  0.00    -0.550 OA
ATOM      7  O   UNL     1       1.037  29.250  57.231  1.00  0.00    -0.550 OA
ENDBRANCH   4   5
ENDBRANCH   3   4
ENDBRANCH   2   3
ENDBRANCH   1   2
BRANCH   1   8
ATOM      8  C   UNL     1       4.778  28.716  52.070  1.00  0.00     0.000 C 
BRANCH   8   9
ATOM      9  C   UNL     1       4.280  29.205  50.701  1.00  0.00    -0.000 C 
BRANCH   9  10
ATOM     10  C   UNL     1       4.095  28.061  49.691  1.00  0.00    -0.000 C 
BRANCH  10  11
ATOM     11  C   UNL     1       5.039  26.877  49.961  1.00  0.00    -0.000 C 
BRANCH  11  12
ATOM     12  C   UNL     1       4.371  25.519  49.694  1.00  0.00    -0.003 C 
ATOM     13  C   UNL     1       5.368  24.438  49.277  1.00  0.00     0.004 C 
ENDBRANCH  11  12
ENDBRANCH  10  11
ENDBRANCH   9  10
ENDBRANCH   8   9
ENDBRANCH   1   8
TORSDOF 9
ENDMDL
MODEL 8
REMARK VINA RESULT:    -3.592     10.388     12.219
REMARK INTER + INTRA:          -6.121
REMARK INTER:                  -5.434
REMARK INTRA:                  -0.687
REMARK UNBOUND:                -0.638
REMARK SMILES CCCCCCCCCCC(=O)[O-]
REMARK SMILES IDX 7 1 8 2 9 3 10 4 11 5 12 6 13 7 6 8 5 9 4 10 3 11 2 12 1 13
REMARK H PARENT
REMARK Flexibility Score: inf
ROOT
ATOM      1  C   UNL     1      -5.297  30.879  59.521  1.00  0.00     0.000 C 
ENDROOT
BRANCH   1   2
ATOM      2  C   UNL     1      -6.294  31.865  58.900  1.00  0.00     0.000 C 
BRANCH   2   3
ATOM      3  C   UNL     1      -7.703  31.653  59.467  1.00  0.00     0.006 C 
BRANCH   3   4
ATOM      4  C   UNL     1      -8.755  31.706  58.355  1.00  0.00     0.053 C 
BRANCH   4   5
ATOM      5  C   UNL     1      -9.847  32.665  58.712  1.00  0.00     0.041 C 
ATOM      6  O   UNL     1      -9.866  33.819  58.209  1.00  0.00    -0.550 OA
ATOM      7  O   UNL     1     -10.870  32.267  59.563  1.00  0.00    -0.550 OA
ENDBRANCH   4   5
ENDBRANCH   3   4
ENDBRANCH   2   3
ENDBRANCH   1   2
BRANCH   1   8
ATOM      8  C   UNL     1      -4.759  29.903  58.468  1.00  0.00     0.000 C 
BRANCH   8   9
ATOM      9  C   UNL     1      -5.654  28.659  58.362  1.00  0.00    -0.000 C 
BRANCH   9  10
ATOM     10  C   UNL     1      -6.594  28.703  57.146  1.00  0.00    -0.000 C 
BRANCH  10  11
ATOM     11  C   UNL     1      -7.649  27.584  57.174  1.00  0.00    -0.000 C 
BRANCH  11  12
ATOM     12  C   UNL     1      -7.705  26.796  55.857  1.00  0.00    -0.003 C 
ATOM     13  C   UNL     1      -6.529  27.103  54.930  1.00  0.00     0.004 C 
ENDBRANCH  11  12
ENDBRANCH  10  11
ENDBRANCH   9  10
ENDBRANCH   8   9
ENDBRANCH   1   8
TORSDOF 9
ENDMDL
MODEL 9
REMARK VINA RESULT:    -3.354     10.425     11.668
REMARK INTER + INTRA:          -5.756
REMARK INTER:                  -4.962
REMARK INTRA:                  -0.794
REMARK UNBOUND:                -0.638
REMARK SMILES CCCCCCCCCCC(=O)[O-]
REMARK SMILES IDX 7 1 8 2 9 3 10 4 11 5 12 6 13 7 6 8 5 9 4 10 3 11 2 12 1 13
REMARK H PARENT
REMARK Flexibility Score: inf
ROOT
ATOM      1  C   UNL     1      -7.308  27.292  57.106  1.00  0.00     0.000 C 
ENDROOT
BRANCH   1   2
ATOM      2  C   UNL     1      -6.496  28.331  57.890  1.00  0.00     0.000 C 
BRANCH   2   3
ATOM      3  C   UNL     1      -7.168  29.707  57.837  1.00  0.00     0.006 C 
BRANCH   3   4
ATOM      4  C   UNL     1      -6.133  30.828  57.977  1.00  0.00     0.053 C 
BRANCH   4   5
ATOM      5  C   UNL     1      -5.952  31.196  59.417  1.00  0.00     0.041 C 
ATOM      6  O   UNL     1      -6.949  31.501  60.123  1.00  0.00    -0.550 OA
ATOM      7  O   UNL     1      -4.688  31.153  59.991  1.00  0.00    -0.550 OA
ENDBRANCH   4   5
ENDBRANCH   3   4
ENDBRANCH   2   3
ENDBRANCH   1   2
BRANCH   1   8
ATOM      8  C   UNL     1      -8.295  27.971  56.149  1.00  0.00     0.000 C 
BRANCH   8   9
ATOM      9  C   UNL     1      -7.844  27.811  54.689  1.00  0.00    -0.000 C 
BRANCH   9  10
ATOM     10  C   UNL     1      -6.854  26.650  54.496  1.00  0.00    -0.000 C 
BRANCH  10  11
ATOM     11  C   UNL     1      -7.442  25.508  53.649  1.00  0.00    -0.000 C 
BRANCH  11  12
ATOM     12  C   UNL     1      -8.236  24.499  54.492  1.00  0.00    -0.003 C 
ATOM     13  C   UNL     1      -7.422  23.919  55.649  1.00  0.00     0.004 C 
ENDBRANCH  11  12
ENDBRANCH  10  11
ENDBRANCH   9  10
ENDBRANCH   8   9
ENDBRANCH   1   8
TORSDOF 9
ENDMDL
