MODEL 1
REMARK VINA RESULT:    -3.825      0.000      0.000
REMARK INTER + INTRA:          -5.001
REMARK INTER:                  -4.719
REMARK INTRA:                  -0.282
REMARK UNBOUND:                -0.282
REMARK SMILES C=CC[C@H](C)C(=O)CC
REMARK SMILES IDX 4 1 5 2 6 3 7 4 8 5 9 6 3 7 2 8 1 9
REMARK H PARENT
REMARK Flexibility Score: inf
ROOT
ATOM      1  C   UNL     1      45.179  57.003  27.426  1.00  0.00     0.057 C 
ATOM      2  C   UNL     1      46.689  57.228  27.592  1.00  0.00     0.016 C 
ENDROOT
BRANCH   1   3
ATOM      3  C   UNL     1      44.644  57.811  26.262  1.00  0.00     0.135 C 
ATOM      4  O   UNL     1      44.108  57.229  25.330  1.00  0.00    -0.299 OA
BRANCH   3   5
ATOM      5  C   UNL     1      44.729  59.318  26.228  1.00  0.00     0.072 C 
ATOM      6  C   UNL     1      45.501  59.793  25.002  1.00  0.00     0.012 C 
ENDBRANCH   3   5
ENDBRANCH   1   3
BRANCH   1   7
ATOM      7  C   UNL     1      44.401  57.327  28.718  1.00  0.00     0.038 C 
BRANCH   7   8
ATOM      8  C   UNL     1      43.000  56.775  28.669  1.00  0.00    -0.034 C 
ATOM      9  C   UNL     1      42.738  55.554  28.195  1.00  0.00     0.004 C 
ENDBRANCH   7   8
ENDBRANCH   1   7
TORSDOF 4
ENDMDL
MODEL 2
REMARK VINA RESULT:    -3.753      1.796      2.755
REMARK INTER + INTRA:          -4.913
REMARK INTER:                  -4.533
REMARK INTRA:                  -0.380
REMARK UNBOUND:                -0.282
REMARK SMILES C=CC[C@H](C)C(=O)CC
REMARK SMILES IDX 4 1 5 2 6 3 7 4 8 5 9 6 3 7 2 8 1 9
REMARK H PARENT
REMARK Flexibility Score: inf
ROOT
ATOM      1  C   UNL     1      45.433  58.494  27.865  1.00  0.00     0.057 C 
ATOM      2  C   UNL     1      44.657  58.962  26.626  1.00  0.00     0.016 C 
ENDROOT
BRANCH   1   3
ATOM      3  C   UNL     1      46.813  58.003  27.478  1.00  0.00     0.135 C 
ATOM      4  O   UNL     1      47.710  58.818  27.319  1.00  0.00    -0.299 OA
BRANCH   3   5
ATOM      5  C   UNL     1      47.121  56.536  27.305  1.00  0.00     0.072 C 
ATOM      6  C   UNL     1      46.868  56.090  25.869  1.00  0.00     0.012 C 
ENDBRANCH   3   5
ENDBRANCH   1   3
BRANCH   1   7
ATOM      7  C   UNL     1      44.669  57.407  28.650  1.00  0.00     0.038 C 
BRANCH   7   8
ATOM      8  C   UNL     1      43.520  56.855  27.848  1.00  0.00    -0.034 C 
ATOM      9  C   UNL     1      42.749  55.865  28.308  1.00  0.00     0.004 C 
ENDBRANCH   7   8
ENDBRANCH   1   7
TORSDOF 4
ENDMDL
MODEL 3
REMARK VINA RESULT:    -3.709      1.673      2.659
REMARK INTER + INTRA:          -4.859
REMARK INTER:                  -4.451
REMARK INTRA:                  -0.408
REMARK UNBOUND:                -0.282
REMARK SMILES C=CC[C@H](C)C(=O)CC
REMARK SMILES IDX 4 1 5 2 6 3 7 4 8 5 9 6 3 7 2 8 1 9
REMARK H PARENT
REMARK Flexibility Score: inf
ROOT
ATOM      1  C   UNL     1      46.254  57.486  27.732  1.00  0.00     0.057 C 
ATOM      2  C   UNL     1      47.338  58.541  27.470  1.00  0.00     0.016 C 
ENDROOT
BRANCH   1   3
ATOM      3  C   UNL     1      45.993  56.667  26.485  1.00  0.00     0.135 C 
ATOM      4  O   UNL     1      45.540  57.221  25.494  1.00  0.00    -0.299 OA
BRANCH   3   5
ATOM      5  C   UNL     1      46.297  55.190  26.418  1.00  0.00     0.072 C 
ATOM      6  C   UNL     1      45.016  54.376  26.267  1.00  0.00     0.012 C 
ENDBRANCH   3   5
ENDBRANCH   1   3
BRANCH   1   7
ATOM      7  C   UNL     1      44.946  58.117  28.253  1.00  0.00     0.038 C 
BRANCH   7   8
ATOM      8  C   UNL     1      44.144  57.131  29.061  1.00  0.00    -0.034 C 
ATOM      9  C   UNL     1      43.014  56.590  28.595  1.00  0.00     0.004 C 
ENDBRANCH   7   8
ENDBRANCH   1   7
TORSDOF 4
ENDMDL
MODEL 4
REMARK VINA RESULT:    -3.674      1.516      4.061
REMARK INTER + INTRA:          -4.815
REMARK INTER:                  -4.558
REMARK INTRA:                  -0.257
REMARK UNBOUND:                -0.282
REMARK SMILES C=CC[C@H](C)C(=O)CC
REMARK SMILES IDX 4 1 5 2 6 3 7 4 8 5 9 6 3 7 2 8 1 9
REMARK H PARENT
REMARK Flexibility Score: inf
ROOT
ATOM      1  C   UNL     1      46.456  57.400  27.768  1.00  0.00     0.057 C 
ATOM      2  C   UNL     1      46.569  56.333  26.670  1.00  0.00     0.016 C 
ENDROOT
BRANCH   1   3
ATOM      3  C   UNL     1      45.014  57.826  27.953  1.00  0.00     0.135 C 
ATOM      4  O   UNL     1      44.520  58.611  27.156  1.00  0.00    -0.299 OA
BRANCH   3   5
ATOM      5  C   UNL     1      44.159  57.293  29.076  1.00  0.00     0.072 C 
ATOM      6  C   UNL     1      43.096  56.337  28.546  1.00  0.00     0.012 C 
ENDBRANCH   3   5
ENDBRANCH   1   3
BRANCH   1   7
ATOM      7  C   UNL     1      47.352  58.623  27.481  1.00  0.00     0.038 C 
BRANCH   7   8
ATOM      8  C   UNL     1      47.808  58.646  26.046  1.00  0.00    -0.034 C 
ATOM      9  C   UNL     1      47.493  59.648  25.220  1.00  0.00     0.004 C 
ENDBRANCH   7   8
ENDBRANCH   1   7
TORSDOF 4
ENDMDL
MODEL 5
REMARK VINA RESULT:    -3.571      1.613      2.018
REMARK INTER + INTRA:          -4.688
REMARK INTER:                  -4.449
REMARK INTRA:                  -0.239
REMARK UNBOUND:                -0.282
REMARK SMILES C=CC[C@H](C)C(=O)CC
REMARK SMILES IDX 4 1 5 2 6 3 7 4 8 5 9 6 3 7 2 8 1 9
REMARK H PARENT
REMARK Flexibility Score: inf
ROOT
ATOM      1  C   UNL     1      44.654  57.020  27.996  1.00  0.00     0.057 C 
ATOM      2  C   UNL     1      44.061  57.251  29.394  1.00  0.00     0.016 C 
ENDROOT
BRANCH   1   3
ATOM      3  C   UNL     1      45.298  58.288  27.474  1.00  0.00     0.135 C 
ATOM      4  O   UNL     1      46.393  58.619  27.904  1.00  0.00    -0.299 OA
BRANCH   3   5
ATOM      5  C   UNL     1      44.640  59.144  26.418  1.00  0.00     0.072 C 
ATOM      6  C   UNL     1      45.522  59.258  25.180  1.00  0.00     0.012 C 
ENDBRANCH   3   5
ENDBRANCH   1   3
BRANCH   1   7
ATOM      7  C   UNL     1      43.599  56.495  27.000  1.00  0.00     0.038 C 
BRANCH   7   8
ATOM      8  C   UNL     1      42.490  55.762  27.708  1.00  0.00    -0.034 C 
ATOM      9  C   UNL     1      41.203  56.000  27.441  1.00  0.00     0.004 C 
ENDBRANCH   7   8
ENDBRANCH   1   7
TORSDOF 4
ENDMDL
MODEL 6
REMARK VINA RESULT:    -3.534      1.334      3.686
REMARK INTER + INTRA:          -4.642
REMARK INTER:                  -4.350
REMARK INTRA:                  -0.292
REMARK UNBOUND:                -0.282
REMARK SMILES C=CC[C@H](C)C(=O)CC
REMARK SMILES IDX 4 1 5 2 6 3 7 4 8 5 9 6 3 7 2 8 1 9
REMARK H PARENT
REMARK Flexibility Score: inf
ROOT
ATOM      1  C   UNL     1      45.395  58.528  27.770  1.00  0.00     0.057 C 
ATOM      2  C   UNL     1      46.925  58.500  27.644  1.00  0.00     0.016 C 
ENDROOT
BRANCH   1   3
ATOM      3  C   UNL     1      44.851  57.132  27.993  1.00  0.00     0.135 C 
ATOM      4  O   UNL     1      45.347  56.197  27.383  1.00  0.00    -0.299 OA
BRANCH   3   5
ATOM      5  C   UNL     1      43.731  56.856  28.967  1.00  0.00     0.072 C 
ATOM      6  C   UNL     1      42.549  56.195  28.265  1.00  0.00     0.012 C 
ENDBRANCH   3   5
ENDBRANCH   1   3
BRANCH   1   7
ATOM      7  C   UNL     1      44.726  59.183  26.544  1.00  0.00     0.038 C 
BRANCH   7   8
ATOM      8  C   UNL     1      45.602  59.088  25.322  1.00  0.00    -0.034 C 
ATOM      9  C   UNL     1      45.289  58.301  24.289  1.00  0.00     0.004 C 
ENDBRANCH   7   8
ENDBRANCH   1   7
TORSDOF 4
ENDMDL
MODEL 7
REMARK VINA RESULT:    -3.490      1.616      3.093
REMARK INTER + INTRA:          -4.588
REMARK INTER:                  -4.096
REMARK INTRA:                  -0.492
REMARK UNBOUND:                -0.282
REMARK SMILES C=CC[C@H](C)C(=O)CC
REMARK SMILES IDX 4 1 5 2 6 3 7 4 8 5 9 6 3 7 2 8 1 9
REMARK H PARENT
REMARK Flexibility Score: inf
ROOT
ATOM      1  C   UNL     1      45.168  58.454  27.917  1.00  0.00     0.057 C 
ATOM      2  C   UNL     1      44.478  57.342  28.719  1.00  0.00     0.016 C 
ENDROOT
BRANCH   1   3
ATOM      3  C   UNL     1      44.614  58.519  26.509  1.00  0.00     0.135 C 
ATOM      4  O   UNL     1      44.869  59.492  25.814  1.00  0.00    -0.299 OA
BRANCH   3   5
ATOM      5  C   UNL     1      43.776  57.407  25.925  1.00  0.00     0.072 C 
ATOM      6  C   UNL     1      44.382  56.893  24.624  1.00  0.00     0.012 C 
ENDBRANCH   3   5
ENDBRANCH   1   3
BRANCH   1   7
ATOM      7  C   UNL     1      46.701  58.281  27.891  1.00  0.00     0.038 C 
BRANCH   7   8
ATOM      8  C   UNL     1      47.092  56.907  27.414  1.00  0.00    -0.034 C 
ATOM      9  C   UNL     1      47.904  56.727  26.368  1.00  0.00     0.004 C 
ENDBRANCH   7   8
ENDBRANCH   1   7
TORSDOF 4
ENDMDL
MODEL 8
REMARK VINA RESULT:    -3.453      1.795      2.605
REMARK INTER + INTRA:          -4.543
REMARK INTER:                  -4.228
REMARK INTRA:                  -0.315
REMARK UNBOUND:                -0.282
REMARK SMILES C=CC[C@H](C)C(=O)CC
REMARK SMILES IDX 4 1 5 2 6 3 7 4 8 5 9 6 3 7 2 8 1 9
REMARK H PARENT
REMARK Flexibility Score: inf
ROOT
ATOM      1  C   UNL     1      44.875  58.848  26.304  1.00  0.00     0.057 C 
ATOM      2  C   UNL     1      44.227  57.609  25.670  1.00  0.00     0.016 C 
ENDROOT
BRANCH   1   3
ATOM      3  C   UNL     1      46.051  59.320  25.475  1.00  0.00     0.135 C 
ATOM      4  O   UNL     1      45.840  59.937  24.441  1.00  0.00    -0.299 OA
BRANCH   3   5
ATOM      5  C   UNL     1      47.479  59.073  25.897  1.00  0.00     0.072 C 
ATOM      6  C   UNL     1      48.021  57.793  25.269  1.00  0.00     0.012 C 
ENDBRANCH   3   5
ENDBRANCH   1   3
BRANCH   1   7
ATOM      7  C   UNL     1      45.306  58.591  27.763  1.00  0.00     0.038 C 
BRANCH   7   8
ATOM      8  C   UNL     1      44.823  57.251  28.253  1.00  0.00    -0.034 C 
ATOM      9  C   UNL     1      43.971  57.138  29.276  1.00  0.00     0.004 C 
ENDBRANCH   7   8
ENDBRANCH   1   7
TORSDOF 4
ENDMDL
MODEL 9
REMARK VINA RESULT:    -3.403      1.911      2.822
REMARK INTER + INTRA:          -4.481
REMARK INTER:                  -4.022
REMARK INTRA:                  -0.459
REMARK UNBOUND:                -0.282
REMARK SMILES C=CC[C@H](C)C(=O)CC
REMARK SMILES IDX 4 1 5 2 6 3 7 4 8 5 9 6 3 7 2 8 1 9
REMARK H PARENT
REMARK Flexibility Score: inf
ROOT
ATOM      1  C   UNL     1      45.048  56.976  28.161  1.00  0.00     0.057 C 
ATOM      2  C   UNL     1      43.853  57.192  29.099  1.00  0.00     0.016 C 
ENDROOT
BRANCH   1   3
ATOM      3  C   UNL     1      45.525  58.297  27.591  1.00  0.00     0.135 C 
ATOM      4  O   UNL     1      46.616  58.731  27.928  1.00  0.00    -0.299 OA
BRANCH   3   5
ATOM      5  C   UNL     1      44.703  59.083  26.598  1.00  0.00     0.072 C 
ATOM      6  C   UNL     1      45.488  59.330  25.314  1.00  0.00     0.012 C 
ENDBRANCH   3   5
ENDBRANCH   1   3
BRANCH   1   7
ATOM      7  C   UNL     1      44.723  55.981  27.028  1.00  0.00     0.038 C 
BRANCH   7   8
ATOM      8  C   UNL     1      45.974  55.506  26.336  1.00  0.00    -0.034 C 
ATOM      9  C   UNL     1      46.115  55.571  25.009  1.00  0.00     0.004 C 
ENDBRANCH   7   8
ENDBRANCH   1   7
TORSDOF 4
ENDMDL
