MODEL 1
REMARK VINA RESULT:    -3.964      0.000      0.000
REMARK INTER + INTRA:          -4.080
REMARK INTER:                  -4.080
REMARK INTRA:                   0.000
REMARK UNBOUND:                 0.000
REMARK SMILES Oc1ccc2[nH]ccc2c1
REMARK SMILES IDX 3 1 4 2 5 3 9 4 8 5 7 6 6 7 10 8 2 9 1 11
REMARK H PARENT 6 10 1 12
REMARK Flexibility Score: inf
ROOT
ATOM      1  C   UNL     1      18.318  24.828  45.220  1.00  0.00     0.048 A 
ATOM      2  C   UNL     1      19.501  24.573  44.501  1.00  0.00     0.030 A 
ATOM      3  C   UNL     1      20.389  23.634  45.021  1.00  0.00     0.046 A 
ATOM      4  C   UNL     1      20.135  22.974  46.193  1.00  0.00     0.003 A 
ATOM      5  C   UNL     1      21.194  22.127  46.428  1.00  0.00     0.028 A 
ATOM      6  C   UNL     1      22.060  22.322  45.356  1.00  0.00     0.083 A 
ATOM      7  N   UNL     1      21.564  23.244  44.499  1.00  0.00    -0.361 N 
ATOM      8  C   UNL     1      18.975  23.203  46.930  1.00  0.00     0.056 A 
ATOM      9  C   UNL     1      18.053  24.148  46.431  1.00  0.00     0.116 A 
ATOM     10  H   UNL     1      22.007  23.580  43.616  1.00  0.00     0.166 HD
ENDROOT
BRANCH   9  11
ATOM     11  O   UNL     1      16.875  24.420  47.124  1.00  0.00    -0.508 OA
ATOM     12  H   UNL     1      16.590  25.370  47.329  1.00  0.00     0.293 HD
ENDBRANCH   9  11
TORSDOF 1
ENDMDL
MODEL 2
REMARK VINA RESULT:    -3.729      2.578      4.024
REMARK INTER + INTRA:          -3.838
REMARK INTER:                  -3.838
REMARK INTRA:                   0.000
REMARK UNBOUND:                 0.000
REMARK SMILES Oc1ccc2[nH]ccc2c1
REMARK SMILES IDX 3 1 4 2 5 3 9 4 8 5 7 6 6 7 10 8 2 9 1 11
REMARK H PARENT 6 10 1 12
REMARK Flexibility Score: inf
ROOT
ATOM      1  C   UNL     1      20.498  22.374  46.808  1.00  0.00     0.048 A 
ATOM      2  C   UNL     1      19.223  22.879  47.125  1.00  0.00     0.030 A 
ATOM      3  C   UNL     1      18.563  23.634  46.157  1.00  0.00     0.046 A 
ATOM      4  C   UNL     1      19.124  23.885  44.934  1.00  0.00     0.003 A 
ATOM      5  C   UNL     1      18.229  24.649  44.219  1.00  0.00     0.028 A 
ATOM      6  C   UNL     1      17.141  24.826  45.070  1.00  0.00     0.083 A 
ATOM      7  N   UNL     1      17.351  24.203  46.253  1.00  0.00    -0.361 N 
ATOM      8  C   UNL     1      20.384  23.401  44.588  1.00  0.00     0.056 A 
ATOM      9  C   UNL     1      21.081  22.633  45.545  1.00  0.00     0.116 A 
ATOM     10  H   UNL     1      16.701  24.175  47.069  1.00  0.00     0.166 HD
ENDROOT
BRANCH   9  11
ATOM     11  O   UNL     1      22.344  22.121  45.256  1.00  0.00    -0.508 OA
ATOM     12  H   UNL     1      22.972  21.822  45.992  1.00  0.00     0.293 HD
ENDBRANCH   9  11
TORSDOF 1
ENDMDL
MODEL 3
REMARK VINA RESULT:    -3.009     20.885     22.081
REMARK INTER + INTRA:          -3.097
REMARK INTER:                  -3.097
REMARK INTRA:                   0.000
REMARK UNBOUND:                 0.000
REMARK SMILES Oc1ccc2[nH]ccc2c1
REMARK SMILES IDX 3 1 4 2 5 3 9 4 8 5 7 6 6 7 10 8 2 9 1 11
REMARK H PARENT 6 10 1 12
REMARK Flexibility Score: inf
ROOT
ATOM      1  C   UNL     1      30.559  23.258  28.413  1.00  0.00     0.048 A 
ATOM      2  C   UNL     1      31.835  22.831  28.827  1.00  0.00     0.030 A 
ATOM      3  C   UNL     1      32.945  23.443  28.249  1.00  0.00     0.046 A 
ATOM      4  C   UNL     1      32.815  24.428  27.307  1.00  0.00     0.003 A 
ATOM      5  C   UNL     1      34.085  24.818  26.941  1.00  0.00     0.028 A 
ATOM      6  C   UNL     1      34.941  24.027  27.701  1.00  0.00     0.083 A 
ATOM      7  N   UNL     1      34.240  23.188  28.498  1.00  0.00    -0.361 N 
ATOM      8  C   UNL     1      31.569  24.874  26.875  1.00  0.00     0.056 A 
ATOM      9  C   UNL     1      30.422  24.276  27.440  1.00  0.00     0.116 A 
ATOM     10  H   UNL     1      34.630  22.489  29.168  1.00  0.00     0.166 HD
ENDROOT
BRANCH   9  11
ATOM     11  O   UNL     1      29.148  24.680  27.048  1.00  0.00    -0.508 OA
ATOM     12  H   UNL     1      28.504  25.105  27.704  1.00  0.00     0.293 HD
ENDBRANCH   9  11
TORSDOF 1
ENDMDL
MODEL 4
REMARK VINA RESULT:    -3.007     17.850     18.986
REMARK INTER + INTRA:          -3.095
REMARK INTER:                  -3.095
REMARK INTRA:                   0.000
REMARK UNBOUND:                 0.000
REMARK SMILES Oc1ccc2[nH]ccc2c1
REMARK SMILES IDX 3 1 4 2 5 3 9 4 8 5 7 6 6 7 10 8 2 9 1 11
REMARK H PARENT 6 10 1 12
REMARK Flexibility Score: inf
ROOT
ATOM      1  C   UNL     1      30.986  25.108  28.624  1.00  0.00     0.048 A 
ATOM      2  C   UNL     1      32.008  25.117  29.593  1.00  0.00     0.030 A 
ATOM      3  C   UNL     1      31.632  25.118  30.934  1.00  0.00     0.046 A 
ATOM      4  C   UNL     1      30.317  25.113  31.314  1.00  0.00     0.003 A 
ATOM      5  C   UNL     1      30.285  25.117  32.691  1.00  0.00     0.028 A 
ATOM      6  C   UNL     1      31.620  25.124  33.085  1.00  0.00     0.083 A 
ATOM      7  N   UNL     1      32.439  25.125  32.008  1.00  0.00    -0.361 N 
ATOM      8  C   UNL     1      29.282  25.105  30.382  1.00  0.00     0.056 A 
ATOM      9  C   UNL     1      29.627  25.103  29.013  1.00  0.00     0.116 A 
ATOM     10  H   UNL     1      33.483  25.130  32.016  1.00  0.00     0.166 HD
ENDROOT
BRANCH   9  11
ATOM     11  O   UNL     1      28.635  25.095  28.035  1.00  0.00    -0.508 OA
ATOM     12  H   UNL     1      28.834  24.809  27.084  1.00  0.00     0.293 HD
ENDBRANCH   9  11
TORSDOF 1
ENDMDL
MODEL 5
REMARK VINA RESULT:    -2.935     17.694     18.787
REMARK INTER + INTRA:          -3.021
REMARK INTER:                  -3.021
REMARK INTRA:                   0.000
REMARK UNBOUND:                 0.000
REMARK SMILES Oc1ccc2[nH]ccc2c1
REMARK SMILES IDX 3 1 4 2 5 3 9 4 8 5 7 6 6 7 10 8 2 9 1 11
REMARK H PARENT 6 10 1 12
REMARK Flexibility Score: inf
ROOT
ATOM      1  C   UNL     1      31.015  25.055  30.394  1.00  0.00     0.048 A 
ATOM      2  C   UNL     1      32.419  25.081  30.292  1.00  0.00     0.030 A 
ATOM      3  C   UNL     1      33.157  25.095  31.474  1.00  0.00     0.046 A 
ATOM      4  C   UNL     1      32.550  25.084  32.701  1.00  0.00     0.003 A 
ATOM      5  C   UNL     1      33.545  25.103  33.653  1.00  0.00     0.028 A 
ATOM      6  C   UNL     1      34.736  25.125  32.934  1.00  0.00     0.083 A 
ATOM      7  N   UNL     1      34.493  25.120  31.603  1.00  0.00    -0.361 N 
ATOM      8  C   UNL     1      31.164  25.059  32.837  1.00  0.00     0.056 A 
ATOM      9  C   UNL     1      30.386  25.044  31.660  1.00  0.00     0.116 A 
ATOM     10  H   UNL     1      35.203  25.132  30.837  1.00  0.00     0.166 HD
ENDROOT
BRANCH   9  11
ATOM     11  O   UNL     1      28.995  25.018  31.733  1.00  0.00    -0.508 OA
ATOM     12  H   UNL     1      28.504  25.325  32.564  1.00  0.00     0.293 HD
ENDBRANCH   9  11
TORSDOF 1
ENDMDL
MODEL 6
REMARK VINA RESULT:    -2.920      1.968      2.610
REMARK INTER + INTRA:          -3.006
REMARK INTER:                  -3.006
REMARK INTRA:                   0.000
REMARK UNBOUND:                 0.000
REMARK SMILES Oc1ccc2[nH]ccc2c1
REMARK SMILES IDX 3 1 4 2 5 3 9 4 8 5 7 6 6 7 10 8 2 9 1 11
REMARK H PARENT 6 10 1 12
REMARK Flexibility Score: inf
ROOT
ATOM      1  C   UNL     1      17.016  24.638  45.098  1.00  0.00     0.048 A 
ATOM      2  C   UNL     1      17.602  24.105  46.261  1.00  0.00     0.030 A 
ATOM      3  C   UNL     1      18.868  23.533  46.149  1.00  0.00     0.046 A 
ATOM      4  C   UNL     1      19.531  23.483  44.953  1.00  0.00     0.003 A 
ATOM      5  C   UNL     1      20.741  22.863  45.177  1.00  0.00     0.028 A 
ATOM      6  C   UNL     1      20.747  22.561  46.536  1.00  0.00     0.083 A 
ATOM      7  N   UNL     1      19.600  22.972  47.125  1.00  0.00    -0.361 N 
ATOM      8  C   UNL     1      18.980  24.001  43.783  1.00  0.00     0.056 A 
ATOM      9  C   UNL     1      17.699  24.588  43.861  1.00  0.00     0.116 A 
ATOM     10  H   UNL     1      19.343  22.872  48.131  1.00  0.00     0.166 HD
ENDROOT
BRANCH   9  11
ATOM     11  O   UNL     1      17.097  25.123  42.724  1.00  0.00    -0.508 OA
ATOM     12  H   UNL     1      17.078  26.122  42.558  1.00  0.00     0.293 HD
ENDBRANCH   9  11
TORSDOF 1
ENDMDL
MODEL 7
REMARK VINA RESULT:    -2.881     17.646     18.878
REMARK INTER + INTRA:          -2.965
REMARK INTER:                  -2.965
REMARK INTRA:                   0.000
REMARK UNBOUND:                 0.000
REMARK SMILES Oc1ccc2[nH]ccc2c1
REMARK SMILES IDX 3 1 4 2 5 3 9 4 8 5 7 6 6 7 10 8 2 9 1 11
REMARK H PARENT 6 10 1 12
REMARK Flexibility Score: inf
ROOT
ATOM      1  C   UNL     1      30.853  25.123  33.196  1.00  0.00     0.048 A 
ATOM      2  C   UNL     1      32.246  25.123  32.998  1.00  0.00     0.030 A 
ATOM      3  C   UNL     1      32.716  25.124  31.686  1.00  0.00     0.046 A 
ATOM      4  C   UNL     1      31.863  25.124  30.616  1.00  0.00     0.003 A 
ATOM      5  C   UNL     1      32.633  25.124  29.474  1.00  0.00     0.028 A 
ATOM      6  C   UNL     1      33.950  25.125  29.924  1.00  0.00     0.083 A 
ATOM      7  N   UNL     1      33.995  25.125  31.277  1.00  0.00    -0.361 N 
ATOM      8  C   UNL     1      30.479  25.123  30.777  1.00  0.00     0.056 A 
ATOM      9  C   UNL     1      29.969  25.122  32.093  1.00  0.00     0.116 A 
ATOM     10  H   UNL     1      34.851  25.125  31.874  1.00  0.00     0.166 HD
ENDROOT
BRANCH   9  11
ATOM     11  O   UNL     1      28.594  25.122  32.317  1.00  0.00    -0.508 OA
ATOM     12  H   UNL     1      28.094  25.977  32.529  1.00  0.00     0.293 HD
ENDBRANCH   9  11
TORSDOF 1
ENDMDL
MODEL 8
REMARK VINA RESULT:    -2.789     17.694     18.941
REMARK INTER + INTRA:          -2.870
REMARK INTER:                  -2.870
REMARK INTRA:                   0.000
REMARK UNBOUND:                 0.000
REMARK SMILES Oc1ccc2[nH]ccc2c1
REMARK SMILES IDX 3 1 4 2 5 3 9 4 8 5 7 6 6 7 10 8 2 9 1 11
REMARK H PARENT 6 10 1 12
REMARK Flexibility Score: inf
ROOT
ATOM      1  C   UNL     1      33.089  25.118  33.650  1.00  0.00     0.048 A 
ATOM      2  C   UNL     1      31.682  25.117  33.597  1.00  0.00     0.030 A 
ATOM      3  C   UNL     1      31.079  25.117  32.341  1.00  0.00     0.046 A 
ATOM      4  C   UNL     1      31.816  25.120  31.188  1.00  0.00     0.003 A 
ATOM      5  C   UNL     1      30.931  25.121  30.133  1.00  0.00     0.028 A 
ATOM      6  C   UNL     1      29.668  25.119  30.718  1.00  0.00     0.083 A 
ATOM      7  N   UNL     1      29.764  25.116  32.068  1.00  0.00    -0.361 N 
ATOM      8  C   UNL     1      33.209  25.122  31.205  1.00  0.00     0.056 A 
ATOM      9  C   UNL     1      33.853  25.121  32.460  1.00  0.00     0.116 A 
ATOM     10  H   UNL     1      28.975  25.114  32.751  1.00  0.00     0.166 HD
ENDROOT
BRANCH   9  11
ATOM     11  O   UNL     1      35.244  25.122  32.540  1.00  0.00    -0.508 OA
ATOM     12  H   UNL     1      35.750  25.911  32.925  1.00  0.00     0.293 HD
ENDBRANCH   9  11
TORSDOF 1
ENDMDL
