MODEL 1
REMARK VINA RESULT:    -2.436      0.000      0.000
REMARK INTER + INTRA:          -7.656
REMARK INTER:                  -4.715
REMARK INTRA:                  -2.942
REMARK UNBOUND:                -2.942
REMARK SMILES CCCCCCCCCCCCCCCCCC(=O)[O-]
REMARK SMILES IDX 10 1 11 2 12 3 13 4 14 5 15 6 16 7 17 8 18 9 19 10 20 11
REMARK SMILES IDX 9 12 8 13 7 14 6 15 5 16 4 17 3 18 2 19 1 20
REMARK H PARENT
REMARK Flexibility Score: inf
ROOT
ATOM      1  C   UNL     1      11.489  -8.733   4.120  1.00  0.00     0.000 C 
ENDROOT
BRANCH   1   2
ATOM      2  C   UNL     1      12.492  -8.242   5.184  1.00  0.00     0.000 C 
BRANCH   2   3
ATOM      3  C   UNL     1      13.869  -8.931   5.148  1.00  0.00     0.000 C 
BRANCH   3   4
ATOM      4  C   UNL     1      14.090  -9.882   6.338  1.00  0.00     0.000 C 
BRANCH   4   5
ATOM      5  C   UNL     1      14.999  -9.272   7.419  1.00  0.00     0.000 C 
BRANCH   5   6
ATOM      6  C   UNL     1      14.323  -9.226   8.800  1.00  0.00     0.000 C 
BRANCH   6   7
ATOM      7  C   UNL     1      14.263  -7.803   9.379  1.00  0.00     0.006 C 
BRANCH   7   8
ATOM      8  C   UNL     1      13.368  -6.866   8.559  1.00  0.00     0.053 C 
BRANCH   8   9
ATOM      9  C   UNL     1      14.181  -5.765   7.954  1.00  0.00     0.041 C 
ATOM     10  O   UNL     1      15.138  -5.257   8.596  1.00  0.00    -0.550 OA
ATOM     11  O   UNL     1      13.913  -5.333   6.661  1.00  0.00    -0.550 OA
ENDBRANCH   8   9
ENDBRANCH   7   8
ENDBRANCH   6   7
ENDBRANCH   5   6
ENDBRANCH   4   5
ENDBRANCH   3   4
ENDBRANCH   2   3
ENDBRANCH   1   2
BRANCH   1  12
ATOM     12  C   UNL     1      10.927 -10.149   4.353  1.00  0.00     0.000 C 
BRANCH  12  13
ATOM     13  C   UNL     1       9.393 -10.228   4.451  1.00  0.00    -0.000 C 
BRANCH  13  14
ATOM     14  C   UNL     1       8.708  -8.885   4.150  1.00  0.00    -0.000 C 
BRANCH  14  15
ATOM     15  C   UNL     1       7.878  -8.363   5.334  1.00  0.00    -0.000 C 
BRANCH  15  16
ATOM     16  C   UNL     1       8.625  -7.294   6.151  1.00  0.00    -0.000 C 
BRANCH  16  17
ATOM     17  C   UNL     1       8.516  -7.528   7.667  1.00  0.00    -0.000 C 
BRANCH  17  18
ATOM     18  C   UNL     1       8.944  -8.944   8.080  1.00  0.00    -0.000 C 
BRANCH  18  19
ATOM     19  C   UNL     1      10.469  -9.095   8.021  1.00  0.00    -0.003 C 
ATOM     20  C   UNL     1      10.880 -10.564   8.043  1.00  0.00     0.004 C 
ENDBRANCH  18  19
ENDBRANCH  17  18
ENDBRANCH  16  17
ENDBRANCH  15  16
ENDBRANCH  14  15
ENDBRANCH  13  14
ENDBRANCH  12  13
ENDBRANCH   1  12
TORSDOF 16
ENDMDL
MODEL 2
REMARK VINA RESULT:    -2.408      2.519      5.591
REMARK INTER + INTRA:          -7.601
REMARK INTER:                  -5.191
REMARK INTRA:                  -2.410
REMARK UNBOUND:                -2.942
REMARK SMILES CCCCCCCCCCCCCCCCCC(=O)[O-]
REMARK SMILES IDX 10 1 11 2 12 3 13 4 14 5 15 6 16 7 17 8 18 9 19 10 20 11
REMARK SMILES IDX 9 12 8 13 7 14 6 15 5 16 4 17 3 18 2 19 1 20
REMARK H PARENT
REMARK Flexibility Score: inf
ROOT
ATOM      1  C   UNL     1      15.936  -6.617   4.284  1.00  0.00     0.000 C 
ENDROOT
BRANCH   1   2
ATOM      2  C   UNL     1      15.562  -8.070   3.927  1.00  0.00     0.000 C 
BRANCH   2   3
ATOM      3  C   UNL     1      15.207  -8.966   5.128  1.00  0.00     0.000 C 
BRANCH   3   4
ATOM      4  C   UNL     1      13.691  -9.180   5.284  1.00  0.00     0.000 C 
BRANCH   4   5
ATOM      5  C   UNL     1      12.925  -8.946   3.971  1.00  0.00     0.000 C 
BRANCH   5   6
ATOM      6  C   UNL     1      11.802  -7.905   4.123  1.00  0.00     0.000 C 
BRANCH   6   7
ATOM      7  C   UNL     1      11.588  -7.477   5.584  1.00  0.00     0.006 C 
BRANCH   7   8
ATOM      8  C   UNL     1      10.151  -7.710   6.067  1.00  0.00     0.053 C 
BRANCH   8   9
ATOM      9  C   UNL     1      10.154  -8.379   7.406  1.00  0.00     0.041 C 
ATOM     10  O   UNL     1       9.116  -8.372   8.120  1.00  0.00    -0.550 OA
ATOM     11  O   UNL     1      11.287  -9.052   7.845  1.00  0.00    -0.550 OA
ENDBRANCH   8   9
ENDBRANCH   7   8
ENDBRANCH   6   7
ENDBRANCH   5   6
ENDBRANCH   4   5
ENDBRANCH   3   4
ENDBRANCH   2   3
ENDBRANCH   1   2
BRANCH   1  12
ATOM     12  C   UNL     1      14.798  -5.590   4.127  1.00  0.00     0.000 C 
BRANCH  12  13
ATOM     13  C   UNL     1      14.278  -4.994   5.447  1.00  0.00    -0.000 C 
BRANCH  13  14
ATOM     14  C   UNL     1      15.378  -4.858   6.512  1.00  0.00    -0.000 C 
BRANCH  14  15
ATOM     15  C   UNL     1      14.888  -5.224   7.923  1.00  0.00    -0.000 C 
BRANCH  15  16
ATOM     16  C   UNL     1      14.316  -6.651   7.994  1.00  0.00    -0.000 C 
BRANCH  16  17
ATOM     17  C   UNL     1      13.738  -6.986   9.380  1.00  0.00    -0.000 C 
BRANCH  17  18
ATOM     18  C   UNL     1      14.768  -6.816  10.508  1.00  0.00    -0.000 C 
BRANCH  18  19
ATOM     19  C   UNL     1      15.068  -8.160  11.182  1.00  0.00    -0.003 C 
ATOM     20  C   UNL     1      15.151  -8.011  12.698  1.00  0.00     0.004 C 
ENDBRANCH  18  19
ENDBRANCH  17  18
ENDBRANCH  16  17
ENDBRANCH  15  16
ENDBRANCH  14  15
ENDBRANCH  13  14
ENDBRANCH  12  13
ENDBRANCH   1  12
TORSDOF 16
ENDMDL
MODEL 3
REMARK VINA RESULT:    -2.322      3.046      6.146
REMARK INTER + INTRA:          -7.435
REMARK INTER:                  -4.742
REMARK INTRA:                  -2.693
REMARK UNBOUND:                -2.942
REMARK SMILES CCCCCCCCCCCCCCCCCC(=O)[O-]
REMARK SMILES IDX 10 1 11 2 12 3 13 4 14 5 15 6 16 7 17 8 18 9 19 10 20 11
REMARK SMILES IDX 9 12 8 13 7 14 6 15 5 16 4 17 3 18 2 19 1 20
REMARK H PARENT
REMARK Flexibility Score: inf
ROOT
ATOM      1  C   UNL     1      13.923  -9.216   7.822  1.00  0.00     0.000 C 
ENDROOT
BRANCH   1   2
ATOM      2  C   UNL     1      12.557  -8.867   7.196  1.00  0.00     0.000 C 
BRANCH   2   3
ATOM      3  C   UNL     1      12.175  -9.701   5.959  1.00  0.00     0.000 C 
BRANCH   3   4
ATOM      4  C   UNL     1      10.927  -9.160   5.238  1.00  0.00     0.000 C 
BRANCH   4   5
ATOM      5  C   UNL     1      10.494  -7.782   5.764  1.00  0.00     0.000 C 
BRANCH   5   6
ATOM      6  C   UNL     1       9.052  -7.782   6.301  1.00  0.00     0.000 C 
BRANCH   6   7
ATOM      7  C   UNL     1       8.996  -7.781   7.838  1.00  0.00     0.006 C 
BRANCH   7   8
ATOM      8  C   UNL     1       8.891  -9.193   8.429  1.00  0.00     0.053 C 
BRANCH   8   9
ATOM      9  C   UNL     1       8.244  -9.146   9.777  1.00  0.00     0.041 C 
ATOM     10  O   UNL     1       7.875  -8.046  10.266  1.00  0.00    -0.550 OA
ATOM     11  O   UNL     1       8.005 -10.325  10.474  1.00  0.00    -0.550 OA
ENDBRANCH   8   9
ENDBRANCH   7   8
ENDBRANCH   6   7
ENDBRANCH   5   6
ENDBRANCH   4   5
ENDBRANCH   3   4
ENDBRANCH   2   3
ENDBRANCH   1   2
BRANCH   1  12
ATOM     12  C   UNL     1      14.623  -8.056   8.556  1.00  0.00     0.000 C 
BRANCH  12  13
ATOM     13  C   UNL     1      13.900  -6.700   8.461  1.00  0.00    -0.000 C 
BRANCH  13  14
ATOM     14  C   UNL     1      14.696  -5.656   7.662  1.00  0.00    -0.000 C 
BRANCH  14  15
ATOM     15  C   UNL     1      13.884  -5.045   6.509  1.00  0.00    -0.000 C 
BRANCH  15  16
ATOM     16  C   UNL     1      14.491  -5.360   5.130  1.00  0.00    -0.000 C 
BRANCH  16  17
ATOM     17  C   UNL     1      13.674  -6.404   4.351  1.00  0.00    -0.000 C 
BRANCH  17  18
ATOM     18  C   UNL     1      14.497  -7.650   3.986  1.00  0.00    -0.000 C 
BRANCH  18  19
ATOM     19  C   UNL     1      15.990  -7.415   4.245  1.00  0.00    -0.003 C 
ATOM     20  C   UNL     1      16.516  -8.351   5.328  1.00  0.00     0.004 C 
ENDBRANCH  18  19
ENDBRANCH  17  18
ENDBRANCH  16  17
ENDBRANCH  15  16
ENDBRANCH  14  15
ENDBRANCH  13  14
ENDBRANCH  12  13
ENDBRANCH   1  12
TORSDOF 16
ENDMDL
MODEL 4
REMARK VINA RESULT:    -2.305      1.960      3.107
REMARK INTER + INTRA:          -7.403
REMARK INTER:                  -5.030
REMARK INTRA:                  -2.373
REMARK UNBOUND:                -2.942
REMARK SMILES CCCCCCCCCCCCCCCCCC(=O)[O-]
REMARK SMILES IDX 10 1 11 2 12 3 13 4 14 5 15 6 16 7 17 8 18 9 19 10 20 11
REMARK SMILES IDX 9 12 8 13 7 14 6 15 5 16 4 17 3 18 2 19 1 20
REMARK H PARENT
REMARK Flexibility Score: inf
ROOT
ATOM      1  C   UNL     1      13.797  -8.947   5.179  1.00  0.00     0.000 C 
ENDROOT
BRANCH   1   2
ATOM      2  C   UNL     1      13.702  -8.129   3.875  1.00  0.00     0.000 C 
BRANCH   2   3
ATOM      3  C   UNL     1      13.371  -6.638   4.064  1.00  0.00     0.000 C 
BRANCH   3   4
ATOM      4  C   UNL     1      14.611  -5.733   3.954  1.00  0.00     0.000 C 
BRANCH   4   5
ATOM      5  C   UNL     1      14.833  -4.881   5.215  1.00  0.00     0.000 C 
BRANCH   5   6
ATOM      6  C   UNL     1      13.837  -5.221   6.338  1.00  0.00     0.000 C 
BRANCH   6   7
ATOM      7  C   UNL     1      14.539  -5.639   7.641  1.00  0.00     0.006 C 
BRANCH   7   8
ATOM      8  C   UNL     1      15.702  -6.611   7.403  1.00  0.00     0.053 C 
BRANCH   8   9
ATOM      9  C   UNL     1      16.952  -6.095   8.043  1.00  0.00     0.041 C 
ATOM     10  O   UNL     1      17.141  -6.248   9.278  1.00  0.00    -0.550 OA
ATOM     11  O   UNL     1      17.930  -5.487   7.266  1.00  0.00    -0.550 OA
ENDBRANCH   8   9
ENDBRANCH   7   8
ENDBRANCH   6   7
ENDBRANCH   5   6
ENDBRANCH   4   5
ENDBRANCH   3   4
ENDBRANCH   2   3
ENDBRANCH   1   2
BRANCH   1  12
ATOM     12  C   UNL     1      13.148 -10.344   5.125  1.00  0.00     0.000 C 
BRANCH  12  13
ATOM     13  C   UNL     1      12.019 -10.494   4.089  1.00  0.00    -0.000 C 
BRANCH  13  14
ATOM     14  C   UNL     1      10.764 -11.165   4.670  1.00  0.00    -0.000 C 
BRANCH  14  15
ATOM     15  C   UNL     1       9.751 -10.150   5.225  1.00  0.00    -0.000 C 
BRANCH  15  16
ATOM     16  C   UNL     1      10.061  -8.708   4.784  1.00  0.00    -0.000 C 
BRANCH  16  17
ATOM     17  C   UNL     1      10.199  -7.745   5.974  1.00  0.00    -0.000 C 
BRANCH  17  18
ATOM     18  C   UNL     1      10.527  -8.469   7.289  1.00  0.00    -0.000 C 
BRANCH  18  19
ATOM     19  C   UNL     1       9.511  -8.110   8.380  1.00  0.00    -0.003 C 
ATOM     20  C   UNL     1       8.267  -7.457   7.783  1.00  0.00     0.004 C 
ENDBRANCH  18  19
ENDBRANCH  17  18
ENDBRANCH  16  17
ENDBRANCH  15  16
ENDBRANCH  14  15
ENDBRANCH  13  14
ENDBRANCH  12  13
ENDBRANCH   1  12
TORSDOF 16
ENDMDL
MODEL 5
REMARK VINA RESULT:    -2.291      2.121      3.930
REMARK INTER + INTRA:          -7.375
REMARK INTER:                  -4.972
REMARK INTRA:                  -2.403
REMARK UNBOUND:                -2.942
REMARK SMILES CCCCCCCCCCCCCCCCCC(=O)[O-]
REMARK SMILES IDX 10 1 11 2 12 3 13 4 14 5 15 6 16 7 17 8 18 9 19 10 20 11
REMARK SMILES IDX 9 12 8 13 7 14 6 15 5 16 4 17 3 18 2 19 1 20
REMARK H PARENT
REMARK Flexibility Score: inf
ROOT
ATOM      1  C   UNL     1      16.304  -7.529   5.230  1.00  0.00     0.000 C 
ENDROOT
BRANCH   1   2
ATOM      2  C   UNL     1      15.805  -6.882   3.922  1.00  0.00     0.000 C 
BRANCH   2   3
ATOM      3  C   UNL     1      14.754  -5.772   4.104  1.00  0.00     0.000 C 
BRANCH   3   4
ATOM      4  C   UNL     1      15.384  -4.387   4.331  1.00  0.00     0.000 C 
BRANCH   4   5
ATOM      5  C   UNL     1      15.000  -3.781   5.692  1.00  0.00     0.000 C 
BRANCH   5   6
ATOM      6  C   UNL     1      14.149  -4.738   6.544  1.00  0.00     0.000 C 
BRANCH   6   7
ATOM      7  C   UNL     1      14.885  -5.214   7.808  1.00  0.00     0.006 C 
BRANCH   7   8
ATOM      8  C   UNL     1      14.084  -6.250   8.606  1.00  0.00     0.053 C 
BRANCH   8   9
ATOM      9  C   UNL     1      14.580  -6.318  10.017  1.00  0.00     0.041 C 
ATOM     10  O   UNL     1      14.487  -7.391  10.669  1.00  0.00    -0.550 OA
ATOM     11  O   UNL     1      15.189  -5.211  10.593  1.00  0.00    -0.550 OA
ENDBRANCH   8   9
ENDBRANCH   7   8
ENDBRANCH   6   7
ENDBRANCH   5   6
ENDBRANCH   4   5
ENDBRANCH   3   4
ENDBRANCH   2   3
ENDBRANCH   1   2
BRANCH   1  12
ATOM     12  C   UNL     1      15.349  -8.565   5.856  1.00  0.00     0.000 C 
BRANCH  12  13
ATOM     13  C   UNL     1      14.652  -9.494   4.846  1.00  0.00    -0.000 C 
BRANCH  13  14
ATOM     14  C   UNL     1      13.122  -9.341   4.855  1.00  0.00    -0.000 C 
BRANCH  14  15
ATOM     15  C   UNL     1      12.612  -8.551   6.072  1.00  0.00    -0.000 C 
BRANCH  15  16
ATOM     16  C   UNL     1      11.773  -7.326   5.668  1.00  0.00    -0.000 C 
BRANCH  16  17
ATOM     17  C   UNL     1      10.264  -7.557   5.853  1.00  0.00    -0.000 C 
BRANCH  17  18
ATOM     18  C   UNL     1       9.953  -8.840   6.638  1.00  0.00    -0.000 C 
BRANCH  18  19
ATOM     19  C   UNL     1       9.452  -8.510   8.050  1.00  0.00    -0.003 C 
ATOM     20  C   UNL     1       9.182  -9.780   8.851  1.00  0.00     0.004 C 
ENDBRANCH  18  19
ENDBRANCH  17  18
ENDBRANCH  16  17
ENDBRANCH  15  16
ENDBRANCH  14  15
ENDBRANCH  13  14
ENDBRANCH  12  13
ENDBRANCH   1  12
TORSDOF 16
ENDMDL
MODEL 6
REMARK VINA RESULT:    -2.281      2.926      6.122
REMARK INTER + INTRA:          -7.356
REMARK INTER:                  -4.286
REMARK INTRA:                  -3.071
REMARK UNBOUND:                -2.942
REMARK SMILES CCCCCCCCCCCCCCCCCC(=O)[O-]
REMARK SMILES IDX 10 1 11 2 12 3 13 4 14 5 15 6 16 7 17 8 18 9 19 10 20 11
REMARK SMILES IDX 9 12 8 13 7 14 6 15 5 16 4 17 3 18 2 19 1 20
REMARK H PARENT
REMARK Flexibility Score: inf
ROOT
ATOM      1  C   UNL     1      16.191  -8.648   5.814  1.00  0.00     0.000 C 
ENDROOT
BRANCH   1   2
ATOM      2  C   UNL     1      15.622  -9.224   7.126  1.00  0.00     0.000 C 
BRANCH   2   3
ATOM      3  C   UNL     1      14.692  -8.276   7.906  1.00  0.00     0.000 C 
BRANCH   3   4
ATOM      4  C   UNL     1      13.323  -8.906   8.216  1.00  0.00     0.000 C 
BRANCH   4   5
ATOM      5  C   UNL     1      12.192  -8.306   7.365  1.00  0.00     0.000 C 
BRANCH   5   6
ATOM      6  C   UNL     1      11.894  -9.142   6.107  1.00  0.00     0.000 C 
BRANCH   6   7
ATOM      7  C   UNL     1      11.441  -8.277   4.919  1.00  0.00     0.006 C 
BRANCH   7   8
ATOM      8  C   UNL     1      10.101  -8.734   4.329  1.00  0.00     0.053 C 
BRANCH   8   9
ATOM      9  C   UNL     1       9.014  -8.616   5.351  1.00  0.00     0.041 C 
ATOM     10  O   UNL     1       8.728  -7.494   5.844  1.00  0.00    -0.550 OA
ATOM     11  O   UNL     1       8.285  -9.739   5.722  1.00  0.00    -0.550 OA
ENDBRANCH   8   9
ENDBRANCH   7   8
ENDBRANCH   6   7
ENDBRANCH   5   6
ENDBRANCH   4   5
ENDBRANCH   3   4
ENDBRANCH   2   3
ENDBRANCH   1   2
BRANCH   1  12
ATOM     12  C   UNL     1      15.151  -8.006   4.874  1.00  0.00     0.000 C 
BRANCH  12  13
ATOM     13  C   UNL     1      15.678  -6.828   4.035  1.00  0.00    -0.000 C 
BRANCH  13  14
ATOM     14  C   UNL     1      14.927  -5.516   4.316  1.00  0.00    -0.000 C 
BRANCH  14  15
ATOM     15  C   UNL     1      13.917  -5.645   5.468  1.00  0.00    -0.000 C 
BRANCH  15  16
ATOM     16  C   UNL     1      14.118  -4.569   6.549  1.00  0.00    -0.000 C 
BRANCH  16  17
ATOM     17  C   UNL     1      15.600  -4.352   6.897  1.00  0.00    -0.000 C 
BRANCH  17  18
ATOM     18  C   UNL     1      15.982  -4.943   8.263  1.00  0.00    -0.000 C 
BRANCH  18  19
ATOM     19  C   UNL     1      17.337  -5.656   8.191  1.00  0.00    -0.003 C 
ATOM     20  C   UNL     1      17.922  -5.591   6.783  1.00  0.00     0.004 C 
ENDBRANCH  18  19
ENDBRANCH  17  18
ENDBRANCH  16  17
ENDBRANCH  15  16
ENDBRANCH  14  15
ENDBRANCH  13  14
ENDBRANCH  12  13
ENDBRANCH   1  12
TORSDOF 16
ENDMDL
MODEL 7
REMARK VINA RESULT:    -2.245      3.064      5.844
REMARK INTER + INTRA:          -7.286
REMARK INTER:                  -4.359
REMARK INTRA:                  -2.927
REMARK UNBOUND:                -2.942
REMARK SMILES CCCCCCCCCCCCCCCCCC(=O)[O-]
REMARK SMILES IDX 10 1 11 2 12 3 13 4 14 5 15 6 16 7 17 8 18 9 19 10 20 11
REMARK SMILES IDX 9 12 8 13 7 14 6 15 5 16 4 17 3 18 2 19 1 20
REMARK H PARENT
REMARK Flexibility Score: inf
ROOT
ATOM      1  C   UNL     1      15.200 -10.512   5.910  1.00  0.00     0.000 C 
ENDROOT
BRANCH   1   2
ATOM      2  C   UNL     1      16.068  -9.320   5.456  1.00  0.00     0.000 C 
BRANCH   2   3
ATOM      3  C   UNL     1      15.363  -7.952   5.485  1.00  0.00     0.000 C 
BRANCH   3   4
ATOM      4  C   UNL     1      15.126  -7.373   4.079  1.00  0.00     0.000 C 
BRANCH   4   5
ATOM      5  C   UNL     1      13.805  -6.592   3.978  1.00  0.00     0.000 C 
BRANCH   5   6
ATOM      6  C   UNL     1      12.972  -6.674   5.269  1.00  0.00     0.000 C 
BRANCH   6   7
ATOM      7  C   UNL     1      11.564  -7.244   5.027  1.00  0.00     0.006 C 
BRANCH   7   8
ATOM      8  C   UNL     1      11.536  -8.305   3.920  1.00  0.00     0.053 C 
BRANCH   8   9
ATOM      9  C   UNL     1      10.369  -9.223   4.107  1.00  0.00     0.041 C 
ATOM     10  O   UNL     1       9.200  -8.816   3.875  1.00  0.00    -0.550 OA
ATOM     11  O   UNL     1      10.577 -10.542   4.490  1.00  0.00    -0.550 OA
ENDBRANCH   8   9
ENDBRANCH   7   8
ENDBRANCH   6   7
ENDBRANCH   5   6
ENDBRANCH   4   5
ENDBRANCH   3   4
ENDBRANCH   2   3
ENDBRANCH   1   2
BRANCH   1  12
ATOM     12  C   UNL     1      13.701 -10.202   6.088  1.00  0.00     0.000 C 
BRANCH  12  13
ATOM     13  C   UNL     1      13.196 -10.258   7.541  1.00  0.00    -0.000 C 
BRANCH  13  14
ATOM     14  C   UNL     1      12.842  -8.871   8.101  1.00  0.00    -0.000 C 
BRANCH  14  15
ATOM     15  C   UNL     1      13.971  -8.268   8.953  1.00  0.00    -0.000 C 
BRANCH  15  16
ATOM     16  C   UNL     1      14.130  -6.754   8.731  1.00  0.00    -0.000 C 
BRANCH  16  17
ATOM     17  C   UNL     1      15.590  -6.289   8.863  1.00  0.00    -0.000 C 
BRANCH  17  18
ATOM     18  C   UNL     1      15.792  -4.833   8.417  1.00  0.00    -0.000 C 
BRANCH  18  19
ATOM     19  C   UNL     1      15.779  -4.723   6.887  1.00  0.00    -0.003 C 
ATOM     20  C   UNL     1      14.689  -3.766   6.412  1.00  0.00     0.004 C 
ENDBRANCH  18  19
ENDBRANCH  17  18
ENDBRANCH  16  17
ENDBRANCH  15  16
ENDBRANCH  14  15
ENDBRANCH  13  14
ENDBRANCH  12  13
ENDBRANCH   1  12
TORSDOF 16
ENDMDL
MODEL 8
REMARK VINA RESULT:    -2.231      2.807      6.229
REMARK INTER + INTRA:          -7.260
REMARK INTER:                  -4.642
REMARK INTRA:                  -2.618
REMARK UNBOUND:                -2.942
REMARK SMILES CCCCCCCCCCCCCCCCCC(=O)[O-]
REMARK SMILES IDX 10 1 11 2 12 3 13 4 14 5 15 6 16 7 17 8 18 9 19 10 20 11
REMARK SMILES IDX 9 12 8 13 7 14 6 15 5 16 4 17 3 18 2 19 1 20
REMARK H PARENT
REMARK Flexibility Score: inf
ROOT
ATOM      1  C   UNL     1      16.558  -7.342   8.371  1.00  0.00     0.000 C 
ENDROOT
BRANCH   1   2
ATOM      2  C   UNL     1      15.433  -6.547   9.065  1.00  0.00     0.000 C 
BRANCH   2   3
ATOM      3  C   UNL     1      14.206  -7.380   9.479  1.00  0.00     0.000 C 
BRANCH   3   4
ATOM      4  C   UNL     1      14.364  -8.876   9.154  1.00  0.00     0.000 C 
BRANCH   4   5
ATOM      5  C   UNL     1      13.427  -9.336   8.024  1.00  0.00     0.000 C 
BRANCH   5   6
ATOM      6  C   UNL     1      12.365  -8.279   7.673  1.00  0.00     0.000 C 
BRANCH   6   7
ATOM      7  C   UNL     1      10.934  -8.766   7.953  1.00  0.00     0.006 C 
BRANCH   7   8
ATOM      8  C   UNL     1      10.276  -9.411   6.727  1.00  0.00     0.053 C 
BRANCH   8   9
ATOM      9  C   UNL     1       9.924  -8.367   5.714  1.00  0.00     0.041 C 
ATOM     10  O   UNL     1      10.296  -8.494   4.518  1.00  0.00    -0.550 OA
ATOM     11  O   UNL     1       9.145  -7.277   6.082  1.00  0.00    -0.550 OA
ENDBRANCH   8   9
ENDBRANCH   7   8
ENDBRANCH   6   7
ENDBRANCH   5   6
ENDBRANCH   4   5
ENDBRANCH   3   4
ENDBRANCH   2   3
ENDBRANCH   1   2
BRANCH   1  12
ATOM     12  C   UNL     1      17.312  -6.580   7.263  1.00  0.00     0.000 C 
BRANCH  12  13
ATOM     13  C   UNL     1      17.147  -7.165   5.849  1.00  0.00    -0.000 C 
BRANCH  13  14
ATOM     14  C   UNL     1      15.724  -7.681   5.581  1.00  0.00    -0.000 C 
BRANCH  14  15
ATOM     15  C   UNL     1      15.138  -7.149   4.263  1.00  0.00    -0.000 C 
BRANCH  15  16
ATOM     16  C   UNL     1      14.516  -5.750   4.418  1.00  0.00    -0.000 C 
BRANCH  16  17
ATOM     17  C   UNL     1      13.798  -5.570   5.765  1.00  0.00    -0.000 C 
BRANCH  17  18
ATOM     18  C   UNL     1      14.267  -4.320   6.525  1.00  0.00    -0.000 C 
BRANCH  18  19
ATOM     19  C   UNL     1      15.489  -3.691   5.843  1.00  0.00    -0.003 C 
ATOM     20  C   UNL     1      15.378  -2.169   5.807  1.00  0.00     0.004 C 
ENDBRANCH  18  19
ENDBRANCH  17  18
ENDBRANCH  16  17
ENDBRANCH  15  16
ENDBRANCH  14  15
ENDBRANCH  13  14
ENDBRANCH  12  13
ENDBRANCH   1  12
TORSDOF 16
ENDMDL
