MODEL 1
REMARK VINA RESULT:    -4.262      0.000      0.000
REMARK INTER + INTRA:          -7.689
REMARK INTER:                  -6.629
REMARK INTRA:                  -1.061
REMARK UNBOUND:                -1.061
REMARK SMILES COc1cc(CNC(=O)CCCCC=CC(C)C)ccc1O
REMARK SMILES IDX 11 1 12 2 13 3 14 4 15 5 16 6 17 7 18 8 10 9 8 10 9 11 7 12
REMARK SMILES IDX 6 14 5 15 4 16 19 17 3 18 20 19 21 20 2 21 1 22 22 23
REMARK H PARENT 7 13 22 24
REMARK Flexibility Score: inf
ROOT
ATOM      1  C   UNL     1       2.875  46.077 284.194  1.00  0.00     0.010 C 
ENDROOT
BRANCH   1   2
ATOM      2  C   UNL     1       3.381  45.626 285.574  1.00  0.00     0.005 C 
BRANCH   2   3
ATOM      3  C   UNL     1       3.010  46.626 286.679  1.00  0.00     0.027 C 
BRANCH   3   4
ATOM      4  C   UNL     1       3.400  48.036 286.327  1.00  0.00    -0.031 C 
ATOM      5  C   UNL     1       3.261  49.043 287.202  1.00  0.00    -0.028 C 
BRANCH   5   6
ATOM      6  C   UNL     1       3.644  50.460 286.838  1.00  0.00     0.005 C 
ATOM      7  C   UNL     1       3.008  50.865 285.503  1.00  0.00     0.012 C 
ATOM      8  C   UNL     1       5.169  50.600 286.765  1.00  0.00     0.012 C 
ENDBRANCH   5   6
ENDBRANCH   3   4
ENDBRANCH   2   3
ENDBRANCH   1   2
BRANCH   1   9
ATOM      9  C   UNL     1       3.219  45.070 283.089  1.00  0.00     0.100 C 
BRANCH   9  10
ATOM     10  C   UNL     1       3.919  45.727 281.934  1.00  0.00     0.220 C 
ATOM     11  O   UNL     1       5.024  45.268 281.539  1.00  0.00    -0.275 OA
ATOM     12  N   UNL     1       3.318  46.845 281.267  1.00  0.00    -0.352 N 
ATOM     13  H   UNL     1       2.374  47.174 281.574  1.00  0.00     0.163 HD
BRANCH  12  14
ATOM     14  C   UNL     1       3.968  47.539 280.158  1.00  0.00     0.151 C 
BRANCH  14  15
ATOM     15  C   UNL     1       4.108  49.004 280.471  1.00  0.00    -0.025 A 
ATOM     16  C   UNL     1       4.103  49.947 279.430  1.00  0.00     0.056 A 
ATOM     17  C   UNL     1       4.213  49.443 281.798  1.00  0.00     0.009 A 
ATOM     18  C   UNL     1       4.207  51.324 279.711  1.00  0.00     0.160 A 
ATOM     19  C   UNL     1       4.317  50.806 282.082  1.00  0.00     0.050 A 
ATOM     20  C   UNL     1       4.316  51.747 281.043  1.00  0.00     0.157 A 
BRANCH  18  21
ATOM     21  O   UNL     1       4.206  52.296 278.699  1.00  0.00    -0.493 OA
ATOM     22  C   UNL     1       3.068  52.644 277.915  1.00  0.00     0.278 C 
ENDBRANCH  18  21
BRANCH  20  23
ATOM     23  O   UNL     1       4.421  53.107 281.327  1.00  0.00    -0.504 OA
ATOM     24  H   UNL     1       3.803  53.787 280.900  1.00  0.00     0.293 HD
ENDBRANCH  20  23
ENDBRANCH  14  15
ENDBRANCH  12  14
ENDBRANCH   9  10
ENDBRANCH   1   9
TORSDOF 10
ENDMDL
MODEL 2
REMARK VINA RESULT:    -4.201      2.792      7.683
REMARK INTER + INTRA:          -7.595
REMARK INTER:                  -6.798
REMARK INTRA:                  -0.797
REMARK UNBOUND:                -1.061
REMARK SMILES COc1cc(CNC(=O)CCCCC=CC(C)C)ccc1O
REMARK SMILES IDX 11 1 12 2 13 3 14 4 15 5 16 6 17 7 18 8 10 9 8 10 9 11 7 12
REMARK SMILES IDX 6 14 5 15 4 16 19 17 3 18 20 19 21 20 2 21 1 22 22 23
REMARK H PARENT 7 13 22 24
REMARK Flexibility Score: inf
ROOT
ATOM      1  C   UNL     1       4.587  52.067 280.452  1.00  0.00     0.010 C 
ENDROOT
BRANCH   1   2
ATOM      2  C   UNL     1       3.835  53.407 280.512  1.00  0.00     0.005 C 
BRANCH   2   3
ATOM      3  C   UNL     1       4.794  54.607 280.506  1.00  0.00     0.027 C 
BRANCH   3   4
ATOM      4  C   UNL     1       4.612  55.476 279.291  1.00  0.00    -0.031 C 
ATOM      5  C   UNL     1       4.620  54.963 278.052  1.00  0.00    -0.028 C 
BRANCH   5   6
ATOM      6  C   UNL     1       4.449  55.842 276.834  1.00  0.00     0.005 C 
ATOM      7  C   UNL     1       3.201  55.431 276.042  1.00  0.00     0.012 C 
ATOM      8  C   UNL     1       5.693  55.770 275.942  1.00  0.00     0.012 C 
ENDBRANCH   5   6
ENDBRANCH   3   4
ENDBRANCH   2   3
ENDBRANCH   1   2
BRANCH   1   9
ATOM      9  C   UNL     1       4.363  51.332 279.124  1.00  0.00     0.100 C 
BRANCH   9  10
ATOM     10  C   UNL     1       4.333  49.843 279.310  1.00  0.00     0.220 C 
ATOM     11  O   UNL     1       4.701  49.094 278.365  1.00  0.00    -0.275 OA
ATOM     12  N   UNL     1       3.923  49.280 280.564  1.00  0.00    -0.352 N 
ATOM     13  H   UNL     1       3.676  49.919 281.353  1.00  0.00     0.163 HD
BRANCH  12  14
ATOM     14  C   UNL     1       3.847  47.838 280.788  1.00  0.00     0.151 C 
BRANCH  14  15
ATOM     15  C   UNL     1       3.814  47.542 282.264  1.00  0.00    -0.025 A 
ATOM     16  C   UNL     1       3.619  48.584 283.184  1.00  0.00     0.056 A 
ATOM     17  C   UNL     1       3.947  46.226 282.730  1.00  0.00     0.009 A 
ATOM     18  C   UNL     1       3.561  48.317 284.567  1.00  0.00     0.160 A 
ATOM     19  C   UNL     1       3.892  45.956 284.099  1.00  0.00     0.050 A 
ATOM     20  C   UNL     1       3.700  46.997 285.017  1.00  0.00     0.157 A 
BRANCH  18  21
ATOM     21  O   UNL     1       3.367  49.331 285.517  1.00  0.00    -0.493 OA
ATOM     22  C   UNL     1       4.415  50.081 286.122  1.00  0.00     0.278 C 
ENDBRANCH  18  21
BRANCH  20  23
ATOM     23  O   UNL     1       3.645  46.726 286.383  1.00  0.00    -0.504 OA
ATOM     24  H   UNL     1       4.000  47.383 287.069  1.00  0.00     0.293 HD
ENDBRANCH  20  23
ENDBRANCH  14  15
ENDBRANCH  12  14
ENDBRANCH   9  10
ENDBRANCH   1   9
TORSDOF 10
ENDMDL
MODEL 3
REMARK VINA RESULT:    -3.876      2.311      3.125
REMARK INTER + INTRA:          -7.090
REMARK INTER:                  -6.225
REMARK INTRA:                  -0.865
REMARK UNBOUND:                -1.061
REMARK SMILES COc1cc(CNC(=O)CCCCC=CC(C)C)ccc1O
REMARK SMILES IDX 11 1 12 2 13 3 14 4 15 5 16 6 17 7 18 8 10 9 8 10 9 11 7 12
REMARK SMILES IDX 6 14 5 15 4 16 19 17 3 18 20 19 21 20 2 21 1 22 22 23
REMARK H PARENT 7 13 22 24
REMARK Flexibility Score: inf
ROOT
ATOM      1  C   UNL     1       3.330  48.049 282.050  1.00  0.00     0.010 C 
ENDROOT
BRANCH   1   2
ATOM      2  C   UNL     1       3.872  47.146 283.171  1.00  0.00     0.005 C 
BRANCH   2   3
ATOM      3  C   UNL     1       2.898  47.048 284.354  1.00  0.00     0.027 C 
BRANCH   3   4
ATOM      4  C   UNL     1       2.890  48.298 285.192  1.00  0.00    -0.031 C 
ATOM      5  C   UNL     1       4.018  48.797 285.720  1.00  0.00    -0.028 C 
BRANCH   5   6
ATOM      6  C   UNL     1       4.002  50.047 286.571  1.00  0.00     0.005 C 
ATOM      7  C   UNL     1       3.213  51.164 285.875  1.00  0.00     0.012 C 
ATOM      8  C   UNL     1       5.433  50.511 286.867  1.00  0.00     0.012 C 
ENDBRANCH   5   6
ENDBRANCH   3   4
ENDBRANCH   2   3
ENDBRANCH   1   2
BRANCH   1   9
ATOM      9  C   UNL     1       3.720  47.545 280.655  1.00  0.00     0.100 C 
BRANCH   9  10
ATOM     10  C   UNL     1       3.988  48.678 279.708  1.00  0.00     0.220 C 
ATOM     11  O   UNL     1       4.615  48.453 278.637  1.00  0.00    -0.275 OA
ATOM     12  N   UNL     1       3.506  49.996 280.002  1.00  0.00    -0.352 N 
ATOM     13  H   UNL     1       2.940  50.149 280.868  1.00  0.00     0.163 HD
BRANCH  12  14
ATOM     14  C   UNL     1       3.765  51.139 279.130  1.00  0.00     0.151 C 
BRANCH  14  15
ATOM     15  C   UNL     1       3.692  52.421 279.916  1.00  0.00    -0.025 A 
ATOM     16  C   UNL     1       4.317  53.579 279.427  1.00  0.00     0.056 A 
ATOM     17  C   UNL     1       2.978  52.478 281.121  1.00  0.00     0.009 A 
ATOM     18  C   UNL     1       4.234  54.792 280.140  1.00  0.00     0.160 A 
ATOM     19  C   UNL     1       2.894  53.677 281.832  1.00  0.00     0.050 A 
ATOM     20  C   UNL     1       3.521  54.832 281.347  1.00  0.00     0.157 A 
BRANCH  18  21
ATOM     21  O   UNL     1       4.845  55.970 279.685  1.00  0.00    -0.493 OA
ATOM     22  C   UNL     1       6.147  56.034 279.110  1.00  0.00     0.278 C 
ENDBRANCH  18  21
BRANCH  20  23
ATOM     23  O   UNL     1       3.437  56.028 282.057  1.00  0.00    -0.504 OA
ATOM     24  H   UNL     1       3.401  56.042 283.070  1.00  0.00     0.293 HD
ENDBRANCH  20  23
ENDBRANCH  14  15
ENDBRANCH  12  14
ENDBRANCH   9  10
ENDBRANCH   1   9
TORSDOF 10
ENDMDL
MODEL 4
REMARK VINA RESULT:    -3.860      2.352      7.386
REMARK INTER + INTRA:          -7.064
REMARK INTER:                  -6.441
REMARK INTRA:                  -0.622
REMARK UNBOUND:                -1.061
REMARK SMILES COc1cc(CNC(=O)CCCCC=CC(C)C)ccc1O
REMARK SMILES IDX 11 1 12 2 13 3 14 4 15 5 16 6 17 7 18 8 10 9 8 10 9 11 7 12
REMARK SMILES IDX 6 14 5 15 4 16 19 17 3 18 20 19 21 20 2 21 1 22 22 23
REMARK H PARENT 7 13 22 24
REMARK Flexibility Score: inf
ROOT
ATOM      1  C   UNL     1       3.945  50.299 280.068  1.00  0.00     0.010 C 
ENDROOT
BRANCH   1   2
ATOM      2  C   UNL     1       2.947  51.301 279.462  1.00  0.00     0.005 C 
BRANCH   2   3
ATOM      3  C   UNL     1       3.577  52.129 278.332  1.00  0.00     0.027 C 
BRANCH   3   4
ATOM      4  C   UNL     1       4.114  53.447 278.822  1.00  0.00    -0.031 C 
ATOM      5  C   UNL     1       3.802  53.926 280.035  1.00  0.00    -0.028 C 
BRANCH   5   6
ATOM      6  C   UNL     1       4.336  55.256 280.517  1.00  0.00     0.005 C 
ATOM      7  C   UNL     1       3.201  56.121 281.080  1.00  0.00     0.012 C 
ATOM      8  C   UNL     1       5.050  55.990 279.377  1.00  0.00     0.012 C 
ENDBRANCH   5   6
ENDBRANCH   3   4
ENDBRANCH   2   3
ENDBRANCH   1   2
BRANCH   1   9
ATOM      9  C   UNL     1       4.748  50.904 281.226  1.00  0.00     0.100 C 
BRANCH   9  10
ATOM     10  C   UNL     1       4.041  50.739 282.540  1.00  0.00     0.220 C 
ATOM     11  O   UNL     1       3.041  51.461 282.799  1.00  0.00    -0.275 OA
ATOM     12  N   UNL     1       4.478  49.744 283.476  1.00  0.00    -0.352 N 
ATOM     13  H   UNL     1       5.274  49.117 283.217  1.00  0.00     0.163 HD
BRANCH  12  14
ATOM     14  C   UNL     1       3.844  49.561 284.779  1.00  0.00     0.151 C 
BRANCH  14  15
ATOM     15  C   UNL     1       3.649  48.096 285.063  1.00  0.00    -0.025 A 
ATOM     16  C   UNL     1       3.545  47.184 284.000  1.00  0.00     0.056 A 
ATOM     17  C   UNL     1       3.601  47.625 286.383  1.00  0.00     0.009 A 
ATOM     18  C   UNL     1       3.387  45.806 284.252  1.00  0.00     0.160 A 
ATOM     19  C   UNL     1       3.444  46.262 286.638  1.00  0.00     0.050 A 
ATOM     20  C   UNL     1       3.336  45.352 285.577  1.00  0.00     0.157 A 
BRANCH  18  21
ATOM     21  O   UNL     1       3.279  44.865 283.217  1.00  0.00    -0.493 OA
ATOM     22  C   UNL     1       3.908  44.987 281.946  1.00  0.00     0.278 C 
ENDBRANCH  18  21
BRANCH  20  23
ATOM     23  O   UNL     1       3.178  43.991 285.833  1.00  0.00    -0.504 OA
ATOM     24  H   UNL     1       2.625  43.398 285.226  1.00  0.00     0.293 HD
ENDBRANCH  20  23
ENDBRANCH  14  15
ENDBRANCH  12  14
ENDBRANCH   9  10
ENDBRANCH   1   9
TORSDOF 10
ENDMDL
MODEL 5
REMARK VINA RESULT:    -3.841      2.731      8.660
REMARK INTER + INTRA:          -7.035
REMARK INTER:                  -6.287
REMARK INTRA:                  -0.747
REMARK UNBOUND:                -1.061
REMARK SMILES COc1cc(CNC(=O)CCCCC=CC(C)C)ccc1O
REMARK SMILES IDX 11 1 12 2 13 3 14 4 15 5 16 6 17 7 18 8 10 9 8 10 9 11 7 12
REMARK SMILES IDX 6 14 5 15 4 16 19 17 3 18 20 19 21 20 2 21 1 22 22 23
REMARK H PARENT 7 13 22 24
REMARK Flexibility Score: inf
ROOT
ATOM      1  C   UNL     1       4.300  52.223 279.085  1.00  0.00     0.010 C 
ENDROOT
BRANCH   1   2
ATOM      2  C   UNL     1       3.536  53.288 278.280  1.00  0.00     0.005 C 
BRANCH   2   3
ATOM      3  C   UNL     1       3.778  54.704 278.822  1.00  0.00     0.027 C 
BRANCH   3   4
ATOM      4  C   UNL     1       4.550  55.561 277.854  1.00  0.00    -0.031 C 
ATOM      5  C   UNL     1       5.264  55.023 276.854  1.00  0.00    -0.028 C 
BRANCH   5   6
ATOM      6  C   UNL     1       6.047  55.888 275.893  1.00  0.00     0.005 C 
ATOM      7  C   UNL     1       5.325  55.984 274.543  1.00  0.00     0.012 C 
ATOM      8  C   UNL     1       7.462  55.330 275.701  1.00  0.00     0.012 C 
ENDBRANCH   5   6
ENDBRANCH   3   4
ENDBRANCH   2   3
ENDBRANCH   1   2
BRANCH   1   9
ATOM      9  C   UNL     1       4.708  52.726 280.475  1.00  0.00     0.100 C 
BRANCH   9  10
ATOM     10  C   UNL     1       3.925  52.051 281.564  1.00  0.00     0.220 C 
ATOM     11  O   UNL     1       2.875  52.597 281.999  1.00  0.00    -0.275 OA
ATOM     12  N   UNL     1       4.347  50.780 282.077  1.00  0.00    -0.352 N 
ATOM     13  H   UNL     1       5.188  50.317 281.662  1.00  0.00     0.163 HD
BRANCH  12  14
ATOM     14  C   UNL     1       3.638  50.095 283.155  1.00  0.00     0.151 C 
BRANCH  14  15
ATOM     15  C   UNL     1       3.659  48.607 282.929  1.00  0.00    -0.025 A 
ATOM     16  C   UNL     1       3.662  47.731 284.026  1.00  0.00     0.056 A 
ATOM     17  C   UNL     1       3.646  48.083 281.628  1.00  0.00     0.009 A 
ATOM     18  C   UNL     1       3.657  46.335 283.828  1.00  0.00     0.160 A 
ATOM     19  C   UNL     1       3.642  46.702 281.427  1.00  0.00     0.050 A 
ATOM     20  C   UNL     1       3.648  45.827 282.521  1.00  0.00     0.157 A 
BRANCH  18  21
ATOM     21  O   UNL     1       3.659  45.429 284.899  1.00  0.00    -0.493 OA
ATOM     22  C   UNL     1       3.699  45.802 286.273  1.00  0.00     0.278 C 
ENDBRANCH  18  21
BRANCH  20  23
ATOM     23  O   UNL     1       3.644  44.449 282.319  1.00  0.00    -0.504 OA
ATOM     24  H   UNL     1       3.032  44.014 281.639  1.00  0.00     0.293 HD
ENDBRANCH  20  23
ENDBRANCH  14  15
ENDBRANCH  12  14
ENDBRANCH   9  10
ENDBRANCH   1   9
TORSDOF 10
ENDMDL
MODEL 6
REMARK VINA RESULT:    -3.634      2.483      8.089
REMARK INTER + INTRA:          -6.713
REMARK INTER:                  -5.908
REMARK INTRA:                  -0.805
REMARK UNBOUND:                -1.061
REMARK SMILES COc1cc(CNC(=O)CCCCC=CC(C)C)ccc1O
REMARK SMILES IDX 11 1 12 2 13 3 14 4 15 5 16 6 17 7 18 8 10 9 8 10 9 11 7 12
REMARK SMILES IDX 6 14 5 15 4 16 19 17 3 18 20 19 21 20 2 21 1 22 22 23
REMARK H PARENT 7 13 22 24
REMARK Flexibility Score: inf
ROOT
ATOM      1  C   UNL     1       4.272  51.631 278.491  1.00  0.00     0.010 C 
ENDROOT
BRANCH   1   2
ATOM      2  C   UNL     1       2.992  52.457 278.708  1.00  0.00     0.005 C 
BRANCH   2   3
ATOM      3  C   UNL     1       3.300  53.875 279.212  1.00  0.00     0.027 C 
BRANCH   3   4
ATOM      4  C   UNL     1       4.209  54.627 278.279  1.00  0.00    -0.031 C 
ATOM      5  C   UNL     1       3.743  55.219 277.169  1.00  0.00    -0.028 C 
BRANCH   5   6
ATOM      6  C   UNL     1       4.664  55.964 276.229  1.00  0.00     0.005 C 
ATOM      7  C   UNL     1       4.181  55.828 274.780  1.00  0.00     0.012 C 
ATOM      8  C   UNL     1       6.100  55.444 276.363  1.00  0.00     0.012 C 
ENDBRANCH   5   6
ENDBRANCH   3   4
ENDBRANCH   2   3
ENDBRANCH   1   2
BRANCH   1   9
ATOM      9  C   UNL     1       4.315  50.379 279.375  1.00  0.00     0.100 C 
BRANCH   9  10
ATOM     10  C   UNL     1       4.332  50.728 280.835  1.00  0.00     0.220 C 
ATOM     11  O   UNL     1       5.193  51.543 281.265  1.00  0.00    -0.275 OA
ATOM     12  N   UNL     1       3.357  50.168 281.724  1.00  0.00    -0.352 N 
ATOM     13  H   UNL     1       2.616  49.539 281.337  1.00  0.00     0.163 HD
BRANCH  12  14
ATOM     14  C   UNL     1       3.347  50.451 283.158  1.00  0.00     0.151 C 
BRANCH  14  15
ATOM     15  C   UNL     1       3.533  49.180 283.941  1.00  0.00    -0.025 A 
ATOM     16  C   UNL     1       3.617  47.949 283.271  1.00  0.00     0.056 A 
ATOM     17  C   UNL     1       3.655  49.215 285.338  1.00  0.00     0.009 A 
ATOM     18  C   UNL     1       3.816  46.754 283.991  1.00  0.00     0.160 A 
ATOM     19  C   UNL     1       3.852  48.033 286.056  1.00  0.00     0.050 A 
ATOM     20  C   UNL     1       3.931  46.805 285.387  1.00  0.00     0.157 A 
BRANCH  18  21
ATOM     21  O   UNL     1       3.905  45.505 283.357  1.00  0.00    -0.493 OA
ATOM     22  C   UNL     1       3.959  45.318 281.947  1.00  0.00     0.278 C 
ENDBRANCH  18  21
BRANCH  20  23
ATOM     23  O   UNL     1       4.127  45.626 286.105  1.00  0.00    -0.504 OA
ATOM     24  H   UNL     1       3.377  44.959 286.244  1.00  0.00     0.293 HD
ENDBRANCH  20  23
ENDBRANCH  14  15
ENDBRANCH  12  14
ENDBRANCH   9  10
ENDBRANCH   1   9
TORSDOF 10
ENDMDL
MODEL 7
REMARK VINA RESULT:    -3.619      3.787      7.224
REMARK INTER + INTRA:          -6.690
REMARK INTER:                  -5.871
REMARK INTRA:                  -0.819
REMARK UNBOUND:                -1.061
REMARK SMILES COc1cc(CNC(=O)CCCCC=CC(C)C)ccc1O
REMARK SMILES IDX 11 1 12 2 13 3 14 4 15 5 16 6 17 7 18 8 10 9 8 10 9 11 7 12
REMARK SMILES IDX 6 14 5 15 4 16 19 17 3 18 20 19 21 20 2 21 1 22 22 23
REMARK H PARENT 7 13 22 24
REMARK Flexibility Score: inf
ROOT
ATOM      1  C   UNL     1       4.493  51.278 280.342  1.00  0.00     0.010 C 
ENDROOT
BRANCH   1   2
ATOM      2  C   UNL     1       4.427  50.545 278.992  1.00  0.00     0.005 C 
BRANCH   2   3
ATOM      3  C   UNL     1       4.238  49.031 279.166  1.00  0.00     0.027 C 
BRANCH   3   4
ATOM      4  C   UNL     1       3.603  48.683 280.486  1.00  0.00    -0.031 C 
ATOM      5  C   UNL     1       4.055  47.669 281.238  1.00  0.00    -0.028 C 
BRANCH   5   6
ATOM      6  C   UNL     1       3.407  47.317 282.557  1.00  0.00     0.005 C 
ATOM      7  C   UNL     1       3.471  48.506 283.524  1.00  0.00     0.012 C 
ATOM      8  C   UNL     1       4.084  46.089 283.176  1.00  0.00     0.012 C 
ENDBRANCH   5   6
ENDBRANCH   3   4
ENDBRANCH   2   3
ENDBRANCH   1   2
BRANCH   1   9
ATOM      9  C   UNL     1       3.422  52.369 280.467  1.00  0.00     0.100 C 
BRANCH   9  10
ATOM     10  C   UNL     1       3.945  53.713 280.047  1.00  0.00     0.220 C 
ATOM     11  O   UNL     1       5.053  54.112 280.495  1.00  0.00    -0.275 OA
ATOM     12  N   UNL     1       3.205  54.518 279.119  1.00  0.00    -0.352 N 
ATOM     13  H   UNL     1       2.317  54.143 278.715  1.00  0.00     0.163 HD
BRANCH  12  14
ATOM     14  C   UNL     1       3.653  55.844 278.701  1.00  0.00     0.151 C 
BRANCH  14  15
ATOM     15  C   UNL     1       4.139  55.804 277.277  1.00  0.00    -0.025 A 
ATOM     16  C   UNL     1       5.515  55.847 277.004  1.00  0.00     0.056 A 
ATOM     17  C   UNL     1       3.228  55.695 276.216  1.00  0.00     0.009 A 
ATOM     18  C   UNL     1       5.984  55.786 275.676  1.00  0.00     0.160 A 
ATOM     19  C   UNL     1       3.687  55.635 274.899  1.00  0.00     0.050 A 
ATOM     20  C   UNL     1       5.061  55.681 274.626  1.00  0.00     0.157 A 
BRANCH  18  21
ATOM     21  O   UNL     1       7.351  55.825 275.363  1.00  0.00    -0.493 OA
ATOM     22  C   UNL     1       8.198  54.682 275.298  1.00  0.00     0.278 C 
ENDBRANCH  18  21
BRANCH  20  23
ATOM     23  O   UNL     1       5.518  55.621 273.311  1.00  0.00    -0.504 OA
ATOM     24  H   UNL     1       5.798  54.745 272.886  1.00  0.00     0.293 HD
ENDBRANCH  20  23
ENDBRANCH  14  15
ENDBRANCH  12  14
ENDBRANCH   9  10
ENDBRANCH   1   9
TORSDOF 10
ENDMDL
MODEL 8
REMARK VINA RESULT:    -3.588      3.667      6.553
REMARK INTER + INTRA:          -6.641
REMARK INTER:                  -6.049
REMARK INTRA:                  -0.592
REMARK UNBOUND:                -1.061
REMARK SMILES COc1cc(CNC(=O)CCCCC=CC(C)C)ccc1O
REMARK SMILES IDX 11 1 12 2 13 3 14 4 15 5 16 6 17 7 18 8 10 9 8 10 9 11 7 12
REMARK SMILES IDX 6 14 5 15 4 16 19 17 3 18 20 19 21 20 2 21 1 22 22 23
REMARK H PARENT 7 13 22 24
REMARK Flexibility Score: inf
ROOT
ATOM      1  C   UNL     1       3.667  51.578 281.468  1.00  0.00     0.010 C 
ENDROOT
BRANCH   1   2
ATOM      2  C   UNL     1       3.268  50.103 281.297  1.00  0.00     0.005 C 
BRANCH   2   3
ATOM      3  C   UNL     1       3.573  49.273 282.554  1.00  0.00     0.027 C 
BRANCH   3   4
ATOM      4  C   UNL     1       3.429  50.078 283.817  1.00  0.00    -0.031 C 
ATOM      5  C   UNL     1       4.028  49.707 284.959  1.00  0.00    -0.028 C 
BRANCH   5   6
ATOM      6  C   UNL     1       3.870  50.513 286.228  1.00  0.00     0.005 C 
ATOM      7  C   UNL     1       5.238  50.805 286.856  1.00  0.00     0.012 C 
ATOM      8  C   UNL     1       2.974  49.770 287.226  1.00  0.00     0.012 C 
ENDBRANCH   5   6
ENDBRANCH   3   4
ENDBRANCH   2   3
ENDBRANCH   1   2
BRANCH   1   9
ATOM      9  C   UNL     1       4.644  52.048 280.383  1.00  0.00     0.100 C 
BRANCH   9  10
ATOM     10  C   UNL     1       4.378  53.466 279.970  1.00  0.00     0.220 C 
ATOM     11  O   UNL     1       4.837  54.410 280.669  1.00  0.00    -0.275 OA
ATOM     12  N   UNL     1       3.639  53.744 278.773  1.00  0.00    -0.352 N 
ATOM     13  H   UNL     1       3.316  52.947 278.178  1.00  0.00     0.163 HD
BRANCH  12  14
ATOM     14  C   UNL     1       3.327  55.104 278.342  1.00  0.00     0.151 C 
BRANCH  14  15
ATOM     15  C   UNL     1       3.794  55.322 276.928  1.00  0.00    -0.025 A 
ATOM     16  C   UNL     1       5.157  55.531 276.663  1.00  0.00     0.056 A 
ATOM     17  C   UNL     1       2.882  55.288 275.863  1.00  0.00     0.009 A 
ATOM     18  C   UNL     1       5.610  55.711 275.341  1.00  0.00     0.160 A 
ATOM     19  C   UNL     1       3.326  55.467 274.551  1.00  0.00     0.050 A 
ATOM     20  C   UNL     1       4.685  55.679 274.288  1.00  0.00     0.157 A 
BRANCH  18  21
ATOM     21  O   UNL     1       6.964  55.922 275.037  1.00  0.00    -0.493 OA
ATOM     22  C   UNL     1       8.043  55.191 275.611  1.00  0.00     0.278 C 
ENDBRANCH  18  21
BRANCH  20  23
ATOM     23  O   UNL     1       5.128  55.858 272.978  1.00  0.00    -0.504 OA
ATOM     24  H   UNL     1       5.082  56.761 272.521  1.00  0.00     0.293 HD
ENDBRANCH  20  23
ENDBRANCH  14  15
ENDBRANCH  12  14
ENDBRANCH   9  10
ENDBRANCH   1   9
TORSDOF 10
ENDMDL
