MODEL 1
REMARK VINA RESULT:    -3.496      0.000      0.000
REMARK INTER + INTRA:          -5.186
REMARK INTER:                  -5.336
REMARK INTRA:                   0.150
REMARK UNBOUND:                 0.150
REMARK SMILES CC1=CCC[C@H](C)C(=O)C[C@@H](C(C)C)C(=O)C1
REMARK SMILES IDX 8 1 9 2 6 3 7 4 5 5 4 6 3 7 2 8 1 9 10 11 11 12 15 13 16 14
REMARK SMILES IDX 17 15 12 17 13 18 14 19
REMARK H PARENT
REMARK Flexibility Score: 70.00
ROOT
ATOM      1  C   UNL     1      -9.913  11.372 -11.645  1.00  0.00     0.136 C 
ATOM      2  O   UNL     1      -9.485  11.857 -12.684  1.00  0.00    -0.299 OA
ENDROOT
BRANCH   1   3
ATOM      3  C   UNL     1     -10.912  10.238 -11.703  1.00  0.00     0.053 C 
ATOM      4  C   UNL     1     -11.772  10.358 -12.966  1.00  0.00     0.016 C 
BRANCH   3   5
ATOM      5  C   UNL     1     -10.212   8.866 -11.648  1.00  0.00     0.015 C 
BRANCH   5   6
ATOM      6  C   UNL     1      -9.212   8.748 -10.478  1.00  0.00     0.028 C 
BRANCH   6   7
ATOM      7  C   UNL     1      -7.793   8.585 -10.974  1.00  0.00    -0.028 C 
ATOM      8  C   UNL     1      -6.715   9.339 -10.648  1.00  0.00    -0.070 CG0
ATOM      9  C   UNL     1      -5.384   8.931 -11.231  1.00  0.00     0.039 C 
ATOM     10  G   UNL     1      -6.754  10.564  -9.750  1.00  0.00     0.000 G0
ENDBRANCH   6   7
ENDBRANCH   5   6
ENDBRANCH   3   5
ENDBRANCH   1   3
BRANCH   1  11
ATOM     11  C   UNL     1      -9.512  11.952 -10.307  1.00  0.00     0.087 C 
BRANCH  11  12
ATOM     12  C   UNL     1      -8.178  12.739 -10.348  1.00  0.00     0.066 C 
BRANCH  12  13
ATOM     13  C   UNL     1      -6.949  11.857 -10.517  1.00  0.00     0.140 C 
ATOM     14  O   UNL     1      -6.068  12.239 -11.274  1.00  0.00    -0.299 OA
BRANCH  13  15
ATOM     15  C   UNL     1      -6.723  10.581  -9.735  1.00  0.00     0.106 CG0
ATOM     16  G   UNL     1      -6.725   9.367 -10.649  1.00  0.00     0.000 G0
ENDBRANCH  13  15
ENDBRANCH  12  13
BRANCH  12  17
ATOM     17  C   UNL     1      -7.991  13.736  -9.162  1.00  0.00    -0.006 C 
ATOM     18  C   UNL     1      -8.932  13.477  -7.973  1.00  0.00     0.008 C 
ATOM     19  C   UNL     1      -8.107  15.200  -9.614  1.00  0.00     0.008 C 
ENDBRANCH  12  17
ENDBRANCH  11  12
ENDBRANCH   1  11
TORSDOF 1
ENDMDL
MODEL 2
REMARK VINA RESULT:    -3.311      7.410      9.201
REMARK INTER + INTRA:          -4.903
REMARK INTER:                  -4.639
REMARK INTRA:                  -0.264
REMARK UNBOUND:                 0.150
REMARK SMILES CC1=CCC[C@H](C)C(=O)C[C@@H](C(C)C)C(=O)C1
REMARK SMILES IDX 8 1 9 2 6 3 7 4 5 5 4 6 3 7 2 8 1 9 10 11 11 12 15 13 16 14
REMARK SMILES IDX 17 15 12 17 13 18 14 19
REMARK H PARENT
REMARK Flexibility Score: 70.00
ROOT
ATOM      1  C   UNL     1     -13.263  11.428 -15.911  1.00  0.00     0.136 C 
ATOM      2  O   UNL     1     -13.726  11.291 -14.787  1.00  0.00    -0.299 OA
ENDROOT
BRANCH   1   3
ATOM      3  C   UNL     1     -13.495  10.356 -16.952  1.00  0.00     0.053 C 
ATOM      4  C   UNL     1     -14.508   9.328 -16.434  1.00  0.00     0.016 C 
BRANCH   3   5
ATOM      5  C   UNL     1     -13.967  10.960 -18.288  1.00  0.00     0.015 C 
BRANCH   5   6
ATOM      6  C   UNL     1     -12.868  10.953 -19.373  1.00  0.00     0.028 C 
BRANCH   6   7
ATOM      7  C   UNL     1     -13.005  12.130 -20.311  1.00  0.00    -0.028 C 
ATOM      8  C   UNL     1     -12.507  13.379 -20.143  1.00  0.00    -0.070 CG0
ATOM      9  C   UNL     1     -12.726  14.369 -21.262  1.00  0.00     0.039 C 
ATOM     10  G   UNL     1     -11.754  13.853 -18.910  1.00  0.00     0.000 G0
ENDBRANCH   6   7
ENDBRANCH   5   6
ENDBRANCH   3   5
ENDBRANCH   1   3
BRANCH   1  11
ATOM     11  C   UNL     1     -12.393  12.620 -16.241  1.00  0.00     0.087 C 
BRANCH  11  12
ATOM     12  C   UNL     1     -13.196  13.872 -16.677  1.00  0.00     0.066 C 
BRANCH  12  13
ATOM     13  C   UNL     1     -12.644  14.553 -17.920  1.00  0.00     0.140 C 
ATOM     14  O   UNL     1     -12.898  15.738 -18.086  1.00  0.00    -0.299 OA
BRANCH  13  15
ATOM     15  C   UNL     1     -11.728  13.868 -18.912  1.00  0.00     0.106 CG0
ATOM     16  G   UNL     1     -12.501  13.379 -20.126  1.00  0.00     0.000 G0
ENDBRANCH  13  15
ENDBRANCH  12  13
BRANCH  12  17
ATOM     17  C   UNL     1     -13.434  14.905 -15.532  1.00  0.00    -0.006 C 
ATOM     18  C   UNL     1     -12.429  14.797 -14.373  1.00  0.00     0.008 C 
ATOM     19  C   UNL     1     -14.871  14.844 -14.989  1.00  0.00     0.008 C 
ENDBRANCH  12  17
ENDBRANCH  11  12
ENDBRANCH   1  11
TORSDOF 1
ENDMDL
MODEL 3
REMARK VINA RESULT:    -3.285      2.533      4.645
REMARK INTER + INTRA:          -4.864
REMARK INTER:                  -4.718
REMARK INTRA:                  -0.146
REMARK UNBOUND:                 0.150
REMARK SMILES CC1=CCC[C@H](C)C(=O)C[C@@H](C(C)C)C(=O)C1
REMARK SMILES IDX 8 1 9 2 6 3 7 4 5 5 4 6 3 7 2 8 1 9 10 11 11 12 15 13 16 14
REMARK SMILES IDX 17 15 12 17 13 18 14 19
REMARK H PARENT
REMARK Flexibility Score: 70.00
ROOT
ATOM      1  C   UNL     1      -8.090   6.401 -11.121  1.00  0.00     0.136 C 
ATOM      2  O   UNL     1      -8.753   5.474 -11.568  1.00  0.00    -0.299 OA
ENDROOT
BRANCH   1   3
ATOM      3  C   UNL     1      -6.587   6.268 -11.026  1.00  0.00     0.053 C 
ATOM      4  C   UNL     1      -6.195   4.794 -10.872  1.00  0.00     0.016 C 
BRANCH   3   5
ATOM      5  C   UNL     1      -5.887   6.894 -12.248  1.00  0.00     0.015 C 
BRANCH   5   6
ATOM      6  C   UNL     1      -4.680   7.776 -11.863  1.00  0.00     0.028 C 
BRANCH   6   7
ATOM      7  C   UNL     1      -4.870   9.206 -12.318  1.00  0.00    -0.028 C 
ATOM      8  C   UNL     1      -5.475  10.212 -11.642  1.00  0.00    -0.070 CG0
ATOM      9  C   UNL     1      -5.480  11.575 -12.288  1.00  0.00     0.039 C 
ATOM     10  G   UNL     1      -6.153  10.062 -10.290  1.00  0.00     0.000 G0
ENDBRANCH   6   7
ENDBRANCH   5   6
ENDBRANCH   3   5
ENDBRANCH   1   3
BRANCH   1  11
ATOM     11  C   UNL     1      -8.770   7.642 -10.590  1.00  0.00     0.087 C 
BRANCH  11  12
ATOM     12  C   UNL     1      -8.357   8.940 -11.329  1.00  0.00     0.066 C 
BRANCH  12  13
ATOM     13  C   UNL     1      -7.671   9.963 -10.435  1.00  0.00     0.140 C 
ATOM     14  O   UNL     1      -8.378  10.696  -9.757  1.00  0.00    -0.299 OA
BRANCH  13  15
ATOM     15  C   UNL     1      -6.169  10.062 -10.277  1.00  0.00     0.106 CG0
ATOM     16  G   UNL     1      -5.484  10.234 -11.623  1.00  0.00     0.000 G0
ENDBRANCH  13  15
ENDBRANCH  12  13
BRANCH  12  17
ATOM     17  C   UNL     1      -9.508   9.598 -12.151  1.00  0.00    -0.006 C 
ATOM     18  C   UNL     1     -10.730   8.687 -12.358  1.00  0.00     0.008 C 
ATOM     19  C   UNL     1      -9.017  10.132 -13.506  1.00  0.00     0.008 C 
ENDBRANCH  12  17
ENDBRANCH  11  12
ENDBRANCH   1  11
TORSDOF 1
ENDMDL
MODEL 4
REMARK VINA RESULT:    -3.277      6.322      8.976
REMARK INTER + INTRA:          -4.851
REMARK INTER:                  -4.447
REMARK INTRA:                  -0.403
REMARK UNBOUND:                 0.150
REMARK SMILES CC1=CCC[C@H](C)C(=O)C[C@@H](C(C)C)C(=O)C1
REMARK SMILES IDX 8 1 9 2 6 3 7 4 5 5 4 6 3 7 2 8 1 9 10 11 11 12 15 13 16 14
REMARK SMILES IDX 17 15 12 17 13 18 14 19
REMARK H PARENT
REMARK Flexibility Score: 70.00
ROOT
ATOM      1  C   UNL     1      -1.424   7.624 -14.606  1.00  0.00     0.136 C 
ATOM      2  O   UNL     1      -2.490   7.024 -14.578  1.00  0.00    -0.299 OA
ENDROOT
BRANCH   1   3
ATOM      3  C   UNL     1      -0.508   7.468 -15.799  1.00  0.00     0.053 C 
ATOM      4  C   UNL     1      -0.626   6.052 -16.373  1.00  0.00     0.016 C 
BRANCH   3   5
ATOM      5  C   UNL     1      -0.808   8.522 -16.882  1.00  0.00     0.015 C 
BRANCH   5   6
ATOM      6  C   UNL     1       0.239   9.655 -16.925  1.00  0.00     0.028 C 
BRANCH   6   7
ATOM      7  C   UNL     1      -0.399  11.010 -16.715  1.00  0.00    -0.028 C 
ATOM      8  C   UNL     1      -0.432  11.735 -15.571  1.00  0.00    -0.070 CG0
ATOM      9  C   UNL     1      -1.079  13.098 -15.634  1.00  0.00     0.039 C 
ATOM     10  G   UNL     1       0.124  11.272 -14.234  1.00  0.00     0.000 G0
ENDBRANCH   6   7
ENDBRANCH   5   6
ENDBRANCH   3   5
ENDBRANCH   1   3
BRANCH   1  11
ATOM     11  C   UNL     1      -0.981   8.454 -13.423  1.00  0.00     0.087 C 
BRANCH  11  12
ATOM     12  C   UNL     1      -1.816   9.745 -13.224  1.00  0.00     0.066 C 
BRANCH  12  13
ATOM     13  C   UNL     1      -0.984  11.020 -13.227  1.00  0.00     0.140 C 
ATOM     14  O   UNL     1      -1.171  11.829 -12.329  1.00  0.00    -0.299 OA
BRANCH  13  15
ATOM     15  C   UNL     1       0.117  11.297 -14.229  1.00  0.00     0.106 CG0
ATOM     16  G   UNL     1      -0.454  11.738 -15.566  1.00  0.00     0.000 G0
ENDBRANCH  13  15
ENDBRANCH  12  13
BRANCH  12  17
ATOM     17  C   UNL     1      -2.768   9.704 -11.989  1.00  0.00    -0.006 C 
ATOM     18  C   UNL     1      -2.405   8.626 -10.954  1.00  0.00     0.008 C 
ATOM     19  C   UNL     1      -4.242   9.558 -12.402  1.00  0.00     0.008 C 
ENDBRANCH  12  17
ENDBRANCH  11  12
ENDBRANCH   1  11
TORSDOF 1
ENDMDL
MODEL 5
REMARK VINA RESULT:    -3.241      5.565      8.058
REMARK INTER + INTRA:          -4.796
REMARK INTER:                  -4.568
REMARK INTRA:                  -0.228
REMARK UNBOUND:                 0.150
REMARK SMILES CC1=CCC[C@H](C)C(=O)C[C@@H](C(C)C)C(=O)C1
REMARK SMILES IDX 8 1 9 2 6 3 7 4 5 5 4 6 3 7 2 8 1 9 10 11 11 12 15 13 16 14
REMARK SMILES IDX 17 15 12 17 13 18 14 19
REMARK H PARENT
REMARK Flexibility Score: 70.00
ROOT
ATOM      1  C   UNL     1      -1.406  12.392 -13.107  1.00  0.00     0.136 C 
ATOM      2  O   UNL     1      -1.729  13.386 -13.744  1.00  0.00    -0.299 OA
ENDROOT
BRANCH   1   3
ATOM      3  C   UNL     1      -1.897  12.220 -11.687  1.00  0.00     0.053 C 
ATOM      4  C   UNL     1      -1.737  13.532 -10.911  1.00  0.00     0.016 C 
BRANCH   3   5
ATOM      5  C   UNL     1      -3.361  11.741 -11.652  1.00  0.00     0.015 C 
BRANCH   5   6
ATOM      6  C   UNL     1      -3.564  10.492 -10.768  1.00  0.00     0.028 C 
BRANCH   6   7
ATOM      7  C   UNL     1      -3.897   9.273 -11.597  1.00  0.00    -0.028 C 
ATOM      8  C   UNL     1      -3.031   8.452 -12.239  1.00  0.00    -0.070 CG0
ATOM      9  C   UNL     1      -3.611   7.255 -12.952  1.00  0.00     0.039 C 
ATOM     10  G   UNL     1      -1.526   8.655 -12.297  1.00  0.00     0.000 G0
ENDBRANCH   6   7
ENDBRANCH   5   6
ENDBRANCH   3   5
ENDBRANCH   1   3
BRANCH   1  11
ATOM     11  C   UNL     1      -0.455  11.378 -13.701  1.00  0.00     0.087 C 
BRANCH  11  12
ATOM     12  C   UNL     1      -1.168  10.231 -14.462  1.00  0.00     0.066 C 
BRANCH  12  13
ATOM     13  C   UNL     1      -1.089   8.885 -13.757  1.00  0.00     0.140 C 
ATOM     14  O   UNL     1      -0.581   7.950 -14.361  1.00  0.00    -0.299 OA
BRANCH  13  15
ATOM     15  C   UNL     1      -1.524   8.665 -12.323  1.00  0.00     0.106 CG0
ATOM     16  G   UNL     1      -3.024   8.437 -12.232  1.00  0.00     0.000 G0
ENDBRANCH  13  15
ENDBRANCH  12  13
BRANCH  12  17
ATOM     17  C   UNL     1      -0.747  10.103 -15.959  1.00  0.00    -0.006 C 
ATOM     18  C   UNL     1       0.560  10.837 -16.307  1.00  0.00     0.008 C 
ATOM     19  C   UNL     1      -1.867  10.546 -16.913  1.00  0.00     0.008 C 
ENDBRANCH  12  17
ENDBRANCH  11  12
ENDBRANCH   1  11
TORSDOF 1
ENDMDL
MODEL 6
REMARK VINA RESULT:    -3.219      4.920      7.421
REMARK INTER + INTRA:          -4.763
REMARK INTER:                  -4.397
REMARK INTRA:                  -0.366
REMARK UNBOUND:                 0.150
REMARK SMILES CC1=CCC[C@H](C)C(=O)C[C@@H](C(C)C)C(=O)C1
REMARK SMILES IDX 8 1 9 2 6 3 7 4 5 5 4 6 3 7 2 8 1 9 10 11 11 12 15 13 16 14
REMARK SMILES IDX 17 15 12 17 13 18 14 19
REMARK H PARENT
REMARK Flexibility Score: 70.00
ROOT
ATOM      1  C   UNL     1      -3.308   7.370 -12.616  1.00  0.00     0.136 C 
ATOM      2  O   UNL     1      -4.478   7.013 -12.575  1.00  0.00    -0.299 OA
ENDROOT
BRANCH   1   3
ATOM      3  C   UNL     1      -2.296   6.532 -13.366  1.00  0.00     0.053 C 
ATOM      4  C   UNL     1      -2.789   5.085 -13.478  1.00  0.00     0.016 C 
BRANCH   3   5
ATOM      5  C   UNL     1      -2.001   7.118 -14.760  1.00  0.00     0.015 C 
BRANCH   5   6
ATOM      6  C   UNL     1      -0.585   7.721 -14.871  1.00  0.00     0.028 C 
BRANCH   6   7
ATOM      7  C   UNL     1      -0.620   9.119 -15.448  1.00  0.00    -0.028 C 
ATOM      8  C   UNL     1      -0.676  10.289 -14.768  1.00  0.00    -0.070 CG0
ATOM      9  C   UNL     1      -0.636  11.563 -15.577  1.00  0.00     0.039 C 
ATOM     10  G   UNL     1      -0.786  10.409 -13.257  1.00  0.00     0.000 G0
ENDBRANCH   6   7
ENDBRANCH   5   6
ENDBRANCH   3   5
ENDBRANCH   1   3
BRANCH   1  11
ATOM     11  C   UNL     1      -2.854   8.595 -11.857  1.00  0.00     0.087 C 
BRANCH  11  12
ATOM     12  C   UNL     1      -3.303   9.929 -12.506  1.00  0.00     0.066 C 
BRANCH  12  13
ATOM     13  C   UNL     1      -2.154  10.876 -12.821  1.00  0.00     0.140 C 
ATOM     14  O   UNL     1      -2.334  12.073 -12.647  1.00  0.00    -0.299 OA
BRANCH  13  15
ATOM     15  C   UNL     1      -0.780  10.409 -13.252  1.00  0.00     0.106 CG0
ATOM     16  G   UNL     1      -0.685  10.303 -14.765  1.00  0.00     0.000 G0
ENDBRANCH  13  15
ENDBRANCH  12  13
BRANCH  12  17
ATOM     17  C   UNL     1      -4.437  10.666 -11.726  1.00  0.00    -0.006 C 
ATOM     18  C   UNL     1      -4.465  10.354 -10.221  1.00  0.00     0.008 C 
ATOM     19  C   UNL     1      -5.821  10.408 -12.342  1.00  0.00     0.008 C 
ENDBRANCH  12  17
ENDBRANCH  11  12
ENDBRANCH   1  11
TORSDOF 1
ENDMDL
MODEL 7
REMARK VINA RESULT:    -3.170     11.043     12.826
REMARK INTER + INTRA:          -4.687
REMARK INTER:                  -4.308
REMARK INTRA:                  -0.379
REMARK UNBOUND:                 0.150
REMARK SMILES CC1=CCC[C@H](C)C(=O)C[C@@H](C(C)C)C(=O)C1
REMARK SMILES IDX 8 1 9 2 6 3 7 4 5 5 4 6 3 7 2 8 1 9 10 11 11 12 15 13 16 14
REMARK SMILES IDX 17 15 12 17 13 18 14 19
REMARK H PARENT
REMARK Flexibility Score: 70.00
ROOT
ATOM      1  C   UNL     1      -0.178   9.845 -20.127  1.00  0.00     0.136 C 
ATOM      2  O   UNL     1      -0.743   8.955 -19.504  1.00  0.00    -0.299 OA
ENDROOT
BRANCH   1   3
ATOM      3  C   UNL     1      -0.322   9.912 -21.631  1.00  0.00     0.053 C 
ATOM      4  C   UNL     1      -0.502   8.503 -22.207  1.00  0.00     0.016 C 
BRANCH   3   5
ATOM      5  C   UNL     1      -1.492  10.825 -22.046  1.00  0.00     0.015 C 
BRANCH   5   6
ATOM      6  C   UNL     1      -1.024  12.133 -22.718  1.00  0.00     0.028 C 
BRANCH   6   7
ATOM      7  C   UNL     1      -1.557  13.350 -21.996  1.00  0.00    -0.028 C 
ATOM      8  C   UNL     1      -0.909  14.116 -21.085  1.00  0.00    -0.070 CG0
ATOM      9  C   UNL     1      -1.640  15.324 -20.551  1.00  0.00     0.039 C 
ATOM     10  G   UNL     1       0.490  13.841 -20.559  1.00  0.00     0.000 G0
ENDBRANCH   6   7
ENDBRANCH   5   6
ENDBRANCH   3   5
ENDBRANCH   1   3
BRANCH   1  11
ATOM     11  C   UNL     1       0.724  10.826 -19.414  1.00  0.00     0.087 C 
BRANCH  11  12
ATOM     12  C   UNL     1      -0.041  11.983 -18.723  1.00  0.00     0.066 C 
BRANCH  12  13
ATOM     13  C   UNL     1       0.453  13.367 -19.117  1.00  0.00     0.140 C 
ATOM     14  O   UNL     1       0.901  14.089 -18.237  1.00  0.00    -0.299 OA
BRANCH  13  15
ATOM     15  C   UNL     1       0.501  13.862 -20.547  1.00  0.00     0.106 CG0
ATOM     16  G   UNL     1      -0.897  14.119 -21.087  1.00  0.00     0.000 G0
ENDBRANCH  13  15
ENDBRANCH  12  13
BRANCH  12  17
ATOM     17  C   UNL     1      -0.137  11.845 -17.172  1.00  0.00    -0.006 C 
ATOM     18  C   UNL     1       0.723  10.711 -16.589  1.00  0.00     0.008 C 
ATOM     19  C   UNL     1      -1.591  11.698 -16.695  1.00  0.00     0.008 C 
ENDBRANCH  12  17
ENDBRANCH  11  12
ENDBRANCH   1  11
TORSDOF 1
ENDMDL
MODEL 8
REMARK VINA RESULT:    -3.166     11.982     13.569
REMARK INTER + INTRA:          -4.682
REMARK INTER:                  -4.342
REMARK INTRA:                  -0.340
REMARK UNBOUND:                 0.150
REMARK SMILES CC1=CCC[C@H](C)C(=O)C[C@@H](C(C)C)C(=O)C1
REMARK SMILES IDX 8 1 9 2 6 3 7 4 5 5 4 6 3 7 2 8 1 9 10 11 11 12 15 13 16 14
REMARK SMILES IDX 17 15 12 17 13 18 14 19
REMARK H PARENT
REMARK Flexibility Score: 70.00
ROOT
ATOM      1  C   UNL     1      -2.182   9.029 -22.103  1.00  0.00     0.136 C 
ATOM      2  O   UNL     1      -2.778   8.558 -21.143  1.00  0.00    -0.299 OA
ENDROOT
BRANCH   1   3
ATOM      3  C   UNL     1      -2.858   9.074 -23.455  1.00  0.00     0.053 C 
ATOM      4  C   UNL     1      -3.522   7.725 -23.758  1.00  0.00     0.016 C 
BRANCH   3   5
ATOM      5  C   UNL     1      -3.888  10.217 -23.533  1.00  0.00     0.015 C 
BRANCH   5   6
ATOM      6  C   UNL     1      -3.281  11.537 -24.055  1.00  0.00     0.028 C 
BRANCH   6   7
ATOM      7  C   UNL     1      -3.243  12.596 -22.976  1.00  0.00    -0.028 C 
ATOM      8  C   UNL     1      -2.156  13.049 -22.306  1.00  0.00    -0.070 CG0
ATOM      9  C   UNL     1      -2.371  14.165 -21.313  1.00  0.00     0.039 C 
ATOM     10  G   UNL     1      -0.745  12.509 -22.476  1.00  0.00     0.000 G0
ENDBRANCH   6   7
ENDBRANCH   5   6
ENDBRANCH   3   5
ENDBRANCH   1   3
BRANCH   1  11
ATOM     11  C   UNL     1      -0.749   9.489 -21.965  1.00  0.00     0.087 C 
BRANCH  11  12
ATOM     12  C   UNL     1      -0.520  10.455 -20.774  1.00  0.00     0.066 C 
BRANCH  12  13
ATOM     13  C   UNL     1      -0.214  11.885 -21.195  1.00  0.00     0.140 C 
ATOM     14  O   UNL     1       0.544  12.540 -20.493  1.00  0.00    -0.299 OA
BRANCH  13  15
ATOM     15  C   UNL     1      -0.727  12.507 -22.477  1.00  0.00     0.106 CG0
ATOM     16  G   UNL     1      -2.138  13.044 -22.301  1.00  0.00     0.000 G0
ENDBRANCH  13  15
ENDBRANCH  12  13
BRANCH  12  17
ATOM     17  C   UNL     1       0.522   9.944 -19.731  1.00  0.00    -0.006 C 
ATOM     18  C   UNL     1       1.320   8.714 -20.195  1.00  0.00     0.008 C 
ATOM     19  C   UNL     1      -0.120   9.668 -18.363  1.00  0.00     0.008 C 
ENDBRANCH  12  17
ENDBRANCH  11  12
ENDBRANCH   1  11
TORSDOF 1
ENDMDL
MODEL 9
REMARK VINA RESULT:    -3.153     13.335     14.754
REMARK INTER + INTRA:          -4.662
REMARK INTER:                  -4.570
REMARK INTRA:                  -0.092
REMARK UNBOUND:                 0.150
REMARK SMILES CC1=CCC[C@H](C)C(=O)C[C@@H](C(C)C)C(=O)C1
REMARK SMILES IDX 8 1 9 2 6 3 7 4 5 5 4 6 3 7 2 8 1 9 10 11 11 12 15 13 16 14
REMARK SMILES IDX 17 15 12 17 13 18 14 19
REMARK H PARENT
REMARK Flexibility Score: 70.00
ROOT
ATOM      1  C   UNL     1      -4.552  11.956 -24.084  1.00  0.00     0.136 C 
ATOM      2  O   UNL     1      -4.749  12.931 -23.370  1.00  0.00    -0.299 OA
ENDROOT
BRANCH   1   3
ATOM      3  C   UNL     1      -3.220  11.243 -24.025  1.00  0.00     0.053 C 
ATOM      4  C   UNL     1      -2.084  12.259 -23.858  1.00  0.00     0.016 C 
BRANCH   3   5
ATOM      5  C   UNL     1      -3.188  10.199 -22.892  1.00  0.00     0.015 C 
BRANCH   5   6
ATOM      6  C   UNL     1      -2.389   8.932 -23.264  1.00  0.00     0.028 C 
BRANCH   6   7
ATOM      7  C   UNL     1      -3.299   7.743 -23.473  1.00  0.00    -0.028 C 
ATOM      8  C   UNL     1      -4.110   7.503 -24.531  1.00  0.00    -0.070 CG0
ATOM      9  C   UNL     1      -4.877   6.203 -24.535  1.00  0.00     0.039 C 
ATOM     10  G   UNL     1      -4.308   8.450 -25.704  1.00  0.00     0.000 G0
ENDBRANCH   6   7
ENDBRANCH   5   6
ENDBRANCH   3   5
ENDBRANCH   1   3
BRANCH   1  11
ATOM     11  C   UNL     1      -5.598  11.512 -25.080  1.00  0.00     0.087 C 
BRANCH  11  12
ATOM     12  C   UNL     1      -6.185  10.109 -24.778  1.00  0.00     0.066 C 
BRANCH  12  13
ATOM     13  C   UNL     1      -5.714   9.027 -25.740  1.00  0.00     0.140 C 
ATOM     14  O   UNL     1      -6.484   8.666 -26.619  1.00  0.00    -0.299 OA
BRANCH  13  15
ATOM     15  C   UNL     1      -4.318   8.441 -25.721  1.00  0.00     0.106 CG0
ATOM     16  G   UNL     1      -4.129   7.509 -24.535  1.00  0.00     0.000 G0
ENDBRANCH  13  15
ENDBRANCH  12  13
BRANCH  12  17
ATOM     17  C   UNL     1      -7.737  10.086 -24.629  1.00  0.00    -0.006 C 
ATOM     18  C   UNL     1      -8.358  11.463 -24.337  1.00  0.00     0.008 C 
ATOM     19  C   UNL     1      -8.201   9.067 -23.576  1.00  0.00     0.008 C 
ENDBRANCH  12  17
ENDBRANCH  11  12
ENDBRANCH   1  11
TORSDOF 1
ENDMDL
