MODEL 1
REMARK VINA RESULT:    -2.710      0.000      0.000
REMARK INTER + INTRA:          -3.655
REMARK INTER:                  -3.503
REMARK INTRA:                  -0.152
REMARK UNBOUND:                -0.152
REMARK SMILES CCCCCCC(C)=O
REMARK SMILES IDX 4 1 3 2 2 3 1 4 5 5 6 6 7 7 9 8 8 9
REMARK H PARENT
REMARK Flexibility Score: inf
ROOT
ATOM      1  C   UNL     1     141.463 135.185 139.927  1.00  0.00     0.000 C 
ENDROOT
BRANCH   1   2
ATOM      2  C   UNL     1     141.570 133.820 139.238  1.00  0.00    -0.000 C 
BRANCH   2   3
ATOM      3  C   UNL     1     140.194 133.329 138.774  1.00  0.00    -0.003 C 
ATOM      4  C   UNL     1     140.018 131.838 139.053  1.00  0.00     0.004 C 
ENDBRANCH   2   3
ENDBRANCH   1   2
BRANCH   1   5
ATOM      5  C   UNL     1     141.877 135.091 141.403  1.00  0.00     0.008 C 
BRANCH   5   6
ATOM      6  C   UNL     1     142.444 136.417 141.928  1.00  0.00     0.075 C 
BRANCH   6   7
ATOM      7  C   UNL     1     142.148 136.612 143.394  1.00  0.00     0.129 C 
ATOM      8  O   UNL     1     142.823 137.394 144.045  1.00  0.00    -0.300 OA
ATOM      9  C   UNL     1     141.034 135.869 144.070  1.00  0.00     0.087 C 
ENDBRANCH   6   7
ENDBRANCH   5   6
ENDBRANCH   1   5
TORSDOF 5
ENDMDL
MODEL 2
REMARK VINA RESULT:    -2.689      4.256      5.743
REMARK INTER + INTRA:          -3.627
REMARK INTER:                  -3.421
REMARK INTRA:                  -0.206
REMARK UNBOUND:                -0.152
REMARK SMILES CCCCCCC(C)=O
REMARK SMILES IDX 4 1 3 2 2 3 1 4 5 5 6 6 7 7 9 8 8 9
REMARK H PARENT
REMARK Flexibility Score: inf
ROOT
ATOM      1  C   UNL     1     139.895 137.725 143.743  1.00  0.00     0.000 C 
ENDROOT
BRANCH   1   2
ATOM      2  C   UNL     1     140.568 136.390 144.080  1.00  0.00    -0.000 C 
BRANCH   2   3
ATOM      3  C   UNL     1     141.944 136.285 143.411  1.00  0.00    -0.003 C 
ATOM      4  C   UNL     1     141.820 135.806 141.967  1.00  0.00     0.004 C 
ENDBRANCH   2   3
ENDBRANCH   1   2
BRANCH   1   5
ATOM      5  C   UNL     1     138.376 137.553 143.594  1.00  0.00     0.008 C 
BRANCH   5   6
ATOM      6  C   UNL     1     137.820 138.347 142.404  1.00  0.00     0.075 C 
BRANCH   6   7
ATOM      7  C   UNL     1     136.568 139.104 142.770  1.00  0.00     0.129 C 
ATOM      8  O   UNL     1     135.662 139.197 141.956  1.00  0.00    -0.300 OA
ATOM      9  C   UNL     1     136.409 139.740 144.119  1.00  0.00     0.087 C 
ENDBRANCH   6   7
ENDBRANCH   5   6
ENDBRANCH   1   5
TORSDOF 5
ENDMDL
MODEL 3
REMARK VINA RESULT:    -2.671      7.531      9.403
REMARK INTER + INTRA:          -3.604
REMARK INTER:                  -3.429
REMARK INTRA:                  -0.175
REMARK UNBOUND:                -0.152
REMARK SMILES CCCCCCC(C)=O
REMARK SMILES IDX 4 1 3 2 2 3 1 4 5 5 6 6 7 7 9 8 8 9
REMARK H PARENT
REMARK Flexibility Score: inf
ROOT
ATOM      1  C   UNL     1     137.719 142.231 142.844  1.00  0.00     0.000 C 
ENDROOT
BRANCH   1   2
ATOM      2  C   UNL     1     138.128 143.652 143.249  1.00  0.00    -0.000 C 
BRANCH   2   3
ATOM      3  C   UNL     1     138.730 144.410 142.059  1.00  0.00    -0.003 C 
ATOM      4  C   UNL     1     139.632 145.547 142.530  1.00  0.00     0.004 C 
ENDBRANCH   2   3
ENDBRANCH   1   2
BRANCH   1   5
ATOM      5  C   UNL     1     137.359 141.390 144.078  1.00  0.00     0.008 C 
BRANCH   5   6
ATOM      6  C   UNL     1     136.080 140.569 143.864  1.00  0.00     0.075 C 
BRANCH   6   7
ATOM      7  C   UNL     1     136.225 139.591 142.726  1.00  0.00     0.129 C 
ATOM      8  O   UNL     1     137.051 138.695 142.805  1.00  0.00    -0.300 OA
ATOM      9  C   UNL     1     135.368 139.690 141.499  1.00  0.00     0.087 C 
ENDBRANCH   6   7
ENDBRANCH   5   6
ENDBRANCH   1   5
TORSDOF 5
ENDMDL
MODEL 4
REMARK VINA RESULT:    -2.657      3.889      6.678
REMARK INTER + INTRA:          -3.587
REMARK INTER:                  -3.386
REMARK INTRA:                  -0.200
REMARK UNBOUND:                -0.152
REMARK SMILES CCCCCCC(C)=O
REMARK SMILES IDX 4 1 3 2 2 3 1 4 5 5 6 6 7 7 9 8 8 9
REMARK H PARENT
REMARK Flexibility Score: inf
ROOT
ATOM      1  C   UNL     1     144.066 139.918 143.939  1.00  0.00     0.000 C 
ENDROOT
BRANCH   1   2
ATOM      2  C   UNL     1     144.337 140.599 142.593  1.00  0.00    -0.000 C 
BRANCH   2   3
ATOM      3  C   UNL     1     145.381 141.712 142.740  1.00  0.00    -0.003 C 
ATOM      4  C   UNL     1     146.185 141.887 141.454  1.00  0.00     0.004 C 
ENDBRANCH   2   3
ENDBRANCH   1   2
BRANCH   1   5
ATOM      5  C   UNL     1     144.038 138.390 143.788  1.00  0.00     0.008 C 
BRANCH   5   6
ATOM      6  C   UNL     1     143.309 137.950 142.511  1.00  0.00     0.075 C 
BRANCH   6   7
ATOM      7  C   UNL     1     142.513 136.687 142.727  1.00  0.00     0.129 C 
ATOM      8  O   UNL     1     142.458 135.852 141.838  1.00  0.00    -0.300 OA
ATOM      9  C   UNL     1     141.791 136.431 144.017  1.00  0.00     0.087 C 
ENDBRANCH   6   7
ENDBRANCH   5   6
ENDBRANCH   1   5
TORSDOF 5
ENDMDL
MODEL 5
REMARK VINA RESULT:    -2.654      8.776     10.097
REMARK INTER + INTRA:          -3.582
REMARK INTER:                  -3.404
REMARK INTRA:                  -0.178
REMARK UNBOUND:                -0.152
REMARK SMILES CCCCCCC(C)=O
REMARK SMILES IDX 4 1 3 2 2 3 1 4 5 5 6 6 7 7 9 8 8 9
REMARK H PARENT
REMARK Flexibility Score: inf
ROOT
ATOM      1  C   UNL     1     142.243 143.929 142.635  1.00  0.00     0.000 C 
ENDROOT
BRANCH   1   2
ATOM      2  C   UNL     1     143.616 143.498 143.162  1.00  0.00    -0.000 C 
BRANCH   2   3
ATOM      3  C   UNL     1     144.469 142.890 142.041  1.00  0.00    -0.003 C 
ATOM      4  C   UNL     1     145.493 141.906 142.600  1.00  0.00     0.004 C 
ENDBRANCH   2   3
ENDBRANCH   1   2
BRANCH   1   5
ATOM      5  C   UNL     1     141.253 144.142 143.789  1.00  0.00     0.008 C 
BRANCH   5   6
ATOM      6  C   UNL     1     140.489 145.466 143.658  1.00  0.00     0.075 C 
BRANCH   6   7
ATOM      7  C   UNL     1     139.540 145.453 142.485  1.00  0.00     0.129 C 
ATOM      8  O   UNL     1     138.603 144.669 142.479  1.00  0.00    -0.300 OA
ATOM      9  C   UNL     1     139.718 146.389 141.327  1.00  0.00     0.087 C 
ENDBRANCH   6   7
ENDBRANCH   5   6
ENDBRANCH   1   5
TORSDOF 5
ENDMDL
MODEL 6
REMARK VINA RESULT:    -2.628      8.278      9.718
REMARK INTER + INTRA:          -3.549
REMARK INTER:                  -3.415
REMARK INTRA:                  -0.134
REMARK UNBOUND:                -0.152
REMARK SMILES CCCCCCC(C)=O
REMARK SMILES IDX 4 1 3 2 2 3 1 4 5 5 6 6 7 7 9 8 8 9
REMARK H PARENT
REMARK Flexibility Score: inf
ROOT
ATOM      1  C   UNL     1     142.818 144.336 144.124  1.00  0.00     0.000 C 
ENDROOT
BRANCH   1   2
ATOM      2  C   UNL     1     141.293 144.192 144.070  1.00  0.00    -0.000 C 
BRANCH   2   3
ATOM      3  C   UNL     1     140.619 145.553 143.863  1.00  0.00    -0.003 C 
ATOM      4  C   UNL     1     139.611 145.501 142.718  1.00  0.00     0.004 C 
ENDBRANCH   2   3
ENDBRANCH   1   2
BRANCH   1   5
ATOM      5  C   UNL     1     143.507 142.976 143.935  1.00  0.00     0.008 C 
BRANCH   5   6
ATOM      6  C   UNL     1     144.378 142.941 142.672  1.00  0.00     0.075 C 
BRANCH   6   7
ATOM      7  C   UNL     1     145.455 141.889 142.764  1.00  0.00     0.129 C 
ATOM      8  O   UNL     1     146.243 141.754 141.840  1.00  0.00    -0.300 OA
ATOM      9  C   UNL     1     145.586 141.010 143.972  1.00  0.00     0.087 C 
ENDBRANCH   6   7
ENDBRANCH   5   6
ENDBRANCH   1   5
TORSDOF 5
ENDMDL
MODEL 7
REMARK VINA RESULT:    -2.620      8.045      8.707
REMARK INTER + INTRA:          -3.538
REMARK INTER:                  -3.363
REMARK INTRA:                  -0.174
REMARK UNBOUND:                -0.152
REMARK SMILES CCCCCCC(C)=O
REMARK SMILES IDX 4 1 3 2 2 3 1 4 5 5 6 6 7 7 9 8 8 9
REMARK H PARENT
REMARK Flexibility Score: inf
ROOT
ATOM      1  C   UNL     1     146.742 140.819 138.815  1.00  0.00     0.000 C 
ENDROOT
BRANCH   1   2
ATOM      2  C   UNL     1     148.189 140.841 139.320  1.00  0.00    -0.000 C 
BRANCH   2   3
ATOM      3  C   UNL     1     149.029 139.760 138.628  1.00  0.00    -0.003 C 
ATOM      4  C   UNL     1     150.412 139.647 139.264  1.00  0.00     0.004 C 
ENDBRANCH   2   3
ENDBRANCH   1   2
BRANCH   1   5
ATOM      5  C   UNL     1     145.799 141.499 139.818  1.00  0.00     0.008 C 
BRANCH   5   6
ATOM      6  C   UNL     1     146.504 141.829 141.141  1.00  0.00     0.075 C 
BRANCH   6   7
ATOM      7  C   UNL     1     145.519 142.159 142.234  1.00  0.00     0.129 C 
ATOM      8  O   UNL     1     144.661 143.006 142.035  1.00  0.00    -0.300 OA
ATOM      9  C   UNL     1     145.566 141.463 143.562  1.00  0.00     0.087 C 
ENDBRANCH   6   7
ENDBRANCH   5   6
ENDBRANCH   1   5
TORSDOF 5
ENDMDL
MODEL 8
REMARK VINA RESULT:    -2.608     10.705     12.085
REMARK INTER + INTRA:          -3.523
REMARK INTER:                  -3.366
REMARK INTRA:                  -0.157
REMARK UNBOUND:                -0.152
REMARK SMILES CCCCCCC(C)=O
REMARK SMILES IDX 4 1 3 2 2 3 1 4 5 5 6 6 7 7 9 8 8 9
REMARK H PARENT
REMARK Flexibility Score: inf
ROOT
ATOM      1  C   UNL     1     139.890 146.225 139.467  1.00  0.00     0.000 C 
ENDROOT
BRANCH   1   2
ATOM      2  C   UNL     1     140.090 147.743 139.548  1.00  0.00    -0.000 C 
BRANCH   2   3
ATOM      3  C   UNL     1     141.370 148.168 138.818  1.00  0.00    -0.003 C 
ATOM      4  C   UNL     1     141.744 149.609 139.157  1.00  0.00     0.004 C 
ENDBRANCH   2   3
ENDBRANCH   1   2
BRANCH   1   5
ATOM      5  C   UNL     1     140.253 145.551 140.798  1.00  0.00     0.008 C 
BRANCH   5   6
ATOM      6  C   UNL     1     139.375 146.047 141.955  1.00  0.00     0.075 C 
BRANCH   6   7
ATOM      7  C   UNL     1     139.592 145.240 143.210  1.00  0.00     0.129 C 
ATOM      8  O   UNL     1     138.817 144.339 143.488  1.00  0.00    -0.300 OA
ATOM      9  C   UNL     1     140.750 145.517 144.124  1.00  0.00     0.087 C 
ENDBRANCH   6   7
ENDBRANCH   5   6
ENDBRANCH   1   5
TORSDOF 5
ENDMDL
MODEL 9
REMARK VINA RESULT:    -2.568      8.091      9.194
REMARK INTER + INTRA:          -3.470
REMARK INTER:                  -3.232
REMARK INTRA:                  -0.238
REMARK UNBOUND:                -0.152
REMARK SMILES CCCCCCC(C)=O
REMARK SMILES IDX 4 1 3 2 2 3 1 4 5 5 6 6 7 7 9 8 8 9
REMARK H PARENT
REMARK Flexibility Score: inf
ROOT
ATOM      1  C   UNL     1     138.050 141.670 142.311  1.00  0.00     0.000 C 
ENDROOT
BRANCH   1   2
ATOM      2  C   UNL     1     137.637 141.386 143.760  1.00  0.00    -0.000 C 
BRANCH   2   3
ATOM      3  C   UNL     1     136.247 140.741 143.819  1.00  0.00    -0.003 C 
ATOM      4  C   UNL     1     135.971 139.910 142.569  1.00  0.00     0.004 C 
ENDBRANCH   2   3
ENDBRANCH   1   2
BRANCH   1   5
ATOM      5  C   UNL     1     138.142 143.181 142.052  1.00  0.00     0.008 C 
BRANCH   5   6
ATOM      6  C   UNL     1     138.508 143.963 143.321  1.00  0.00     0.075 C 
BRANCH   6   7
ATOM      7  C   UNL     1     139.365 145.164 143.012  1.00  0.00     0.129 C 
ATOM      8  O   UNL     1     139.090 145.868 142.052  1.00  0.00    -0.300 OA
ATOM      9  C   UNL     1     140.546 145.520 143.866  1.00  0.00     0.087 C 
ENDBRANCH   6   7
ENDBRANCH   5   6
ENDBRANCH   1   5
TORSDOF 5
ENDMDL
