MODEL 1
REMARK VINA RESULT:    -4.812      0.000      0.000
REMARK INTER + INTRA:          -4.812
REMARK INTER:                  -4.812
REMARK INTRA:                   0.000
REMARK UNBOUND:                 0.000
REMARK SMILES CC1=CC[C@@H]2[C@@H](C1)C2(C)C
REMARK SMILES IDX 1 1 2 2 3 3 4 4 5 5 6 6 7 7 8 8 9 9 10 10
REMARK H PARENT
REMARK Flexibility Score: inf
ROOT
ATOM      1  C   UNL     1     141.533 145.094 162.524  1.00  0.00     0.039 C 
ATOM      2  C   UNL     1     142.372 144.065 163.228  1.00  0.00    -0.077 C 
ATOM      3  C   UNL     1     142.742 144.275 164.526  1.00  0.00    -0.028 C 
ATOM      4  C   UNL     1     143.615 143.281 165.288  1.00  0.00     0.031 C 
ATOM      5  C   UNL     1     144.400 142.459 164.260  1.00  0.00     0.003 C 
ATOM      6  C   UNL     1     143.231 141.749 163.480  1.00  0.00     0.003 C 
ATOM      7  C   UNL     1     142.853 142.829 162.459  1.00  0.00     0.034 C 
ATOM      8  C   UNL     1     144.489 141.002 163.863  1.00  0.00    -0.029 C 
ATOM      9  C   UNL     1     145.430 140.653 162.707  1.00  0.00     0.012 C 
ATOM     10  C   UNL     1     144.376 139.996 165.012  1.00  0.00     0.012 C 
ENDROOT
TORSDOF 0
ENDMDL
MODEL 2
REMARK VINA RESULT:    -4.789      6.269      7.857
REMARK INTER + INTRA:          -4.789
REMARK INTER:                  -4.789
REMARK INTRA:                   0.000
REMARK UNBOUND:                 0.000
REMARK SMILES CC1=CC[C@@H]2[C@@H](C1)C2(C)C
REMARK SMILES IDX 1 1 2 2 3 3 4 4 5 5 6 6 7 7 8 8 9 9 10 10
REMARK H PARENT
REMARK Flexibility Score: inf
ROOT
ATOM      1  C   UNL     1     149.211 145.750 162.511  1.00  0.00     0.039 C 
ATOM      2  C   UNL     1     148.350 146.773 163.196  1.00  0.00    -0.077 C 
ATOM      3  C   UNL     1     147.990 146.583 164.500  1.00  0.00    -0.028 C 
ATOM      4  C   UNL     1     147.097 147.573 165.244  1.00  0.00     0.031 C 
ATOM      5  C   UNL     1     146.288 148.353 164.202  1.00  0.00     0.003 C 
ATOM      6  C   UNL     1     147.437 149.073 163.401  1.00  0.00     0.003 C 
ATOM      7  C   UNL     1     147.836 147.980 162.403  1.00  0.00     0.034 C 
ATOM      8  C   UNL     1     146.163 149.798 163.774  1.00  0.00    -0.029 C 
ATOM      9  C   UNL     1     145.209 150.099 162.615  1.00  0.00     0.012 C 
ATOM     10  C   UNL     1     146.256 150.831 164.900  1.00  0.00     0.012 C 
ENDROOT
TORSDOF 0
ENDMDL
MODEL 3
REMARK VINA RESULT:    -4.789      4.328      5.469
REMARK INTER + INTRA:          -4.789
REMARK INTER:                  -4.789
REMARK INTRA:                   0.000
REMARK UNBOUND:                 0.000
REMARK SMILES CC1=CC[C@@H]2[C@@H](C1)C2(C)C
REMARK SMILES IDX 1 1 2 2 3 3 4 4 5 5 6 6 7 7 8 8 9 9 10 10
REMARK H PARENT
REMARK Flexibility Score: inf
ROOT
ATOM      1  C   UNL     1     145.080 149.178 162.539  1.00  0.00     0.039 C 
ATOM      2  C   UNL     1     144.055 148.322 163.227  1.00  0.00    -0.077 C 
ATOM      3  C   UNL     1     144.261 147.938 164.522  1.00  0.00    -0.028 C 
ATOM      4  C   UNL     1     143.270 147.048 165.268  1.00  0.00     0.031 C 
ATOM      5  C   UNL     1     142.461 146.267 164.226  1.00  0.00     0.003 C 
ATOM      6  C   UNL     1     141.746 147.439 163.455  1.00  0.00     0.003 C 
ATOM      7  C   UNL     1     142.828 147.839 162.445  1.00  0.00     0.034 C 
ATOM      8  C   UNL     1     141.008 146.170 163.819  1.00  0.00    -0.029 C 
ATOM      9  C   UNL     1     140.674 145.239 162.650  1.00  0.00     0.012 C 
ATOM     10  C   UNL     1     139.994 146.261 164.963  1.00  0.00     0.012 C 
ENDROOT
TORSDOF 0
ENDMDL
MODEL 4
REMARK VINA RESULT:    -4.782      4.479      5.621
REMARK INTER + INTRA:          -4.782
REMARK INTER:                  -4.782
REMARK INTRA:                   0.000
REMARK UNBOUND:                 0.000
REMARK SMILES CC1=CC[C@@H]2[C@@H](C1)C2(C)C
REMARK SMILES IDX 1 1 2 2 3 3 4 4 5 5 6 6 7 7 8 8 9 9 10 10
REMARK H PARENT
REMARK Flexibility Score: inf
ROOT
ATOM      1  C   UNL     1     145.734 141.575 162.468  1.00  0.00     0.039 C 
ATOM      2  C   UNL     1     146.764 142.424 163.158  1.00  0.00    -0.077 C 
ATOM      3  C   UNL     1     146.567 142.794 164.458  1.00  0.00    -0.028 C 
ATOM      4  C   UNL     1     147.563 143.676 165.207  1.00  0.00     0.031 C 
ATOM      5  C   UNL     1     148.366 144.467 164.168  1.00  0.00     0.003 C 
ATOM      6  C   UNL     1     149.076 143.303 163.381  1.00  0.00     0.003 C 
ATOM      7  C   UNL     1     147.986 142.915 162.374  1.00  0.00     0.034 C 
ATOM      8  C   UNL     1     149.816 144.567 163.754  1.00  0.00    -0.029 C 
ATOM      9  C   UNL     1     150.143 145.510 162.592  1.00  0.00     0.012 C 
ATOM     10  C   UNL     1     150.837 144.464 164.890  1.00  0.00     0.012 C 
ENDROOT
TORSDOF 0
ENDMDL
MODEL 5
REMARK VINA RESULT:    -4.751      5.563      7.069
REMARK INTER + INTRA:          -4.751
REMARK INTER:                  -4.751
REMARK INTRA:                   0.000
REMARK UNBOUND:                 0.000
REMARK SMILES CC1=CC[C@@H]2[C@@H](C1)C2(C)C
REMARK SMILES IDX 1 1 2 2 3 3 4 4 5 5 6 6 7 7 8 8 9 9 10 10
REMARK H PARENT
REMARK Flexibility Score: inf
ROOT
ATOM      1  C   UNL     1     150.586 144.613 165.100  1.00  0.00     0.039 C 
ATOM      2  C   UNL     1     150.134 144.492 163.672  1.00  0.00    -0.077 C 
ATOM      3  C   UNL     1     150.336 145.536 162.814  1.00  0.00    -0.028 C 
ATOM      4  C   UNL     1     149.878 145.485 161.358  1.00  0.00     0.031 C 
ATOM      5  C   UNL     1     148.750 144.452 161.256  1.00  0.00     0.003 C 
ATOM      6  C   UNL     1     149.500 143.138 161.691  1.00  0.00     0.003 C 
ATOM      7  C   UNL     1     149.398 143.227 163.218  1.00  0.00     0.034 C 
ATOM      8  C   UNL     1     148.529 143.144 160.531  1.00  0.00    -0.029 C 
ATOM      9  C   UNL     1     147.198 142.429 160.778  1.00  0.00     0.012 C 
ATOM     10  C   UNL     1     149.128 143.058 159.124  1.00  0.00     0.012 C 
ENDROOT
TORSDOF 0
ENDMDL
MODEL 6
REMARK VINA RESULT:    -4.708      4.489      5.948
REMARK INTER + INTRA:          -4.708
REMARK INTER:                  -4.708
REMARK INTRA:                   0.000
REMARK UNBOUND:                 0.000
REMARK SMILES CC1=CC[C@@H]2[C@@H](C1)C2(C)C
REMARK SMILES IDX 1 1 2 2 3 3 4 4 5 5 6 6 7 7 8 8 9 9 10 10
REMARK H PARENT
REMARK Flexibility Score: inf
ROOT
ATOM      1  C   UNL     1     145.619 148.826 164.549  1.00  0.00     0.039 C 
ATOM      2  C   UNL     1     144.362 148.205 164.009  1.00  0.00    -0.077 C 
ATOM      3  C   UNL     1     144.052 148.356 162.687  1.00  0.00    -0.028 C 
ATOM      4  C   UNL     1     142.778 147.771 162.084  1.00  0.00     0.031 C 
ATOM      5  C   UNL     1     141.766 147.577 163.218  1.00  0.00     0.003 C 
ATOM      6  C   UNL     1     142.524 146.540 164.129  1.00  0.00     0.003 C 
ATOM      7  C   UNL     1     143.414 147.468 164.963  1.00  0.00     0.034 C 
ATOM      8  C   UNL     1     141.043 146.409 163.850  1.00  0.00    -0.029 C 
ATOM      9  C   UNL     1     140.117 146.720 165.029  1.00  0.00     0.012 C 
ATOM     10  C   UNL     1     140.614 145.298 162.887  1.00  0.00     0.012 C 
ENDROOT
TORSDOF 0
ENDMDL
MODEL 7
REMARK VINA RESULT:    -4.692      4.330      5.717
REMARK INTER + INTRA:          -4.692
REMARK INTER:                  -4.692
REMARK INTRA:                   0.000
REMARK UNBOUND:                 0.000
REMARK SMILES CC1=CC[C@@H]2[C@@H](C1)C2(C)C
REMARK SMILES IDX 1 1 2 2 3 3 4 4 5 5 6 6 7 7 8 8 9 9 10 10
REMARK H PARENT
REMARK Flexibility Score: inf
ROOT
ATOM      1  C   UNL     1     145.078 142.061 164.551  1.00  0.00     0.039 C 
ATOM      2  C   UNL     1     146.360 142.637 164.019  1.00  0.00    -0.077 C 
ATOM      3  C   UNL     1     146.672 142.478 162.699  1.00  0.00    -0.028 C 
ATOM      4  C   UNL     1     147.970 143.017 162.104  1.00  0.00     0.031 C 
ATOM      5  C   UNL     1     148.982 143.173 163.245  1.00  0.00     0.003 C 
ATOM      6  C   UNL     1     148.256 144.235 164.152  1.00  0.00     0.003 C 
ATOM      7  C   UNL     1     147.328 143.338 164.980  1.00  0.00     0.034 C 
ATOM      8  C   UNL     1     149.742 144.314 163.882  1.00  0.00    -0.029 C 
ATOM      9  C   UNL     1     150.649 143.968 165.066  1.00  0.00     0.012 C 
ATOM     10  C   UNL     1     150.216 145.410 162.924  1.00  0.00     0.012 C 
ENDROOT
TORSDOF 0
ENDMDL
MODEL 8
REMARK VINA RESULT:    -4.616      6.165      7.920
REMARK INTER + INTRA:          -4.616
REMARK INTER:                  -4.616
REMARK INTRA:                   0.000
REMARK UNBOUND:                 0.000
REMARK SMILES CC1=CC[C@@H]2[C@@H](C1)C2(C)C
REMARK SMILES IDX 1 1 2 2 3 3 4 4 5 5 6 6 7 7 8 8 9 9 10 10
REMARK H PARENT
REMARK Flexibility Score: inf
ROOT
ATOM      1  C   UNL     1     148.740 144.992 164.478  1.00  0.00     0.039 C 
ATOM      2  C   UNL     1     148.162 146.273 163.947  1.00  0.00    -0.077 C 
ATOM      3  C   UNL     1     148.344 146.598 162.633  1.00  0.00    -0.028 C 
ATOM      4  C   UNL     1     147.804 147.896 162.039  1.00  0.00     0.031 C 
ATOM      5  C   UNL     1     147.616 148.896 163.185  1.00  0.00     0.003 C 
ATOM      6  C   UNL     1     146.544 148.152 164.066  1.00  0.00     0.003 C 
ATOM      7  C   UNL     1     147.434 147.225 164.902  1.00  0.00     0.034 C 
ATOM      8  C   UNL     1     146.456 149.639 163.807  1.00  0.00    -0.029 C 
ATOM      9  C   UNL     1     146.770 150.539 165.006  1.00  0.00     0.012 C 
ATOM     10  C   UNL     1     145.374 150.112 162.832  1.00  0.00     0.012 C 
ENDROOT
TORSDOF 0
ENDMDL
MODEL 9
REMARK VINA RESULT:    -4.596      7.064      8.306
REMARK INTER + INTRA:          -4.596
REMARK INTER:                  -4.596
REMARK INTRA:                   0.000
REMARK UNBOUND:                 0.000
REMARK SMILES CC1=CC[C@@H]2[C@@H](C1)C2(C)C
REMARK SMILES IDX 1 1 2 2 3 3 4 4 5 5 6 6 7 7 8 8 9 9 10 10
REMARK H PARENT
REMARK Flexibility Score: inf
ROOT
ATOM      1  C   UNL     1     148.472 147.195 159.364  1.00  0.00     0.039 C 
ATOM      2  C   UNL     1     148.152 147.680 160.750  1.00  0.00    -0.077 C 
ATOM      3  C   UNL     1     148.297 146.830 161.809  1.00  0.00    -0.028 C 
ATOM      4  C   UNL     1     147.965 147.255 163.237  1.00  0.00     0.031 C 
ATOM      5  C   UNL     1     146.977 148.424 163.163  1.00  0.00     0.003 C 
ATOM      6  C   UNL     1     147.838 149.503 162.406  1.00  0.00     0.003 C 
ATOM      7  C   UNL     1     147.607 149.100 160.945  1.00  0.00     0.034 C 
ATOM      8  C   UNL     1     146.968 149.876 163.585  1.00  0.00    -0.029 C 
ATOM      9  C   UNL     1     145.714 150.689 163.253  1.00  0.00     0.012 C 
ATOM     10  C   UNL     1     147.682 150.185 164.904  1.00  0.00     0.012 C 
ENDROOT
TORSDOF 0
ENDMDL
