MODEL 1
REMARK VINA RESULT:    -4.531      0.000      0.000
REMARK INTER + INTRA:          -7.635
REMARK INTER:                  -6.915
REMARK INTRA:                  -0.720
REMARK UNBOUND:                -0.720
REMARK SMILES CCCCCCCCCCC(=O)[O-]
REMARK SMILES IDX 7 1 8 2 9 3 10 4 11 5 12 6 13 7 6 8 5 9 4 10 3 11 2 12 1 13
REMARK H PARENT
REMARK Flexibility Score: inf
ROOT
ATOM      1  C   UNL     1      12.158  13.898   2.920  1.00  0.00     0.000 C 
ENDROOT
BRANCH   1   2
ATOM      2  C   UNL     1      12.933  13.222   1.771  1.00  0.00     0.000 C 
BRANCH   2   3
ATOM      3  C   UNL     1      14.359  13.761   1.536  1.00  0.00     0.006 C 
BRANCH   3   4
ATOM      4  C   UNL     1      15.439  13.095   2.401  1.00  0.00     0.053 C 
BRANCH   4   5
ATOM      5  C   UNL     1      16.155  14.088   3.264  1.00  0.00     0.041 C 
ATOM      6  O   UNL     1      15.502  14.880   3.994  1.00  0.00    -0.550 OA
ATOM      7  O   UNL     1      17.543  14.117   3.286  1.00  0.00    -0.550 OA
ENDBRANCH   4   5
ENDBRANCH   3   4
ENDBRANCH   2   3
ENDBRANCH   1   2
BRANCH   1   8
ATOM      8  C   UNL     1      12.178  13.133   4.255  1.00  0.00     0.000 C 
BRANCH   8   9
ATOM      9  C   UNL     1      12.119  11.607   4.067  1.00  0.00    -0.000 C 
BRANCH   9  10
ATOM     10  C   UNL     1      10.681  11.079   3.952  1.00  0.00    -0.000 C 
BRANCH  10  11
ATOM     11  C   UNL     1      10.340  10.056   5.049  1.00  0.00    -0.000 C 
BRANCH  11  12
ATOM     12  C   UNL     1       9.382  10.626   6.107  1.00  0.00    -0.003 C 
ATOM     13  C   UNL     1       8.340  11.573   5.516  1.00  0.00     0.004 C 
ENDBRANCH  11  12
ENDBRANCH  10  11
ENDBRANCH   9  10
ENDBRANCH   8   9
ENDBRANCH   1   8
TORSDOF 9
ENDMDL
MODEL 2
REMARK VINA RESULT:    -4.499      1.516      2.270
REMARK INTER + INTRA:          -7.586
REMARK INTER:                  -7.005
REMARK INTRA:                  -0.581
REMARK UNBOUND:                -0.720
REMARK SMILES CCCCCCCCCCC(=O)[O-]
REMARK SMILES IDX 7 1 8 2 9 3 10 4 11 5 12 6 13 7 6 8 5 9 4 10 3 11 2 12 1 13
REMARK H PARENT
REMARK Flexibility Score: inf
ROOT
ATOM      1  C   UNL     1      12.124  12.977   4.369  1.00  0.00     0.000 C 
ENDROOT
BRANCH   1   2
ATOM      2  C   UNL     1      13.144  13.014   5.525  1.00  0.00     0.000 C 
BRANCH   2   3
ATOM      3  C   UNL     1      14.610  12.773   5.114  1.00  0.00     0.006 C 
BRANCH   3   4
ATOM      4  C   UNL     1      15.233  13.910   4.289  1.00  0.00     0.053 C 
BRANCH   4   5
ATOM      5  C   UNL     1      16.334  13.417   3.401  1.00  0.00     0.041 C 
ATOM      6  O   UNL     1      17.537  13.572   3.737  1.00  0.00    -0.550 OA
ATOM      7  O   UNL     1      16.028  12.758   2.217  1.00  0.00    -0.550 OA
ENDBRANCH   4   5
ENDBRANCH   3   4
ENDBRANCH   2   3
ENDBRANCH   1   2
BRANCH   1   8
ATOM      8  C   UNL     1      11.711  11.566   3.913  1.00  0.00     0.000 C 
BRANCH   8   9
ATOM      9  C   UNL     1      10.193  11.333   4.003  1.00  0.00    -0.000 C 
BRANCH   9  10
ATOM     10  C   UNL     1       9.800  10.447   5.195  1.00  0.00    -0.000 C 
BRANCH  10  11
ATOM     11  C   UNL     1       9.654  11.247   6.501  1.00  0.00    -0.000 C 
BRANCH  11  12
ATOM     12  C   UNL     1       8.655  12.408   6.371  1.00  0.00    -0.003 C 
ATOM     13  C   UNL     1       7.231  12.012   6.759  1.00  0.00     0.004 C 
ENDBRANCH  11  12
ENDBRANCH  10  11
ENDBRANCH   9  10
ENDBRANCH   8   9
ENDBRANCH   1   8
TORSDOF 9
ENDMDL
MODEL 3
REMARK VINA RESULT:    -4.497      0.655      1.347
REMARK INTER + INTRA:          -7.582
REMARK INTER:                  -6.730
REMARK INTRA:                  -0.852
REMARK UNBOUND:                -0.720
REMARK SMILES CCCCCCCCCCC(=O)[O-]
REMARK SMILES IDX 7 1 8 2 9 3 10 4 11 5 12 6 13 7 6 8 5 9 4 10 3 11 2 12 1 13
REMARK H PARENT
REMARK Flexibility Score: inf
ROOT
ATOM      1  C   UNL     1      12.209  14.338   2.712  1.00  0.00     0.000 C 
ENDROOT
BRANCH   1   2
ATOM      2  C   UNL     1      13.020  13.453   1.744  1.00  0.00     0.000 C 
BRANCH   2   3
ATOM      3  C   UNL     1      14.466  13.919   1.485  1.00  0.00     0.006 C 
BRANCH   3   4
ATOM      4  C   UNL     1      15.539  13.094   2.213  1.00  0.00     0.053 C 
BRANCH   4   5
ATOM      5  C   UNL     1      16.203  13.878   3.302  1.00  0.00     0.041 C 
ATOM      6  O   UNL     1      17.407  13.661   3.596  1.00  0.00    -0.550 OA
ATOM      7  O   UNL     1      15.498  14.872   3.971  1.00  0.00    -0.550 OA
ENDBRANCH   4   5
ENDBRANCH   3   4
ENDBRANCH   2   3
ENDBRANCH   1   2
BRANCH   1   8
ATOM      8  C   UNL     1      11.799  13.654   4.028  1.00  0.00     0.000 C 
BRANCH   8   9
ATOM      9  C   UNL     1      12.596  12.368   4.304  1.00  0.00    -0.000 C 
BRANCH   9  10
ATOM     10  C   UNL     1      11.733  11.101   4.200  1.00  0.00    -0.000 C 
BRANCH  10  11
ATOM     11  C   UNL     1      10.246  11.421   3.962  1.00  0.00    -0.000 C 
BRANCH  11  12
ATOM     12  C   UNL     1       9.348  10.929   5.108  1.00  0.00    -0.003 C 
ATOM     13  C   UNL     1       9.994   9.815   5.931  1.00  0.00     0.004 C 
ENDBRANCH  11  12
ENDBRANCH  10  11
ENDBRANCH   9  10
ENDBRANCH   8   9
ENDBRANCH   1   8
TORSDOF 9
ENDMDL
MODEL 4
REMARK VINA RESULT:    -4.472      1.292      1.888
REMARK INTER + INTRA:          -7.545
REMARK INTER:                  -6.847
REMARK INTRA:                  -0.698
REMARK UNBOUND:                -0.720
REMARK SMILES CCCCCCCCCCC(=O)[O-]
REMARK SMILES IDX 7 1 8 2 9 3 10 4 11 5 12 6 13 7 6 8 5 9 4 10 3 11 2 12 1 13
REMARK H PARENT
REMARK Flexibility Score: inf
ROOT
ATOM      1  C   UNL     1      11.905  12.285   3.312  1.00  0.00     0.000 C 
ENDROOT
BRANCH   1   2
ATOM      2  C   UNL     1      13.334  12.138   3.872  1.00  0.00     0.000 C 
BRANCH   2   3
ATOM      3  C   UNL     1      14.409  12.977   3.152  1.00  0.00     0.006 C 
BRANCH   3   4
ATOM      4  C   UNL     1      15.229  13.887   4.079  1.00  0.00     0.053 C 
BRANCH   4   5
ATOM      5  C   UNL     1      16.537  14.279   3.464  1.00  0.00     0.041 C 
ATOM      6  O   UNL     1      16.627  15.335   2.785  1.00  0.00    -0.550 OA
ATOM      7  O   UNL     1      17.664  13.493   3.668  1.00  0.00    -0.550 OA
ENDBRANCH   4   5
ENDBRANCH   3   4
ENDBRANCH   2   3
ENDBRANCH   1   2
BRANCH   1   8
ATOM      8  C   UNL     1      11.217  13.624   3.630  1.00  0.00     0.000 C 
BRANCH   8   9
ATOM      9  C   UNL     1       9.684  13.508   3.681  1.00  0.00    -0.000 C 
BRANCH   9  10
ATOM     10  C   UNL     1       9.196  12.054   3.587  1.00  0.00    -0.000 C 
BRANCH  10  11
ATOM     11  C   UNL     1       8.492  11.585   4.871  1.00  0.00    -0.000 C 
BRANCH  11  12
ATOM     12  C   UNL     1       9.460  10.923   5.865  1.00  0.00    -0.003 C 
ATOM     13  C   UNL     1      10.149   9.687   5.288  1.00  0.00     0.004 C 
ENDBRANCH  11  12
ENDBRANCH  10  11
ENDBRANCH   9  10
ENDBRANCH   8   9
ENDBRANCH   1   8
TORSDOF 9
ENDMDL
MODEL 5
REMARK VINA RESULT:    -4.390      4.353      6.613
REMARK INTER + INTRA:          -7.420
REMARK INTER:                  -6.174
REMARK INTRA:                  -1.246
REMARK UNBOUND:                -0.720
REMARK SMILES CCCCCCCCCCC(=O)[O-]
REMARK SMILES IDX 7 1 8 2 9 3 10 4 11 5 12 6 13 7 6 8 5 9 4 10 3 11 2 12 1 13
REMARK H PARENT
REMARK Flexibility Score: inf
ROOT
ATOM      1  C   UNL     1       9.077  10.902   5.872  1.00  0.00     0.000 C 
ENDROOT
BRANCH   1   2
ATOM      2  C   UNL     1       9.310  11.291   7.346  1.00  0.00     0.000 C 
BRANCH   2   3
ATOM      3  C   UNL     1       9.362  12.807   7.623  1.00  0.00     0.006 C 
BRANCH   3   4
ATOM      4  C   UNL     1       8.867  13.682   6.460  1.00  0.00     0.053 C 
BRANCH   4   5
ATOM      5  C   UNL     1       7.497  14.229   6.717  1.00  0.00     0.041 C 
ATOM      6  O   UNL     1       7.306  15.473   6.749  1.00  0.00    -0.550 OA
ATOM      7  O   UNL     1       6.424  13.363   6.890  1.00  0.00    -0.550 OA
ENDBRANCH   4   5
ENDBRANCH   3   4
ENDBRANCH   2   3
ENDBRANCH   1   2
BRANCH   1   8
ATOM      8  C   UNL     1      10.012   9.804   5.335  1.00  0.00     0.000 C 
BRANCH   8   9
ATOM      9  C   UNL     1      11.142  10.364   4.453  1.00  0.00    -0.000 C 
BRANCH   9  10
ATOM     10  C   UNL     1      10.785  11.721   3.825  1.00  0.00    -0.000 C 
BRANCH  10  11
ATOM     11  C   UNL     1      11.976  12.695   3.813  1.00  0.00    -0.000 C 
BRANCH  11  12
ATOM     12  C   UNL     1      12.948  12.450   4.978  1.00  0.00    -0.003 C 
ATOM     13  C   UNL     1      12.696  13.377   6.166  1.00  0.00     0.004 C 
ENDBRANCH  11  12
ENDBRANCH  10  11
ENDBRANCH   9  10
ENDBRANCH   8   9
ENDBRANCH   1   8
TORSDOF 9
ENDMDL
MODEL 6
REMARK VINA RESULT:    -4.347      4.325      7.130
REMARK INTER + INTRA:          -7.353
REMARK INTER:                  -6.889
REMARK INTRA:                  -0.464
REMARK UNBOUND:                -0.720
REMARK SMILES CCCCCCCCCCC(=O)[O-]
REMARK SMILES IDX 7 1 8 2 9 3 10 4 11 5 12 6 13 7 6 8 5 9 4 10 3 11 2 12 1 13
REMARK H PARENT
REMARK Flexibility Score: inf
ROOT
ATOM      1  C   UNL     1      10.374  11.767   3.674  1.00  0.00     0.000 C 
ENDROOT
BRANCH   1   2
ATOM      2  C   UNL     1       9.017  11.591   4.385  1.00  0.00     0.000 C 
BRANCH   2   3
ATOM      3  C   UNL     1       9.075  10.842   5.731  1.00  0.00     0.006 C 
BRANCH   3   4
ATOM      4  C   UNL     1       8.869  11.736   6.964  1.00  0.00     0.053 C 
BRANCH   4   5
ATOM      5  C   UNL     1       7.435  11.768   7.397  1.00  0.00     0.041 C 
ATOM      6  O   UNL     1       7.098  11.282   8.508  1.00  0.00    -0.550 OA
ATOM      7  O   UNL     1       6.478  12.364   6.585  1.00  0.00    -0.550 OA
ENDBRANCH   4   5
ENDBRANCH   3   4
ENDBRANCH   2   3
ENDBRANCH   1   2
BRANCH   1   8
ATOM      8  C   UNL     1      11.593  11.260   4.465  1.00  0.00     0.000 C 
BRANCH   8   9
ATOM      9  C   UNL     1      12.919  11.856   3.962  1.00  0.00    -0.000 C 
BRANCH   9  10
ATOM     10  C   UNL     1      12.712  12.966   2.920  1.00  0.00    -0.000 C 
BRANCH  10  11
ATOM     11  C   UNL     1      13.948  13.870   2.769  1.00  0.00    -0.000 C 
BRANCH  11  12
ATOM     12  C   UNL     1      15.252  13.067   2.642  1.00  0.00    -0.003 C 
ATOM     13  C   UNL     1      16.305  13.477   3.671  1.00  0.00     0.004 C 
ENDBRANCH  11  12
ENDBRANCH  10  11
ENDBRANCH   9  10
ENDBRANCH   8   9
ENDBRANCH   1   8
TORSDOF 9
ENDMDL
MODEL 7
REMARK VINA RESULT:    -4.342      4.085      6.544
REMARK INTER + INTRA:          -7.346
REMARK INTER:                  -6.093
REMARK INTRA:                  -1.253
REMARK UNBOUND:                -0.720
REMARK SMILES CCCCCCCCCCC(=O)[O-]
REMARK SMILES IDX 7 1 8 2 9 3 10 4 11 5 12 6 13 7 6 8 5 9 4 10 3 11 2 12 1 13
REMARK H PARENT
REMARK Flexibility Score: inf
ROOT
ATOM      1  C   UNL     1       9.840  10.937   4.044  1.00  0.00     0.000 C 
ENDROOT
BRANCH   1   2
ATOM      2  C   UNL     1       9.600  10.268   5.413  1.00  0.00     0.000 C 
BRANCH   2   3
ATOM      3  C   UNL     1       9.856  11.171   6.637  1.00  0.00     0.006 C 
BRANCH   3   4
ATOM      4  C   UNL     1       8.633  11.369   7.546  1.00  0.00     0.053 C 
BRANCH   4   5
ATOM      5  C   UNL     1       7.756  12.484   7.064  1.00  0.00     0.041 C 
ATOM      6  O   UNL     1       8.211  13.654   6.971  1.00  0.00    -0.550 OA
ATOM      7  O   UNL     1       6.444  12.222   6.687  1.00  0.00    -0.550 OA
ENDBRANCH   4   5
ENDBRANCH   3   4
ENDBRANCH   2   3
ENDBRANCH   1   2
BRANCH   1   8
ATOM      8  C   UNL     1       8.830  12.038   3.673  1.00  0.00     0.000 C 
BRANCH   8   9
ATOM      9  C   UNL     1       9.452  13.445   3.691  1.00  0.00    -0.000 C 
BRANCH   9  10
ATOM     10  C   UNL     1      10.986  13.416   3.624  1.00  0.00    -0.000 C 
BRANCH  10  11
ATOM     11  C   UNL     1      11.643  13.933   4.915  1.00  0.00    -0.000 C 
BRANCH  11  12
ATOM     12  C   UNL     1      12.815  13.052   5.374  1.00  0.00    -0.003 C 
ATOM     13  C   UNL     1      13.263  12.056   4.304  1.00  0.00     0.004 C 
ENDBRANCH  11  12
ENDBRANCH  10  11
ENDBRANCH   9  10
ENDBRANCH   8   9
ENDBRANCH   1   8
TORSDOF 9
ENDMDL
MODEL 8
REMARK VINA RESULT:    -4.322      4.735      6.298
REMARK INTER + INTRA:          -7.316
REMARK INTER:                  -6.141
REMARK INTRA:                  -1.175
REMARK UNBOUND:                -0.720
REMARK SMILES CCCCCCCCCCC(=O)[O-]
REMARK SMILES IDX 7 1 8 2 9 3 10 4 11 5 12 6 13 7 6 8 5 9 4 10 3 11 2 12 1 13
REMARK H PARENT
REMARK Flexibility Score: inf
ROOT
ATOM      1  C   UNL     1      11.747  13.830   6.613  1.00  0.00     0.000 C 
ENDROOT
BRANCH   1   2
ATOM      2  C   UNL     1      10.448  14.377   5.986  1.00  0.00     0.000 C 
BRANCH   2   3
ATOM      3  C   UNL     1       9.225  14.400   6.925  1.00  0.00     0.006 C 
BRANCH   3   4
ATOM      4  C   UNL     1       7.906  13.976   6.259  1.00  0.00     0.053 C 
BRANCH   4   5
ATOM      5  C   UNL     1       7.073  13.123   7.165  1.00  0.00     0.041 C 
ATOM      6  O   UNL     1       6.438  12.139   6.702  1.00  0.00    -0.550 OA
ATOM      7  O   UNL     1       7.025  13.395   8.526  1.00  0.00    -0.550 OA
ENDBRANCH   4   5
ENDBRANCH   3   4
ENDBRANCH   2   3
ENDBRANCH   1   2
BRANCH   1   8
ATOM      8  C   UNL     1      12.671  13.077   5.640  1.00  0.00     0.000 C 
BRANCH   8   9
ATOM      9  C   UNL     1      12.130  13.060   4.199  1.00  0.00    -0.000 C 
BRANCH   9  10
ATOM     10  C   UNL     1      11.770  11.647   3.718  1.00  0.00    -0.000 C 
BRANCH  10  11
ATOM     11  C   UNL     1      10.320  11.260   4.061  1.00  0.00    -0.000 C 
BRANCH  11  12
ATOM     12  C   UNL     1      10.243  10.113   5.080  1.00  0.00    -0.003 C 
ATOM     13  C   UNL     1       9.731  10.567   6.447  1.00  0.00     0.004 C 
ENDBRANCH  11  12
ENDBRANCH  10  11
ENDBRANCH   9  10
ENDBRANCH   8   9
ENDBRANCH   1   8
TORSDOF 9
ENDMDL
MODEL 9
REMARK VINA RESULT:    -4.281      4.507      6.381
REMARK INTER + INTRA:          -7.253
REMARK INTER:                  -5.914
REMARK INTRA:                  -1.339
REMARK UNBOUND:                -0.720
REMARK SMILES CCCCCCCCCCC(=O)[O-]
REMARK SMILES IDX 7 1 8 2 9 3 10 4 11 5 12 6 13 7 6 8 5 9 4 10 3 11 2 12 1 13
REMARK H PARENT
REMARK Flexibility Score: inf
ROOT
ATOM      1  C   UNL     1      10.997  11.388   3.894  1.00  0.00     0.000 C 
ENDROOT
BRANCH   1   2
ATOM      2  C   UNL     1      10.218  10.420   4.807  1.00  0.00     0.000 C 
BRANCH   2   3
ATOM      3  C   UNL     1       8.860  10.947   5.314  1.00  0.00     0.006 C 
BRANCH   3   4
ATOM      4  C   UNL     1       8.820  11.246   6.821  1.00  0.00     0.053 C 
BRANCH   4   5
ATOM      5  C   UNL     1       7.643  12.095   7.190  1.00  0.00     0.041 C 
ATOM      6  O   UNL     1       6.564  11.997   6.548  1.00  0.00    -0.550 OA
ATOM      7  O   UNL     1       7.728  12.971   8.265  1.00  0.00    -0.550 OA
ENDBRANCH   4   5
ENDBRANCH   3   4
ENDBRANCH   2   3
ENDBRANCH   1   2
BRANCH   1   8
ATOM      8  C   UNL     1      12.449  11.661   4.327  1.00  0.00     0.000 C 
BRANCH   8   9
ATOM      9  C   UNL     1      12.667  13.109   4.800  1.00  0.00    -0.000 C 
BRANCH   9  10
ATOM     10  C   UNL     1      12.354  13.297   6.292  1.00  0.00    -0.000 C 
BRANCH  10  11
ATOM     11  C   UNL     1      11.059  14.095   6.525  1.00  0.00    -0.000 C 
BRANCH  11  12
ATOM     12  C   UNL     1      10.620  14.882   5.280  1.00  0.00    -0.003 C 
ATOM     13  C   UNL     1       9.177  14.589   4.871  1.00  0.00     0.004 C 
ENDBRANCH  11  12
ENDBRANCH  10  11
ENDBRANCH   9  10
ENDBRANCH   8   9
ENDBRANCH   1   8
TORSDOF 9
ENDMDL
