MODEL 1
REMARK VINA RESULT:    -5.821      0.000      0.000
REMARK INTER + INTRA:          -7.249
REMARK INTER:                  -7.182
REMARK INTRA:                  -0.067
REMARK UNBOUND:                -0.067
REMARK SMILES O=c1c(O)c(-c2cc(O)c(O)c(O)c2)oc2cc(O)cc(O)c12
REMARK SMILES IDX 5 1 3 2 2 3 1 4 23 5 21 6 20 7 18 8 17 9 16 10 15 11 6 12
REMARK SMILES IDX 7 13 8 14 14 15 10 16 12 17 9 18 11 20 13 22 4 24 22 26
REMARK SMILES IDX 19 28
REMARK H PARENT 9 19 11 21 13 23 4 25 22 27 19 29
REMARK Flexibility Score: inf
ROOT
ATOM      1  C   UNL     1     -12.983 -16.354  32.528  1.00  0.00     0.180 A 
ATOM      2  C   UNL     1     -14.073 -15.467  32.504  1.00  0.00     0.208 A 
ATOM      3  C   UNL     1     -14.151 -14.458  33.477  1.00  0.00     0.238 A 
ATOM      4  O   UNL     1     -15.100 -13.634  33.419  1.00  0.00    -0.285 OA
ATOM      5  C   UNL     1     -13.147 -14.358  34.471  1.00  0.00     0.111 A 
ATOM      6  C   UNL     1     -13.145 -13.400  35.529  1.00  0.00     0.134 A 
ATOM      7  C   UNL     1     -12.035 -13.309  36.377  1.00  0.00     0.093 A 
ATOM      8  C   UNL     1     -10.956 -14.183  36.247  1.00  0.00     0.123 A 
ATOM      9  C   UNL     1     -10.973 -15.163  35.253  1.00  0.00     0.094 A 
ATOM     10  C   UNL     1     -12.051 -15.254  34.369  1.00  0.00     0.146 A 
ATOM     11  O   UNL     1     -12.023 -16.194  33.431  1.00  0.00    -0.452 OA
ENDROOT
BRANCH   1  12
ATOM     12  C   UNL     1     -12.844 -17.458  31.550  1.00  0.00     0.029 A 
ATOM     13  C   UNL     1     -12.737 -18.779  32.010  1.00  0.00     0.062 A 
ATOM     14  C   UNL     1     -12.626 -19.844  31.105  1.00  0.00     0.162 A 
ATOM     15  C   UNL     1     -12.876 -17.216  30.166  1.00  0.00     0.062 A 
ATOM     16  C   UNL     1     -12.639 -19.592  29.723  1.00  0.00     0.200 A 
ATOM     17  C   UNL     1     -12.768 -18.278  29.256  1.00  0.00     0.162 A 
BRANCH  14  18
ATOM     18  O   UNL     1     -12.506 -21.151  31.574  1.00  0.00    -0.504 OA
ATOM     19  H   UNL     1     -11.956 -21.373  32.396  1.00  0.00     0.293 HD
ENDBRANCH  14  18
BRANCH  16  20
ATOM     20  O   UNL     1     -12.528 -20.634  28.803  1.00  0.00    -0.502 OA
ATOM     21  H   UNL     1     -13.323 -21.198  28.530  1.00  0.00     0.293 HD
ENDBRANCH  16  20
BRANCH  17  22
ATOM     22  O   UNL     1     -12.794 -18.033  27.884  1.00  0.00    -0.504 OA
ATOM     23  H   UNL     1     -13.505 -18.439  27.286  1.00  0.00     0.293 HD
ENDBRANCH  17  22
ENDBRANCH   1  12
BRANCH   2  24
ATOM     24  O   UNL     1     -15.042 -15.570  31.502  1.00  0.00    -0.502 OA
ATOM     25  H   UNL     1     -14.958 -15.092  30.614  1.00  0.00     0.293 HD
ENDBRANCH   2  24
BRANCH   6  26
ATOM     26  O   UNL     1     -14.213 -12.541  35.804  1.00  0.00    -0.507 OA
ATOM     27  H   UNL     1     -15.128 -12.839  36.107  1.00  0.00     0.293 HD
ENDBRANCH   6  26
BRANCH   8  28
ATOM     28  O   UNL     1      -9.875 -14.074  37.119  1.00  0.00    -0.508 OA
ATOM     29  H   UNL     1      -9.953 -14.333  38.095  1.00  0.00     0.293 HD
ENDBRANCH   8  28
TORSDOF 7
ENDMDL
MODEL 2
REMARK VINA RESULT:    -5.568      0.066      1.750
REMARK INTER + INTRA:          -6.938
REMARK INTER:                  -6.849
REMARK INTRA:                  -0.089
REMARK UNBOUND:                -0.067
REMARK SMILES O=c1c(O)c(-c2cc(O)c(O)c(O)c2)oc2cc(O)cc(O)c12
REMARK SMILES IDX 5 1 3 2 2 3 1 4 23 5 21 6 20 7 18 8 17 9 16 10 15 11 6 12
REMARK SMILES IDX 7 13 8 14 14 15 10 16 12 17 9 18 11 20 13 22 4 24 22 26
REMARK SMILES IDX 19 28
REMARK H PARENT 9 19 11 21 13 23 4 25 22 27 19 29
REMARK Flexibility Score: inf
ROOT
ATOM      1  C   UNL     1     -13.040 -16.399  32.532  1.00  0.00     0.180 A 
ATOM      2  C   UNL     1     -14.124 -15.504  32.499  1.00  0.00     0.208 A 
ATOM      3  C   UNL     1     -14.185 -14.473  33.450  1.00  0.00     0.238 A 
ATOM      4  O   UNL     1     -15.128 -13.643  33.381  1.00  0.00    -0.285 OA
ATOM      5  C   UNL     1     -13.172 -14.359  34.433  1.00  0.00     0.111 A 
ATOM      6  C   UNL     1     -13.153 -13.379  35.469  1.00  0.00     0.134 A 
ATOM      7  C   UNL     1     -12.036 -13.278  36.305  1.00  0.00     0.093 A 
ATOM      8  C   UNL     1     -10.965 -14.163  36.186  1.00  0.00     0.123 A 
ATOM      9  C   UNL     1     -10.998 -15.164  35.214  1.00  0.00     0.094 A 
ATOM     10  C   UNL     1     -12.084 -15.266  34.342  1.00  0.00     0.146 A 
ATOM     11  O   UNL     1     -12.071 -16.227  33.424  1.00  0.00    -0.452 OA
ENDROOT
BRANCH   1  12
ATOM     12  C   UNL     1     -12.919 -17.525  31.578  1.00  0.00     0.029 A 
ATOM     13  C   UNL     1     -12.885 -17.262  30.200  1.00  0.00     0.062 A 
ATOM     14  C   UNL     1     -12.750 -18.308  29.277  1.00  0.00     0.162 A 
ATOM     15  C   UNL     1     -12.779 -18.850  32.026  1.00  0.00     0.062 A 
ATOM     16  C   UNL     1     -12.631 -19.632  29.731  1.00  0.00     0.200 A 
ATOM     17  C   UNL     1     -12.641 -19.900  31.106  1.00  0.00     0.162 A 
BRANCH  14  18
ATOM     18  O   UNL     1     -12.731 -18.036  27.909  1.00  0.00    -0.504 OA
ATOM     19  H   UNL     1     -13.346 -18.518  27.263  1.00  0.00     0.293 HD
ENDBRANCH  14  18
BRANCH  16  20
ATOM     20  O   UNL     1     -12.497 -20.690  28.833  1.00  0.00    -0.502 OA
ATOM     21  H   UNL     1     -13.202 -21.412  28.741  1.00  0.00     0.293 HD
ENDBRANCH  16  20
BRANCH  17  22
ATOM     22  O   UNL     1     -12.509 -21.214  31.554  1.00  0.00    -0.504 OA
ATOM     23  H   UNL     1     -12.222 -21.424  32.503  1.00  0.00     0.293 HD
ENDBRANCH  17  22
ENDBRANCH   1  12
BRANCH   2  24
ATOM     24  O   UNL     1     -15.102 -15.621  31.508  1.00  0.00    -0.502 OA
ATOM     25  H   UNL     1     -16.010 -16.032  31.686  1.00  0.00     0.293 HD
ENDBRANCH   2  24
BRANCH   6  26
ATOM     26  O   UNL     1     -14.212 -12.505  35.734  1.00  0.00    -0.507 OA
ATOM     27  H   UNL     1     -14.689 -12.431  36.620  1.00  0.00     0.293 HD
ENDBRANCH   6  26
BRANCH   8  28
ATOM     28  O   UNL     1      -9.875 -14.043  37.046  1.00  0.00    -0.508 OA
ATOM     29  H   UNL     1      -9.076 -13.465  36.812  1.00  0.00     0.293 HD
ENDBRANCH   8  28
TORSDOF 7
ENDMDL
MODEL 3
REMARK VINA RESULT:    -5.546      1.812      7.196
REMARK INTER + INTRA:          -6.910
REMARK INTER:                  -7.089
REMARK INTRA:                   0.179
REMARK UNBOUND:                -0.067
REMARK SMILES O=c1c(O)c(-c2cc(O)c(O)c(O)c2)oc2cc(O)cc(O)c12
REMARK SMILES IDX 5 1 3 2 2 3 1 4 23 5 21 6 20 7 18 8 17 9 16 10 15 11 6 12
REMARK SMILES IDX 7 13 8 14 14 15 10 16 12 17 9 18 11 20 13 22 4 24 22 26
REMARK SMILES IDX 19 28
REMARK H PARENT 9 19 11 21 13 23 4 25 22 27 19 29
REMARK Flexibility Score: inf
ROOT
ATOM      1  C   UNL     1     -12.487 -16.145  31.961  1.00  0.00     0.180 A 
ATOM      2  C   UNL     1     -12.090 -17.473  31.731  1.00  0.00     0.208 A 
ATOM      3  C   UNL     1     -12.279 -18.029  30.455  1.00  0.00     0.238 A 
ATOM      4  O   UNL     1     -11.872 -19.200  30.240  1.00  0.00    -0.285 OA
ATOM      5  C   UNL     1     -12.878 -17.256  29.431  1.00  0.00     0.111 A 
ATOM      6  C   UNL     1     -13.155 -17.730  28.114  1.00  0.00     0.134 A 
ATOM      7  C   UNL     1     -13.630 -16.839  27.145  1.00  0.00     0.093 A 
ATOM      8  C   UNL     1     -13.899 -15.508  27.460  1.00  0.00     0.123 A 
ATOM      9  C   UNL     1     -13.688 -15.048  28.761  1.00  0.00     0.094 A 
ATOM     10  C   UNL     1     -13.181 -15.905  29.740  1.00  0.00     0.146 A 
ATOM     11  O   UNL     1     -12.985 -15.424  30.963  1.00  0.00    -0.452 OA
ENDROOT
BRANCH   1  12
ATOM     12  C   UNL     1     -12.342 -15.498  33.285  1.00  0.00     0.029 A 
ATOM     13  C   UNL     1     -11.190 -15.738  34.049  1.00  0.00     0.062 A 
ATOM     14  C   UNL     1     -11.018 -15.121  35.296  1.00  0.00     0.162 A 
ATOM     15  C   UNL     1     -13.309 -14.600  33.770  1.00  0.00     0.062 A 
ATOM     16  C   UNL     1     -11.999 -14.241  35.783  1.00  0.00     0.200 A 
ATOM     17  C   UNL     1     -13.141 -13.979  35.016  1.00  0.00     0.162 A 
BRANCH  14  18
ATOM     18  O   UNL     1      -9.875 -15.378  36.052  1.00  0.00    -0.504 OA
ATOM     19  H   UNL     1      -9.784 -16.221  36.609  1.00  0.00     0.293 HD
ENDBRANCH  14  18
BRANCH  16  20
ATOM     20  O   UNL     1     -11.852 -13.617  37.021  1.00  0.00    -0.502 OA
ATOM     21  H   UNL     1     -11.260 -12.805  37.149  1.00  0.00     0.293 HD
ENDBRANCH  16  20
BRANCH  17  22
ATOM     22  O   UNL     1     -14.106 -13.094  35.496  1.00  0.00    -0.504 OA
ATOM     23  H   UNL     1     -15.076 -13.370  35.594  1.00  0.00     0.293 HD
ENDBRANCH  17  22
ENDBRANCH   1  12
BRANCH   2  24
ATOM     24  O   UNL     1     -11.481 -18.211  32.749  1.00  0.00    -0.502 OA
ATOM     25  H   UNL     1     -11.946 -18.980  33.216  1.00  0.00     0.293 HD
ENDBRANCH   2  24
BRANCH   6  26
ATOM     26  O   UNL     1     -13.008 -19.063  27.718  1.00  0.00    -0.507 OA
ATOM     27  H   UNL     1     -12.174 -19.615  27.854  1.00  0.00     0.293 HD
ENDBRANCH   6  26
BRANCH   8  28
ATOM     28  O   UNL     1     -14.385 -14.653  26.474  1.00  0.00    -0.508 OA
ATOM     29  H   UNL     1     -14.024 -13.713  26.362  1.00  0.00     0.293 HD
ENDBRANCH   8  28
TORSDOF 7
ENDMDL
MODEL 4
REMARK VINA RESULT:    -5.489      1.809      7.289
REMARK INTER + INTRA:          -6.839
REMARK INTER:                  -6.995
REMARK INTRA:                   0.156
REMARK UNBOUND:                -0.067
REMARK SMILES O=c1c(O)c(-c2cc(O)c(O)c(O)c2)oc2cc(O)cc(O)c12
REMARK SMILES IDX 5 1 3 2 2 3 1 4 23 5 21 6 20 7 18 8 17 9 16 10 15 11 6 12
REMARK SMILES IDX 7 13 8 14 14 15 10 16 12 17 9 18 11 20 13 22 4 24 22 26
REMARK SMILES IDX 19 28
REMARK H PARENT 9 19 11 21 13 23 4 25 22 27 19 29
REMARK Flexibility Score: inf
ROOT
ATOM      1  C   UNL     1     -12.420 -16.160  31.951  1.00  0.00     0.180 A 
ATOM      2  C   UNL     1     -12.032 -17.493  31.727  1.00  0.00     0.208 A 
ATOM      3  C   UNL     1     -12.241 -18.058  30.459  1.00  0.00     0.238 A 
ATOM      4  O   UNL     1     -11.843 -19.233  30.248  1.00  0.00    -0.285 OA
ATOM      5  C   UNL     1     -12.850 -17.290  29.436  1.00  0.00     0.111 A 
ATOM      6  C   UNL     1     -13.147 -17.773  28.127  1.00  0.00     0.134 A 
ATOM      7  C   UNL     1     -13.629 -16.888  27.156  1.00  0.00     0.093 A 
ATOM      8  C   UNL     1     -13.888 -15.553  27.465  1.00  0.00     0.123 A 
ATOM      9  C   UNL     1     -13.658 -15.083  28.759  1.00  0.00     0.094 A 
ATOM     10  C   UNL     1     -13.142 -15.935  29.738  1.00  0.00     0.146 A 
ATOM     11  O   UNL     1     -12.927 -15.445  30.954  1.00  0.00    -0.452 OA
ENDROOT
BRANCH   1  12
ATOM     12  C   UNL     1     -12.254 -15.503  33.268  1.00  0.00     0.029 A 
ATOM     13  C   UNL     1     -13.268 -14.664  33.755  1.00  0.00     0.062 A 
ATOM     14  C   UNL     1     -13.146 -14.047  35.007  1.00  0.00     0.162 A 
ATOM     15  C   UNL     1     -11.126 -15.748  34.070  1.00  0.00     0.062 A 
ATOM     16  C   UNL     1     -12.005 -14.280  35.794  1.00  0.00     0.200 A 
ATOM     17  C   UNL     1     -10.999 -15.134  35.324  1.00  0.00     0.162 A 
BRANCH  14  18
ATOM     18  O   UNL     1     -14.154 -13.204  35.474  1.00  0.00    -0.504 OA
ATOM     19  H   UNL     1     -14.321 -13.075  36.465  1.00  0.00     0.293 HD
ENDBRANCH  14  18
BRANCH  16  20
ATOM     20  O   UNL     1     -11.859 -13.677  37.042  1.00  0.00    -0.502 OA
ATOM     21  H   UNL     1     -10.955 -13.571  37.487  1.00  0.00     0.293 HD
ENDBRANCH  16  20
BRANCH  17  22
ATOM     22  O   UNL     1      -9.875 -15.374  36.114  1.00  0.00    -0.504 OA
ATOM     23  H   UNL     1      -9.253 -16.153  35.929  1.00  0.00     0.293 HD
ENDBRANCH  17  22
ENDBRANCH   1  12
BRANCH   2  24
ATOM     24  O   UNL     1     -11.414 -18.226  32.743  1.00  0.00    -0.502 OA
ATOM     25  H   UNL     1     -11.933 -18.821  33.377  1.00  0.00     0.293 HD
ENDBRANCH   2  24
BRANCH   6  26
ATOM     26  O   UNL     1     -13.011 -19.110  27.740  1.00  0.00    -0.507 OA
ATOM     27  H   UNL     1     -12.247 -19.476  27.192  1.00  0.00     0.293 HD
ENDBRANCH   6  26
BRANCH   8  28
ATOM     28  O   UNL     1     -14.383 -14.703  26.478  1.00  0.00    -0.508 OA
ATOM     29  H   UNL     1     -13.770 -14.105  25.936  1.00  0.00     0.293 HD
ENDBRANCH   8  28
TORSDOF 7
ENDMDL
MODEL 5
REMARK VINA RESULT:    -4.990      1.757      7.306
REMARK INTER + INTRA:          -6.225
REMARK INTER:                  -5.879
REMARK INTRA:                  -0.346
REMARK UNBOUND:                -0.067
REMARK SMILES O=c1c(O)c(-c2cc(O)c(O)c(O)c2)oc2cc(O)cc(O)c12
REMARK SMILES IDX 5 1 3 2 2 3 1 4 23 5 21 6 20 7 18 8 17 9 16 10 15 11 6 12
REMARK SMILES IDX 7 13 8 14 14 15 10 16 12 17 9 18 11 20 13 22 4 24 22 26
REMARK SMILES IDX 19 28
REMARK H PARENT 9 19 11 21 13 23 4 25 22 27 19 29
REMARK Flexibility Score: inf
ROOT
ATOM      1  C   UNL     1     -11.561 -15.788  32.855  1.00  0.00     0.180 A 
ATOM      2  C   UNL     1     -10.673 -15.321  31.870  1.00  0.00     0.208 A 
ATOM      3  C   UNL     1     -10.632 -15.972  30.627  1.00  0.00     0.238 A 
ATOM      4  O   UNL     1      -9.875 -15.516  29.731  1.00  0.00    -0.285 OA
ATOM      5  C   UNL     1     -11.465 -17.092  30.389  1.00  0.00     0.111 A 
ATOM      6  C   UNL     1     -11.477 -17.853  29.182  1.00  0.00     0.134 A 
ATOM      7  C   UNL     1     -12.435 -18.858  29.009  1.00  0.00     0.093 A 
ATOM      8  C   UNL     1     -13.338 -19.175  30.022  1.00  0.00     0.123 A 
ATOM      9  C   UNL     1     -13.297 -18.478  31.231  1.00  0.00     0.094 A 
ATOM     10  C   UNL     1     -12.376 -17.445  31.419  1.00  0.00     0.146 A 
ATOM     11  O   UNL     1     -12.378 -16.799  32.580  1.00  0.00    -0.452 OA
ENDROOT
BRANCH   1  12
ATOM     12  C   UNL     1     -11.644 -15.169  34.198  1.00  0.00     0.029 A 
ATOM     13  C   UNL     1     -12.711 -14.307  34.496  1.00  0.00     0.062 A 
ATOM     14  C   UNL     1     -12.825 -13.724  35.766  1.00  0.00     0.162 A 
ATOM     15  C   UNL     1     -10.708 -15.471  35.201  1.00  0.00     0.062 A 
ATOM     16  C   UNL     1     -11.873 -14.016  36.758  1.00  0.00     0.200 A 
ATOM     17  C   UNL     1     -10.819 -14.893  36.474  1.00  0.00     0.162 A 
BRANCH  14  18
ATOM     18  O   UNL     1     -13.882 -12.859  36.047  1.00  0.00    -0.504 OA
ATOM     19  H   UNL     1     -14.821 -13.041  35.710  1.00  0.00     0.293 HD
ENDBRANCH  14  18
BRANCH  16  20
ATOM     20  O   UNL     1     -11.964 -13.448  38.028  1.00  0.00    -0.502 OA
ATOM     21  H   UNL     1     -12.290 -13.972  38.831  1.00  0.00     0.293 HD
ENDBRANCH  16  20
BRANCH  17  22
ATOM     22  O   UNL     1      -9.884 -15.190  37.465  1.00  0.00    -0.504 OA
ATOM     23  H   UNL     1      -8.889 -15.090  37.303  1.00  0.00     0.293 HD
ENDBRANCH  17  22
ENDBRANCH   1  12
BRANCH   2  24
ATOM     24  O   UNL     1      -9.875 -14.201  32.118  1.00  0.00    -0.502 OA
ATOM     25  H   UNL     1      -9.802 -13.777  33.034  1.00  0.00     0.293 HD
ENDBRANCH   2  24
BRANCH   6  26
ATOM     26  O   UNL     1     -10.559 -17.678  28.142  1.00  0.00    -0.507 OA
ATOM     27  H   UNL     1      -9.976 -18.409  27.761  1.00  0.00     0.293 HD
ENDBRANCH   6  26
BRANCH   8  28
ATOM     28  O   UNL     1     -14.268 -20.193  29.821  1.00  0.00    -0.508 OA
ATOM     29  H   UNL     1     -15.162 -20.197  30.298  1.00  0.00     0.293 HD
ENDBRANCH   8  28
TORSDOF 7
ENDMDL
MODEL 6
REMARK VINA RESULT:    -4.689      1.143      6.915
REMARK INTER + INTRA:          -5.853
REMARK INTER:                  -5.806
REMARK INTRA:                  -0.047
REMARK UNBOUND:                -0.067
REMARK SMILES O=c1c(O)c(-c2cc(O)c(O)c(O)c2)oc2cc(O)cc(O)c12
REMARK SMILES IDX 5 1 3 2 2 3 1 4 23 5 21 6 20 7 18 8 17 9 16 10 15 11 6 12
REMARK SMILES IDX 7 13 8 14 14 15 10 16 12 17 9 18 11 20 13 22 4 24 22 26
REMARK SMILES IDX 19 28
REMARK H PARENT 9 19 11 21 13 23 4 25 22 27 19 29
REMARK Flexibility Score: inf
ROOT
ATOM      1  C   UNL     1     -12.707 -16.216  32.579  1.00  0.00     0.180 A 
ATOM      2  C   UNL     1     -13.105 -15.744  31.316  1.00  0.00     0.208 A 
ATOM      3  C   UNL     1     -13.233 -16.657  30.257  1.00  0.00     0.238 A 
ATOM      4  O   UNL     1     -13.641 -16.236  29.144  1.00  0.00    -0.285 OA
ATOM      5  C   UNL     1     -12.946 -18.027  30.469  1.00  0.00     0.111 A 
ATOM      6  C   UNL     1     -13.004 -19.034  29.459  1.00  0.00     0.134 A 
ATOM      7  C   UNL     1     -12.828 -20.377  29.811  1.00  0.00     0.093 A 
ATOM      8  C   UNL     1     -12.532 -20.744  31.123  1.00  0.00     0.123 A 
ATOM      9  C   UNL     1     -12.415 -19.763  32.108  1.00  0.00     0.094 A 
ATOM     10  C   UNL     1     -12.621 -18.418  31.794  1.00  0.00     0.146 A 
ATOM     11  O   UNL     1     -12.510 -17.517  32.764  1.00  0.00    -0.452 OA
ENDROOT
BRANCH   1  12
ATOM     12  C   UNL     1     -12.527 -15.312  33.738  1.00  0.00     0.029 A 
ATOM     13  C   UNL     1     -11.299 -15.294  34.416  1.00  0.00     0.062 A 
ATOM     14  C   UNL     1     -11.095 -14.432  35.503  1.00  0.00     0.162 A 
ATOM     15  C   UNL     1     -13.542 -14.426  34.138  1.00  0.00     0.062 A 
ATOM     16  C   UNL     1     -12.122 -13.564  35.909  1.00  0.00     0.200 A 
ATOM     17  C   UNL     1     -13.343 -13.559  35.222  1.00  0.00     0.162 A 
BRANCH  14  18
ATOM     18  O   UNL     1      -9.875 -14.433  36.178  1.00  0.00    -0.504 OA
ATOM     19  H   UNL     1      -9.260 -13.628  36.164  1.00  0.00     0.293 HD
ENDBRANCH  14  18
BRANCH  16  20
ATOM     20  O   UNL     1     -11.944 -12.698  36.988  1.00  0.00    -0.502 OA
ATOM     21  H   UNL     1     -11.031 -12.355  37.258  1.00  0.00     0.293 HD
ENDBRANCH  16  20
BRANCH  17  22
ATOM     22  O   UNL     1     -14.354 -12.687  35.620  1.00  0.00    -0.504 OA
ATOM     23  H   UNL     1     -14.255 -11.682  35.528  1.00  0.00     0.293 HD
ENDBRANCH  17  22
ENDBRANCH   1  12
BRANCH   2  24
ATOM     24  O   UNL     1     -13.403 -14.391  31.134  1.00  0.00    -0.502 OA
ATOM     25  H   UNL     1     -13.657 -14.007  30.232  1.00  0.00     0.293 HD
ENDBRANCH   2  24
BRANCH   6  26
ATOM     26  O   UNL     1     -13.202 -18.764  28.101  1.00  0.00    -0.507 OA
ATOM     27  H   UNL     1     -12.864 -19.340  27.345  1.00  0.00     0.293 HD
ENDBRANCH   6  26
BRANCH   8  28
ATOM     28  O   UNL     1     -12.347 -22.090  31.434  1.00  0.00    -0.508 OA
ATOM     29  H   UNL     1     -13.112 -22.668  31.762  1.00  0.00     0.293 HD
ENDBRANCH   8  28
TORSDOF 7
ENDMDL
MODEL 7
REMARK VINA RESULT:    -3.760      1.769      3.725
REMARK INTER + INTRA:          -4.706
REMARK INTER:                  -4.842
REMARK INTRA:                   0.136
REMARK UNBOUND:                -0.067
REMARK SMILES O=c1c(O)c(-c2cc(O)c(O)c(O)c2)oc2cc(O)cc(O)c12
REMARK SMILES IDX 5 1 3 2 2 3 1 4 23 5 21 6 20 7 18 8 17 9 16 10 15 11 6 12
REMARK SMILES IDX 7 13 8 14 14 15 10 16 12 17 9 18 11 20 13 22 4 24 22 26
REMARK SMILES IDX 19 28
REMARK H PARENT 9 19 11 21 13 23 4 25 22 27 19 29
REMARK Flexibility Score: inf
ROOT
ATOM      1  C   UNL     1     -12.382 -15.912  31.643  1.00  0.00     0.180 A 
ATOM      2  C   UNL     1     -11.241 -16.510  32.205  1.00  0.00     0.208 A 
ATOM      3  C   UNL     1     -10.868 -16.168  33.515  1.00  0.00     0.238 A 
ATOM      4  O   UNL     1      -9.878 -16.747  34.032  1.00  0.00    -0.285 OA
ATOM      5  C   UNL     1     -11.630 -15.220  34.240  1.00  0.00     0.111 A 
ATOM      6  C   UNL     1     -11.322 -14.768  35.558  1.00  0.00     0.134 A 
ATOM      7  C   UNL     1     -12.218 -13.927  36.228  1.00  0.00     0.093 A 
ATOM      8  C   UNL     1     -13.378 -13.470  35.605  1.00  0.00     0.123 A 
ATOM      9  C   UNL     1     -13.661 -13.857  34.294  1.00  0.00     0.094 A 
ATOM     10  C   UNL     1     -12.803 -14.724  33.613  1.00  0.00     0.146 A 
ATOM     11  O   UNL     1     -13.114 -15.077  32.371  1.00  0.00    -0.452 OA
ENDROOT
BRANCH   1  12
ATOM     12  C   UNL     1     -12.824 -16.204  30.260  1.00  0.00     0.029 A 
ATOM     13  C   UNL     1     -13.270 -15.156  29.441  1.00  0.00     0.062 A 
ATOM     14  C   UNL     1     -13.674 -15.402  28.121  1.00  0.00     0.162 A 
ATOM     15  C   UNL     1     -12.752 -17.504  29.729  1.00  0.00     0.062 A 
ATOM     16  C   UNL     1     -13.618 -16.708  27.605  1.00  0.00     0.200 A 
ATOM     17  C   UNL     1     -13.153 -17.756  28.409  1.00  0.00     0.162 A 
BRANCH  14  18
ATOM     18  O   UNL     1     -14.127 -14.355  27.321  1.00  0.00    -0.504 OA
ATOM     19  H   UNL     1     -14.575 -14.524  26.428  1.00  0.00     0.293 HD
ENDBRANCH  14  18
BRANCH  16  20
ATOM     20  O   UNL     1     -14.016 -16.979  26.296  1.00  0.00    -0.502 OA
ATOM     21  H   UNL     1     -14.741 -17.653  26.082  1.00  0.00     0.293 HD
ENDBRANCH  16  20
BRANCH  17  22
ATOM     22  O   UNL     1     -13.086 -19.047  27.889  1.00  0.00    -0.504 OA
ATOM     23  H   UNL     1     -13.608 -19.812  28.300  1.00  0.00     0.293 HD
ENDBRANCH  17  22
ENDBRANCH   1  12
BRANCH   2  24
ATOM     24  O   UNL     1     -10.515 -17.459  31.480  1.00  0.00    -0.502 OA
ATOM     25  H   UNL     1      -9.806 -17.201  30.805  1.00  0.00     0.293 HD
ENDBRANCH   2  24
BRANCH   6  26
ATOM     26  O   UNL     1     -10.143 -15.093  36.237  1.00  0.00    -0.507 OA
ATOM     27  H   UNL     1      -9.334 -15.520  35.813  1.00  0.00     0.293 HD
ENDBRANCH   6  26
BRANCH   8  28
ATOM     28  O   UNL     1     -14.240 -12.621  36.296  1.00  0.00    -0.508 OA
ATOM     29  H   UNL     1     -14.979 -12.982  36.888  1.00  0.00     0.293 HD
ENDBRANCH   8  28
TORSDOF 7
ENDMDL
MODEL 8
REMARK VINA RESULT:    -3.298      1.592      6.811
REMARK INTER + INTRA:          -4.136
REMARK INTER:                  -4.568
REMARK INTRA:                   0.432
REMARK UNBOUND:                -0.067
REMARK SMILES O=c1c(O)c(-c2cc(O)c(O)c(O)c2)oc2cc(O)cc(O)c12
REMARK SMILES IDX 5 1 3 2 2 3 1 4 23 5 21 6 20 7 18 8 17 9 16 10 15 11 6 12
REMARK SMILES IDX 7 13 8 14 14 15 10 16 12 17 9 18 11 20 13 22 4 24 22 26
REMARK SMILES IDX 19 28
REMARK H PARENT 9 19 11 21 13 23 4 25 22 27 19 29
REMARK Flexibility Score: inf
ROOT
ATOM      1  C   UNL     1     -12.689 -15.243  33.526  1.00  0.00     0.180 A 
ATOM      2  C   UNL     1     -13.721 -14.852  32.655  1.00  0.00     0.208 A 
ATOM      3  C   UNL     1     -13.764 -15.398  31.363  1.00  0.00     0.238 A 
ATOM      4  O   UNL     1     -14.720 -15.086  30.607  1.00  0.00    -0.285 OA
ATOM      5  C   UNL     1     -12.767 -16.316  30.952  1.00  0.00     0.111 A 
ATOM      6  C   UNL     1     -12.690 -16.902  29.652  1.00  0.00     0.134 A 
ATOM      7  C   UNL     1     -11.738 -17.896  29.398  1.00  0.00     0.093 A 
ATOM      8  C   UNL     1     -10.819 -18.279  30.374  1.00  0.00     0.123 A 
ATOM      9  C   UNL     1     -10.847 -17.671  31.630  1.00  0.00     0.094 A 
ATOM     10  C   UNL     1     -11.809 -16.702  31.925  1.00  0.00     0.146 A 
ATOM     11  O   UNL     1     -11.807 -16.155  33.135  1.00  0.00    -0.452 OA
ENDROOT
BRANCH   1  12
ATOM     12  C   UNL     1     -12.564 -14.691  34.895  1.00  0.00     0.029 A 
ATOM     13  C   UNL     1     -11.548 -15.164  35.740  1.00  0.00     0.062 A 
ATOM     14  C   UNL     1     -11.394 -14.645  37.033  1.00  0.00     0.162 A 
ATOM     15  C   UNL     1     -13.406 -13.661  35.349  1.00  0.00     0.062 A 
ATOM     16  C   UNL     1     -12.252 -13.629  37.485  1.00  0.00     0.200 A 
ATOM     17  C   UNL     1     -13.255 -13.136  36.640  1.00  0.00     0.162 A 
BRANCH  14  18
ATOM     18  O   UNL     1     -10.389 -15.132  37.868  1.00  0.00    -0.504 OA
ATOM     19  H   UNL     1     -10.474 -16.027  38.336  1.00  0.00     0.293 HD
ENDBRANCH  14  18
BRANCH  16  20
ATOM     20  O   UNL     1     -12.121 -13.097  38.768  1.00  0.00    -0.502 OA
ATOM     21  H   UNL     1     -12.425 -12.158  38.996  1.00  0.00     0.293 HD
ENDBRANCH  16  20
BRANCH  17  22
ATOM     22  O   UNL     1     -14.096 -12.119  37.088  1.00  0.00    -0.504 OA
ATOM     23  H   UNL     1     -13.800 -11.462  37.801  1.00  0.00     0.293 HD
ENDBRANCH  17  22
ENDBRANCH   1  12
BRANCH   2  24
ATOM     24  O   UNL     1     -14.707 -13.961  33.088  1.00  0.00    -0.502 OA
ATOM     25  H   UNL     1     -14.928 -13.109  32.587  1.00  0.00     0.293 HD
ENDBRANCH   2  24
BRANCH   6  26
ATOM     26  O   UNL     1     -13.501 -16.524  28.578  1.00  0.00    -0.507 OA
ATOM     27  H   UNL     1     -13.508 -15.607  28.157  1.00  0.00     0.293 HD
ENDBRANCH   6  26
BRANCH   8  28
ATOM     28  O   UNL     1      -9.875 -19.261  30.082  1.00  0.00    -0.508 OA
ATOM     29  H   UNL     1      -9.883 -20.161  30.548  1.00  0.00     0.293 HD
ENDBRANCH   8  28
TORSDOF 7
ENDMDL
