MODEL 1
REMARK VINA RESULT:    20.924      0.000      0.000
REMARK INTER + INTRA:          25.141
REMARK INTER:                  24.593
REMARK INTRA:                   0.547
REMARK UNBOUND:                 0.547
REMARK SMILES O=C([O-])C=Cc1ccc(O)c(O)c1
REMARK SMILES IDX 6 1 13 2 7 3 11 4 8 5 9 6 5 7 4 8 2 9 1 10 3 11 12 12 10 14
REMARK H PARENT 12 13 10 15
REMARK Flexibility Score: inf
ROOT
ATOM      1  C   UNL     1     -30.790  27.746 -15.376  1.00  0.00    -0.022 A 
ATOM      2  C   UNL     1     -29.711  28.503 -15.856  1.00  0.00     0.058 A 
ATOM      3  C   UNL     1     -32.090  28.042 -15.820  1.00  0.00     0.012 A 
ATOM      4  C   UNL     1     -29.931  29.580 -16.729  1.00  0.00     0.157 A 
ATOM      5  C   UNL     1     -32.311  29.114 -16.688  1.00  0.00     0.051 A 
ATOM      6  C   UNL     1     -31.238  29.888 -17.143  1.00  0.00     0.157 A 
ENDROOT
BRANCH   1   7
ATOM      7  C   UNL     1     -30.526  26.586 -14.500  1.00  0.00     0.010 C 
ATOM      8  C   UNL     1     -29.463  25.770 -14.588  1.00  0.00     0.025 C 
BRANCH   8   9
ATOM      9  C   UNL     1     -28.464  25.770 -15.674  1.00  0.00     0.064 C 
ATOM     10  O   UNL     1     -28.551  24.979 -16.650  1.00  0.00    -0.545 OA
ATOM     11  O   UNL     1     -27.365  26.613 -15.581  1.00  0.00    -0.545 OA
ENDBRANCH   8   9
ENDBRANCH   1   7
BRANCH   4  12
ATOM     12  O   UNL     1     -28.856  30.340 -17.187  1.00  0.00    -0.504 OA
ATOM     13  H   UNL     1     -28.722  30.530 -18.174  1.00  0.00     0.293 HD
ENDBRANCH   4  12
BRANCH   6  14
ATOM     14  O   UNL     1     -31.489  30.953 -18.007  1.00  0.00    -0.504 OA
ATOM     15  H   UNL     1     -32.422  31.320 -18.153  1.00  0.00     0.293 HD
ENDBRANCH   6  14
TORSDOF 4
ENDMDL
MODEL 2
REMARK VINA RESULT:    21.424      1.367      4.631
REMARK INTER + INTRA:          25.728
REMARK INTER:                  25.982
REMARK INTRA:                  -0.253
REMARK UNBOUND:                 0.547
REMARK SMILES O=C([O-])C=Cc1ccc(O)c(O)c1
REMARK SMILES IDX 6 1 13 2 7 3 11 4 8 5 9 6 5 7 4 8 2 9 1 10 3 11 12 12 10 14
REMARK H PARENT 12 13 10 15
REMARK Flexibility Score: inf
ROOT
ATOM      1  C   UNL     1     -31.173  27.944 -15.847  1.00  0.00    -0.022 A 
ATOM      2  C   UNL     1     -30.355  26.987 -16.464  1.00  0.00     0.058 A 
ATOM      3  C   UNL     1     -31.290  27.951 -14.447  1.00  0.00     0.012 A 
ATOM      4  C   UNL     1     -29.701  26.011 -15.697  1.00  0.00     0.157 A 
ATOM      5  C   UNL     1     -30.639  26.979 -13.682  1.00  0.00     0.051 A 
ATOM      6  C   UNL     1     -29.848  26.005 -14.299  1.00  0.00     0.157 A 
ENDROOT
BRANCH   1   7
ATOM      7  C   UNL     1     -31.808  28.993 -16.672  1.00  0.00     0.010 C 
ATOM      8  C   UNL     1     -31.249  30.168 -17.003  1.00  0.00     0.025 C 
BRANCH   8   9
ATOM      9  C   UNL     1     -29.983  30.703 -16.465  1.00  0.00     0.064 C 
ATOM     10  O   UNL     1     -28.867  30.286 -16.871  1.00  0.00    -0.545 OA
ATOM     11  O   UNL     1     -30.026  31.636 -15.438  1.00  0.00    -0.545 OA
ENDBRANCH   8   9
ENDBRANCH   1   7
BRANCH   4  12
ATOM     12  O   UNL     1     -28.905  25.050 -16.319  1.00  0.00    -0.504 OA
ATOM     13  H   UNL     1     -27.896  25.148 -16.371  1.00  0.00     0.293 HD
ENDBRANCH   4  12
BRANCH   6  14
ATOM     14  O   UNL     1     -29.213  25.046 -13.511  1.00  0.00    -0.504 OA
ATOM     15  H   UNL     1     -29.008  24.116 -13.855  1.00  0.00     0.293 HD
ENDBRANCH   6  14
TORSDOF 4
ENDMDL
MODEL 3
REMARK VINA RESULT:    21.883      1.032      4.562
REMARK INTER + INTRA:          26.268
REMARK INTER:                  26.207
REMARK INTRA:                   0.060
REMARK UNBOUND:                 0.547
REMARK SMILES O=C([O-])C=Cc1ccc(O)c(O)c1
REMARK SMILES IDX 6 1 13 2 7 3 11 4 8 5 9 6 5 7 4 8 2 9 1 10 3 11 12 12 10 14
REMARK H PARENT 12 13 10 15
REMARK Flexibility Score: inf
ROOT
ATOM      1  C   UNL     1     -30.566  27.364 -15.526  1.00  0.00    -0.022 A 
ATOM      2  C   UNL     1     -29.208  27.567 -15.241  1.00  0.00     0.058 A 
ATOM      3  C   UNL     1     -30.986  26.119 -16.023  1.00  0.00     0.012 A 
ATOM      4  C   UNL     1     -28.268  26.558 -15.499  1.00  0.00     0.157 A 
ATOM      5  C   UNL     1     -30.052  25.112 -16.282  1.00  0.00     0.051 A 
ATOM      6  C   UNL     1     -28.693  25.326 -16.027  1.00  0.00     0.157 A 
ENDROOT
BRANCH   1   7
ATOM      7  C   UNL     1     -31.541  28.424 -15.196  1.00  0.00     0.010 C 
ATOM      8  C   UNL     1     -31.783  29.518 -15.936  1.00  0.00     0.025 C 
BRANCH   8   9
ATOM      9  C   UNL     1     -31.004  29.953 -17.111  1.00  0.00     0.064 C 
ATOM     10  O   UNL     1     -29.763  30.155 -17.041  1.00  0.00    -0.545 OA
ATOM     11  O   UNL     1     -31.666  30.211 -18.303  1.00  0.00    -0.545 OA
ENDBRANCH   8   9
ENDBRANCH   1   7
BRANCH   4  12
ATOM     12  O   UNL     1     -26.917  26.774 -15.232  1.00  0.00    -0.504 OA
ATOM     13  H   UNL     1     -26.394  27.508 -15.697  1.00  0.00     0.293 HD
ENDBRANCH   4  12
BRANCH   6  14
ATOM     14  O   UNL     1     -27.783  24.304 -16.297  1.00  0.00    -0.504 OA
ATOM     15  H   UNL     1     -26.920  24.201 -15.776  1.00  0.00     0.293 HD
ENDBRANCH   6  14
TORSDOF 4
ENDMDL
MODEL 4
REMARK VINA RESULT:    23.007     10.187     11.462
REMARK INTER + INTRA:          27.589
REMARK INTER:                  27.153
REMARK INTRA:                   0.436
REMARK UNBOUND:                 0.547
REMARK SMILES O=C([O-])C=Cc1ccc(O)c(O)c1
REMARK SMILES IDX 6 1 13 2 7 3 11 4 8 5 9 6 5 7 4 8 2 9 1 10 3 11 12 12 10 14
REMARK H PARENT 12 13 10 15
REMARK Flexibility Score: inf
ROOT
ATOM      1  C   UNL     1     -36.965  29.743 -24.262  1.00  0.00    -0.022 A 
ATOM      2  C   UNL     1     -37.985  30.704 -24.209  1.00  0.00     0.058 A 
ATOM      3  C   UNL     1     -35.754  30.059 -24.898  1.00  0.00     0.012 A 
ATOM      4  C   UNL     1     -37.820  31.950 -24.832  1.00  0.00     0.157 A 
ATOM      5  C   UNL     1     -35.587  31.299 -25.519  1.00  0.00     0.051 A 
ATOM      6  C   UNL     1     -36.616  32.246 -25.494  1.00  0.00     0.157 A 
ENDROOT
BRANCH   1   7
ATOM      7  C   UNL     1     -37.144  28.458 -23.553  1.00  0.00     0.010 C 
ATOM      8  C   UNL     1     -37.894  28.273 -22.454  1.00  0.00     0.025 C 
BRANCH   8   9
ATOM      9  C   UNL     1     -38.529  29.339 -21.654  1.00  0.00     0.064 C 
ATOM     10  O   UNL     1     -37.859  30.065 -20.875  1.00  0.00    -0.545 OA
ATOM     11  O   UNL     1     -39.907  29.497 -21.711  1.00  0.00    -0.545 OA
ENDBRANCH   8   9
ENDBRANCH   1   7
BRANCH   4  12
ATOM     12  O   UNL     1     -38.846  32.894 -24.793  1.00  0.00    -0.504 OA
ATOM     13  H   UNL     1     -38.814  33.737 -25.356  1.00  0.00     0.293 HD
ENDBRANCH   4  12
BRANCH   6  14
ATOM     14  O   UNL     1     -36.423  33.475 -26.125  1.00  0.00    -0.504 OA
ATOM     15  H   UNL     1     -36.828  33.685 -27.029  1.00  0.00     0.293 HD
ENDBRANCH   6  14
TORSDOF 4
ENDMDL
MODEL 5
REMARK VINA RESULT:    23.159      0.857      1.925
REMARK INTER + INTRA:          27.768
REMARK INTER:                  27.317
REMARK INTRA:                   0.451
REMARK UNBOUND:                 0.547
REMARK SMILES O=C([O-])C=Cc1ccc(O)c(O)c1
REMARK SMILES IDX 6 1 13 2 7 3 11 4 8 5 9 6 5 7 4 8 2 9 1 10 3 11 12 12 10 14
REMARK H PARENT 12 13 10 15
REMARK Flexibility Score: inf
ROOT
ATOM      1  C   UNL     1     -30.691  27.675 -15.396  1.00  0.00    -0.022 A 
ATOM      2  C   UNL     1     -32.031  28.053 -15.563  1.00  0.00     0.058 A 
ATOM      3  C   UNL     1     -29.682  28.420 -16.030  1.00  0.00     0.012 A 
ATOM      4  C   UNL     1     -32.368  29.130 -16.396  1.00  0.00     0.157 A 
ATOM      5  C   UNL     1     -30.016  29.493 -16.861  1.00  0.00     0.051 A 
ATOM      6  C   UNL     1     -31.355  29.850 -17.052  1.00  0.00     0.157 A 
ENDROOT
BRANCH   1   7
ATOM      7  C   UNL     1     -30.360  26.570 -14.472  1.00  0.00     0.010 C 
ATOM      8  C   UNL     1     -29.280  25.777 -14.562  1.00  0.00     0.025 C 
BRANCH   8   9
ATOM      9  C   UNL     1     -28.327  25.743 -15.689  1.00  0.00     0.064 C 
ATOM     10  O   UNL     1     -28.467  24.937 -16.646  1.00  0.00    -0.545 OA
ATOM     11  O   UNL     1     -27.214  26.571 -15.658  1.00  0.00    -0.545 OA
ENDBRANCH   8   9
ENDBRANCH   1   7
BRANCH   4  12
ATOM     12  O   UNL     1     -33.704  29.487 -16.572  1.00  0.00    -0.504 OA
ATOM     13  H   UNL     1     -34.381  29.399 -15.822  1.00  0.00     0.293 HD
ENDBRANCH   4  12
BRANCH   6  14
ATOM     14  O   UNL     1     -31.658  30.923 -17.888  1.00  0.00    -0.504 OA
ATOM     15  H   UNL     1     -31.093  31.764 -17.912  1.00  0.00     0.293 HD
ENDBRANCH   6  14
TORSDOF 4
ENDMDL
MODEL 6
REMARK VINA RESULT:    23.210      1.849      4.810
REMARK INTER + INTRA:          27.828
REMARK INTER:                  28.072
REMARK INTRA:                  -0.243
REMARK UNBOUND:                 0.547
REMARK SMILES O=C([O-])C=Cc1ccc(O)c(O)c1
REMARK SMILES IDX 6 1 13 2 7 3 11 4 8 5 9 6 5 7 4 8 2 9 1 10 3 11 12 12 10 14
REMARK H PARENT 12 13 10 15
REMARK Flexibility Score: inf
ROOT
ATOM      1  C   UNL     1     -31.055  27.949 -15.971  1.00  0.00    -0.022 A 
ATOM      2  C   UNL     1     -31.296  27.774 -14.600  1.00  0.00     0.058 A 
ATOM      3  C   UNL     1     -30.249  27.021 -16.652  1.00  0.00     0.012 A 
ATOM      4  C   UNL     1     -30.698  26.714 -13.903  1.00  0.00     0.157 A 
ATOM      5  C   UNL     1     -29.652  25.965 -15.959  1.00  0.00     0.051 A 
ATOM      6  C   UNL     1     -29.868  25.808 -14.586  1.00  0.00     0.157 A 
ENDROOT
BRANCH   1   7
ATOM      7  C   UNL     1     -31.739  29.043 -16.692  1.00  0.00     0.010 C 
ATOM      8  C   UNL     1     -31.218  30.254 -16.946  1.00  0.00     0.025 C 
BRANCH   8   9
ATOM      9  C   UNL     1     -29.949  30.777 -16.403  1.00  0.00     0.064 C 
ATOM     10  O   UNL     1     -28.835  30.371 -16.825  1.00  0.00    -0.545 OA
ATOM     11  O   UNL     1     -29.987  31.686 -15.355  1.00  0.00    -0.545 OA
ENDBRANCH   8   9
ENDBRANCH   1   7
BRANCH   4  12
ATOM     12  O   UNL     1     -30.927  26.557 -12.537  1.00  0.00    -0.504 OA
ATOM     13  H   UNL     1     -31.126  25.648 -12.132  1.00  0.00     0.293 HD
ENDBRANCH   4  12
BRANCH   6  14
ATOM     14  O   UNL     1     -29.257  24.747 -13.920  1.00  0.00    -0.504 OA
ATOM     15  H   UNL     1     -28.829  23.974 -14.417  1.00  0.00     0.293 HD
ENDBRANCH   6  14
TORSDOF 4
ENDMDL
MODEL 7
REMARK VINA RESULT:    23.496     10.148     11.804
REMARK INTER + INTRA:          28.164
REMARK INTER:                  27.177
REMARK INTRA:                   0.988
REMARK UNBOUND:                 0.547
REMARK SMILES O=C([O-])C=Cc1ccc(O)c(O)c1
REMARK SMILES IDX 6 1 13 2 7 3 11 4 8 5 9 6 5 7 4 8 2 9 1 10 3 11 12 12 10 14
REMARK H PARENT 12 13 10 15
REMARK Flexibility Score: inf
ROOT
ATOM      1  C   UNL     1     -36.679  30.240 -24.196  1.00  0.00    -0.022 A 
ATOM      2  C   UNL     1     -36.989  28.906 -23.894  1.00  0.00     0.058 A 
ATOM      3  C   UNL     1     -36.980  31.244 -23.261  1.00  0.00     0.012 A 
ATOM      4  C   UNL     1     -37.643  28.581 -22.696  1.00  0.00     0.157 A 
ATOM      5  C   UNL     1     -37.631  30.923 -22.067  1.00  0.00     0.051 A 
ATOM      6  C   UNL     1     -37.969  29.597 -21.780  1.00  0.00     0.157 A 
ENDROOT
BRANCH   1   7
ATOM      7  C   UNL     1     -35.944  30.548 -25.440  1.00  0.00     0.010 C 
ATOM      8  C   UNL     1     -36.022  31.700 -26.125  1.00  0.00     0.025 C 
BRANCH   8   9
ATOM      9  C   UNL     1     -36.980  32.793 -25.867  1.00  0.00     0.064 C 
ATOM     10  O   UNL     1     -38.164  32.561 -25.507  1.00  0.00    -0.545 OA
ATOM     11  O   UNL     1     -36.585  34.105 -26.093  1.00  0.00    -0.545 OA
ENDBRANCH   8   9
ENDBRANCH   1   7
BRANCH   4  12
ATOM     12  O   UNL     1     -37.965  27.255 -22.412  1.00  0.00    -0.504 OA
ATOM     13  H   UNL     1     -38.209  26.598 -23.145  1.00  0.00     0.293 HD
ENDBRANCH   4  12
BRANCH   6  14
ATOM     14  O   UNL     1     -38.621  29.306 -20.582  1.00  0.00    -0.504 OA
ATOM     15  H   UNL     1     -39.157  28.456 -20.454  1.00  0.00     0.293 HD
ENDBRANCH   6  14
TORSDOF 4
ENDMDL
