MODEL 1
REMARK VINA RESULT:    -5.302      0.000      0.000
REMARK INTER + INTRA:          -6.841
REMARK INTER:                  -6.542
REMARK INTRA:                  -0.300
REMARK UNBOUND:                -0.300
REMARK SMILES O=c1c(O)c(-c2cc(O)c(O)c(O)c2)oc2cc(O)cc(O)c12
REMARK SMILES IDX 5 1 3 2 2 3 1 4 23 5 21 6 20 7 18 8 17 9 16 10 15 11 6 12
REMARK SMILES IDX 7 13 8 14 14 15 10 16 12 17 9 18 11 20 13 22 4 24 22 26
REMARK SMILES IDX 19 28
REMARK H PARENT 9 19 11 21 13 23 4 25 22 27 19 29
REMARK Flexibility Score: inf
ROOT
ATOM      1  C   UNL     1       6.953  23.891   7.034  1.00  0.00     0.180 A 
ATOM      2  C   UNL     1       6.455  24.906   7.873  1.00  0.00     0.208 A 
ATOM      3  C   UNL     1       5.183  25.438   7.611  1.00  0.00     0.238 A 
ATOM      4  O   UNL     1       4.722  26.340   8.363  1.00  0.00    -0.285 OA
ATOM      5  C   UNL     1       4.442  24.965   6.508  1.00  0.00     0.111 A 
ATOM      6  C   UNL     1       3.156  25.452   6.173  1.00  0.00     0.134 A 
ATOM      7  C   UNL     1       2.486  24.935   5.055  1.00  0.00     0.093 A 
ATOM      8  C   UNL     1       3.079  23.944   4.265  1.00  0.00     0.123 A 
ATOM      9  C   UNL     1       4.347  23.461   4.591  1.00  0.00     0.094 A 
ATOM     10  C   UNL     1       5.030  23.960   5.703  1.00  0.00     0.146 A 
ATOM     11  O   UNL     1       6.233  23.480   5.993  1.00  0.00    -0.452 OA
ENDROOT
BRANCH   1  12
ATOM     12  C   UNL     1       8.278  23.267   7.255  1.00  0.00     0.029 A 
ATOM     13  C   UNL     1       8.493  22.364   8.310  1.00  0.00     0.062 A 
ATOM     14  C   UNL     1       9.742  21.760   8.496  1.00  0.00     0.162 A 
ATOM     15  C   UNL     1       9.324  23.532   6.362  1.00  0.00     0.062 A 
ATOM     16  C   UNL     1      10.801  22.056   7.604  1.00  0.00     0.200 A 
ATOM     17  C   UNL     1      10.580  22.939   6.538  1.00  0.00     0.162 A 
BRANCH  14  18
ATOM     18  O   UNL     1       9.883  20.875   9.567  1.00  0.00    -0.504 OA
ATOM     19  H   UNL     1       9.923  21.159  10.534  1.00  0.00     0.293 HD
ENDBRANCH  14  18
BRANCH  16  20
ATOM     20  O   UNL     1      12.074  21.496   7.740  1.00  0.00    -0.502 OA
ATOM     21  H   UNL     1      12.280  20.517   7.606  1.00  0.00     0.293 HD
ENDBRANCH  16  20
BRANCH  17  22
ATOM     22  O   UNL     1      11.619  23.222   5.654  1.00  0.00    -0.504 OA
ATOM     23  H   UNL     1      12.475  22.679   5.647  1.00  0.00     0.293 HD
ENDBRANCH  17  22
ENDBRANCH   1  12
BRANCH   2  24
ATOM     24  O   UNL     1       7.230  25.391   8.929  1.00  0.00    -0.502 OA
ATOM     25  H   UNL     1       6.953  26.195   9.481  1.00  0.00     0.293 HD
ENDBRANCH   2  24
BRANCH   6  26
ATOM     26  O   UNL     1       2.539  26.441   6.942  1.00  0.00    -0.507 OA
ATOM     27  H   UNL     1       2.523  27.410   6.649  1.00  0.00     0.293 HD
ENDBRANCH   6  26
BRANCH   8  28
ATOM     28  O   UNL     1       2.415  23.431   3.152  1.00  0.00    -0.508 OA
ATOM     29  H   UNL     1       1.849  22.592   3.213  1.00  0.00     0.293 HD
ENDBRANCH   8  28
TORSDOF 7
ENDMDL
MODEL 2
REMARK VINA RESULT:    -5.231     15.133     17.508
REMARK INTER + INTRA:          -6.753
REMARK INTER:                  -6.433
REMARK INTRA:                  -0.320
REMARK UNBOUND:                -0.300
REMARK SMILES O=c1c(O)c(-c2cc(O)c(O)c(O)c2)oc2cc(O)cc(O)c12
REMARK SMILES IDX 5 1 3 2 2 3 1 4 23 5 21 6 20 7 18 8 17 9 16 10 15 11 6 12
REMARK SMILES IDX 7 13 8 14 14 15 10 16 12 17 9 18 11 20 13 22 4 24 22 26
REMARK SMILES IDX 19 28
REMARK H PARENT 9 19 11 21 13 23 4 25 22 27 19 29
REMARK Flexibility Score: inf
ROOT
ATOM      1  C   UNL     1      14.554  37.705   7.066  1.00  0.00     0.180 A 
ATOM      2  C   UNL     1      15.035  36.676   7.898  1.00  0.00     0.208 A 
ATOM      3  C   UNL     1      16.309  36.141   7.646  1.00  0.00     0.238 A 
ATOM      4  O   UNL     1      16.754  35.226   8.392  1.00  0.00    -0.285 OA
ATOM      5  C   UNL     1      17.067  36.625   6.561  1.00  0.00     0.111 A 
ATOM      6  C   UNL     1      18.355  36.136   6.237  1.00  0.00     0.134 A 
ATOM      7  C   UNL     1      19.043  36.664   5.135  1.00  0.00     0.093 A 
ATOM      8  C   UNL     1      18.466  37.669   4.350  1.00  0.00     0.123 A 
ATOM      9  C   UNL     1      17.196  38.154   4.665  1.00  0.00     0.094 A 
ATOM     10  C   UNL     1      16.495  37.643   5.761  1.00  0.00     0.146 A 
ATOM     11  O   UNL     1      15.290  38.126   6.041  1.00  0.00    -0.452 OA
ENDROOT
BRANCH   1  12
ATOM     12  C   UNL     1      13.230  38.333   7.278  1.00  0.00     0.029 A 
ATOM     13  C   UNL     1      13.022  39.274   8.300  1.00  0.00     0.062 A 
ATOM     14  C   UNL     1      11.773  39.880   8.476  1.00  0.00     0.162 A 
ATOM     15  C   UNL     1      12.176  38.030   6.406  1.00  0.00     0.062 A 
ATOM     16  C   UNL     1      10.706  39.548   7.607  1.00  0.00     0.200 A 
ATOM     17  C   UNL     1      10.919  38.626   6.573  1.00  0.00     0.162 A 
BRANCH  14  18
ATOM     18  O   UNL     1      11.640  40.804   9.515  1.00  0.00    -0.504 OA
ATOM     19  H   UNL     1      12.372  41.432   9.810  1.00  0.00     0.293 HD
ENDBRANCH  14  18
BRANCH  16  20
ATOM     20  O   UNL     1       9.432  40.108   7.735  1.00  0.00    -0.502 OA
ATOM     21  H   UNL     1       9.232  41.092   7.625  1.00  0.00     0.293 HD
ENDBRANCH  16  20
BRANCH  17  22
ATOM     22  O   UNL     1       9.872  38.306   5.710  1.00  0.00    -0.504 OA
ATOM     23  H   UNL     1       9.700  37.353   5.414  1.00  0.00     0.293 HD
ENDBRANCH  17  22
ENDBRANCH   1  12
BRANCH   2  24
ATOM     24  O   UNL     1      14.244  36.180   8.936  1.00  0.00    -0.502 OA
ATOM     25  H   UNL     1      14.540  35.409   9.525  1.00  0.00     0.293 HD
ENDBRANCH   2  24
BRANCH   6  26
ATOM     26  O   UNL     1      18.956  35.133   7.001  1.00  0.00    -0.507 OA
ATOM     27  H   UNL     1      18.473  34.271   7.221  1.00  0.00     0.293 HD
ENDBRANCH   6  26
BRANCH   8  28
ATOM     28  O   UNL     1      19.148  38.193   3.254  1.00  0.00    -0.508 OA
ATOM     29  H   UNL     1      18.743  38.922   2.677  1.00  0.00     0.293 HD
ENDBRANCH   8  28
TORSDOF 7
ENDMDL
MODEL 3
REMARK VINA RESULT:    -5.144      1.201      2.822
REMARK INTER + INTRA:          -6.646
REMARK INTER:                  -6.337
REMARK INTRA:                  -0.309
REMARK UNBOUND:                -0.300
REMARK SMILES O=c1c(O)c(-c2cc(O)c(O)c(O)c2)oc2cc(O)cc(O)c12
REMARK SMILES IDX 5 1 3 2 2 3 1 4 23 5 21 6 20 7 18 8 17 9 16 10 15 11 6 12
REMARK SMILES IDX 7 13 8 14 14 15 10 16 12 17 9 18 11 20 13 22 4 24 22 26
REMARK SMILES IDX 19 28
REMARK H PARENT 9 19 11 21 13 23 4 25 22 27 19 29
REMARK Flexibility Score: inf
ROOT
ATOM      1  C   UNL     1       7.146  23.707   6.506  1.00  0.00     0.180 A 
ATOM      2  C   UNL     1       6.407  23.198   5.421  1.00  0.00     0.208 A 
ATOM      3  C   UNL     1       5.149  23.755   5.138  1.00  0.00     0.238 A 
ATOM      4  O   UNL     1       4.483  23.315   4.161  1.00  0.00    -0.285 OA
ATOM      5  C   UNL     1       4.645  24.790   5.952  1.00  0.00     0.111 A 
ATOM      6  C   UNL     1       3.386  25.401   5.737  1.00  0.00     0.134 A 
ATOM      7  C   UNL     1       2.951  26.419   6.597  1.00  0.00     0.093 A 
ATOM      8  C   UNL     1       3.750  26.836   7.668  1.00  0.00     0.123 A 
ATOM      9  C   UNL     1       4.992  26.237   7.884  1.00  0.00     0.094 A 
ATOM     10  C   UNL     1       5.445  25.222   7.037  1.00  0.00     0.146 A 
ATOM     11  O   UNL     1       6.633  24.673   7.262  1.00  0.00    -0.452 OA
ENDROOT
BRANCH   1  12
ATOM     12  C   UNL     1       8.487  23.185   6.857  1.00  0.00     0.029 A 
ATOM     13  C   UNL     1       8.665  22.281   7.916  1.00  0.00     0.062 A 
ATOM     14  C   UNL     1       9.934  21.774   8.224  1.00  0.00     0.162 A 
ATOM     15  C   UNL     1       9.594  23.552   6.081  1.00  0.00     0.062 A 
ATOM     16  C   UNL     1      11.051  22.172   7.452  1.00  0.00     0.200 A 
ATOM     17  C   UNL     1      10.870  23.056   6.379  1.00  0.00     0.162 A 
BRANCH  14  18
ATOM     18  O   UNL     1      10.035  20.881   9.293  1.00  0.00    -0.504 OA
ATOM     19  H   UNL     1      10.190  19.889   9.189  1.00  0.00     0.293 HD
ENDBRANCH  14  18
BRANCH  16  20
ATOM     20  O   UNL     1      12.345  21.712   7.712  1.00  0.00    -0.502 OA
ATOM     21  H   UNL     1      12.699  21.511   8.636  1.00  0.00     0.293 HD
ENDBRANCH  16  20
BRANCH  17  22
ATOM     22  O   UNL     1      11.968  23.440   5.612  1.00  0.00    -0.504 OA
ATOM     23  H   UNL     1      12.089  24.395   5.296  1.00  0.00     0.293 HD
ENDBRANCH  17  22
ENDBRANCH   1  12
BRANCH   2  24
ATOM     24  O   UNL     1       6.908  22.140   4.660  1.00  0.00    -0.502 OA
ATOM     25  H   UNL     1       6.659  21.174   4.843  1.00  0.00     0.293 HD
ENDBRANCH   2  24
BRANCH   6  26
ATOM     26  O   UNL     1       2.567  25.005   4.678  1.00  0.00    -0.507 OA
ATOM     27  H   UNL     1       2.908  24.975   3.724  1.00  0.00     0.293 HD
ENDBRANCH   6  26
BRANCH   8  28
ATOM     28  O   UNL     1       3.318  27.847   8.525  1.00  0.00    -0.508 OA
ATOM     29  H   UNL     1       3.969  28.365   9.103  1.00  0.00     0.293 HD
ENDBRANCH   8  28
TORSDOF 7
ENDMDL
MODEL 4
REMARK VINA RESULT:    -5.098      1.793      7.305
REMARK INTER + INTRA:          -6.590
REMARK INTER:                  -6.365
REMARK INTRA:                  -0.225
REMARK UNBOUND:                -0.300
REMARK SMILES O=c1c(O)c(-c2cc(O)c(O)c(O)c2)oc2cc(O)cc(O)c12
REMARK SMILES IDX 5 1 3 2 2 3 1 4 23 5 21 6 20 7 18 8 17 9 16 10 15 11 6 12
REMARK SMILES IDX 7 13 8 14 14 15 10 16 12 17 9 18 11 20 13 22 4 24 22 26
REMARK SMILES IDX 19 28
REMARK H PARENT 9 19 11 21 13 23 4 25 22 27 19 29
REMARK Flexibility Score: inf
ROOT
ATOM      1  C   UNL     1       8.501  23.995   6.905  1.00  0.00     0.180 A 
ATOM      2  C   UNL     1       8.669  22.789   7.612  1.00  0.00     0.208 A 
ATOM      3  C   UNL     1       9.906  22.128   7.539  1.00  0.00     0.238 A 
ATOM      4  O   UNL     1      10.071  21.053   8.178  1.00  0.00    -0.285 OA
ATOM      5  C   UNL     1      10.940  22.668   6.748  1.00  0.00     0.111 A 
ATOM      6  C   UNL     1      12.213  22.062   6.618  1.00  0.00     0.134 A 
ATOM      7  C   UNL     1      13.187  22.658   5.805  1.00  0.00     0.093 A 
ATOM      8  C   UNL     1      12.913  23.846   5.118  1.00  0.00     0.123 A 
ATOM      9  C   UNL     1      11.660  24.447   5.243  1.00  0.00     0.094 A 
ATOM     10  C   UNL     1      10.676  23.871   6.051  1.00  0.00     0.146 A 
ATOM     11  O   UNL     1       9.494  24.467   6.156  1.00  0.00    -0.452 OA
ENDROOT
BRANCH   1  12
ATOM     12  C   UNL     1       7.234  24.761   6.946  1.00  0.00     0.029 A 
ATOM     13  C   UNL     1       7.166  26.030   7.544  1.00  0.00     0.062 A 
ATOM     14  C   UNL     1       5.969  26.756   7.556  1.00  0.00     0.162 A 
ATOM     15  C   UNL     1       6.092  24.238   6.325  1.00  0.00     0.062 A 
ATOM     16  C   UNL     1       4.813  26.208   6.949  1.00  0.00     0.200 A 
ATOM     17  C   UNL     1       4.887  24.951   6.333  1.00  0.00     0.162 A 
BRANCH  14  18
ATOM     18  O   UNL     1       5.976  28.010   8.170  1.00  0.00    -0.504 OA
ATOM     19  H   UNL     1       5.991  28.150   9.170  1.00  0.00     0.293 HD
ENDBRANCH  14  18
BRANCH  16  20
ATOM     20  O   UNL     1       3.586  26.875   6.936  1.00  0.00    -0.502 OA
ATOM     21  H   UNL     1       2.779  26.588   7.470  1.00  0.00     0.293 HD
ENDBRANCH  16  20
BRANCH  17  22
ATOM     22  O   UNL     1       3.752  24.416   5.726  1.00  0.00    -0.504 OA
ATOM     23  H   UNL     1       2.925  24.179   6.261  1.00  0.00     0.293 HD
ENDBRANCH  17  22
ENDBRANCH   1  12
BRANCH   2  24
ATOM     24  O   UNL     1       7.612  22.250   8.349  1.00  0.00    -0.502 OA
ATOM     25  H   UNL     1       7.683  21.359   8.827  1.00  0.00     0.293 HD
ENDBRANCH   2  24
BRANCH   6  26
ATOM     26  O   UNL     1      12.515  20.876   7.290  1.00  0.00    -0.507 OA
ATOM     27  H   UNL     1      13.033  20.129   6.844  1.00  0.00     0.293 HD
ENDBRANCH   6  26
BRANCH   8  28
ATOM     28  O   UNL     1      13.880  24.438   4.308  1.00  0.00    -0.508 OA
ATOM     29  H   UNL     1      13.976  25.445   4.247  1.00  0.00     0.293 HD
ENDBRANCH   8  28
TORSDOF 7
ENDMDL
MODEL 5
REMARK VINA RESULT:    -5.022      4.613      8.329
REMARK INTER + INTRA:          -6.496
REMARK INTER:                  -6.627
REMARK INTRA:                   0.131
REMARK UNBOUND:                -0.300
REMARK SMILES O=c1c(O)c(-c2cc(O)c(O)c(O)c2)oc2cc(O)cc(O)c12
REMARK SMILES IDX 5 1 3 2 2 3 1 4 23 5 21 6 20 7 18 8 17 9 16 10 15 11 6 12
REMARK SMILES IDX 7 13 8 14 14 15 10 16 12 17 9 18 11 20 13 22 4 24 22 26
REMARK SMILES IDX 19 28
REMARK H PARENT 9 19 11 21 13 23 4 25 22 27 19 29
REMARK Flexibility Score: inf
ROOT
ATOM      1  C   UNL     1       9.570  28.052   6.791  1.00  0.00     0.180 A 
ATOM      2  C   UNL     1      10.014  29.382   6.661  1.00  0.00     0.208 A 
ATOM      3  C   UNL     1      11.337  29.618   6.254  1.00  0.00     0.238 A 
ATOM      4  O   UNL     1      11.741  30.805   6.124  1.00  0.00    -0.285 OA
ATOM      5  C   UNL     1      12.195  28.528   6.006  1.00  0.00     0.111 A 
ATOM      6  C   UNL     1      13.543  28.681   5.598  1.00  0.00     0.134 A 
ATOM      7  C   UNL     1      14.336  27.545   5.378  1.00  0.00     0.093 A 
ATOM      8  C   UNL     1      13.809  26.262   5.562  1.00  0.00     0.123 A 
ATOM      9  C   UNL     1      12.482  26.106   5.965  1.00  0.00     0.094 A 
ATOM     10  C   UNL     1      11.674  27.225   6.186  1.00  0.00     0.146 A 
ATOM     11  O   UNL     1      10.413  27.048   6.564  1.00  0.00    -0.452 OA
ENDROOT
BRANCH   1  12
ATOM     12  C   UNL     1       8.185  27.721   7.198  1.00  0.00     0.029 A 
ATOM     13  C   UNL     1       7.094  28.496   6.773  1.00  0.00     0.062 A 
ATOM     14  C   UNL     1       5.786  28.161   7.143  1.00  0.00     0.162 A 
ATOM     15  C   UNL     1       7.948  26.578   7.972  1.00  0.00     0.062 A 
ATOM     16  C   UNL     1       5.559  27.019   7.948  1.00  0.00     0.200 A 
ATOM     17  C   UNL     1       6.646  26.232   8.353  1.00  0.00     0.162 A 
BRANCH  14  18
ATOM     18  O   UNL     1       4.751  28.979   6.685  1.00  0.00    -0.504 OA
ATOM     19  H   UNL     1       3.879  29.116   7.174  1.00  0.00     0.293 HD
ENDBRANCH  14  18
BRANCH  16  20
ATOM     20  O   UNL     1       4.280  26.636   8.360  1.00  0.00    -0.502 OA
ATOM     21  H   UNL     1       4.087  25.817   8.919  1.00  0.00     0.293 HD
ENDBRANCH  16  20
BRANCH  17  22
ATOM     22  O   UNL     1       6.421  25.102   9.137  1.00  0.00    -0.504 OA
ATOM     23  H   UNL     1       6.799  25.022  10.074  1.00  0.00     0.293 HD
ENDBRANCH  17  22
ENDBRANCH   1  12
BRANCH   2  24
ATOM     24  O   UNL     1       9.157  30.443   6.961  1.00  0.00    -0.502 OA
ATOM     25  H   UNL     1       9.141  30.888   7.872  1.00  0.00     0.293 HD
ENDBRANCH   2  24
BRANCH   6  26
ATOM     26  O   UNL     1      14.096  29.948   5.407  1.00  0.00    -0.507 OA
ATOM     27  H   UNL     1      14.322  30.553   6.188  1.00  0.00     0.293 HD
ENDBRANCH   6  26
BRANCH   8  28
ATOM     28  O   UNL     1      14.597  25.133   5.346  1.00  0.00    -0.508 OA
ATOM     29  H   UNL     1      15.607  25.168   5.434  1.00  0.00     0.293 HD
ENDBRANCH   8  28
TORSDOF 7
ENDMDL
MODEL 6
REMARK VINA RESULT:    -5.016      4.709      8.066
REMARK INTER + INTRA:          -6.488
REMARK INTER:                  -6.484
REMARK INTRA:                  -0.004
REMARK UNBOUND:                -0.300
REMARK SMILES O=c1c(O)c(-c2cc(O)c(O)c(O)c2)oc2cc(O)cc(O)c12
REMARK SMILES IDX 5 1 3 2 2 3 1 4 23 5 21 6 20 7 18 8 17 9 16 10 15 11 6 12
REMARK SMILES IDX 7 13 8 14 14 15 10 16 12 17 9 18 11 20 13 22 4 24 22 26
REMARK SMILES IDX 19 28
REMARK H PARENT 9 19 11 21 13 23 4 25 22 27 19 29
REMARK Flexibility Score: inf
ROOT
ATOM      1  C   UNL     1       7.761  27.884   6.553  1.00  0.00     0.180 A 
ATOM      2  C   UNL     1       8.844  26.983   6.524  1.00  0.00     0.208 A 
ATOM      3  C   UNL     1      10.151  27.496   6.521  1.00  0.00     0.238 A 
ATOM      4  O   UNL     1      11.129  26.699   6.507  1.00  0.00    -0.285 OA
ATOM      5  C   UNL     1      10.354  28.891   6.523  1.00  0.00     0.111 A 
ATOM      6  C   UNL     1      11.638  29.488   6.515  1.00  0.00     0.134 A 
ATOM      7  C   UNL     1      11.756  30.885   6.510  1.00  0.00     0.093 A 
ATOM      8  C   UNL     1      10.615  31.696   6.511  1.00  0.00     0.123 A 
ATOM      9  C   UNL     1       9.348  31.113   6.519  1.00  0.00     0.094 A 
ATOM     10  C   UNL     1       9.208  29.722   6.527  1.00  0.00     0.146 A 
ATOM     11  O   UNL     1       7.990  29.194   6.539  1.00  0.00    -0.452 OA
ENDROOT
BRANCH   1  12
ATOM     12  C   UNL     1       6.355  27.421   6.577  1.00  0.00     0.029 A 
ATOM     13  C   UNL     1       5.432  27.935   7.502  1.00  0.00     0.062 A 
ATOM     14  C   UNL     1       4.099  27.509   7.501  1.00  0.00     0.162 A 
ATOM     15  C   UNL     1       5.916  26.497   5.620  1.00  0.00     0.062 A 
ATOM     16  C   UNL     1       3.671  26.554   6.548  1.00  0.00     0.200 A 
ATOM     17  C   UNL     1       4.587  26.058   5.609  1.00  0.00     0.162 A 
BRANCH  14  18
ATOM     18  O   UNL     1       3.239  28.062   8.453  1.00  0.00    -0.504 OA
ATOM     19  H   UNL     1       2.913  29.017   8.434  1.00  0.00     0.293 HD
ENDBRANCH  14  18
BRANCH  16  20
ATOM     20  O   UNL     1       2.358  26.079   6.499  1.00  0.00    -0.502 OA
ATOM     21  H   UNL     1       1.937  25.503   7.213  1.00  0.00     0.293 HD
ENDBRANCH  16  20
BRANCH  17  22
ATOM     22  O   UNL     1       4.164  25.126   4.663  1.00  0.00    -0.504 OA
ATOM     23  H   UNL     1       3.308  24.596   4.784  1.00  0.00     0.293 HD
ENDBRANCH  17  22
ENDBRANCH   1  12
BRANCH   2  24
ATOM     24  O   UNL     1       8.616  25.607   6.472  1.00  0.00    -0.502 OA
ATOM     25  H   UNL     1       8.130  25.108   7.209  1.00  0.00     0.293 HD
ENDBRANCH   2  24
BRANCH   6  26
ATOM     26  O   UNL     1      12.793  28.704   6.513  1.00  0.00    -0.507 OA
ATOM     27  H   UNL     1      12.874  27.875   5.937  1.00  0.00     0.293 HD
ENDBRANCH   6  26
BRANCH   8  28
ATOM     28  O   UNL     1      10.732  33.085   6.504  1.00  0.00    -0.508 OA
ATOM     29  H   UNL     1      11.632  33.540   6.406  1.00  0.00     0.293 HD
ENDBRANCH   8  28
TORSDOF 7
ENDMDL
MODEL 7
REMARK VINA RESULT:    -5.015     11.038     12.270
REMARK INTER + INTRA:          -6.487
REMARK INTER:                  -6.252
REMARK INTRA:                  -0.235
REMARK UNBOUND:                -0.300
REMARK SMILES O=c1c(O)c(-c2cc(O)c(O)c(O)c2)oc2cc(O)cc(O)c12
REMARK SMILES IDX 5 1 3 2 2 3 1 4 23 5 21 6 20 7 18 8 17 9 16 10 15 11 6 12
REMARK SMILES IDX 7 13 8 14 14 15 10 16 12 17 9 18 11 20 13 22 4 24 22 26
REMARK SMILES IDX 19 28
REMARK H PARENT 9 19 11 21 13 23 4 25 22 27 19 29
REMARK Flexibility Score: inf
ROOT
ATOM      1  C   UNL     1      13.383  33.558   6.259  1.00  0.00     0.180 A 
ATOM      2  C   UNL     1      12.390  32.588   6.493  1.00  0.00     0.208 A 
ATOM      3  C   UNL     1      11.045  32.988   6.522  1.00  0.00     0.238 A 
ATOM      4  O   UNL     1      10.147  32.125   6.720  1.00  0.00    -0.285 OA
ATOM      5  C   UNL     1      10.717  34.347   6.338  1.00  0.00     0.111 A 
ATOM      6  C   UNL     1       9.388  34.832   6.358  1.00  0.00     0.134 A 
ATOM      7  C   UNL     1       9.144  36.201   6.175  1.00  0.00     0.093 A 
ATOM      8  C   UNL     1      10.204  37.093   5.977  1.00  0.00     0.123 A 
ATOM      9  C   UNL     1      11.517  36.619   5.957  1.00  0.00     0.094 A 
ATOM     10  C   UNL     1      11.781  35.258   6.134  1.00  0.00     0.146 A 
ATOM     11  O   UNL     1      13.039  34.834   6.106  1.00  0.00    -0.452 OA
ENDROOT
BRANCH   1  12
ATOM     12  C   UNL     1      14.822  33.212   6.196  1.00  0.00     0.029 A 
ATOM     13  C   UNL     1      15.712  33.600   7.211  1.00  0.00     0.062 A 
ATOM     14  C   UNL     1      17.065  33.246   7.154  1.00  0.00     0.162 A 
ATOM     15  C   UNL     1      15.297  32.431   5.135  1.00  0.00     0.062 A 
ATOM     16  C   UNL     1      17.542  32.480   6.064  1.00  0.00     0.200 A 
ATOM     17  C   UNL     1      16.649  32.074   5.063  1.00  0.00     0.162 A 
BRANCH  14  18
ATOM     18  O   UNL     1      17.891  33.669   8.198  1.00  0.00    -0.504 OA
ATOM     19  H   UNL     1      18.664  33.131   8.561  1.00  0.00     0.293 HD
ENDBRANCH  14  18
BRANCH  16  20
ATOM     20  O   UNL     1      18.882  32.103   5.942  1.00  0.00    -0.502 OA
ATOM     21  H   UNL     1      19.661  32.679   6.226  1.00  0.00     0.293 HD
ENDBRANCH  16  20
BRANCH  17  22
ATOM     22  O   UNL     1      17.116  31.310   3.995  1.00  0.00    -0.504 OA
ATOM     23  H   UNL     1      16.883  30.328   3.901  1.00  0.00     0.293 HD
ENDBRANCH  17  22
ENDBRANCH   1  12
BRANCH   2  24
ATOM     24  O   UNL     1      12.745  31.256   6.721  1.00  0.00    -0.502 OA
ATOM     25  H   UNL     1      12.532  30.517   6.061  1.00  0.00     0.293 HD
ENDBRANCH   2  24
BRANCH   6  26
ATOM     26  O   UNL     1       8.310  33.967   6.555  1.00  0.00    -0.507 OA
ATOM     27  H   UNL     1       8.222  33.409   7.396  1.00  0.00     0.293 HD
ENDBRANCH   6  26
BRANCH   8  28
ATOM     28  O   UNL     1       9.963  38.454   5.797  1.00  0.00    -0.508 OA
ATOM     29  H   UNL     1      10.530  39.157   6.257  1.00  0.00     0.293 HD
ENDBRANCH   8  28
TORSDOF 7
ENDMDL
MODEL 8
REMARK VINA RESULT:    -5.003     14.172     15.072
REMARK INTER + INTRA:          -6.472
REMARK INTER:                  -6.267
REMARK INTRA:                  -0.204
REMARK UNBOUND:                -0.300
REMARK SMILES O=c1c(O)c(-c2cc(O)c(O)c(O)c2)oc2cc(O)cc(O)c12
REMARK SMILES IDX 5 1 3 2 2 3 1 4 23 5 21 6 20 7 18 8 17 9 16 10 15 11 6 12
REMARK SMILES IDX 7 13 8 14 14 15 10 16 12 17 9 18 11 20 13 22 4 24 22 26
REMARK SMILES IDX 19 28
REMARK H PARENT 9 19 11 21 13 23 4 25 22 27 19 29
REMARK Flexibility Score: inf
ROOT
ATOM      1  C   UNL     1      12.986  37.701   7.002  1.00  0.00     0.180 A 
ATOM      2  C   UNL     1      12.834  38.921   7.687  1.00  0.00     0.208 A 
ATOM      3  C   UNL     1      11.610  39.602   7.595  1.00  0.00     0.238 A 
ATOM      4  O   UNL     1      11.459  40.691   8.214  1.00  0.00    -0.285 OA
ATOM      5  C   UNL     1      10.571  39.067   6.807  1.00  0.00     0.111 A 
ATOM      6  C   UNL     1       9.310  39.693   6.658  1.00  0.00     0.134 A 
ATOM      7  C   UNL     1       8.330  39.100   5.848  1.00  0.00     0.093 A 
ATOM      8  C   UNL     1       8.588  37.895   5.184  1.00  0.00     0.123 A 
ATOM      9  C   UNL     1       9.830  37.275   5.327  1.00  0.00     0.094 A 
ATOM     10  C   UNL     1      10.819  37.848   6.132  1.00  0.00     0.146 A 
ATOM     11  O   UNL     1      11.990  37.233   6.255  1.00  0.00    -0.452 OA
ENDROOT
BRANCH   1  12
ATOM     12  C   UNL     1      14.239  36.914   7.064  1.00  0.00     0.029 A 
ATOM     13  C   UNL     1      14.272  35.638   7.648  1.00  0.00     0.062 A 
ATOM     14  C   UNL     1      15.457  34.892   7.681  1.00  0.00     0.162 A 
ATOM     15  C   UNL     1      15.404  37.425   6.477  1.00  0.00     0.062 A 
ATOM     16  C   UNL     1      16.635  35.428   7.109  1.00  0.00     0.200 A 
ATOM     17  C   UNL     1      16.597  36.693   6.505  1.00  0.00     0.162 A 
BRANCH  14  18
ATOM     18  O   UNL     1      15.415  33.631   8.280  1.00  0.00    -0.504 OA
ATOM     19  H   UNL     1      16.202  33.001   8.328  1.00  0.00     0.293 HD
ENDBRANCH  14  18
BRANCH  16  20
ATOM     20  O   UNL     1      17.852  34.741   7.117  1.00  0.00    -0.502 OA
ATOM     21  H   UNL     1      18.680  35.049   6.628  1.00  0.00     0.293 HD
ENDBRANCH  16  20
BRANCH  17  22
ATOM     22  O   UNL     1      17.755  37.216   5.932  1.00  0.00    -0.504 OA
ATOM     23  H   UNL     1      18.659  37.121   6.380  1.00  0.00     0.293 HD
ENDBRANCH  17  22
ENDBRANCH   1  12
BRANCH   2  24
ATOM     24  O   UNL     1      13.896  39.455   8.421  1.00  0.00    -0.502 OA
ATOM     25  H   UNL     1      13.753  40.068   9.215  1.00  0.00     0.293 HD
ENDBRANCH   2  24
BRANCH   6  26
ATOM     26  O   UNL     1       9.024  40.895   7.307  1.00  0.00    -0.507 OA
ATOM     27  H   UNL     1       9.238  41.791   6.887  1.00  0.00     0.293 HD
ENDBRANCH   6  26
BRANCH   8  28
ATOM     28  O   UNL     1       7.616  37.307   4.378  1.00  0.00    -0.508 OA
ATOM     29  H   UNL     1       7.793  36.441   3.881  1.00  0.00     0.293 HD
ENDBRANCH   8  28
TORSDOF 7
ENDMDL
MODEL 9
REMARK VINA RESULT:    -4.971      4.141      8.024
REMARK INTER + INTRA:          -6.433
REMARK INTER:                  -6.076
REMARK INTRA:                  -0.357
REMARK UNBOUND:                -0.300
REMARK SMILES O=c1c(O)c(-c2cc(O)c(O)c(O)c2)oc2cc(O)cc(O)c12
REMARK SMILES IDX 5 1 3 2 2 3 1 4 23 5 21 6 20 7 18 8 17 9 16 10 15 11 6 12
REMARK SMILES IDX 7 13 8 14 14 15 10 16 12 17 9 18 11 20 13 22 4 24 22 26
REMARK SMILES IDX 19 28
REMARK H PARENT 9 19 11 21 13 23 4 25 22 27 19 29
REMARK Flexibility Score: inf
ROOT
ATOM      1  C   UNL     1       8.383  27.899   6.034  1.00  0.00     0.180 A 
ATOM      2  C   UNL     1       8.992  29.168   6.055  1.00  0.00     0.208 A 
ATOM      3  C   UNL     1      10.394  29.247   6.087  1.00  0.00     0.238 A 
ATOM      4  O   UNL     1      10.950  30.379   6.096  1.00  0.00    -0.285 OA
ATOM      5  C   UNL     1      11.158  28.063   6.119  1.00  0.00     0.111 A 
ATOM      6  C   UNL     1      12.574  28.056   6.157  1.00  0.00     0.134 A 
ATOM      7  C   UNL     1      13.262  26.835   6.195  1.00  0.00     0.093 A 
ATOM      8  C   UNL     1      12.564  25.622   6.199  1.00  0.00     0.123 A 
ATOM      9  C   UNL     1      11.169  25.624   6.162  1.00  0.00     0.094 A 
ATOM     10  C   UNL     1      10.463  26.830   6.120  1.00  0.00     0.146 A 
ATOM     11  O   UNL     1       9.136  26.803   6.081  1.00  0.00    -0.452 OA
ENDROOT
BRANCH   1  12
ATOM     12  C   UNL     1       6.913  27.733   5.982  1.00  0.00     0.029 A 
ATOM     13  C   UNL     1       6.146  27.634   7.154  1.00  0.00     0.062 A 
ATOM     14  C   UNL     1       4.754  27.502   7.094  1.00  0.00     0.162 A 
ATOM     15  C   UNL     1       6.262  27.735   4.741  1.00  0.00     0.062 A 
ATOM     16  C   UNL     1       4.108  27.478   5.835  1.00  0.00     0.200 A 
ATOM     17  C   UNL     1       4.871  27.600   4.665  1.00  0.00     0.162 A 
BRANCH  14  18
ATOM     18  O   UNL     1       4.057  27.407   8.301  1.00  0.00    -0.504 OA
ATOM     19  H   UNL     1       4.220  26.691   8.993  1.00  0.00     0.293 HD
ENDBRANCH  14  18
BRANCH  16  20
ATOM     20  O   UNL     1       2.724  27.338   5.705  1.00  0.00    -0.502 OA
ATOM     21  H   UNL     1       2.099  28.092   5.459  1.00  0.00     0.293 HD
ENDBRANCH  16  20
BRANCH  17  22
ATOM     22  O   UNL     1       4.234  27.586   3.425  1.00  0.00    -0.504 OA
ATOM     23  H   UNL     1       4.635  28.048   2.617  1.00  0.00     0.293 HD
ENDBRANCH  17  22
ENDBRANCH   1  12
BRANCH   2  24
ATOM     24  O   UNL     1       8.210  30.325   6.073  1.00  0.00    -0.502 OA
ATOM     25  H   UNL     1       8.315  31.040   6.784  1.00  0.00     0.293 HD
ENDBRANCH   2  24
BRANCH   6  26
ATOM     26  O   UNL     1      13.298  29.249   6.156  1.00  0.00    -0.507 OA
ATOM     27  H   UNL     1      13.160  29.957   6.867  1.00  0.00     0.293 HD
ENDBRANCH   6  26
BRANCH   8  28
ATOM     28  O   UNL     1      13.247  24.409   6.239  1.00  0.00    -0.508 OA
ATOM     29  H   UNL     1      13.052  23.669   5.574  1.00  0.00     0.293 HD
ENDBRANCH   8  28
TORSDOF 7
ENDMDL
