MODEL 1
REMARK VINA RESULT:     5.715      0.000      0.000
REMARK INTER + INTRA:           8.006
REMARK INTER:                   8.388
REMARK INTRA:                  -0.382
REMARK UNBOUND:                -0.382
REMARK SMILES O=C([O-])CCCCCCCC(=O)[O-]
REMARK SMILES IDX 7 1 6 2 5 3 4 4 2 5 1 6 3 7 8 8 9 9 10 10 11 11 12 12 13 13
REMARK H PARENT
REMARK Flexibility Score: inf
ROOT
ATOM      1  C   UNL     1       9.441  18.084  27.902  1.00  0.00     0.000 C 
ENDROOT
BRANCH   1   2
ATOM      2  C   UNL     1       8.978  16.743  27.323  1.00  0.00     0.000 C 
BRANCH   2   3
ATOM      3  C   UNL     1       7.627  16.888  26.611  1.00  0.00     0.006 C 
BRANCH   3   4
ATOM      4  C   UNL     1       6.606  17.593  27.509  1.00  0.00     0.053 C 
BRANCH   4   5
ATOM      5  C   UNL     1       5.495  18.167  26.687  1.00  0.00     0.041 C 
ATOM      6  O   UNL     1       5.752  18.795  25.627  1.00  0.00    -0.550 OA
ATOM      7  O   UNL     1       4.174  17.966  27.067  1.00  0.00    -0.550 OA
ENDBRANCH   4   5
ENDBRANCH   3   4
ENDBRANCH   2   3
ENDBRANCH   1   2
BRANCH   1   8
ATOM      8  C   UNL     1       9.964  17.916  29.333  1.00  0.00     0.000 C 
BRANCH   8   9
ATOM      9  C   UNL     1       8.839  17.479  30.283  1.00  0.00     0.006 C 
BRANCH   9  10
ATOM     10  C   UNL     1       9.273  17.513  31.754  1.00  0.00     0.053 C 
BRANCH  10  11
ATOM     11  C   UNL     1       8.100  17.452  32.683  1.00  0.00     0.041 C 
ATOM     12  O   UNL     1       7.635  16.338  33.042  1.00  0.00    -0.550 OA
ATOM     13  O   UNL     1       7.499  18.624  33.124  1.00  0.00    -0.550 OA
ENDBRANCH  10  11
ENDBRANCH   9  10
ENDBRANCH   8   9
ENDBRANCH   1   8
TORSDOF 8
ENDMDL
MODEL 2
REMARK VINA RESULT:     5.964      0.752      5.720
REMARK INTER + INTRA:           8.371
REMARK INTER:                   8.734
REMARK INTRA:                  -0.363
REMARK UNBOUND:                -0.382
REMARK SMILES O=C([O-])CCCCCCCC(=O)[O-]
REMARK SMILES IDX 7 1 6 2 5 3 4 4 2 5 1 6 3 7 8 8 9 9 10 10 11 11 12 12 13 13
REMARK H PARENT
REMARK Flexibility Score: inf
ROOT
ATOM      1  C   UNL     1       9.695  17.517  28.482  1.00  0.00     0.000 C 
ENDROOT
BRANCH   1   2
ATOM      2  C   UNL     1       8.686  17.508  29.635  1.00  0.00     0.000 C 
BRANCH   2   3
ATOM      3  C   UNL     1       9.201  18.326  30.826  1.00  0.00     0.006 C 
BRANCH   3   4
ATOM      4  C   UNL     1       9.410  17.436  32.055  1.00  0.00     0.053 C 
BRANCH   4   5
ATOM      5  C   UNL     1       8.127  17.275  32.808  1.00  0.00     0.041 C 
ATOM      6  O   UNL     1       7.448  18.287  33.125  1.00  0.00    -0.550 OA
ATOM      7  O   UNL     1       7.657  16.005  33.117  1.00  0.00    -0.550 OA
ENDBRANCH   4   5
ENDBRANCH   3   4
ENDBRANCH   2   3
ENDBRANCH   1   2
BRANCH   1   8
ATOM      8  C   UNL     1       9.260  16.567  27.361  1.00  0.00     0.000 C 
BRANCH   8   9
ATOM      9  C   UNL     1       7.762  16.717  27.061  1.00  0.00     0.006 C 
BRANCH   9  10
ATOM     10  C   UNL     1       7.468  17.917  26.151  1.00  0.00     0.053 C 
BRANCH  10  11
ATOM     11  C   UNL     1       6.024  18.312  26.198  1.00  0.00     0.041 C 
ATOM     12  O   UNL     1       5.298  17.942  27.158  1.00  0.00    -0.550 OA
ATOM     13  O   UNL     1       5.472  19.060  25.165  1.00  0.00    -0.550 OA
ENDBRANCH  10  11
ENDBRANCH   9  10
ENDBRANCH   8   9
ENDBRANCH   1   8
TORSDOF 8
ENDMDL
MODEL 3
REMARK VINA RESULT:     6.242      1.404      5.531
REMARK INTER + INTRA:           8.779
REMARK INTER:                   8.897
REMARK INTRA:                  -0.118
REMARK UNBOUND:                -0.382
REMARK SMILES O=C([O-])CCCCCCCC(=O)[O-]
REMARK SMILES IDX 7 1 6 2 5 3 4 4 2 5 1 6 3 7 8 8 9 9 10 10 11 11 12 12 13 13
REMARK H PARENT
REMARK Flexibility Score: inf
ROOT
ATOM      1  C   UNL     1       9.269  17.874  29.701  1.00  0.00     0.000 C 
ENDROOT
BRANCH   1   2
ATOM      2  C   UNL     1       8.115  17.407  30.594  1.00  0.00     0.000 C 
BRANCH   2   3
ATOM      3  C   UNL     1       8.591  17.169  32.032  1.00  0.00     0.006 C 
BRANCH   3   4
ATOM      4  C   UNL     1       7.680  17.879  33.037  1.00  0.00     0.053 C 
BRANCH   4   5
ATOM      5  C   UNL     1       7.661  19.353  32.775  1.00  0.00     0.041 C 
ATOM      6  O   UNL     1       8.680  19.926  32.311  1.00  0.00    -0.550 OA
ATOM      7  O   UNL     1       6.500  20.083  32.998  1.00  0.00    -0.550 OA
ENDBRANCH   4   5
ENDBRANCH   3   4
ENDBRANCH   2   3
ENDBRANCH   1   2
BRANCH   1   8
ATOM      8  C   UNL     1       9.288  17.105  28.375  1.00  0.00     0.000 C 
BRANCH   8   9
ATOM      9  C   UNL     1       8.573  17.895  27.270  1.00  0.00     0.006 C 
BRANCH   9  10
ATOM     10  C   UNL     1       7.381  17.126  26.684  1.00  0.00     0.053 C 
BRANCH  10  11
ATOM     11  C   UNL     1       6.138  17.962  26.658  1.00  0.00     0.041 C 
ATOM     12  O   UNL     1       5.229  17.771  27.508  1.00  0.00    -0.550 OA
ATOM     13  O   UNL     1       5.968  18.927  25.673  1.00  0.00    -0.550 OA
ENDBRANCH  10  11
ENDBRANCH   9  10
ENDBRANCH   8   9
ENDBRANCH   1   8
TORSDOF 8
ENDMDL
MODEL 4
REMARK VINA RESULT:     6.362      1.399      1.843
REMARK INTER + INTRA:           8.955
REMARK INTER:                   9.103
REMARK INTRA:                  -0.148
REMARK UNBOUND:                -0.382
REMARK SMILES O=C([O-])CCCCCCCC(=O)[O-]
REMARK SMILES IDX 7 1 6 2 5 3 4 4 2 5 1 6 3 7 8 8 9 9 10 10 11 11 12 12 13 13
REMARK H PARENT
REMARK Flexibility Score: inf
ROOT
ATOM      1  C   UNL     1       9.302  17.870  29.717  1.00  0.00     0.000 C 
ENDROOT
BRANCH   1   2
ATOM      2  C   UNL     1       9.312  17.133  28.373  1.00  0.00     0.000 C 
BRANCH   2   3
ATOM      3  C   UNL     1       8.551  17.927  27.304  1.00  0.00     0.006 C 
BRANCH   3   4
ATOM      4  C   UNL     1       7.370  17.119  26.758  1.00  0.00     0.053 C 
BRANCH   4   5
ATOM      5  C   UNL     1       6.164  17.992  26.606  1.00  0.00     0.041 C 
ATOM      6  O   UNL     1       6.089  18.807  25.648  1.00  0.00    -0.550 OA
ATOM      7  O   UNL     1       5.101  17.871  27.492  1.00  0.00    -0.550 OA
ENDBRANCH   4   5
ENDBRANCH   3   4
ENDBRANCH   2   3
ENDBRANCH   1   2
BRANCH   1   8
ATOM      8  C   UNL     1       8.128  17.411  30.589  1.00  0.00     0.000 C 
BRANCH   8   9
ATOM      9  C   UNL     1       8.586  17.127  32.026  1.00  0.00     0.006 C 
BRANCH   9  10
ATOM     10  C   UNL     1       7.748  17.883  33.064  1.00  0.00     0.053 C 
BRANCH  10  11
ATOM     11  C   UNL     1       7.751  19.360  32.814  1.00  0.00     0.041 C 
ATOM     12  O   UNL     1       8.781  19.922  32.358  1.00  0.00    -0.550 OA
ATOM     13  O   UNL     1       6.629  20.121  33.119  1.00  0.00    -0.550 OA
ENDBRANCH  10  11
ENDBRANCH   9  10
ENDBRANCH   8   9
ENDBRANCH   1   8
TORSDOF 8
ENDMDL
