MODEL 1
REMARK VINA RESULT:    -4.515      0.000      0.000
REMARK INTER + INTRA:          -7.728
REMARK INTER:                  -6.890
REMARK INTRA:                  -0.838
REMARK UNBOUND:                -0.838
REMARK SMILES O=C([O-])CCCCCCCCC(=O)[O-]
REMARK SMILES IDX 7 1 6 2 5 3 4 4 2 5 1 6 3 7 8 8 9 9 10 10 11 11 12 12 13 13
REMARK SMILES IDX 14 14
REMARK H PARENT
REMARK Flexibility Score: inf
ROOT
ATOM      1  C   UNL     1      27.125   0.972  31.478  1.00  0.00     0.000 C 
ENDROOT
BRANCH   1   2
ATOM      2  C   UNL     1      26.352   0.690  30.177  1.00  0.00     0.000 C 
BRANCH   2   3
ATOM      3  C   UNL     1      26.783   1.541  28.966  1.00  0.00     0.006 C 
BRANCH   3   4
ATOM      4  C   UNL     1      27.741   2.692  29.310  1.00  0.00     0.053 C 
BRANCH   4   5
ATOM      5  C   UNL     1      27.225   4.014  28.828  1.00  0.00     0.041 C 
ATOM      6  O   UNL     1      26.269   4.060  28.011  1.00  0.00    -0.550 OA
ATOM      7  O   UNL     1      27.824   5.192  29.255  1.00  0.00    -0.550 OA
ENDBRANCH   4   5
ENDBRANCH   3   4
ENDBRANCH   2   3
ENDBRANCH   1   2
BRANCH   1   8
ATOM      8  C   UNL     1      28.054  -0.182  31.914  1.00  0.00     0.000 C 
BRANCH   8   9
ATOM      9  C   UNL     1      29.518   0.064  31.515  1.00  0.00     0.000 C 
BRANCH   9  10
ATOM     10  C   UNL     1      29.839  -0.597  30.166  1.00  0.00     0.006 C 
BRANCH  10  11
ATOM     11  C   UNL     1      28.992  -1.852  29.919  1.00  0.00     0.053 C 
BRANCH  11  12
ATOM     12  C   UNL     1      29.842  -3.077  29.776  1.00  0.00     0.041 C 
ATOM     13  O   UNL     1      29.316  -4.187  29.502  1.00  0.00    -0.550 OA
ATOM     14  O   UNL     1      31.215  -2.997  29.978  1.00  0.00    -0.550 OA
ENDBRANCH  11  12
ENDBRANCH  10  11
ENDBRANCH   9  10
ENDBRANCH   8   9
ENDBRANCH   1   8
TORSDOF 9
ENDMDL
MODEL 2
REMARK VINA RESULT:    -4.480      0.411      6.039
REMARK INTER + INTRA:          -7.675
REMARK INTER:                  -6.840
REMARK INTRA:                  -0.835
REMARK UNBOUND:                -0.838
REMARK SMILES O=C([O-])CCCCCCCCC(=O)[O-]
REMARK SMILES IDX 7 1 6 2 5 3 4 4 2 5 1 6 3 7 8 8 9 9 10 10 11 11 12 12 13 13
REMARK SMILES IDX 14 14
REMARK H PARENT
REMARK Flexibility Score: inf
ROOT
ATOM      1  C   UNL     1      27.937  -0.134  31.921  1.00  0.00     0.000 C 
ENDROOT
BRANCH   1   2
ATOM      2  C   UNL     1      29.442   0.118  31.716  1.00  0.00     0.000 C 
BRANCH   2   3
ATOM      3  C   UNL     1      29.986  -0.281  30.330  1.00  0.00     0.006 C 
BRANCH   3   4
ATOM      4  C   UNL     1      29.133  -1.326  29.593  1.00  0.00     0.053 C 
BRANCH   4   5
ATOM      5  C   UNL     1      29.560  -2.726  29.915  1.00  0.00     0.041 C 
ATOM      6  O   UNL     1      28.700  -3.599  30.201  1.00  0.00    -0.550 OA
ATOM      7  O   UNL     1      30.909  -3.056  29.932  1.00  0.00    -0.550 OA
ENDBRANCH   4   5
ENDBRANCH   3   4
ENDBRANCH   2   3
ENDBRANCH   1   2
BRANCH   1   8
ATOM      8  C   UNL     1      27.039   1.011  31.406  1.00  0.00     0.000 C 
BRANCH   8   9
ATOM      9  C   UNL     1      26.229   0.606  30.164  1.00  0.00     0.000 C 
BRANCH   9  10
ATOM     10  C   UNL     1      26.663   1.419  28.935  1.00  0.00     0.006 C 
BRANCH  10  11
ATOM     11  C   UNL     1      27.676   2.514  29.292  1.00  0.00     0.053 C 
BRANCH  11  12
ATOM     12  C   UNL     1      27.191   3.873  28.888  1.00  0.00     0.041 C 
ATOM     13  O   UNL     1      26.294   3.992  28.014  1.00  0.00    -0.550 OA
ATOM     14  O   UNL     1      27.756   5.009  29.454  1.00  0.00    -0.550 OA
ENDBRANCH  11  12
ENDBRANCH  10  11
ENDBRANCH   9  10
ENDBRANCH   8   9
ENDBRANCH   1   8
TORSDOF 9
ENDMDL
MODEL 3
REMARK VINA RESULT:    -4.475      2.284      6.019
REMARK INTER + INTRA:          -7.668
REMARK INTER:                  -6.763
REMARK INTRA:                  -0.904
REMARK UNBOUND:                -0.838
REMARK SMILES O=C([O-])CCCCCCCCC(=O)[O-]
REMARK SMILES IDX 7 1 6 2 5 3 4 4 2 5 1 6 3 7 8 8 9 9 10 10 11 11 12 12 13 13
REMARK SMILES IDX 14 14
REMARK H PARENT
REMARK Flexibility Score: inf
ROOT
ATOM      1  C   UNL     1      28.390  -0.091  28.678  1.00  0.00     0.000 C 
ENDROOT
BRANCH   1   2
ATOM      2  C   UNL     1      26.881  -0.155  28.978  1.00  0.00     0.000 C 
BRANCH   2   3
ATOM      3  C   UNL     1      26.513  -0.810  30.324  1.00  0.00     0.006 C 
BRANCH   3   4
ATOM      4  C   UNL     1      27.557  -1.809  30.848  1.00  0.00     0.053 C 
BRANCH   4   5
ATOM      5  C   UNL     1      27.063  -3.223  30.782  1.00  0.00     0.041 C 
ATOM      6  O   UNL     1      27.879  -4.180  30.813  1.00  0.00    -0.550 OA
ATOM      7  O   UNL     1      25.704  -3.479  30.650  1.00  0.00    -0.550 OA
ENDBRANCH   4   5
ENDBRANCH   3   4
ENDBRANCH   2   3
ENDBRANCH   1   2
BRANCH   1   8
ATOM      8  C   UNL     1      29.062   1.217  29.148  1.00  0.00     0.000 C 
BRANCH   8   9
ATOM      9  C   UNL     1      29.951   1.006  30.383  1.00  0.00     0.000 C 
BRANCH   9  10
ATOM     10  C   UNL     1      29.242   1.485  31.659  1.00  0.00     0.006 C 
BRANCH  10  11
ATOM     11  C   UNL     1      28.098   2.461  31.356  1.00  0.00     0.053 C 
BRANCH  11  12
ATOM     12  C   UNL     1      28.492   3.880  31.627  1.00  0.00     0.041 C 
ATOM     13  O   UNL     1      29.311   4.148  32.543  1.00  0.00    -0.550 OA
ATOM     14  O   UNL     1      27.927   4.911  30.886  1.00  0.00    -0.550 OA
ENDBRANCH  11  12
ENDBRANCH  10  11
ENDBRANCH   9  10
ENDBRANCH   8   9
ENDBRANCH   1   8
TORSDOF 9
ENDMDL
MODEL 4
REMARK VINA RESULT:    -4.349      1.894      2.953
REMARK INTER + INTRA:          -7.476
REMARK INTER:                  -6.786
REMARK INTRA:                  -0.690
REMARK UNBOUND:                -0.838
REMARK SMILES O=C([O-])CCCCCCCCC(=O)[O-]
REMARK SMILES IDX 7 1 6 2 5 3 4 4 2 5 1 6 3 7 8 8 9 9 10 10 11 11 12 12 13 13
REMARK SMILES IDX 14 14
REMARK H PARENT
REMARK Flexibility Score: inf
ROOT
ATOM      1  C   UNL     1      26.881   1.270  28.856  1.00  0.00     0.000 C 
ENDROOT
BRANCH   1   2
ATOM      2  C   UNL     1      27.701   2.515  29.243  1.00  0.00     0.000 C 
BRANCH   2   3
ATOM      3  C   UNL     1      27.040   3.863  28.894  1.00  0.00     0.006 C 
BRANCH   3   4
ATOM      4  C   UNL     1      27.845   5.096  29.334  1.00  0.00     0.053 C 
BRANCH   4   5
ATOM      5  C   UNL     1      27.589   5.450  30.767  1.00  0.00     0.041 C 
ATOM      6  O   UNL     1      26.991   6.519  31.057  1.00  0.00    -0.550 OA
ATOM      7  O   UNL     1      28.043   4.617  31.782  1.00  0.00    -0.550 OA
ENDBRANCH   4   5
ENDBRANCH   3   4
ENDBRANCH   2   3
ENDBRANCH   1   2
BRANCH   1   8
ATOM      8  C   UNL     1      26.266   0.530  30.064  1.00  0.00     0.000 C 
BRANCH   8   9
ATOM      9  C   UNL     1      26.899   0.960  31.396  1.00  0.00     0.000 C 
BRANCH   9  10
ATOM     10  C   UNL     1      27.858  -0.118  31.924  1.00  0.00     0.006 C 
BRANCH  10  11
ATOM     11  C   UNL     1      29.326   0.318  31.837  1.00  0.00     0.053 C 
BRANCH  11  12
ATOM     12  C   UNL     1      29.994  -0.219  30.609  1.00  0.00     0.041 C 
ATOM     13  O   UNL     1      31.051   0.310  30.177  1.00  0.00    -0.550 OA
ATOM     14  O   UNL     1      29.430  -1.287  29.922  1.00  0.00    -0.550 OA
ENDBRANCH  11  12
ENDBRANCH  10  11
ENDBRANCH   9  10
ENDBRANCH   8   9
ENDBRANCH   1   8
TORSDOF 9
ENDMDL
MODEL 5
REMARK VINA RESULT:    -4.262      2.228      3.548
REMARK INTER + INTRA:          -7.343
REMARK INTER:                  -6.838
REMARK INTRA:                  -0.504
REMARK UNBOUND:                -0.838
REMARK SMILES O=C([O-])CCCCCCCCC(=O)[O-]
REMARK SMILES IDX 7 1 6 2 5 3 4 4 2 5 1 6 3 7 8 8 9 9 10 10 11 11 12 12 13 13
REMARK SMILES IDX 14 14
REMARK H PARENT
REMARK Flexibility Score: inf
ROOT
ATOM      1  C   UNL     1      27.731   2.764  29.429  1.00  0.00     0.000 C 
ENDROOT
BRANCH   1   2
ATOM      2  C   UNL     1      27.248   4.115  28.869  1.00  0.00     0.000 C 
BRANCH   2   3
ATOM      3  C   UNL     1      27.979   5.350  29.430  1.00  0.00     0.006 C 
BRANCH   3   4
ATOM      4  C   UNL     1      27.283   6.007  30.632  1.00  0.00     0.053 C 
BRANCH   4   5
ATOM      5  C   UNL     1      27.352   7.503  30.572  1.00  0.00     0.041 C 
ATOM      6  O   UNL     1      26.692   8.199  31.386  1.00  0.00    -0.550 OA
ATOM      7  O   UNL     1      28.119   8.125  29.595  1.00  0.00    -0.550 OA
ENDBRANCH   4   5
ENDBRANCH   3   4
ENDBRANCH   2   3
ENDBRANCH   1   2
BRANCH   1   8
ATOM      8  C   UNL     1      26.873   1.561  28.981  1.00  0.00     0.000 C 
BRANCH   8   9
ATOM      9  C   UNL     1      26.416   0.696  30.166  1.00  0.00     0.000 C 
BRANCH   9  10
ATOM     10  C   UNL     1      27.272   0.972  31.411  1.00  0.00     0.006 C 
BRANCH  10  11
ATOM     11  C   UNL     1      28.153  -0.226  31.787  1.00  0.00     0.053 C 
BRANCH  11  12
ATOM     12  C   UNL     1      29.270  -0.423  30.808  1.00  0.00     0.041 C 
ATOM     13  O   UNL     1      29.316  -1.461  30.098  1.00  0.00    -0.550 OA
ATOM     14  O   UNL     1      30.279   0.526  30.704  1.00  0.00    -0.550 OA
ENDBRANCH  11  12
ENDBRANCH  10  11
ENDBRANCH   9  10
ENDBRANCH   8   9
ENDBRANCH   1   8
TORSDOF 9
ENDMDL
MODEL 6
REMARK VINA RESULT:    -4.241      1.910      6.111
REMARK INTER + INTRA:          -7.310
REMARK INTER:                  -6.711
REMARK INTRA:                  -0.599
REMARK UNBOUND:                -0.838
REMARK SMILES O=C([O-])CCCCCCCCC(=O)[O-]
REMARK SMILES IDX 7 1 6 2 5 3 4 4 2 5 1 6 3 7 8 8 9 9 10 10 11 11 12 12 13 13
REMARK SMILES IDX 14 14
REMARK H PARENT
REMARK Flexibility Score: inf
ROOT
ATOM      1  C   UNL     1      26.316   0.511  29.892  1.00  0.00     0.000 C 
ENDROOT
BRANCH   1   2
ATOM      2  C   UNL     1      26.839   0.897  31.289  1.00  0.00     0.000 C 
BRANCH   2   3
ATOM      3  C   UNL     1      27.807  -0.120  31.925  1.00  0.00     0.006 C 
BRANCH   3   4
ATOM      4  C   UNL     1      29.287   0.286  31.854  1.00  0.00     0.053 C 
BRANCH   4   5
ATOM      5  C   UNL     1      29.961  -0.261  30.632  1.00  0.00     0.041 C 
ATOM      6  O   UNL     1      29.476  -1.257  30.035  1.00  0.00    -0.550 OA
ATOM      7  O   UNL     1      31.142   0.308  30.175  1.00  0.00    -0.550 OA
ENDBRANCH   4   5
ENDBRANCH   3   4
ENDBRANCH   2   3
ENDBRANCH   1   2
BRANCH   1   8
ATOM      8  C   UNL     1      26.858   1.405  28.756  1.00  0.00     0.000 C 
BRANCH   8   9
ATOM      9  C   UNL     1      27.698   2.578  29.286  1.00  0.00     0.000 C 
BRANCH   9  10
ATOM     10  C   UNL     1      27.081   3.924  28.877  1.00  0.00     0.006 C 
BRANCH  10  11
ATOM     11  C   UNL     1      27.937   5.115  29.328  1.00  0.00     0.053 C 
BRANCH  11  12
ATOM     12  C   UNL     1      27.696   5.460  30.765  1.00  0.00     0.041 C 
ATOM     13  O   UNL     1      28.133   4.714  31.679  1.00  0.00    -0.550 OA
ATOM     14  O   UNL     1      26.959   6.591  31.094  1.00  0.00    -0.550 OA
ENDBRANCH  11  12
ENDBRANCH  10  11
ENDBRANCH   9  10
ENDBRANCH   8   9
ENDBRANCH   1   8
TORSDOF 9
ENDMDL
MODEL 7
REMARK VINA RESULT:    -4.206      2.809      6.942
REMARK INTER + INTRA:          -7.257
REMARK INTER:                  -6.742
REMARK INTRA:                  -0.514
REMARK UNBOUND:                -0.838
REMARK SMILES O=C([O-])CCCCCCCCC(=O)[O-]
REMARK SMILES IDX 7 1 6 2 5 3 4 4 2 5 1 6 3 7 8 8 9 9 10 10 11 11 12 12 13 13
REMARK SMILES IDX 14 14
REMARK H PARENT
REMARK Flexibility Score: inf
ROOT
ATOM      1  C   UNL     1      27.458  -2.100  30.752  1.00  0.00     0.000 C 
ENDROOT
BRANCH   1   2
ATOM      2  C   UNL     1      26.920  -3.543  30.791  1.00  0.00     0.000 C 
BRANCH   2   3
ATOM      3  C   UNL     1      27.988  -4.629  31.027  1.00  0.00     0.006 C 
BRANCH   3   4
ATOM      4  C   UNL     1      28.421  -5.379  29.758  1.00  0.00     0.053 C 
BRANCH   4   5
ATOM      5  C   UNL     1      28.655  -6.836  30.020  1.00  0.00     0.041 C 
ATOM      6  O   UNL     1      28.963  -7.608  29.075  1.00  0.00    -0.550 OA
ATOM      7  O   UNL     1      28.499  -7.346  31.302  1.00  0.00    -0.550 OA
ENDBRANCH   4   5
ENDBRANCH   3   4
ENDBRANCH   2   3
ENDBRANCH   1   2
BRANCH   1   8
ATOM      8  C   UNL     1      26.391  -1.048  30.379  1.00  0.00     0.000 C 
BRANCH   8   9
ATOM      9  C   UNL     1      26.862  -0.113  29.254  1.00  0.00     0.000 C 
BRANCH   9  10
ATOM     10  C   UNL     1      28.363  -0.292  28.981  1.00  0.00     0.006 C 
BRANCH  10  11
ATOM     11  C   UNL     1      29.164   0.982  29.280  1.00  0.00     0.053 C 
BRANCH  11  12
ATOM     12  C   UNL     1      29.316   1.209  30.753  1.00  0.00     0.041 C 
ATOM     13  O   UNL     1      28.739   2.180  31.309  1.00  0.00    -0.550 OA
ATOM     14  O   UNL     1      30.124   0.366  31.506  1.00  0.00    -0.550 OA
ENDBRANCH  11  12
ENDBRANCH  10  11
ENDBRANCH   9  10
ENDBRANCH   8   9
ENDBRANCH   1   8
TORSDOF 9
ENDMDL
MODEL 8
REMARK VINA RESULT:    -4.141      3.364      4.596
REMARK INTER + INTRA:          -7.158
REMARK INTER:                  -6.812
REMARK INTRA:                  -0.346
REMARK UNBOUND:                -0.838
REMARK SMILES O=C([O-])CCCCCCCCC(=O)[O-]
REMARK SMILES IDX 7 1 6 2 5 3 4 4 2 5 1 6 3 7 8 8 9 9 10 10 11 11 12 12 13 13
REMARK SMILES IDX 14 14
REMARK H PARENT
REMARK Flexibility Score: inf
ROOT
ATOM      1  C   UNL     1      28.107   4.297  31.561  1.00  0.00     0.000 C 
ENDROOT
BRANCH   1   2
ATOM      2  C   UNL     1      27.609   5.249  30.457  1.00  0.00     0.000 C 
BRANCH   2   3
ATOM      3  C   UNL     1      28.265   6.644  30.457  1.00  0.00     0.006 C 
BRANCH   3   4
ATOM      4  C   UNL     1      27.267   7.812  30.459  1.00  0.00     0.053 C 
BRANCH   4   5
ATOM      5  C   UNL     1      27.934   9.120  30.154  1.00  0.00     0.041 C 
ATOM      6  O   UNL     1      27.864  10.072  30.974  1.00  0.00    -0.550 OA
ATOM      7  O   UNL     1      28.603   9.296  28.950  1.00  0.00    -0.550 OA
ENDBRANCH   4   5
ENDBRANCH   3   4
ENDBRANCH   2   3
ENDBRANCH   1   2
BRANCH   1   8
ATOM      8  C   UNL     1      28.036   2.804  31.174  1.00  0.00     0.000 C 
BRANCH   8   9
ATOM      9  C   UNL     1      27.897   2.599  29.657  1.00  0.00     0.000 C 
BRANCH   9  10
ATOM     10  C   UNL     1      28.451   1.230  29.235  1.00  0.00     0.006 C 
BRANCH  10  11
ATOM     11  C   UNL     1      27.342   0.271  28.782  1.00  0.00     0.053 C 
BRANCH  11  12
ATOM     12  C   UNL     1      26.687  -0.410  29.945  1.00  0.00     0.041 C 
ATOM     13  O   UNL     1      27.275  -1.345  30.547  1.00  0.00    -0.550 OA
ATOM     14  O   UNL     1      25.411  -0.031  30.343  1.00  0.00    -0.550 OA
ENDBRANCH  11  12
ENDBRANCH  10  11
ENDBRANCH   9  10
ENDBRANCH   8   9
ENDBRANCH   1   8
TORSDOF 9
ENDMDL
MODEL 9
REMARK VINA RESULT:    -4.103      3.214      7.954
REMARK INTER + INTRA:          -7.100
REMARK INTER:                  -6.779
REMARK INTRA:                  -0.321
REMARK UNBOUND:                -0.838
REMARK SMILES O=C([O-])CCCCCCCCC(=O)[O-]
REMARK SMILES IDX 7 1 6 2 5 3 4 4 2 5 1 6 3 7 8 8 9 9 10 10 11 11 12 12 13 13
REMARK SMILES IDX 14 14
REMARK H PARENT
REMARK Flexibility Score: inf
ROOT
ATOM      1  C   UNL     1      27.259  -3.489  30.908  1.00  0.00     0.000 C 
ENDROOT
BRANCH   1   2
ATOM      2  C   UNL     1      28.337  -4.455  30.384  1.00  0.00     0.000 C 
BRANCH   2   3
ATOM      3  C   UNL     1      28.407  -5.809  31.117  1.00  0.00     0.006 C 
BRANCH   3   4
ATOM      4  C   UNL     1      28.516  -7.028  30.188  1.00  0.00     0.053 C 
BRANCH   4   5
ATOM      5  C   UNL     1      28.986  -8.250  30.918  1.00  0.00     0.041 C 
ATOM      6  O   UNL     1      29.782  -9.051  30.362  1.00  0.00    -0.550 OA
ATOM      7  O   UNL     1      28.517  -8.520  32.197  1.00  0.00    -0.550 OA
ENDBRANCH   4   5
ENDBRANCH   3   4
ENDBRANCH   2   3
ENDBRANCH   1   2
BRANCH   1   8
ATOM      8  C   UNL     1      27.619  -1.998  30.728  1.00  0.00     0.000 C 
BRANCH   8   9
ATOM      9  C   UNL     1      28.945  -1.804  29.976  1.00  0.00     0.000 C 
BRANCH   9  10
ATOM     10  C   UNL     1      29.404  -0.339  30.039  1.00  0.00     0.006 C 
BRANCH  10  11
ATOM     11  C   UNL     1      28.731   0.526  28.966  1.00  0.00     0.053 C 
BRANCH  11  12
ATOM     12  C   UNL     1      27.937   1.644  29.571  1.00  0.00     0.041 C 
ATOM     13  O   UNL     1      28.256   2.114  30.693  1.00  0.00    -0.550 OA
ATOM     14  O   UNL     1      26.823   2.143  28.907  1.00  0.00    -0.550 OA
ENDBRANCH  11  12
ENDBRANCH  10  11
ENDBRANCH   9  10
ENDBRANCH   8   9
ENDBRANCH   1   8
TORSDOF 9
ENDMDL
