MODEL 1
REMARK VINA RESULT:    -8.071      0.000      0.000
REMARK INTER + INTRA:          -9.752
REMARK INTER:                  -9.487
REMARK INTRA:                  -0.266
REMARK UNBOUND:                -0.266
REMARK SMILES O=c1cc(-c2ccc(O)c(O)c2)oc2cc(O)cc(O)c12
REMARK SMILES IDX 4 1 3 2 2 3 1 4 21 5 19 6 18 7 16 8 15 9 14 10 13 11 5 12
REMARK SMILES IDX 6 13 7 14 8 15 12 16 10 17 9 18 11 20 20 22 17 24
REMARK H PARENT 9 19 11 21 20 23 17 25
REMARK Flexibility Score: inf
ROOT
ATOM      1  C   UNL     1      16.665  22.407  41.315  1.00  0.00     0.138 A 
ATOM      2  C   UNL     1      16.708  21.018  41.134  1.00  0.00     0.100 A 
ATOM      3  C   UNL     1      17.860  20.424  40.618  1.00  0.00     0.197 A 
ATOM      4  O   UNL     1      17.846  19.183  40.408  1.00  0.00    -0.289 OA
ATOM      5  C   UNL     1      18.987  21.223  40.312  1.00  0.00     0.107 A 
ATOM      6  C   UNL     1      20.230  20.722  39.821  1.00  0.00     0.134 A 
ATOM      7  C   UNL     1      21.235  21.621  39.443  1.00  0.00     0.093 A 
ATOM      8  C   UNL     1      21.067  22.996  39.597  1.00  0.00     0.123 A 
ATOM      9  C   UNL     1      19.877  23.495  40.127  1.00  0.00     0.094 A 
ATOM     10  C   UNL     1      18.842  22.626  40.481  1.00  0.00     0.146 A 
ATOM     11  O   UNL     1      17.718  23.142  40.968  1.00  0.00    -0.456 OA
ENDROOT
BRANCH   1  12
ATOM     12  C   UNL     1      15.465  23.091  41.862  1.00  0.00     0.021 A 
ATOM     13  C   UNL     1      14.771  24.013  41.060  1.00  0.00     0.016 A 
ATOM     14  C   UNL     1      13.643  24.675  41.553  1.00  0.00     0.051 A 
ATOM     15  C   UNL     1      13.198  24.435  42.858  1.00  0.00     0.157 A 
ATOM     16  C   UNL     1      15.020  22.863  43.178  1.00  0.00     0.062 A 
ATOM     17  C   UNL     1      13.891  23.527  43.674  1.00  0.00     0.158 A 
BRANCH  15  18
ATOM     18  O   UNL     1      12.071  25.095  43.347  1.00  0.00    -0.504 OA
ATOM     19  H   UNL     1      11.247  25.234  42.774  1.00  0.00     0.293 HD
ENDBRANCH  15  18
BRANCH  17  20
ATOM     20  O   UNL     1      13.479  23.274  44.983  1.00  0.00    -0.504 OA
ATOM     21  H   UNL     1      13.808  23.826  45.767  1.00  0.00     0.293 HD
ENDBRANCH  17  20
ENDBRANCH   1  12
BRANCH   6  22
ATOM     22  O   UNL     1      20.534  19.362  39.708  1.00  0.00    -0.507 OA
ATOM     23  H   UNL     1      19.902  18.657  39.360  1.00  0.00     0.293 HD
ENDBRANCH   6  22
BRANCH   8  24
ATOM     24  O   UNL     1      22.095  23.859  39.224  1.00  0.00    -0.508 OA
ATOM     25  H   UNL     1      22.381  24.629  39.818  1.00  0.00     0.293 HD
ENDBRANCH   8  24
TORSDOF 5
ENDMDL
MODEL 2
REMARK VINA RESULT:    -8.030      1.451      7.304
REMARK INTER + INTRA:          -9.704
REMARK INTER:                  -9.419
REMARK INTRA:                  -0.286
REMARK UNBOUND:                -0.266
REMARK SMILES O=c1cc(-c2ccc(O)c(O)c2)oc2cc(O)cc(O)c12
REMARK SMILES IDX 4 1 3 2 2 3 1 4 21 5 19 6 18 7 16 8 15 9 14 10 13 11 5 12
REMARK SMILES IDX 6 13 7 14 8 15 12 16 10 17 9 18 11 20 20 22 17 24
REMARK H PARENT 9 19 11 21 20 23 17 25
REMARK Flexibility Score: inf
ROOT
ATOM      1  C   UNL     1      17.309  22.678  40.525  1.00  0.00     0.138 A 
ATOM      2  C   UNL     1      16.922  23.696  39.643  1.00  0.00     0.100 A 
ATOM      3  C   UNL     1      15.793  24.464  39.928  1.00  0.00     0.197 A 
ATOM      4  O   UNL     1      15.435  25.330  39.086  1.00  0.00    -0.289 OA
ATOM      5  C   UNL     1      15.065  24.231  41.119  1.00  0.00     0.107 A 
ATOM      6  C   UNL     1      13.923  24.979  41.534  1.00  0.00     0.134 A 
ATOM      7  C   UNL     1      13.215  24.581  42.674  1.00  0.00     0.093 A 
ATOM      8  C   UNL     1      13.642  23.504  43.449  1.00  0.00     0.123 A 
ATOM      9  C   UNL     1      14.790  22.798  43.084  1.00  0.00     0.094 A 
ATOM     10  C   UNL     1      15.498  23.149  41.931  1.00  0.00     0.146 A 
ATOM     11  O   UNL     1      16.577  22.443  41.609  1.00  0.00    -0.456 OA
ENDROOT
BRANCH   1  12
ATOM     12  C   UNL     1      18.503  21.831  40.272  1.00  0.00     0.021 A 
ATOM     13  C   UNL     1      18.494  20.486  40.678  1.00  0.00     0.016 A 
ATOM     14  C   UNL     1      19.607  19.670  40.457  1.00  0.00     0.051 A 
ATOM     15  C   UNL     1      20.751  20.188  39.837  1.00  0.00     0.157 A 
ATOM     16  C   UNL     1      19.660  22.350  39.660  1.00  0.00     0.062 A 
ATOM     17  C   UNL     1      20.778  21.535  39.440  1.00  0.00     0.158 A 
BRANCH  15  18
ATOM     18  O   UNL     1      21.860  19.372  39.617  1.00  0.00    -0.504 OA
ATOM     19  H   UNL     1      22.418  19.017  40.384  1.00  0.00     0.293 HD
ENDBRANCH  15  18
BRANCH  17  20
ATOM     20  O   UNL     1      21.906  22.084  38.831  1.00  0.00    -0.504 OA
ATOM     21  H   UNL     1      22.748  21.544  38.670  1.00  0.00     0.293 HD
ENDBRANCH  17  20
ENDBRANCH   1  12
BRANCH   6  22
ATOM     22  O   UNL     1      13.460  26.125  40.879  1.00  0.00    -0.507 OA
ATOM     23  H   UNL     1      13.997  26.967  40.743  1.00  0.00     0.293 HD
ENDBRANCH   6  22
BRANCH   8  24
ATOM     24  O   UNL     1      12.921  23.146  44.586  1.00  0.00    -0.508 OA
ATOM     25  H   UNL     1      13.186  22.348  45.152  1.00  0.00     0.293 HD
ENDBRANCH   8  24
TORSDOF 5
ENDMDL
MODEL 3
REMARK VINA RESULT:    -7.565      1.434      7.196
REMARK INTER + INTRA:          -9.158
REMARK INTER:                  -8.844
REMARK INTRA:                  -0.313
REMARK UNBOUND:                -0.266
REMARK SMILES O=c1cc(-c2ccc(O)c(O)c2)oc2cc(O)cc(O)c12
REMARK SMILES IDX 4 1 3 2 2 3 1 4 21 5 19 6 18 7 16 8 15 9 14 10 13 11 5 12
REMARK SMILES IDX 6 13 7 14 8 15 12 16 10 17 9 18 11 20 20 22 17 24
REMARK H PARENT 9 19 11 21 20 23 17 25
REMARK Flexibility Score: inf
ROOT
ATOM      1  C   UNL     1      17.061  22.952  40.501  1.00  0.00     0.138 A 
ATOM      2  C   UNL     1      16.543  23.990  39.714  1.00  0.00     0.100 A 
ATOM      3  C   UNL     1      15.399  24.669  40.133  1.00  0.00     0.197 A 
ATOM      4  O   UNL     1      14.922  25.554  39.375  1.00  0.00    -0.289 OA
ATOM      5  C   UNL     1      14.787  24.326  41.363  1.00  0.00     0.107 A 
ATOM      6  C   UNL     1      13.641  24.977  41.910  1.00  0.00     0.134 A 
ATOM      7  C   UNL     1      13.055  24.474  43.078  1.00  0.00     0.093 A 
ATOM      8  C   UNL     1      13.608  23.385  43.752  1.00  0.00     0.123 A 
ATOM      9  C   UNL     1      14.760  22.775  43.255  1.00  0.00     0.094 A 
ATOM     10  C   UNL     1      15.348  23.231  42.072  1.00  0.00     0.146 A 
ATOM     11  O   UNL     1      16.436  22.613  41.625  1.00  0.00    -0.456 OA
ENDROOT
BRANCH   1  12
ATOM     12  C   UNL     1      18.277  22.198  40.104  1.00  0.00     0.021 A 
ATOM     13  C   UNL     1      19.146  22.744  39.143  1.00  0.00     0.016 A 
ATOM     14  C   UNL     1      20.293  22.050  38.748  1.00  0.00     0.051 A 
ATOM     15  C   UNL     1      20.586  20.796  39.298  1.00  0.00     0.157 A 
ATOM     16  C   UNL     1      18.570  20.931  40.644  1.00  0.00     0.062 A 
ATOM     17  C   UNL     1      19.718  20.233  40.247  1.00  0.00     0.158 A 
BRANCH  15  18
ATOM     18  O   UNL     1      21.731  20.108  38.903  1.00  0.00    -0.504 OA
ATOM     19  H   UNL     1      21.927  19.170  39.234  1.00  0.00     0.293 HD
ENDBRANCH  15  18
BRANCH  17  20
ATOM     20  O   UNL     1      19.975  18.981  40.805  1.00  0.00    -0.504 OA
ATOM     21  H   UNL     1      20.432  18.876  41.703  1.00  0.00     0.293 HD
ENDBRANCH  17  20
ENDBRANCH   1  12
BRANCH   6  22
ATOM     22  O   UNL     1      13.059  26.125  41.364  1.00  0.00    -0.507 OA
ATOM     23  H   UNL     1      12.576  26.160  40.480  1.00  0.00     0.293 HD
ENDBRANCH   6  22
BRANCH   8  24
ATOM     24  O   UNL     1      13.006  22.922  44.919  1.00  0.00    -0.508 OA
ATOM     25  H   UNL     1      12.010  22.742  44.966  1.00  0.00     0.293 HD
ENDBRANCH   8  24
TORSDOF 5
ENDMDL
MODEL 4
REMARK VINA RESULT:    -7.497      1.632      7.427
REMARK INTER + INTRA:          -9.077
REMARK INTER:                  -8.782
REMARK INTRA:                  -0.296
REMARK UNBOUND:                -0.266
REMARK SMILES O=c1cc(-c2ccc(O)c(O)c2)oc2cc(O)cc(O)c12
REMARK SMILES IDX 4 1 3 2 2 3 1 4 21 5 19 6 18 7 16 8 15 9 14 10 13 11 5 12
REMARK SMILES IDX 6 13 7 14 8 15 12 16 10 17 9 18 11 20 20 22 17 24
REMARK H PARENT 9 19 11 21 20 23 17 25
REMARK Flexibility Score: inf
ROOT
ATOM      1  C   UNL     1      15.733  23.259  41.235  1.00  0.00     0.138 A 
ATOM      2  C   UNL     1      15.067  24.392  40.749  1.00  0.00     0.100 A 
ATOM      3  C   UNL     1      14.033  24.959  41.495  1.00  0.00     0.197 A 
ATOM      4  O   UNL     1      13.413  25.938  41.004  1.00  0.00    -0.289 OA
ATOM      5  C   UNL     1      13.686  24.405  42.751  1.00  0.00     0.107 A 
ATOM      6  C   UNL     1      12.677  24.924  43.617  1.00  0.00     0.134 A 
ATOM      7  C   UNL     1      12.342  24.223  44.782  1.00  0.00     0.093 A 
ATOM      8  C   UNL     1      13.019  23.059  45.144  1.00  0.00     0.123 A 
ATOM      9  C   UNL     1      14.045  22.573  44.332  1.00  0.00     0.094 A 
ATOM     10  C   UNL     1      14.379  23.230  43.145  1.00  0.00     0.146 A 
ATOM     11  O   UNL     1      15.351  22.726  42.392  1.00  0.00    -0.456 OA
ENDROOT
BRANCH   1  12
ATOM     12  C   UNL     1      16.841  22.617  40.484  1.00  0.00     0.021 A 
ATOM     13  C   UNL     1      17.804  23.421  39.850  1.00  0.00     0.016 A 
ATOM     14  C   UNL     1      18.852  22.841  39.131  1.00  0.00     0.051 A 
ATOM     15  C   UNL     1      18.950  21.448  39.024  1.00  0.00     0.157 A 
ATOM     16  C   UNL     1      16.938  21.217  40.362  1.00  0.00     0.062 A 
ATOM     17  C   UNL     1      17.986  20.634  39.640  1.00  0.00     0.158 A 
BRANCH  15  18
ATOM     18  O   UNL     1      19.998  20.872  38.308  1.00  0.00    -0.504 OA
ATOM     19  H   UNL     1      20.052  19.871  38.160  1.00  0.00     0.293 HD
ENDBRANCH  15  18
BRANCH  17  20
ATOM     20  O   UNL     1      18.049  19.244  39.543  1.00  0.00    -0.504 OA
ATOM     21  H   UNL     1      18.603  18.778  38.834  1.00  0.00     0.293 HD
ENDBRANCH  17  20
ENDBRANCH   1  12
BRANCH   6  22
ATOM     22  O   UNL     1      11.997  26.125  43.393  1.00  0.00    -0.507 OA
ATOM     23  H   UNL     1      12.168  26.748  42.619  1.00  0.00     0.293 HD
ENDBRANCH   6  22
BRANCH   8  24
ATOM     24  O   UNL     1      12.669  22.397  46.318  1.00  0.00    -0.508 OA
ATOM     25  H   UNL     1      12.554  22.895  47.193  1.00  0.00     0.293 HD
ENDBRANCH   8  24
TORSDOF 5
ENDMDL
MODEL 5
REMARK VINA RESULT:    -7.384      0.646      1.497
REMARK INTER + INTRA:          -8.945
REMARK INTER:                  -8.656
REMARK INTRA:                  -0.289
REMARK UNBOUND:                -0.266
REMARK SMILES O=c1cc(-c2ccc(O)c(O)c2)oc2cc(O)cc(O)c12
REMARK SMILES IDX 4 1 3 2 2 3 1 4 21 5 19 6 18 7 16 8 15 9 14 10 13 11 5 12
REMARK SMILES IDX 6 13 7 14 8 15 12 16 10 17 9 18 11 20 20 22 17 24
REMARK H PARENT 9 19 11 21 20 23 17 25
REMARK Flexibility Score: inf
ROOT
ATOM      1  C   UNL     1      16.615  22.429  41.384  1.00  0.00     0.138 A 
ATOM      2  C   UNL     1      16.619  21.032  41.273  1.00  0.00     0.100 A 
ATOM      3  C   UNL     1      17.747  20.383  40.770  1.00  0.00     0.197 A 
ATOM      4  O   UNL     1      17.698  19.133  40.625  1.00  0.00    -0.289 OA
ATOM      5  C   UNL     1      18.888  21.136  40.404  1.00  0.00     0.107 A 
ATOM      6  C   UNL     1      20.109  20.578  39.918  1.00  0.00     0.134 A 
ATOM      7  C   UNL     1      21.128  21.431  39.477  1.00  0.00     0.093 A 
ATOM      8  C   UNL     1      20.998  22.816  39.563  1.00  0.00     0.123 A 
ATOM      9  C   UNL     1      19.830  23.372  40.087  1.00  0.00     0.094 A 
ATOM     10  C   UNL     1      18.780  22.549  40.502  1.00  0.00     0.146 A 
ATOM     11  O   UNL     1      17.679  23.117  40.982  1.00  0.00    -0.456 OA
ENDROOT
BRANCH   1  12
ATOM     12  C   UNL     1      15.443  23.171  41.914  1.00  0.00     0.021 A 
ATOM     13  C   UNL     1      14.845  22.751  43.115  1.00  0.00     0.016 A 
ATOM     14  C   UNL     1      13.737  23.429  43.631  1.00  0.00     0.051 A 
ATOM     15  C   UNL     1      13.201  24.529  42.951  1.00  0.00     0.157 A 
ATOM     16  C   UNL     1      14.892  24.271  41.229  1.00  0.00     0.062 A 
ATOM     17  C   UNL     1      13.780  24.949  41.743  1.00  0.00     0.158 A 
BRANCH  15  18
ATOM     18  O   UNL     1      12.097  25.204  43.470  1.00  0.00    -0.504 OA
ATOM     19  H   UNL     1      11.204  24.742  43.594  1.00  0.00     0.293 HD
ENDBRANCH  15  18
BRANCH  17  20
ATOM     20  O   UNL     1      13.264  26.035  41.036  1.00  0.00    -0.504 OA
ATOM     21  H   UNL     1      13.190  26.959  41.446  1.00  0.00     0.293 HD
ENDBRANCH  17  20
ENDBRANCH   1  12
BRANCH   6  22
ATOM     22  O   UNL     1      20.376  19.207  39.870  1.00  0.00    -0.507 OA
ATOM     23  H   UNL     1      19.693  18.493  39.673  1.00  0.00     0.293 HD
ENDBRANCH   6  22
BRANCH   8  24
ATOM     24  O   UNL     1      22.040  23.632  39.129  1.00  0.00    -0.508 OA
ATOM     25  H   UNL     1      22.450  23.524  38.208  1.00  0.00     0.293 HD
ENDBRANCH   8  24
TORSDOF 5
ENDMDL
MODEL 6
REMARK VINA RESULT:    -7.379      2.414      4.634
REMARK INTER + INTRA:          -8.938
REMARK INTER:                  -8.623
REMARK INTRA:                  -0.316
REMARK UNBOUND:                -0.266
REMARK SMILES O=c1cc(-c2ccc(O)c(O)c2)oc2cc(O)cc(O)c12
REMARK SMILES IDX 4 1 3 2 2 3 1 4 21 5 19 6 18 7 16 8 15 9 14 10 13 11 5 12
REMARK SMILES IDX 6 13 7 14 8 15 12 16 10 17 9 18 11 20 20 22 17 24
REMARK H PARENT 9 19 11 21 20 23 17 25
REMARK Flexibility Score: inf
ROOT
ATOM      1  C   UNL     1      13.722  23.794  42.903  1.00  0.00     0.138 A 
ATOM      2  C   UNL     1      13.517  24.891  42.054  1.00  0.00     0.100 A 
ATOM      3  C   UNL     1      14.375  25.097  40.974  1.00  0.00     0.197 A 
ATOM      4  O   UNL     1      14.204  26.125  40.267  1.00  0.00    -0.289 OA
ATOM      5  C   UNL     1      15.426  24.183  40.725  1.00  0.00     0.107 A 
ATOM      6  C   UNL     1      16.337  24.270  39.629  1.00  0.00     0.134 A 
ATOM      7  C   UNL     1      17.409  23.373  39.551  1.00  0.00     0.093 A 
ATOM      8  C   UNL     1      17.568  22.355  40.491  1.00  0.00     0.123 A 
ATOM      9  C   UNL     1      16.652  22.226  41.535  1.00  0.00     0.094 A 
ATOM     10  C   UNL     1      15.591  23.128  41.661  1.00  0.00     0.146 A 
ATOM     11  O   UNL     1      14.750  22.980  42.679  1.00  0.00    -0.456 OA
ENDROOT
BRANCH   1  12
ATOM     12  C   UNL     1      12.838  23.525  44.066  1.00  0.00     0.021 A 
ATOM     13  C   UNL     1      11.949  24.522  44.503  1.00  0.00     0.016 A 
ATOM     14  C   UNL     1      11.112  24.295  45.599  1.00  0.00     0.051 A 
ATOM     15  C   UNL     1      11.157  23.075  46.283  1.00  0.00     0.157 A 
ATOM     16  C   UNL     1      12.888  22.304  44.765  1.00  0.00     0.062 A 
ATOM     17  C   UNL     1      12.052  22.076  45.865  1.00  0.00     0.158 A 
BRANCH  15  18
ATOM     18  O   UNL     1      10.320  22.851  47.375  1.00  0.00    -0.504 OA
ATOM     19  H   UNL     1      10.272  23.504  48.148  1.00  0.00     0.293 HD
ENDBRANCH  15  18
BRANCH  17  20
ATOM     20  O   UNL     1      12.130  20.854  46.532  1.00  0.00    -0.504 OA
ATOM     21  H   UNL     1      12.968  20.285  46.519  1.00  0.00     0.293 HD
ENDBRANCH  17  20
ENDBRANCH   1  12
BRANCH   6  22
ATOM     22  O   UNL     1      16.221  25.197  38.589  1.00  0.00    -0.507 OA
ATOM     23  H   UNL     1      16.987  25.722  38.197  1.00  0.00     0.293 HD
ENDBRANCH   6  22
BRANCH   8  24
ATOM     24  O   UNL     1      18.637  21.471  40.372  1.00  0.00    -0.508 OA
ATOM     25  H   UNL     1      18.604  20.541  40.775  1.00  0.00     0.293 HD
ENDBRANCH   8  24
TORSDOF 5
ENDMDL
MODEL 7
REMARK VINA RESULT:    -7.237      1.398      2.593
REMARK INTER + INTRA:          -8.772
REMARK INTER:                  -8.457
REMARK INTRA:                  -0.315
REMARK UNBOUND:                -0.266
REMARK SMILES O=c1cc(-c2ccc(O)c(O)c2)oc2cc(O)cc(O)c12
REMARK SMILES IDX 4 1 3 2 2 3 1 4 21 5 19 6 18 7 16 8 15 9 14 10 13 11 5 12
REMARK SMILES IDX 6 13 7 14 8 15 12 16 10 17 9 18 11 20 20 22 17 24
REMARK H PARENT 9 19 11 21 20 23 17 25
REMARK Flexibility Score: inf
ROOT
ATOM      1  C   UNL     1      16.347  23.434  40.800  1.00  0.00     0.138 A 
ATOM      2  C   UNL     1      16.873  24.270  39.805  1.00  0.00     0.100 A 
ATOM      3  C   UNL     1      18.016  23.878  39.108  1.00  0.00     0.197 A 
ATOM      4  O   UNL     1      18.500  24.676  38.264  1.00  0.00    -0.289 OA
ATOM      5  C   UNL     1      18.617  22.627  39.388  1.00  0.00     0.107 A 
ATOM      6  C   UNL     1      19.761  22.105  38.712  1.00  0.00     0.134 A 
ATOM      7  C   UNL     1      20.337  20.909  39.155  1.00  0.00     0.093 A 
ATOM      8  C   UNL     1      19.777  20.184  40.206  1.00  0.00     0.123 A 
ATOM      9  C   UNL     1      18.627  20.658  40.840  1.00  0.00     0.094 A 
ATOM     10  C   UNL     1      18.049  21.866  40.444  1.00  0.00     0.146 A 
ATOM     11  O   UNL     1      16.963  22.290  41.082  1.00  0.00    -0.456 OA
ENDROOT
BRANCH   1  12
ATOM     12  C   UNL     1      15.132  23.801  41.572  1.00  0.00     0.021 A 
ATOM     13  C   UNL     1      14.314  24.849  41.116  1.00  0.00     0.016 A 
ATOM     14  C   UNL     1      13.169  25.217  41.828  1.00  0.00     0.051 A 
ATOM     15  C   UNL     1      12.829  24.552  43.012  1.00  0.00     0.157 A 
ATOM     16  C   UNL     1      14.792  23.144  42.770  1.00  0.00     0.062 A 
ATOM     17  C   UNL     1      13.646  23.514  43.486  1.00  0.00     0.158 A 
BRANCH  15  18
ATOM     18  O   UNL     1      11.686  24.921  43.719  1.00  0.00    -0.504 OA
ATOM     19  H   UNL     1      10.765  24.877  43.299  1.00  0.00     0.293 HD
ENDBRANCH  15  18
BRANCH  17  20
ATOM     20  O   UNL     1      13.341  22.839  44.669  1.00  0.00    -0.504 OA
ATOM     21  H   UNL     1      14.025  22.275  45.158  1.00  0.00     0.293 HD
ENDBRANCH  17  20
ENDBRANCH   1  12
BRANCH   6  22
ATOM     22  O   UNL     1      20.350  22.706  37.595  1.00  0.00    -0.507 OA
ATOM     23  H   UNL     1      21.252  23.155  37.590  1.00  0.00     0.293 HD
ENDBRANCH   6  22
BRANCH   8  24
ATOM     24  O   UNL     1      20.369  18.990  40.610  1.00  0.00    -0.508 OA
ATOM     25  H   UNL     1      20.449  18.743  41.589  1.00  0.00     0.293 HD
ENDBRANCH   8  24
TORSDOF 5
ENDMDL
MODEL 8
REMARK VINA RESULT:    -7.051      2.353      8.009
REMARK INTER + INTRA:          -8.554
REMARK INTER:                  -8.240
REMARK INTRA:                  -0.314
REMARK UNBOUND:                -0.266
REMARK SMILES O=c1cc(-c2ccc(O)c(O)c2)oc2cc(O)cc(O)c12
REMARK SMILES IDX 4 1 3 2 2 3 1 4 21 5 19 6 18 7 16 8 15 9 14 10 13 11 5 12
REMARK SMILES IDX 6 13 7 14 8 15 12 16 10 17 9 18 11 20 20 22 17 24
REMARK H PARENT 9 19 11 21 20 23 17 25
REMARK Flexibility Score: inf
ROOT
ATOM      1  C   UNL     1      14.139  23.869  42.457  1.00  0.00     0.138 A 
ATOM      2  C   UNL     1      13.316  25.004  42.465  1.00  0.00     0.100 A 
ATOM      3  C   UNL     1      12.311  25.121  43.426  1.00  0.00     0.197 A 
ATOM      4  O   UNL     1      11.548  26.121  43.369  1.00  0.00    -0.289 OA
ATOM      5  C   UNL     1      12.150  24.110  44.403  1.00  0.00     0.107 A 
ATOM      6  C   UNL     1      11.187  24.143  45.456  1.00  0.00     0.134 A 
ATOM      7  C   UNL     1      11.043  23.031  46.294  1.00  0.00     0.093 A 
ATOM      8  C   UNL     1      11.867  21.915  46.159  1.00  0.00     0.123 A 
ATOM      9  C   UNL     1      12.850  21.894  45.168  1.00  0.00     0.094 A 
ATOM     10  C   UNL     1      12.994  22.974  44.293  1.00  0.00     0.146 A 
ATOM     11  O   UNL     1      13.931  22.908  43.353  1.00  0.00    -0.456 OA
ENDROOT
BRANCH   1  12
ATOM     12  C   UNL     1      15.224  23.693  41.459  1.00  0.00     0.021 A 
ATOM     13  C   UNL     1      15.229  24.484  40.297  1.00  0.00     0.016 A 
ATOM     14  C   UNL     1      16.236  24.333  39.340  1.00  0.00     0.051 A 
ATOM     15  C   UNL     1      17.248  23.382  39.522  1.00  0.00     0.157 A 
ATOM     16  C   UNL     1      16.238  22.730  41.631  1.00  0.00     0.062 A 
ATOM     17  C   UNL     1      17.246  22.576  40.671  1.00  0.00     0.158 A 
BRANCH  15  18
ATOM     18  O   UNL     1      18.251  23.235  38.566  1.00  0.00    -0.504 OA
ATOM     19  H   UNL     1      19.232  23.243  38.821  1.00  0.00     0.293 HD
ENDBRANCH  15  18
BRANCH  17  20
ATOM     20  O   UNL     1      18.233  21.612  40.877  1.00  0.00    -0.504 OA
ATOM     21  H   UNL     1      19.128  21.649  40.404  1.00  0.00     0.293 HD
ENDBRANCH  17  20
ENDBRANCH   1  12
BRANCH   6  22
ATOM     22  O   UNL     1      10.370  25.244  45.733  1.00  0.00    -0.507 OA
ATOM     23  H   UNL     1      10.666  26.071  46.227  1.00  0.00     0.293 HD
ENDBRANCH   6  22
BRANCH   8  24
ATOM     24  O   UNL     1      11.706  20.833  47.021  1.00  0.00    -0.508 OA
ATOM     25  H   UNL     1      11.347  20.953  47.961  1.00  0.00     0.293 HD
ENDBRANCH   8  24
TORSDOF 5
ENDMDL
MODEL 9
REMARK VINA RESULT:    -5.684      1.688      3.338
REMARK INTER + INTRA:          -6.947
REMARK INTER:                  -6.650
REMARK INTRA:                  -0.297
REMARK UNBOUND:                -0.266
REMARK SMILES O=c1cc(-c2ccc(O)c(O)c2)oc2cc(O)cc(O)c12
REMARK SMILES IDX 4 1 3 2 2 3 1 4 21 5 19 6 18 7 16 8 15 9 14 10 13 11 5 12
REMARK SMILES IDX 6 13 7 14 8 15 12 16 10 17 9 18 11 20 20 22 17 24
REMARK H PARENT 9 19 11 21 20 23 17 25
REMARK Flexibility Score: inf
ROOT
ATOM      1  C   UNL     1      15.239  23.312  41.939  1.00  0.00     0.138 A 
ATOM      2  C   UNL     1      15.485  24.218  40.898  1.00  0.00     0.100 A 
ATOM      3  C   UNL     1      16.507  23.959  39.985  1.00  0.00     0.197 A 
ATOM      4  O   UNL     1      16.744  24.821  39.098  1.00  0.00    -0.289 OA
ATOM      5  C   UNL     1      17.268  22.771  40.097  1.00  0.00     0.107 A 
ATOM      6  C   UNL     1      18.307  22.383  39.199  1.00  0.00     0.134 A 
ATOM      7  C   UNL     1      19.069  21.242  39.479  1.00  0.00     0.093 A 
ATOM      8  C   UNL     1      18.791  20.442  40.586  1.00  0.00     0.123 A 
ATOM      9  C   UNL     1      17.741  20.782  41.441  1.00  0.00     0.094 A 
ATOM     10  C   UNL     1      16.985  21.934  41.209  1.00  0.00     0.146 A 
ATOM     11  O   UNL     1      16.004  22.230  42.055  1.00  0.00    -0.456 OA
ENDROOT
BRANCH   1  12
ATOM     12  C   UNL     1      14.163  23.536  42.938  1.00  0.00     0.021 A 
ATOM     13  C   UNL     1      14.041  22.660  44.030  1.00  0.00     0.016 A 
ATOM     14  C   UNL     1      13.033  22.846  44.980  1.00  0.00     0.051 A 
ATOM     15  C   UNL     1      12.124  23.903  44.848  1.00  0.00     0.157 A 
ATOM     16  C   UNL     1      13.239  24.590  42.804  1.00  0.00     0.062 A 
ATOM     17  C   UNL     1      12.226  24.776  43.753  1.00  0.00     0.158 A 
BRANCH  15  18
ATOM     18  O   UNL     1      11.120  24.087  45.797  1.00  0.00    -0.504 OA
ATOM     19  H   UNL     1      10.872  23.357  46.456  1.00  0.00     0.293 HD
ENDBRANCH  15  18
BRANCH  17  20
ATOM     20  O   UNL     1      11.330  25.832  43.587  1.00  0.00    -0.504 OA
ATOM     21  H   UNL     1      11.488  26.743  44.003  1.00  0.00     0.293 HD
ENDBRANCH  17  20
ENDBRANCH   1  12
BRANCH   6  22
ATOM     22  O   UNL     1      18.613  23.065  38.017  1.00  0.00    -0.507 OA
ATOM     23  H   UNL     1      18.385  22.741  37.090  1.00  0.00     0.293 HD
ENDBRANCH   6  22
BRANCH   8  24
ATOM     24  O   UNL     1      19.560  19.306  40.823  1.00  0.00    -0.508 OA
ATOM     25  H   UNL     1      19.526  18.504  40.204  1.00  0.00     0.293 HD
ENDBRANCH   8  24
TORSDOF 5
ENDMDL
