MODEL 1
REMARK VINA RESULT:    -7.133      0.000      0.000
REMARK INTER + INTRA:          -8.677
REMARK INTER:                  -8.384
REMARK INTRA:                  -0.293
REMARK UNBOUND:                -0.293
REMARK SMILES O=c1cc(-c2ccc(O)c(O)c2)oc2cc(O)cc(O)c12
REMARK SMILES IDX 4 1 3 2 2 3 1 4 21 5 19 6 18 7 16 8 15 9 14 10 13 11 5 12
REMARK SMILES IDX 6 13 7 14 8 15 12 16 10 17 9 18 11 20 20 22 17 24
REMARK H PARENT 9 19 11 21 20 23 17 25
REMARK Flexibility Score: inf
ROOT
ATOM      1  C   UNL     1      13.134   9.990  12.950  1.00  0.00     0.138 A 
ATOM      2  C   UNL     1      13.183  10.583  14.218  1.00  0.00     0.100 A 
ATOM      3  C   UNL     1      12.004  10.758  14.945  1.00  0.00     0.197 A 
ATOM      4  O   UNL     1      12.087  11.236  16.106  1.00  0.00    -0.289 OA
ATOM      5  C   UNL     1      10.767  10.365  14.383  1.00  0.00     0.107 A 
ATOM      6  C   UNL     1       9.498  10.531  15.014  1.00  0.00     0.134 A 
ATOM      7  C   UNL     1       8.352   9.998  14.411  1.00  0.00     0.093 A 
ATOM      8  C   UNL     1       8.421   9.357  13.172  1.00  0.00     0.123 A 
ATOM      9  C   UNL     1       9.648   9.237  12.523  1.00  0.00     0.094 A 
ATOM     10  C   UNL     1      10.814   9.728  13.114  1.00  0.00     0.146 A 
ATOM     11  O   UNL     1      11.965   9.580  12.468  1.00  0.00    -0.456 OA
ENDROOT
BRANCH   1  12
ATOM     12  C   UNL     1      14.358   9.781  12.135  1.00  0.00     0.021 A 
ATOM     13  C   UNL     1      14.355   8.956  10.994  1.00  0.00     0.016 A 
ATOM     14  C   UNL     1      15.524   8.768  10.253  1.00  0.00     0.051 A 
ATOM     15  C   UNL     1      16.714   9.392  10.637  1.00  0.00     0.157 A 
ATOM     16  C   UNL     1      15.563  10.393  12.525  1.00  0.00     0.062 A 
ATOM     17  C   UNL     1      16.736  10.207  11.780  1.00  0.00     0.158 A 
BRANCH  15  18
ATOM     18  O   UNL     1      17.864   9.186   9.875  1.00  0.00    -0.504 OA
ATOM     19  H   UNL     1      17.822   8.902   8.903  1.00  0.00     0.293 HD
ENDBRANCH  15  18
BRANCH  17  20
ATOM     20  O   UNL     1      17.921  10.827  12.171  1.00  0.00    -0.504 OA
ATOM     21  H   UNL     1      18.028  11.835  12.140  1.00  0.00     0.293 HD
ENDBRANCH  17  20
ENDBRANCH   1  12
BRANCH   6  22
ATOM     22  O   UNL     1       9.305  11.230  16.210  1.00  0.00    -0.507 OA
ATOM     23  H   UNL     1       9.042  12.201  16.274  1.00  0.00     0.293 HD
ENDBRANCH   6  22
BRANCH   8  24
ATOM     24  O   UNL     1       7.274   8.843  12.573  1.00  0.00    -0.508 OA
ATOM     25  H   UNL     1       6.721   9.394  11.926  1.00  0.00     0.293 HD
ENDBRANCH   8  24
TORSDOF 5
ENDMDL
MODEL 2
REMARK VINA RESULT:    -7.026      1.608      7.019
REMARK INTER + INTRA:          -8.552
REMARK INTER:                  -8.288
REMARK INTRA:                  -0.264
REMARK UNBOUND:                -0.293
REMARK SMILES O=c1cc(-c2ccc(O)c(O)c2)oc2cc(O)cc(O)c12
REMARK SMILES IDX 4 1 3 2 2 3 1 4 21 5 19 6 18 7 16 8 15 9 14 10 13 11 5 12
REMARK SMILES IDX 6 13 7 14 8 15 12 16 10 17 9 18 11 20 20 22 17 24
REMARK H PARENT 9 19 11 21 20 23 17 25
REMARK Flexibility Score: inf
ROOT
ATOM      1  C   UNL     1      12.141  10.404  12.583  1.00  0.00     0.138 A 
ATOM      2  C   UNL     1      12.531  11.656  12.089  1.00  0.00     0.100 A 
ATOM      3  C   UNL     1      13.802  11.814  11.534  1.00  0.00     0.197 A 
ATOM      4  O   UNL     1      14.101  12.933  11.043  1.00  0.00    -0.289 OA
ATOM      5  C   UNL     1      14.697  10.718  11.504  1.00  0.00     0.107 A 
ATOM      6  C   UNL     1      16.030  10.771  11.000  1.00  0.00     0.134 A 
ATOM      7  C   UNL     1      16.784   9.593  10.915  1.00  0.00     0.093 A 
ATOM      8  C   UNL     1      16.273   8.376  11.371  1.00  0.00     0.123 A 
ATOM      9  C   UNL     1      14.991   8.324  11.914  1.00  0.00     0.094 A 
ATOM     10  C   UNL     1      14.203   9.474  11.982  1.00  0.00     0.146 A 
ATOM     11  O   UNL     1      12.981   9.378  12.494  1.00  0.00    -0.456 OA
ENDROOT
BRANCH   1  12
ATOM     12  C   UNL     1      10.801  10.183  13.184  1.00  0.00     0.021 A 
ATOM     13  C   UNL     1       9.832   9.377  12.556  1.00  0.00     0.016 A 
ATOM     14  C   UNL     1       8.576   9.195  13.139  1.00  0.00     0.051 A 
ATOM     15  C   UNL     1       8.260   9.816  14.351  1.00  0.00     0.157 A 
ATOM     16  C   UNL     1      10.472  10.817  14.396  1.00  0.00     0.062 A 
ATOM     17  C   UNL     1       9.212  10.633  14.983  1.00  0.00     0.158 A 
BRANCH  15  18
ATOM     18  O   UNL     1       6.998   9.614  14.907  1.00  0.00    -0.504 OA
ATOM     19  H   UNL     1       6.157   9.593  14.342  1.00  0.00     0.293 HD
ENDBRANCH  15  18
BRANCH  17  20
ATOM     20  O   UNL     1       8.901  11.258  16.189  1.00  0.00    -0.504 OA
ATOM     21  H   UNL     1       9.267  12.175  16.421  1.00  0.00     0.293 HD
ENDBRANCH  17  20
ENDBRANCH   1  12
BRANCH   6  22
ATOM     22  O   UNL     1      16.668  11.949  10.598  1.00  0.00    -0.507 OA
ATOM     23  H   UNL     1      17.259  12.515  11.188  1.00  0.00     0.293 HD
ENDBRANCH   6  22
BRANCH   8  24
ATOM     24  O   UNL     1      17.035   7.213  11.296  1.00  0.00    -0.508 OA
ATOM     25  H   UNL     1      16.763   6.438  10.703  1.00  0.00     0.293 HD
ENDBRANCH   8  24
TORSDOF 5
ENDMDL
MODEL 3
REMARK VINA RESULT:    -6.698      1.860      7.099
REMARK INTER + INTRA:          -8.166
REMARK INTER:                  -7.849
REMARK INTRA:                  -0.317
REMARK UNBOUND:                -0.293
REMARK SMILES O=c1cc(-c2ccc(O)c(O)c2)oc2cc(O)cc(O)c12
REMARK SMILES IDX 4 1 3 2 2 3 1 4 21 5 19 6 18 7 16 8 15 9 14 10 13 11 5 12
REMARK SMILES IDX 6 13 7 14 8 15 12 16 10 17 9 18 11 20 20 22 17 24
REMARK H PARENT 9 19 11 21 20 23 17 25
REMARK Flexibility Score: inf
ROOT
ATOM      1  C   UNL     1      13.436  10.090  12.876  1.00  0.00     0.138 A 
ATOM      2  C   UNL     1      14.092  11.039  12.081  1.00  0.00     0.100 A 
ATOM      3  C   UNL     1      15.186  10.653  11.304  1.00  0.00     0.197 A 
ATOM      4  O   UNL     1      15.715  11.513  10.554  1.00  0.00    -0.289 OA
ATOM      5  C   UNL     1      15.644   9.315  11.352  1.00  0.00     0.107 A 
ATOM      6  C   UNL     1      16.773   8.817  10.636  1.00  0.00     0.134 A 
ATOM      7  C   UNL     1      17.062   7.447  10.670  1.00  0.00     0.093 A 
ATOM      8  C   UNL     1      16.299   6.568  11.441  1.00  0.00     0.123 A 
ATOM      9  C   UNL     1      15.227   7.054  12.186  1.00  0.00     0.094 A 
ATOM     10  C   UNL     1      14.892   8.409  12.147  1.00  0.00     0.146 A 
ATOM     11  O   UNL     1      13.853   8.828  12.860  1.00  0.00    -0.456 OA
ENDROOT
BRANCH   1  12
ATOM     12  C   UNL     1      12.268  10.448  13.720  1.00  0.00     0.021 A 
ATOM     13  C   UNL     1      11.904  11.788  13.951  1.00  0.00     0.016 A 
ATOM     14  C   UNL     1      10.806  12.095  14.759  1.00  0.00     0.051 A 
ATOM     15  C   UNL     1      10.059  11.076  15.356  1.00  0.00     0.157 A 
ATOM     16  C   UNL     1      11.521   9.427  14.336  1.00  0.00     0.062 A 
ATOM     17  C   UNL     1      10.418   9.735  15.146  1.00  0.00     0.158 A 
BRANCH  15  18
ATOM     18  O   UNL     1       8.969  11.416  16.156  1.00  0.00    -0.504 OA
ATOM     19  H   UNL     1       9.019  11.403  17.168  1.00  0.00     0.293 HD
ENDBRANCH  15  18
BRANCH  17  20
ATOM     20  O   UNL     1       9.680   8.715  15.743  1.00  0.00    -0.504 OA
ATOM     21  H   UNL     1       9.990   7.750  15.717  1.00  0.00     0.293 HD
ENDBRANCH  17  20
ENDBRANCH   1  12
BRANCH   6  22
ATOM     22  O   UNL     1      17.652   9.622   9.904  1.00  0.00    -0.507 OA
ATOM     23  H   UNL     1      17.527  10.609   9.739  1.00  0.00     0.293 HD
ENDBRANCH   6  22
BRANCH   8  24
ATOM     24  O   UNL     1      16.604   5.209  11.481  1.00  0.00    -0.508 OA
ATOM     25  H   UNL     1      16.593   4.689  12.350  1.00  0.00     0.293 HD
ENDBRANCH   8  24
TORSDOF 5
ENDMDL
MODEL 4
REMARK VINA RESULT:    -6.675      1.896      7.363
REMARK INTER + INTRA:          -8.138
REMARK INTER:                  -7.846
REMARK INTRA:                  -0.293
REMARK UNBOUND:                -0.293
REMARK SMILES O=c1cc(-c2ccc(O)c(O)c2)oc2cc(O)cc(O)c12
REMARK SMILES IDX 4 1 3 2 2 3 1 4 21 5 19 6 18 7 16 8 15 9 14 10 13 11 5 12
REMARK SMILES IDX 6 13 7 14 8 15 12 16 10 17 9 18 11 20 20 22 17 24
REMARK H PARENT 9 19 11 21 20 23 17 25
REMARK Flexibility Score: inf
ROOT
ATOM      1  C   UNL     1      13.606  10.068  13.107  1.00  0.00     0.138 A 
ATOM      2  C   UNL     1      14.052   8.740  13.109  1.00  0.00     0.100 A 
ATOM      3  C   UNL     1      15.217   8.401  12.419  1.00  0.00     0.197 A 
ATOM      4  O   UNL     1      15.626   7.213  12.490  1.00  0.00    -0.289 OA
ATOM      5  C   UNL     1      15.920   9.394  11.697  1.00  0.00     0.107 A 
ATOM      6  C   UNL     1      17.096   9.158  10.924  1.00  0.00     0.134 A 
ATOM      7  C   UNL     1      17.772  10.241  10.348  1.00  0.00     0.093 A 
ATOM      8  C   UNL     1      17.281  11.543  10.465  1.00  0.00     0.123 A 
ATOM      9  C   UNL     1      16.104  11.777  11.173  1.00  0.00     0.094 A 
ATOM     10  C   UNL     1      15.425  10.723  11.788  1.00  0.00     0.146 A 
ATOM     11  O   UNL     1      14.314  10.991  12.465  1.00  0.00    -0.456 OA
ENDROOT
BRANCH   1  12
ATOM     12  C   UNL     1      12.373  10.482  13.823  1.00  0.00     0.021 A 
ATOM     13  C   UNL     1      12.085  11.835  14.079  1.00  0.00     0.016 A 
ATOM     14  C   UNL     1      10.922  12.195  14.766  1.00  0.00     0.051 A 
ATOM     15  C   UNL     1      10.033  11.215  15.215  1.00  0.00     0.157 A 
ATOM     16  C   UNL     1      11.481   9.499  14.291  1.00  0.00     0.062 A 
ATOM     17  C   UNL     1      10.313   9.859  14.979  1.00  0.00     0.158 A 
BRANCH  15  18
ATOM     18  O   UNL     1       8.881  11.606  15.897  1.00  0.00    -0.504 OA
ATOM     19  H   UNL     1       8.183  12.206  15.473  1.00  0.00     0.293 HD
ENDBRANCH  15  18
BRANCH  17  20
ATOM     20  O   UNL     1       9.433   8.877  15.428  1.00  0.00    -0.504 OA
ATOM     21  H   UNL     1       9.734   7.919  15.572  1.00  0.00     0.293 HD
ENDBRANCH  17  20
ENDBRANCH   1  12
BRANCH   6  22
ATOM     22  O   UNL     1      17.624   7.888  10.672  1.00  0.00    -0.507 OA
ATOM     23  H   UNL     1      17.876   7.540   9.760  1.00  0.00     0.293 HD
ENDBRANCH   6  22
BRANCH   8  24
ATOM     24  O   UNL     1      17.952  12.612   9.875  1.00  0.00    -0.508 OA
ATOM     25  H   UNL     1      17.587  13.556   9.918  1.00  0.00     0.293 HD
ENDBRANCH   8  24
TORSDOF 5
ENDMDL
MODEL 5
REMARK VINA RESULT:    -6.498      1.723      3.083
REMARK INTER + INTRA:          -7.931
REMARK INTER:                  -7.662
REMARK INTRA:                  -0.269
REMARK UNBOUND:                -0.293
REMARK SMILES O=c1cc(-c2ccc(O)c(O)c2)oc2cc(O)cc(O)c12
REMARK SMILES IDX 4 1 3 2 2 3 1 4 21 5 19 6 18 7 16 8 15 9 14 10 13 11 5 12
REMARK SMILES IDX 6 13 7 14 8 15 12 16 10 17 9 18 11 20 20 22 17 24
REMARK H PARENT 9 19 11 21 20 23 17 25
REMARK Flexibility Score: inf
ROOT
ATOM      1  C   UNL     1      13.023  10.755  11.676  1.00  0.00     0.138 A 
ATOM      2  C   UNL     1      12.289   9.921  10.822  1.00  0.00     0.100 A 
ATOM      3  C   UNL     1      11.027   9.470  11.213  1.00  0.00     0.197 A 
ATOM      4  O   UNL     1      10.367   8.773  10.399  1.00  0.00    -0.289 OA
ATOM      5  C   UNL     1      10.513   9.832  12.480  1.00  0.00     0.107 A 
ATOM      6  C   UNL     1       9.258   9.399  13.002  1.00  0.00     0.134 A 
ATOM      7  C   UNL     1       8.801   9.916  14.221  1.00  0.00     0.093 A 
ATOM      8  C   UNL     1       9.581  10.803  14.966  1.00  0.00     0.123 A 
ATOM      9  C   UNL     1      10.832  11.190  14.490  1.00  0.00     0.094 A 
ATOM     10  C   UNL     1      11.301  10.719  13.262  1.00  0.00     0.146 A 
ATOM     11  O   UNL     1      12.493  11.124  12.838  1.00  0.00    -0.456 OA
ENDROOT
BRANCH   1  12
ATOM     12  C   UNL     1      14.369  11.263  11.310  1.00  0.00     0.021 A 
ATOM     13  C   UNL     1      14.543  12.258  10.330  1.00  0.00     0.016 A 
ATOM     14  C   UNL     1      15.823  12.709   9.997  1.00  0.00     0.051 A 
ATOM     15  C   UNL     1      16.949  12.173  10.628  1.00  0.00     0.157 A 
ATOM     16  C   UNL     1      15.507  10.716  11.930  1.00  0.00     0.062 A 
ATOM     17  C   UNL     1      16.792  11.170  11.598  1.00  0.00     0.158 A 
BRANCH  15  18
ATOM     18  O   UNL     1      18.213  12.645  10.274  1.00  0.00    -0.504 OA
ATOM     19  H   UNL     1      18.514  13.589  10.486  1.00  0.00     0.293 HD
ENDBRANCH  15  18
BRANCH  17  20
ATOM     20  O   UNL     1      17.911  10.628  12.227  1.00  0.00    -0.504 OA
ATOM     21  H   UNL     1      18.558  11.206  12.752  1.00  0.00     0.293 HD
ENDBRANCH  17  20
ENDBRANCH   1  12
BRANCH   6  22
ATOM     22  O   UNL     1       8.439   8.451  12.381  1.00  0.00    -0.507 OA
ATOM     23  H   UNL     1       7.943   8.596  11.515  1.00  0.00     0.293 HD
ENDBRANCH   6  22
BRANCH   8  24
ATOM     24  O   UNL     1       9.126  11.300  16.184  1.00  0.00    -0.508 OA
ATOM     25  H   UNL     1       8.963  10.691  16.978  1.00  0.00     0.293 HD
ENDBRANCH   8  24
TORSDOF 5
ENDMDL
MODEL 6
REMARK VINA RESULT:    -6.315      3.961      7.463
REMARK INTER + INTRA:          -7.716
REMARK INTER:                  -7.403
REMARK INTRA:                  -0.313
REMARK UNBOUND:                -0.293
REMARK SMILES O=c1cc(-c2ccc(O)c(O)c2)oc2cc(O)cc(O)c12
REMARK SMILES IDX 4 1 3 2 2 3 1 4 21 5 19 6 18 7 16 8 15 9 14 10 13 11 5 12
REMARK SMILES IDX 6 13 7 14 8 15 12 16 10 17 9 18 11 20 20 22 17 24
REMARK H PARENT 9 19 11 21 20 23 17 25
REMARK Flexibility Score: inf
ROOT
ATOM      1  C   UNL     1      15.097   7.814  12.490  1.00  0.00     0.138 A 
ATOM      2  C   UNL     1      15.701   7.593  11.245  1.00  0.00     0.100 A 
ATOM      3  C   UNL     1      16.504   6.467  11.057  1.00  0.00     0.197 A 
ATOM      4  O   UNL     1      16.982   6.263   9.911  1.00  0.00    -0.289 OA
ATOM      5  C   UNL     1      16.727   5.575  12.133  1.00  0.00     0.107 A 
ATOM      6  C   UNL     1      17.558   4.418  12.070  1.00  0.00     0.134 A 
ATOM      7  C   UNL     1      17.611   3.545  13.164  1.00  0.00     0.093 A 
ATOM      8  C   UNL     1      16.910   3.820  14.341  1.00  0.00     0.123 A 
ATOM      9  C   UNL     1      16.138   4.976  14.430  1.00  0.00     0.094 A 
ATOM     10  C   UNL     1      16.037   5.849  13.345  1.00  0.00     0.146 A 
ATOM     11  O   UNL     1      15.279   6.932  13.468  1.00  0.00    -0.456 OA
ENDROOT
BRANCH   1  12
ATOM     12  C   UNL     1      14.234   8.996  12.744  1.00  0.00     0.021 A 
ATOM     13  C   UNL     1      13.672   9.741  11.690  1.00  0.00     0.016 A 
ATOM     14  C   UNL     1      12.873  10.856  11.958  1.00  0.00     0.051 A 
ATOM     15  C   UNL     1      12.626  11.250  13.276  1.00  0.00     0.157 A 
ATOM     16  C   UNL     1      13.994   9.407  14.068  1.00  0.00     0.062 A 
ATOM     17  C   UNL     1      13.191  10.524  14.337  1.00  0.00     0.158 A 
BRANCH  15  18
ATOM     18  O   UNL     1      11.824  12.366  13.511  1.00  0.00    -0.504 OA
ATOM     19  H   UNL     1      11.971  13.246  13.030  1.00  0.00     0.293 HD
ENDBRANCH  15  18
BRANCH  17  20
ATOM     20  O   UNL     1      12.953  10.915  15.653  1.00  0.00    -0.504 OA
ATOM     21  H   UNL     1      12.993  10.253  16.420  1.00  0.00     0.293 HD
ENDBRANCH  17  20
ENDBRANCH   1  12
BRANCH   6  22
ATOM     22  O   UNL     1      18.367   4.095  10.976  1.00  0.00    -0.507 OA
ATOM     23  H   UNL     1      18.484   3.166  10.600  1.00  0.00     0.293 HD
ENDBRANCH   6  22
BRANCH   8  24
ATOM     24  O   UNL     1      16.981   2.955  15.429  1.00  0.00    -0.508 OA
ATOM     25  H   UNL     1      16.204   2.844  16.070  1.00  0.00     0.293 HD
ENDBRANCH   8  24
TORSDOF 5
ENDMDL
MODEL 7
REMARK VINA RESULT:    -6.250      4.913      8.030
REMARK INTER + INTRA:          -7.639
REMARK INTER:                  -7.321
REMARK INTRA:                  -0.318
REMARK UNBOUND:                -0.293
REMARK SMILES O=c1cc(-c2ccc(O)c(O)c2)oc2cc(O)cc(O)c12
REMARK SMILES IDX 4 1 3 2 2 3 1 4 21 5 19 6 18 7 16 8 15 9 14 10 13 11 5 12
REMARK SMILES IDX 6 13 7 14 8 15 12 16 10 17 9 18 11 20 20 22 17 24
REMARK H PARENT 9 19 11 21 20 23 17 25
REMARK Flexibility Score: inf
ROOT
ATOM      1  C   UNL     1      15.566   6.583  12.500  1.00  0.00     0.138 A 
ATOM      2  C   UNL     1      15.773   6.078  11.209  1.00  0.00     0.100 A 
ATOM      3  C   UNL     1      16.380   4.832  11.043  1.00  0.00     0.197 A 
ATOM      4  O   UNL     1      16.496   4.378   9.875  1.00  0.00    -0.289 OA
ATOM      5  C   UNL     1      16.810   4.103  12.177  1.00  0.00     0.107 A 
ATOM      6  C   UNL     1      17.477   2.843  12.128  1.00  0.00     0.134 A 
ATOM      7  C   UNL     1      17.752   2.161  13.320  1.00  0.00     0.093 A 
ATOM      8  C   UNL     1      17.439   2.721  14.561  1.00  0.00     0.123 A 
ATOM      9  C   UNL     1      16.836   3.976  14.620  1.00  0.00     0.094 A 
ATOM     10  C   UNL     1      16.518   4.666  13.449  1.00  0.00     0.146 A 
ATOM     11  O   UNL     1      15.931   5.854  13.549  1.00  0.00    -0.456 OA
ENDROOT
BRANCH   1  12
ATOM     12  C   UNL     1      14.926   7.902  12.732  1.00  0.00     0.021 A 
ATOM     13  C   UNL     1      14.411   8.671  11.672  1.00  0.00     0.016 A 
ATOM     14  C   UNL     1      13.823   9.915  11.919  1.00  0.00     0.051 A 
ATOM     15  C   UNL     1      13.746  10.416  13.221  1.00  0.00     0.157 A 
ATOM     16  C   UNL     1      14.859   8.419  14.039  1.00  0.00     0.062 A 
ATOM     17  C   UNL     1      14.268   9.666  14.287  1.00  0.00     0.158 A 
BRANCH  15  18
ATOM     18  O   UNL     1      13.153  11.660  13.435  1.00  0.00    -0.504 OA
ATOM     19  H   UNL     1      12.149  11.790  13.400  1.00  0.00     0.293 HD
ENDBRANCH  15  18
BRANCH  17  20
ATOM     20  O   UNL     1      14.199  10.162  15.588  1.00  0.00    -0.504 OA
ATOM     21  H   UNL     1      14.950  10.017  16.253  1.00  0.00     0.293 HD
ENDBRANCH  17  20
ENDBRANCH   1  12
BRANCH   6  22
ATOM     22  O   UNL     1      17.911   2.234  10.947  1.00  0.00    -0.507 OA
ATOM     23  H   UNL     1      18.785   1.741  10.840  1.00  0.00     0.293 HD
ENDBRANCH   6  22
BRANCH   8  24
ATOM     24  O   UNL     1      17.730   2.043  15.741  1.00  0.00    -0.508 OA
ATOM     25  H   UNL     1      18.518   1.409  15.808  1.00  0.00     0.293 HD
ENDBRANCH   8  24
TORSDOF 5
ENDMDL
MODEL 8
REMARK VINA RESULT:    -6.162      3.494      4.880
REMARK INTER + INTRA:          -7.536
REMARK INTER:                  -7.220
REMARK INTRA:                  -0.315
REMARK UNBOUND:                -0.293
REMARK SMILES O=c1cc(-c2ccc(O)c(O)c2)oc2cc(O)cc(O)c12
REMARK SMILES IDX 4 1 3 2 2 3 1 4 21 5 19 6 18 7 16 8 15 9 14 10 13 11 5 12
REMARK SMILES IDX 6 13 7 14 8 15 12 16 10 17 9 18 11 20 20 22 17 24
REMARK H PARENT 9 19 11 21 20 23 17 25
REMARK Flexibility Score: inf
ROOT
ATOM      1  C   UNL     1      14.927   8.030  12.518  1.00  0.00     0.138 A 
ATOM      2  C   UNL     1      14.713   8.670  11.290  1.00  0.00     0.100 A 
ATOM      3  C   UNL     1      13.989   9.863  11.250  1.00  0.00     0.197 A 
ATOM      4  O   UNL     1      13.867  10.447  10.142  1.00  0.00    -0.289 OA
ATOM      5  C   UNL     1      13.451  10.399  12.443  1.00  0.00     0.107 A 
ATOM      6  C   UNL     1      12.663  11.586  12.518  1.00  0.00     0.134 A 
ATOM      7  C   UNL     1      12.282  12.084  13.770  1.00  0.00     0.093 A 
ATOM      8  C   UNL     1      12.609  11.405  14.947  1.00  0.00     0.123 A 
ATOM      9  C   UNL     1      13.332  10.216  14.880  1.00  0.00     0.094 A 
ATOM     10  C   UNL     1      13.756   9.712  13.649  1.00  0.00     0.146 A 
ATOM     11  O   UNL     1      14.456   8.583  13.631  1.00  0.00    -0.456 OA
ENDROOT
BRANCH   1  12
ATOM     12  C   UNL     1      15.689   6.759  12.617  1.00  0.00     0.021 A 
ATOM     13  C   UNL     1      16.445   6.263  11.538  1.00  0.00     0.016 A 
ATOM     14  C   UNL     1      17.143   5.059  11.656  1.00  0.00     0.051 A 
ATOM     15  C   UNL     1      17.094   4.325  12.844  1.00  0.00     0.157 A 
ATOM     16  C   UNL     1      15.631   6.008  13.806  1.00  0.00     0.062 A 
ATOM     17  C   UNL     1      16.333   4.800  13.925  1.00  0.00     0.158 A 
BRANCH  15  18
ATOM     18  O   UNL     1      17.802   3.127  12.931  1.00  0.00    -0.504 OA
ATOM     19  H   UNL     1      18.803   3.081  12.775  1.00  0.00     0.293 HD
ENDBRANCH  15  18
BRANCH  17  20
ATOM     20  O   UNL     1      16.277   4.071  15.111  1.00  0.00    -0.504 OA
ATOM     21  H   UNL     1      15.944   4.485  15.974  1.00  0.00     0.293 HD
ENDBRANCH  17  20
ENDBRANCH   1  12
BRANCH   6  22
ATOM     22  O   UNL     1      12.209  12.294  11.401  1.00  0.00    -0.507 OA
ATOM     23  H   UNL     1      12.590  13.172  11.081  1.00  0.00     0.293 HD
ENDBRANCH   6  22
BRANCH   8  24
ATOM     24  O   UNL     1      12.212  11.900  16.186  1.00  0.00    -0.508 OA
ATOM     25  H   UNL     1      11.941  11.281  16.942  1.00  0.00     0.293 HD
ENDBRANCH   8  24
TORSDOF 5
ENDMDL
MODEL 9
REMARK VINA RESULT:    -6.058      4.344      5.938
REMARK INTER + INTRA:          -7.414
REMARK INTER:                  -7.096
REMARK INTRA:                  -0.317
REMARK UNBOUND:                -0.293
REMARK SMILES O=c1cc(-c2ccc(O)c(O)c2)oc2cc(O)cc(O)c12
REMARK SMILES IDX 4 1 3 2 2 3 1 4 21 5 19 6 18 7 16 8 15 9 14 10 13 11 5 12
REMARK SMILES IDX 6 13 7 14 8 15 12 16 10 17 9 18 11 20 20 22 17 24
REMARK H PARENT 9 19 11 21 20 23 17 25
REMARK Flexibility Score: inf
ROOT
ATOM      1  C   UNL     1      15.625   6.755  12.575  1.00  0.00     0.138 A 
ATOM      2  C   UNL     1      15.636   7.284  11.277  1.00  0.00     0.100 A 
ATOM      3  C   UNL     1      15.074   8.539  11.037  1.00  0.00     0.197 A 
ATOM      4  O   UNL     1      15.154   9.014   9.875  1.00  0.00    -0.289 OA
ATOM      5  C   UNL     1      14.471   9.253  12.099  1.00  0.00     0.107 A 
ATOM      6  C   UNL     1      13.831  10.521  11.966  1.00  0.00     0.134 A 
ATOM      7  C   UNL     1      13.372  11.186  13.110  1.00  0.00     0.093 A 
ATOM      8  C   UNL     1      13.473  10.602  14.374  1.00  0.00     0.123 A 
ATOM      9  C   UNL     1      14.048   9.340  14.508  1.00  0.00     0.094 A 
ATOM     10  C   UNL     1      14.547   8.666  13.391  1.00  0.00     0.146 A 
ATOM     11  O   UNL     1      15.100   7.470  13.564  1.00  0.00    -0.456 OA
ENDROOT
BRANCH   1  12
ATOM     12  C   UNL     1      16.208   5.425  12.884  1.00  0.00     0.021 A 
ATOM     13  C   UNL     1      16.656   4.559  11.868  1.00  0.00     0.016 A 
ATOM     14  C   UNL     1      17.190   3.308  12.188  1.00  0.00     0.051 A 
ATOM     15  C   UNL     1      17.281   2.896  13.520  1.00  0.00     0.157 A 
ATOM     16  C   UNL     1      16.288   4.998  14.222  1.00  0.00     0.062 A 
ATOM     17  C   UNL     1      16.825   3.743  14.543  1.00  0.00     0.158 A 
BRANCH  15  18
ATOM     18  O   UNL     1      17.819   1.642  13.807  1.00  0.00    -0.504 OA
ATOM     19  H   UNL     1      17.417   1.031  14.508  1.00  0.00     0.293 HD
ENDBRANCH  15  18
BRANCH  17  20
ATOM     20  O   UNL     1      16.908   3.336  15.874  1.00  0.00    -0.504 OA
ATOM     21  H   UNL     1      16.078   3.197  16.439  1.00  0.00     0.293 HD
ENDBRANCH  17  20
ENDBRANCH   1  12
BRANCH   6  22
ATOM     22  O   UNL     1      13.601  11.155  10.741  1.00  0.00    -0.507 OA
ATOM     23  H   UNL     1      13.550  10.686   9.850  1.00  0.00     0.293 HD
ENDBRANCH   6  22
BRANCH   8  24
ATOM     24  O   UNL     1      12.999  11.264  15.504  1.00  0.00    -0.508 OA
ATOM     25  H   UNL     1      12.513  10.770  16.243  1.00  0.00     0.293 HD
ENDBRANCH   8  24
TORSDOF 5
ENDMDL
