MODEL 1
REMARK VINA RESULT:    -5.704      0.000      0.000
REMARK INTER + INTRA:          -6.584
REMARK INTER:                  -6.538
REMARK INTRA:                  -0.046
REMARK UNBOUND:                -0.046
REMARK SMILES O=C([O-])c1cc(O)c(O)c(O)c1
REMARK SMILES IDX 4 1 5 2 12 3 6 4 10 5 8 6 2 7 1 8 3 9 7 10 11 12 9 14
REMARK H PARENT 7 11 11 13 9 15
REMARK Flexibility Score: inf
ROOT
ATOM      1  C   UNL     1      -8.251 -23.590  55.222  1.00  0.00     0.005 A 
ATOM      2  C   UNL     1      -9.135 -24.675  55.083  1.00  0.00     0.060 A 
ATOM      3  C   UNL     1      -7.372 -23.288  54.169  1.00  0.00     0.060 A 
ATOM      4  C   UNL     1      -9.141 -25.446  53.912  1.00  0.00     0.162 A 
ATOM      5  C   UNL     1      -7.373 -24.056  52.996  1.00  0.00     0.162 A 
ATOM      6  C   UNL     1      -8.256 -25.135  52.865  1.00  0.00     0.200 A 
ENDROOT
BRANCH   1   7
ATOM      7  C   UNL     1      -8.245 -22.776  56.458  1.00  0.00     0.072 C 
ATOM      8  O   UNL     1      -8.621 -21.574  56.435  1.00  0.00    -0.545 OA
ATOM      9  O   UNL     1      -7.825 -23.327  57.664  1.00  0.00    -0.545 OA
ENDBRANCH   1   7
BRANCH   4  10
ATOM     10  O   UNL     1     -10.021 -26.519  53.785  1.00  0.00    -0.504 OA
ATOM     11  H   UNL     1     -10.194 -26.961  52.889  1.00  0.00     0.293 HD
ENDBRANCH   4  10
BRANCH   5  12
ATOM     12  O   UNL     1      -6.498 -23.751  51.955  1.00  0.00    -0.504 OA
ATOM     13  H   UNL     1      -6.812 -23.264  51.124  1.00  0.00     0.293 HD
ENDBRANCH   5  12
BRANCH   6  14
ATOM     14  O   UNL     1      -8.243 -25.887  51.691  1.00  0.00    -0.502 OA
ATOM     15  H   UNL     1      -8.459 -26.877  51.682  1.00  0.00     0.293 HD
ENDBRANCH   6  14
TORSDOF 4
ENDMDL
MODEL 2
REMARK VINA RESULT:    -5.698      0.048      2.422
REMARK INTER + INTRA:          -6.577
REMARK INTER:                  -6.531
REMARK INTRA:                  -0.046
REMARK UNBOUND:                -0.046
REMARK SMILES O=C([O-])c1cc(O)c(O)c(O)c1
REMARK SMILES IDX 4 1 5 2 12 3 6 4 10 5 8 6 2 7 1 8 3 9 7 10 11 12 9 14
REMARK H PARENT 7 11 11 13 9 15
REMARK Flexibility Score: inf
ROOT
ATOM      1  C   UNL     1      -8.237 -23.569  55.198  1.00  0.00     0.005 A 
ATOM      2  C   UNL     1      -7.371 -23.253  54.137  1.00  0.00     0.060 A 
ATOM      3  C   UNL     1      -9.111 -24.660  55.061  1.00  0.00     0.060 A 
ATOM      4  C   UNL     1      -7.378 -24.012  52.958  1.00  0.00     0.162 A 
ATOM      5  C   UNL     1      -9.123 -25.423  53.885  1.00  0.00     0.162 A 
ATOM      6  C   UNL     1      -8.257 -25.101  52.832  1.00  0.00     0.200 A 
ENDROOT
BRANCH   1   7
ATOM      7  C   UNL     1      -8.230 -22.769  56.442  1.00  0.00     0.072 C 
ATOM      8  O   UNL     1      -8.647 -21.580  56.442  1.00  0.00    -0.545 OA
ATOM      9  O   UNL     1      -7.764 -23.319  57.632  1.00  0.00    -0.545 OA
ENDBRANCH   1   7
BRANCH   4  10
ATOM     10  O   UNL     1      -6.515 -23.688  51.912  1.00  0.00    -0.504 OA
ATOM     11  H   UNL     1      -6.503 -22.762  51.502  1.00  0.00     0.293 HD
ENDBRANCH   4  10
BRANCH   5  12
ATOM     12  O   UNL     1      -9.992 -26.505  53.756  1.00  0.00    -0.504 OA
ATOM     13  H   UNL     1     -10.807 -26.461  53.156  1.00  0.00     0.293 HD
ENDBRANCH   5  12
BRANCH   6  14
ATOM     14  O   UNL     1      -8.282 -25.871  51.670  1.00  0.00    -0.502 OA
ATOM     15  H   UNL     1      -8.483 -26.864  51.686  1.00  0.00     0.293 HD
ENDBRANCH   6  14
TORSDOF 4
ENDMDL
MODEL 3
REMARK VINA RESULT:    -5.626     10.805     12.789
REMARK INTER + INTRA:          -6.494
REMARK INTER:                  -6.449
REMARK INTRA:                  -0.045
REMARK UNBOUND:                -0.046
REMARK SMILES O=C([O-])c1cc(O)c(O)c(O)c1
REMARK SMILES IDX 4 1 5 2 12 3 6 4 10 5 8 6 2 7 1 8 3 9 7 10 11 12 9 14
REMARK H PARENT 7 11 11 13 9 15
REMARK Flexibility Score: inf
ROOT
ATOM      1  C   UNL     1      -7.462 -20.114  41.796  1.00  0.00     0.005 A 
ATOM      2  C   UNL     1      -8.210 -21.303  41.850  1.00  0.00     0.060 A 
ATOM      3  C   UNL     1      -6.417 -19.923  42.715  1.00  0.00     0.060 A 
ATOM      4  C   UNL     1      -7.921 -22.285  42.808  1.00  0.00     0.162 A 
ATOM      5  C   UNL     1      -6.123 -20.902  43.674  1.00  0.00     0.162 A 
ATOM      6  C   UNL     1      -6.874 -22.084  43.723  1.00  0.00     0.200 A 
ENDROOT
BRANCH   1   7
ATOM      7  C   UNL     1      -7.766 -19.076  40.785  1.00  0.00     0.072 C 
ATOM      8  O   UNL     1      -8.794 -18.356  40.896  1.00  0.00    -0.545 OA
ATOM      9  O   UNL     1      -6.920 -18.881  39.699  1.00  0.00    -0.545 OA
ENDBRANCH   1   7
BRANCH   4  10
ATOM     10  O   UNL     1      -8.670 -23.460  42.853  1.00  0.00    -0.504 OA
ATOM     11  H   UNL     1      -9.405 -23.595  43.538  1.00  0.00     0.293 HD
ENDBRANCH   4  10
BRANCH   5  12
ATOM     12  O   UNL     1      -5.085 -20.707  44.584  1.00  0.00    -0.504 OA
ATOM     13  H   UNL     1      -4.505 -19.878  44.556  1.00  0.00     0.293 HD
ENDBRANCH   5  12
BRANCH   6  14
ATOM     14  O   UNL     1      -6.567 -23.046  44.684  1.00  0.00    -0.502 OA
ATOM     15  H   UNL     1      -5.725 -23.608  44.635  1.00  0.00     0.293 HD
ENDBRANCH   6  14
TORSDOF 4
ENDMDL
MODEL 4
REMARK VINA RESULT:    -5.612     10.822     12.972
REMARK INTER + INTRA:          -6.478
REMARK INTER:                  -6.433
REMARK INTRA:                  -0.045
REMARK UNBOUND:                -0.046
REMARK SMILES O=C([O-])c1cc(O)c(O)c(O)c1
REMARK SMILES IDX 4 1 5 2 12 3 6 4 10 5 8 6 2 7 1 8 3 9 7 10 11 12 9 14
REMARK H PARENT 7 11 11 13 9 15
REMARK Flexibility Score: inf
ROOT
ATOM      1  C   UNL     1      -7.491 -20.117  41.778  1.00  0.00     0.005 A 
ATOM      2  C   UNL     1      -6.446 -19.900  42.693  1.00  0.00     0.060 A 
ATOM      3  C   UNL     1      -8.215 -21.319  41.842  1.00  0.00     0.060 A 
ATOM      4  C   UNL     1      -6.128 -20.868  43.656  1.00  0.00     0.162 A 
ATOM      5  C   UNL     1      -7.901 -22.291  42.802  1.00  0.00     0.162 A 
ATOM      6  C   UNL     1      -6.859 -22.068  43.710  1.00  0.00     0.200 A 
ENDROOT
BRANCH   1   7
ATOM      7  C   UNL     1      -7.828 -19.095  40.762  1.00  0.00     0.072 C 
ATOM      8  O   UNL     1      -8.863 -18.387  40.883  1.00  0.00    -0.545 OA
ATOM      9  O   UNL     1      -7.004 -18.901  39.658  1.00  0.00    -0.545 OA
ENDBRANCH   1   7
BRANCH   4  10
ATOM     10  O   UNL     1      -5.090 -20.643  44.558  1.00  0.00    -0.504 OA
ATOM     11  H   UNL     1      -5.258 -20.573  45.555  1.00  0.00     0.293 HD
ENDBRANCH   4  10
BRANCH   5  12
ATOM     12  O   UNL     1      -8.623 -23.481  42.861  1.00  0.00    -0.504 OA
ATOM     13  H   UNL     1      -8.673 -24.031  43.710  1.00  0.00     0.293 HD
ENDBRANCH   5  12
BRANCH   6  14
ATOM     14  O   UNL     1      -6.561 -23.046  44.659  1.00  0.00    -0.502 OA
ATOM     15  H   UNL     1      -6.069 -22.831  45.518  1.00  0.00     0.293 HD
ENDBRANCH   6  14
TORSDOF 4
ENDMDL
MODEL 5
REMARK VINA RESULT:    -5.416      1.707      3.462
REMARK INTER + INTRA:          -6.253
REMARK INTER:                  -6.200
REMARK INTRA:                  -0.053
REMARK UNBOUND:                -0.046
REMARK SMILES O=C([O-])c1cc(O)c(O)c(O)c1
REMARK SMILES IDX 4 1 5 2 12 3 6 4 10 5 8 6 2 7 1 8 3 9 7 10 11 12 9 14
REMARK H PARENT 7 11 11 13 9 15
REMARK Flexibility Score: inf
ROOT
ATOM      1  C   UNL     1      -9.543 -25.463  55.457  1.00  0.00     0.005 A 
ATOM      2  C   UNL     1      -9.241 -24.166  55.909  1.00  0.00     0.060 A 
ATOM      3  C   UNL     1      -9.199 -25.825  54.144  1.00  0.00     0.060 A 
ATOM      4  C   UNL     1      -8.606 -23.246  55.063  1.00  0.00     0.162 A 
ATOM      5  C   UNL     1      -8.565 -24.909  53.294  1.00  0.00     0.162 A 
ATOM      6  C   UNL     1      -8.268 -23.619  53.751  1.00  0.00     0.200 A 
ENDROOT
BRANCH   1   7
ATOM      7  C   UNL     1     -10.212 -26.436  56.350  1.00  0.00     0.072 C 
ATOM      8  O   UNL     1     -10.534 -26.112  57.524  1.00  0.00    -0.545 OA
ATOM      9  O   UNL     1     -10.498 -27.722  55.903  1.00  0.00    -0.545 OA
ENDBRANCH   1   7
BRANCH   4  10
ATOM     10  O   UNL     1      -8.312 -21.963  55.521  1.00  0.00    -0.504 OA
ATOM     11  H   UNL     1      -8.991 -21.212  55.470  1.00  0.00     0.293 HD
ENDBRANCH   4  10
BRANCH   5  12
ATOM     12  O   UNL     1      -8.226 -25.274  51.993  1.00  0.00    -0.504 OA
ATOM     13  H   UNL     1      -8.498 -26.169  51.605  1.00  0.00     0.293 HD
ENDBRANCH   5  12
BRANCH   6  14
ATOM     14  O   UNL     1      -7.636 -22.721  52.891  1.00  0.00    -0.502 OA
ATOM     15  H   UNL     1      -7.686 -21.718  53.027  1.00  0.00     0.293 HD
ENDBRANCH   6  14
TORSDOF 4
ENDMDL
MODEL 6
REMARK VINA RESULT:    -5.409      1.739      3.290
REMARK INTER + INTRA:          -6.245
REMARK INTER:                  -6.192
REMARK INTRA:                  -0.053
REMARK UNBOUND:                -0.046
REMARK SMILES O=C([O-])c1cc(O)c(O)c(O)c1
REMARK SMILES IDX 4 1 5 2 12 3 6 4 10 5 8 6 2 7 1 8 3 9 7 10 11 12 9 14
REMARK H PARENT 7 11 11 13 9 15
REMARK Flexibility Score: inf
ROOT
ATOM      1  C   UNL     1      -9.548 -25.499  55.501  1.00  0.00     0.005 A 
ATOM      2  C   UNL     1      -9.244 -25.934  54.199  1.00  0.00     0.060 A 
ATOM      3  C   UNL     1      -9.226 -24.183  55.872  1.00  0.00     0.060 A 
ATOM      4  C   UNL     1      -8.628 -25.070  53.282  1.00  0.00     0.162 A 
ATOM      5  C   UNL     1      -8.610 -23.315  54.960  1.00  0.00     0.162 A 
ATOM      6  C   UNL     1      -8.309 -23.756  53.665  1.00  0.00     0.200 A 
ENDROOT
BRANCH   1   7
ATOM      7  C   UNL     1     -10.199 -26.410  56.468  1.00  0.00     0.072 C 
ATOM      8  O   UNL     1     -10.504 -26.008  57.622  1.00  0.00    -0.545 OA
ATOM      9  O   UNL     1     -10.484 -27.725  56.116  1.00  0.00    -0.545 OA
ENDBRANCH   1   7
BRANCH   4  10
ATOM     10  O   UNL     1      -8.330 -25.513  51.995  1.00  0.00    -0.504 OA
ATOM     11  H   UNL     1      -9.049 -25.609  51.287  1.00  0.00     0.293 HD
ENDBRANCH   4  10
BRANCH   5  12
ATOM     12  O   UNL     1      -8.293 -22.010  55.334  1.00  0.00    -0.504 OA
ATOM     13  H   UNL     1      -8.964 -21.257  55.251  1.00  0.00     0.293 HD
ENDBRANCH   5  12
BRANCH   6  14
ATOM     14  O   UNL     1      -7.697 -22.878  52.771  1.00  0.00    -0.502 OA
ATOM     15  H   UNL     1      -6.902 -23.152  52.206  1.00  0.00     0.293 HD
ENDBRANCH   6  14
TORSDOF 4
ENDMDL
MODEL 7
REMARK VINA RESULT:    -5.407      1.986      3.362
REMARK INTER + INTRA:          -6.243
REMARK INTER:                  -6.192
REMARK INTRA:                  -0.051
REMARK UNBOUND:                -0.046
REMARK SMILES O=C([O-])c1cc(O)c(O)c(O)c1
REMARK SMILES IDX 4 1 5 2 12 3 6 4 10 5 8 6 2 7 1 8 3 9 7 10 11 12 9 14
REMARK H PARENT 7 11 11 13 9 15
REMARK Flexibility Score: inf
ROOT
ATOM      1  C   UNL     1      -9.374 -22.072  55.919  1.00  0.00     0.005 A 
ATOM      2  C   UNL     1      -8.984 -22.124  54.569  1.00  0.00     0.060 A 
ATOM      3  C   UNL     1      -9.000 -23.120  56.777  1.00  0.00     0.060 A 
ATOM      4  C   UNL     1      -8.235 -23.205  54.083  1.00  0.00     0.162 A 
ATOM      5  C   UNL     1      -8.251 -24.203  56.297  1.00  0.00     0.162 A 
ATOM      6  C   UNL     1      -7.867 -24.248  54.951  1.00  0.00     0.200 A 
ENDROOT
BRANCH   1   7
ATOM      7  C   UNL     1     -10.164 -20.932  56.433  1.00  0.00     0.072 C 
ATOM      8  O   UNL     1     -10.891 -21.064  57.453  1.00  0.00    -0.545 OA
ATOM      9  O   UNL     1     -10.114 -19.696  55.796  1.00  0.00    -0.545 OA
ENDBRANCH   1   7
BRANCH   4  10
ATOM     10  O   UNL     1      -7.855 -23.247  52.743  1.00  0.00    -0.504 OA
ATOM     11  H   UNL     1      -7.669 -24.124  52.271  1.00  0.00     0.293 HD
ENDBRANCH   4  10
BRANCH   5  12
ATOM     12  O   UNL     1      -7.884 -25.239  57.153  1.00  0.00    -0.504 OA
ATOM     13  H   UNL     1      -7.990 -25.161  58.157  1.00  0.00     0.293 HD
ENDBRANCH   5  12
BRANCH   6  14
ATOM     14  O   UNL     1      -7.122 -25.333  54.491  1.00  0.00    -0.502 OA
ATOM     15  H   UNL     1      -6.131 -25.425  54.679  1.00  0.00     0.293 HD
ENDBRANCH   6  14
TORSDOF 4
ENDMDL
MODEL 8
REMARK VINA RESULT:    -5.397      1.972      2.803
REMARK INTER + INTRA:          -6.232
REMARK INTER:                  -6.181
REMARK INTRA:                  -0.051
REMARK UNBOUND:                -0.046
REMARK SMILES O=C([O-])c1cc(O)c(O)c(O)c1
REMARK SMILES IDX 4 1 5 2 12 3 6 4 10 5 8 6 2 7 1 8 3 9 7 10 11 12 9 14
REMARK H PARENT 7 11 11 13 9 15
REMARK Flexibility Score: inf
ROOT
ATOM      1  C   UNL     1      -9.379 -22.107  55.927  1.00  0.00     0.005 A 
ATOM      2  C   UNL     1      -9.008 -23.149  56.796  1.00  0.00     0.060 A 
ATOM      3  C   UNL     1      -8.990 -22.172  54.579  1.00  0.00     0.060 A 
ATOM      4  C   UNL     1      -8.259 -24.238  56.326  1.00  0.00     0.162 A 
ATOM      5  C   UNL     1      -8.241 -23.258  54.105  1.00  0.00     0.162 A 
ATOM      6  C   UNL     1      -7.874 -24.292  54.976  1.00  0.00     0.200 A 
ENDROOT
BRANCH   1   7
ATOM      7  C   UNL     1     -10.170 -20.958  56.422  1.00  0.00     0.072 C 
ATOM      8  O   UNL     1     -10.886 -21.069  57.452  1.00  0.00    -0.545 OA
ATOM      9  O   UNL     1     -10.132 -19.738  55.756  1.00  0.00    -0.545 OA
ENDBRANCH   1   7
BRANCH   4  10
ATOM     10  O   UNL     1      -7.897 -25.264  57.196  1.00  0.00    -0.504 OA
ATOM     11  H   UNL     1      -7.351 -25.084  58.031  1.00  0.00     0.293 HD
ENDBRANCH   4  10
BRANCH   5  12
ATOM     12  O   UNL     1      -7.857 -23.317  52.766  1.00  0.00    -0.504 OA
ATOM     13  H   UNL     1      -7.200 -24.011  52.432  1.00  0.00     0.293 HD
ENDBRANCH   5  12
BRANCH   6  14
ATOM     14  O   UNL     1      -7.130 -25.364  54.485  1.00  0.00    -0.502 OA
ATOM     15  H   UNL     1      -7.398 -26.327  54.650  1.00  0.00     0.293 HD
ENDBRANCH   6  14
TORSDOF 4
ENDMDL
MODEL 9
REMARK VINA RESULT:    -5.269      2.571      3.876
REMARK INTER + INTRA:          -6.085
REMARK INTER:                  -6.033
REMARK INTRA:                  -0.052
REMARK UNBOUND:                -0.046
REMARK SMILES O=C([O-])c1cc(O)c(O)c(O)c1
REMARK SMILES IDX 4 1 5 2 12 3 6 4 10 5 8 6 2 7 1 8 3 9 7 10 11 12 9 14
REMARK H PARENT 7 11 11 13 9 15
REMARK Flexibility Score: inf
ROOT
ATOM      1  C   UNL     1      -9.626 -23.196  56.164  1.00  0.00     0.005 A 
ATOM      2  C   UNL     1      -9.787 -24.174  55.167  1.00  0.00     0.060 A 
ATOM      3  C   UNL     1      -9.387 -23.605  57.487  1.00  0.00     0.060 A 
ATOM      4  C   UNL     1      -9.713 -25.537  55.484  1.00  0.00     0.162 A 
ATOM      5  C   UNL     1      -9.312 -24.967  57.810  1.00  0.00     0.162 A 
ATOM      6  C   UNL     1      -9.474 -25.935  56.811  1.00  0.00     0.200 A 
ENDROOT
BRANCH   1   7
ATOM      7  C   UNL     1      -9.704 -21.757  55.830  1.00  0.00     0.072 C 
ATOM      8  O   UNL     1      -9.653 -21.374  54.631  1.00  0.00    -0.545 OA
ATOM      9  O   UNL     1      -9.837 -20.806  56.836  1.00  0.00    -0.545 OA
ENDBRANCH   1   7
BRANCH   4  10
ATOM     10  O   UNL     1      -9.875 -26.498  54.487  1.00  0.00    -0.504 OA
ATOM     11  H   UNL     1     -10.794 -26.774  54.161  1.00  0.00     0.293 HD
ENDBRANCH   4  10
BRANCH   5  12
ATOM     12  O   UNL     1      -9.075 -25.366  59.124  1.00  0.00    -0.504 OA
ATOM     13  H   UNL     1      -9.720 -25.969  59.620  1.00  0.00     0.293 HD
ENDBRANCH   5  12
BRANCH   6  14
ATOM     14  O   UNL     1      -9.396 -27.285  57.151  1.00  0.00    -0.502 OA
ATOM     15  H   UNL     1     -10.204 -27.810  57.464  1.00  0.00     0.293 HD
ENDBRANCH   6  14
TORSDOF 4
ENDMDL
