MODEL 1
REMARK VINA RESULT:    -6.824      0.000      0.000
REMARK INTER + INTRA:         -11.868
REMARK INTER:                 -10.016
REMARK INTRA:                  -1.852
REMARK UNBOUND:                -1.852
REMARK SMILES O=c1c(O[C@@H]2O[C@@H](CO)[C@H](O)[C@@H](O)[C@@H]2O)c(-c2ccc(O)c(O)c2)oc2cc(O)cc(O)c12
REMARK SMILES IDX 4 1 3 2 16 3 25 4 2 5 26 6 1 7 33 8 27 9 31 10 28 11 30 12
REMARK SMILES IDX 17 13 18 14 19 15 20 16 24 17 22 18 21 19 23 21 32 23 29 25
REMARK SMILES IDX 5 27 14 28 6 29 12 30 7 31 10 32 15 33 13 35 8 37 9 38 11 40
REMARK H PARENT 21 20 23 22 32 24 29 26 15 34 13 36 9 39 11 41
REMARK Flexibility Score: inf
ROOT
ATOM      1  O   UNL     1      -7.859  16.092   8.942  1.00  0.00    -0.454 OA
ENDROOT
BRANCH   1   2
ATOM      2  C   UNL     1      -8.286  16.983   9.947  1.00  0.00     0.214 A 
ATOM      3  C   UNL     1      -9.630  17.413   9.924  1.00  0.00     0.180 A 
ATOM      4  O   UNL     1     -10.096  18.210  10.878  1.00  0.00    -0.452 OA
ATOM      5  C   UNL     1      -7.457  17.445  10.996  1.00  0.00     0.239 A 
ATOM      6  C   UNL     1      -9.353  18.666  11.876  1.00  0.00     0.146 A 
ATOM      7  O   UNL     1      -6.252  17.084  11.064  1.00  0.00    -0.285 OA
ATOM      8  C   UNL     1      -7.989  18.309  11.978  1.00  0.00     0.111 A 
ATOM      9  C   UNL     1      -9.935  19.509  12.826  1.00  0.00     0.094 A 
ATOM     10  C   UNL     1      -7.224  18.820  13.057  1.00  0.00     0.134 A 
ATOM     11  C   UNL     1      -9.178  20.009  13.886  1.00  0.00     0.123 A 
ATOM     12  C   UNL     1      -7.828  19.666  13.999  1.00  0.00     0.093 A 
BRANCH   3  13
ATOM     13  C   UNL     1     -10.566  16.980   8.864  1.00  0.00     0.025 A 
ATOM     14  C   UNL     1     -10.642  17.709   7.668  1.00  0.00     0.016 A 
ATOM     15  C   UNL     1     -11.517  17.311   6.652  1.00  0.00     0.051 A 
ATOM     16  C   UNL     1     -12.317  16.171   6.815  1.00  0.00     0.157 A 
ATOM     17  C   UNL     1     -11.351  15.823   9.012  1.00  0.00     0.062 A 
ATOM     18  C   UNL     1     -12.230  15.422   7.999  1.00  0.00     0.158 A 
BRANCH  16  19
ATOM     19  O   UNL     1     -13.194  15.781   5.803  1.00  0.00    -0.504 OA
ATOM     20  H   UNL     1     -12.933  15.836   4.825  1.00  0.00     0.293 HD
ENDBRANCH  16  19
BRANCH  18  21
ATOM     21  O   UNL     1     -13.003  14.277   8.188  1.00  0.00    -0.504 OA
ATOM     22  H   UNL     1     -13.673  14.199   8.943  1.00  0.00     0.293 HD
ENDBRANCH  18  21
ENDBRANCH   3  13
BRANCH  10  23
ATOM     23  O   UNL     1      -5.874  18.495  13.198  1.00  0.00    -0.507 OA
ATOM     24  H   UNL     1      -5.554  17.534  13.192  1.00  0.00     0.293 HD
ENDBRANCH  10  23
BRANCH  11  25
ATOM     25  O   UNL     1      -9.778  20.849  14.822  1.00  0.00    -0.508 OA
ATOM     26  H   UNL     1     -10.514  21.494  14.562  1.00  0.00     0.293 HD
ENDBRANCH  11  25
ENDBRANCH   1   2
BRANCH   1  27
ATOM     27  C   UNL     1      -7.204  16.414   7.710  1.00  0.00     0.339 C 
ATOM     28  C   UNL     1      -5.828  15.723   7.639  1.00  0.00     0.214 C 
ATOM     29  O   UNL     1      -8.000  16.068   6.586  1.00  0.00    -0.332 OA
ATOM     30  C   UNL     1      -6.002  14.201   7.521  1.00  0.00     0.180 C 
ATOM     31  C   UNL     1      -8.277  14.677   6.544  1.00  0.00     0.179 C 
ATOM     32  C   UNL     1      -6.970  13.866   6.378  1.00  0.00     0.177 C 
BRANCH  28  33
ATOM     33  O   UNL     1      -5.077  16.022   8.787  1.00  0.00    -0.384 OA
ATOM     34  H   UNL     1      -4.162  16.253   8.477  1.00  0.00     0.211 HD
ENDBRANCH  28  33
BRANCH  30  35
ATOM     35  O   UNL     1      -4.761  13.595   7.266  1.00  0.00    -0.387 OA
ATOM     36  H   UNL     1      -4.196  13.745   8.069  1.00  0.00     0.211 HD
ENDBRANCH  30  35
BRANCH  31  37
ATOM     37  C   UNL     1      -9.237  14.416   5.378  1.00  0.00     0.191 C 
BRANCH  37  38
ATOM     38  O   UNL     1      -9.693  13.091   5.432  1.00  0.00    -0.394 OA
ATOM     39  H   UNL     1      -9.468  12.687   4.554  1.00  0.00     0.210 HD
ENDBRANCH  37  38
ENDBRANCH  31  37
BRANCH  32  40
ATOM     40  O   UNL     1      -7.245  12.488   6.408  1.00  0.00    -0.387 OA
ATOM     41  H   UNL     1      -6.462  12.023   6.015  1.00  0.00     0.211 HD
ENDBRANCH  32  40
ENDBRANCH   1  27
TORSDOF 12
ENDMDL
MODEL 2
REMARK VINA RESULT:    -6.788      4.125      8.104
REMARK INTER + INTRA:         -11.815
REMARK INTER:                 -10.176
REMARK INTRA:                  -1.639
REMARK UNBOUND:                -1.852
REMARK SMILES O=c1c(O[C@@H]2O[C@@H](CO)[C@H](O)[C@@H](O)[C@@H]2O)c(-c2ccc(O)c(O)c2)oc2cc(O)cc(O)c12
REMARK SMILES IDX 4 1 3 2 16 3 25 4 2 5 26 6 1 7 33 8 27 9 31 10 28 11 30 12
REMARK SMILES IDX 17 13 18 14 19 15 20 16 24 17 22 18 21 19 23 21 32 23 29 25
REMARK SMILES IDX 5 27 14 28 6 29 12 30 7 31 10 32 15 33 13 35 8 37 9 38 11 40
REMARK H PARENT 21 20 23 22 32 24 29 26 15 34 13 36 9 39 11 41
REMARK Flexibility Score: inf
ROOT
ATOM      1  O   UNL     1      -9.240  15.419  11.922  1.00  0.00    -0.454 OA
ENDROOT
BRANCH   1   2
ATOM      2  C   UNL     1      -8.357  15.128  10.862  1.00  0.00     0.214 A 
ATOM      3  C   UNL     1      -7.586  13.950  10.947  1.00  0.00     0.180 A 
ATOM      4  O   UNL     1      -6.779  13.603   9.952  1.00  0.00    -0.452 OA
ATOM      5  C   UNL     1      -8.223  15.930   9.704  1.00  0.00     0.239 A 
ATOM      6  C   UNL     1      -6.623  14.326   8.852  1.00  0.00     0.146 A 
ATOM      7  O   UNL     1      -8.895  16.988   9.579  1.00  0.00    -0.285 OA
ATOM      8  C   UNL     1      -7.337  15.534   8.679  1.00  0.00     0.111 A 
ATOM      9  C   UNL     1      -5.742  13.879   7.865  1.00  0.00     0.094 A 
ATOM     10  C   UNL     1      -7.142  16.283   7.491  1.00  0.00     0.134 A 
ATOM     11  C   UNL     1      -5.552  14.620   6.698  1.00  0.00     0.123 A 
ATOM     12  C   UNL     1      -6.250  15.818   6.513  1.00  0.00     0.093 A 
BRANCH   3  13
ATOM     13  C   UNL     1      -7.662  13.054  12.122  1.00  0.00     0.025 A 
ATOM     14  C   UNL     1      -8.878  12.431  12.439  1.00  0.00     0.016 A 
ATOM     15  C   UNL     1      -8.968  11.575  13.541  1.00  0.00     0.051 A 
ATOM     16  C   UNL     1      -7.839  11.322  14.333  1.00  0.00     0.157 A 
ATOM     17  C   UNL     1      -6.526  12.776  12.901  1.00  0.00     0.062 A 
ATOM     18  C   UNL     1      -6.611  11.922  14.008  1.00  0.00     0.158 A 
BRANCH  16  19
ATOM     19  O   UNL     1      -7.932  10.473  15.436  1.00  0.00    -0.504 OA
ATOM     20  H   UNL     1      -8.466  10.730  16.258  1.00  0.00     0.293 HD
ENDBRANCH  16  19
BRANCH  18  21
ATOM     21  O   UNL     1      -5.467  11.682  14.767  1.00  0.00    -0.504 OA
ATOM     22  H   UNL     1      -5.503  11.200  15.656  1.00  0.00     0.293 HD
ENDBRANCH  18  21
ENDBRANCH   3  13
BRANCH  10  23
ATOM     23  O   UNL     1      -7.824  17.482   7.277  1.00  0.00    -0.507 OA
ATOM     24  H   UNL     1      -8.780  17.498   6.942  1.00  0.00     0.293 HD
ENDBRANCH  10  23
BRANCH  11  25
ATOM     25  O   UNL     1      -4.667  14.158   5.726  1.00  0.00    -0.508 OA
ATOM     26  H   UNL     1      -4.330  13.203   5.727  1.00  0.00     0.293 HD
ENDBRANCH  11  25
ENDBRANCH   1   2
BRANCH   1  27
ATOM     27  C   UNL     1      -9.168  16.514  12.842  1.00  0.00     0.339 C 
ATOM     28  C   UNL     1     -10.544  17.197  12.968  1.00  0.00     0.214 C 
ATOM     29  O   UNL     1      -8.693  16.100  14.115  1.00  0.00    -0.332 OA
ATOM     30  C   UNL     1     -11.544  16.259  13.662  1.00  0.00     0.180 C 
ATOM     31  C   UNL     1      -9.545  15.131  14.706  1.00  0.00     0.179 C 
ATOM     32  C   UNL     1     -10.947  15.728  14.973  1.00  0.00     0.177 C 
BRANCH  28  33
ATOM     33  O   UNL     1     -11.031  17.543  11.697  1.00  0.00    -0.384 OA
ATOM     34  H   UNL     1     -11.847  16.998  11.545  1.00  0.00     0.211 HD
ENDBRANCH  28  33
BRANCH  30  35
ATOM     35  O   UNL     1     -12.733  16.950  13.944  1.00  0.00    -0.387 OA
ATOM     36  H   UNL     1     -12.556  17.912  13.770  1.00  0.00     0.211 HD
ENDBRANCH  30  35
BRANCH  31  37
ATOM     37  C   UNL     1      -8.894  14.654  16.009  1.00  0.00     0.191 C 
BRANCH  37  38
ATOM     38  O   UNL     1      -9.380  15.413  17.083  1.00  0.00    -0.394 OA
ATOM     39  H   UNL     1      -9.529  16.328  16.729  1.00  0.00     0.210 HD
ENDBRANCH  37  38
ENDBRANCH  31  37
BRANCH  32  40
ATOM     40  O   UNL     1     -11.804  14.743  15.493  1.00  0.00    -0.387 OA
ATOM     41  H   UNL     1     -11.257  14.153  16.073  1.00  0.00     0.211 HD
ENDBRANCH  32  40
ENDBRANCH   1  27
TORSDOF 12
ENDMDL
MODEL 3
REMARK VINA RESULT:    -6.709      3.097      6.674
REMARK INTER + INTRA:         -11.699
REMARK INTER:                  -9.865
REMARK INTRA:                  -1.834
REMARK UNBOUND:                -1.852
REMARK SMILES O=c1c(O[C@@H]2O[C@@H](CO)[C@H](O)[C@@H](O)[C@@H]2O)c(-c2ccc(O)c(O)c2)oc2cc(O)cc(O)c12
REMARK SMILES IDX 4 1 3 2 16 3 25 4 2 5 26 6 1 7 33 8 27 9 31 10 28 11 30 12
REMARK SMILES IDX 17 13 18 14 19 15 20 16 24 17 22 18 21 19 23 21 32 23 29 25
REMARK SMILES IDX 5 27 14 28 6 29 12 30 7 31 10 32 15 33 13 35 8 37 9 38 11 40
REMARK H PARENT 21 20 23 22 32 24 29 26 15 34 13 36 9 39 11 41
REMARK Flexibility Score: inf
ROOT
ATOM      1  O   UNL     1      -8.293  15.205  11.689  1.00  0.00    -0.454 OA
ENDROOT
BRANCH   1   2
ATOM      2  C   UNL     1      -8.206  15.267  10.283  1.00  0.00     0.214 A 
ATOM      3  C   UNL     1      -9.226  15.946   9.585  1.00  0.00     0.180 A 
ATOM      4  O   UNL     1      -9.164  16.078   8.266  1.00  0.00    -0.452 OA
ATOM      5  C   UNL     1      -7.139  14.717   9.534  1.00  0.00     0.239 A 
ATOM      6  C   UNL     1      -8.183  15.577   7.527  1.00  0.00     0.146 A 
ATOM      7  O   UNL     1      -6.201  14.107  10.113  1.00  0.00    -0.285 OA
ATOM      8  C   UNL     1      -7.122  14.863   8.130  1.00  0.00     0.111 A 
ATOM      9  C   UNL     1      -8.212  15.763   6.143  1.00  0.00     0.094 A 
ATOM     10  C   UNL     1      -6.093  14.338   7.308  1.00  0.00     0.134 A 
ATOM     11  C   UNL     1      -7.197  15.244   5.338  1.00  0.00     0.123 A 
ATOM     12  C   UNL     1      -6.143  14.534   5.920  1.00  0.00     0.093 A 
BRANCH   3  13
ATOM     13  C   UNL     1     -10.380  16.550  10.287  1.00  0.00     0.025 A 
ATOM     14  C   UNL     1     -10.244  17.813  10.882  1.00  0.00     0.016 A 
ATOM     15  C   UNL     1     -11.324  18.402  11.545  1.00  0.00     0.051 A 
ATOM     16  C   UNL     1     -12.559  17.742  11.609  1.00  0.00     0.157 A 
ATOM     17  C   UNL     1     -11.627  15.903  10.331  1.00  0.00     0.062 A 
ATOM     18  C   UNL     1     -12.711  16.488  10.996  1.00  0.00     0.158 A 
BRANCH  16  19
ATOM     19  O   UNL     1     -13.634  18.329  12.277  1.00  0.00    -0.504 OA
ATOM     20  H   UNL     1     -13.818  19.323  12.213  1.00  0.00     0.293 HD
ENDBRANCH  16  19
BRANCH  18  21
ATOM     21  O   UNL     1     -13.929  15.809  11.031  1.00  0.00    -0.504 OA
ATOM     22  H   UNL     1     -13.998  14.843  11.326  1.00  0.00     0.293 HD
ENDBRANCH  18  21
ENDBRANCH   3  13
BRANCH  10  23
ATOM     23  O   UNL     1      -5.027  13.626   7.859  1.00  0.00    -0.507 OA
ATOM     24  H   UNL     1      -4.968  12.617   7.789  1.00  0.00     0.293 HD
ENDBRANCH  10  23
BRANCH  11  25
ATOM     25  O   UNL     1      -7.246  15.439   3.959  1.00  0.00    -0.508 OA
ATOM     26  H   UNL     1      -7.911  14.944   3.377  1.00  0.00     0.293 HD
ENDBRANCH  11  25
ENDBRANCH   1   2
BRANCH   1  27
ATOM     27  C   UNL     1      -8.764  14.113  12.487  1.00  0.00     0.339 C 
ATOM     28  C   UNL     1      -7.689  13.699  13.512  1.00  0.00     0.214 C 
ATOM     29  O   UNL     1      -9.986  14.427  13.138  1.00  0.00    -0.332 OA
ATOM     30  C   UNL     1      -7.499  14.805  14.561  1.00  0.00     0.180 C 
ATOM     31  C   UNL     1      -9.849  15.536  14.012  1.00  0.00     0.179 C 
ATOM     32  C   UNL     1      -8.855  15.212  15.153  1.00  0.00     0.177 C 
BRANCH  28  33
ATOM     33  O   UNL     1      -6.469  13.454  12.861  1.00  0.00    -0.384 OA
ATOM     34  H   UNL     1      -6.466  12.492  12.613  1.00  0.00     0.211 HD
ENDBRANCH  28  33
BRANCH  30  35
ATOM     35  O   UNL     1      -6.664  14.348  15.593  1.00  0.00    -0.387 OA
ATOM     36  H   UNL     1      -6.102  15.118  15.873  1.00  0.00     0.211 HD
ENDBRANCH  30  35
BRANCH  31  37
ATOM     37  C   UNL     1     -11.234  15.879  14.571  1.00  0.00     0.191 C 
BRANCH  37  38
ATOM     38  O   UNL     1     -11.814  14.731  15.128  1.00  0.00    -0.394 OA
ATOM     39  H   UNL     1     -11.971  14.107  14.372  1.00  0.00     0.210 HD
ENDBRANCH  37  38
ENDBRANCH  31  37
BRANCH  32  40
ATOM     40  O   UNL     1      -8.671  16.338  15.973  1.00  0.00    -0.387 OA
ATOM     41  H   UNL     1      -7.723  16.617  15.881  1.00  0.00     0.211 HD
ENDBRANCH  32  40
ENDBRANCH   1  27
TORSDOF 12
ENDMDL
MODEL 4
REMARK VINA RESULT:    -6.616      2.129      3.099
REMARK INTER + INTRA:         -11.562
REMARK INTER:                  -9.647
REMARK INTRA:                  -1.915
REMARK UNBOUND:                -1.852
REMARK SMILES O=c1c(O[C@@H]2O[C@@H](CO)[C@H](O)[C@@H](O)[C@@H]2O)c(-c2ccc(O)c(O)c2)oc2cc(O)cc(O)c12
REMARK SMILES IDX 4 1 3 2 16 3 25 4 2 5 26 6 1 7 33 8 27 9 31 10 28 11 30 12
REMARK SMILES IDX 17 13 18 14 19 15 20 16 24 17 22 18 21 19 23 21 32 23 29 25
REMARK SMILES IDX 5 27 14 28 6 29 12 30 7 31 10 32 15 33 13 35 8 37 9 38 11 40
REMARK H PARENT 21 20 23 22 32 24 29 26 15 34 13 36 9 39 11 41
REMARK Flexibility Score: inf
ROOT
ATOM      1  O   UNL     1      -7.519  15.494   8.261  1.00  0.00    -0.454 OA
ENDROOT
BRANCH   1   2
ATOM      2  C   UNL     1      -7.000  16.071   9.438  1.00  0.00     0.214 A 
ATOM      3  C   UNL     1      -7.914  16.570  10.390  1.00  0.00     0.180 A 
ATOM      4  O   UNL     1      -7.478  17.075  11.538  1.00  0.00    -0.452 OA
ATOM      5  C   UNL     1      -5.619  16.148   9.736  1.00  0.00     0.239 A 
ATOM      6  C   UNL     1      -6.194  17.167  11.855  1.00  0.00     0.146 A 
ATOM      7  O   UNL     1      -4.765  15.710   8.920  1.00  0.00    -0.285 OA
ATOM      8  C   UNL     1      -5.199  16.711  10.960  1.00  0.00     0.111 A 
ATOM      9  C   UNL     1      -5.837  17.723  13.085  1.00  0.00     0.094 A 
ATOM     10  C   UNL     1      -3.836  16.831  11.331  1.00  0.00     0.134 A 
ATOM     11  C   UNL     1      -4.494  17.838  13.446  1.00  0.00     0.123 A 
ATOM     12  C   UNL     1      -3.498  17.394  12.571  1.00  0.00     0.093 A 
BRANCH   3  13
ATOM     13  C   UNL     1      -9.374  16.530  10.160  1.00  0.00     0.025 A 
ATOM     14  C   UNL     1      -9.980  17.530   9.385  1.00  0.00     0.016 A 
ATOM     15  C   UNL     1     -11.359  17.506   9.152  1.00  0.00     0.051 A 
ATOM     16  C   UNL     1     -12.147  16.474   9.681  1.00  0.00     0.157 A 
ATOM     17  C   UNL     1     -10.164  15.483  10.666  1.00  0.00     0.062 A 
ATOM     18  C   UNL     1     -11.545  15.456  10.438  1.00  0.00     0.158 A 
BRANCH  16  19
ATOM     19  O   UNL     1     -13.523  16.456   9.453  1.00  0.00    -0.504 OA
ATOM     20  H   UNL     1     -14.069  17.309   9.439  1.00  0.00     0.293 HD
ENDBRANCH  16  19
BRANCH  18  21
ATOM     21  O   UNL     1     -12.298  14.409  10.968  1.00  0.00    -0.504 OA
ATOM     22  H   UNL     1     -12.936  14.544  11.742  1.00  0.00     0.293 HD
ENDBRANCH  18  21
ENDBRANCH   3  13
BRANCH  10  23
ATOM     23  O   UNL     1      -2.819  16.396  10.480  1.00  0.00    -0.507 OA
ATOM     24  H   UNL     1      -1.844  16.435  10.753  1.00  0.00     0.293 HD
ENDBRANCH  10  23
BRANCH  11  25
ATOM     25  O   UNL     1      -4.158  18.397  14.677  1.00  0.00    -0.508 OA
ATOM     26  H   UNL     1      -4.039  19.396  14.791  1.00  0.00     0.293 HD
ENDBRANCH  11  25
ENDBRANCH   1   2
BRANCH   1  27
ATOM     27  C   UNL     1      -7.609  16.090   6.962  1.00  0.00     0.339 C 
ATOM     28  C   UNL     1      -6.825  15.252   5.934  1.00  0.00     0.214 C 
ATOM     29  O   UNL     1      -8.958  16.257   6.553  1.00  0.00    -0.332 OA
ATOM     30  C   UNL     1      -7.516  13.897   5.713  1.00  0.00     0.180 C 
ATOM     31  C   UNL     1      -9.643  15.017   6.475  1.00  0.00     0.179 C 
ATOM     32  C   UNL     1      -9.004  14.107   5.399  1.00  0.00     0.177 C 
BRANCH  28  33
ATOM     33  O   UNL     1      -5.511  15.040   6.382  1.00  0.00    -0.384 OA
ATOM     34  H   UNL     1      -5.239  15.864   6.866  1.00  0.00     0.211 HD
ENDBRANCH  28  33
BRANCH  30  35
ATOM     35  O   UNL     1      -6.911  13.219   4.643  1.00  0.00    -0.387 OA
ATOM     36  H   UNL     1      -6.849  13.865   3.890  1.00  0.00     0.211 HD
ENDBRANCH  30  35
BRANCH  31  37
ATOM     37  C   UNL     1     -11.113  15.302   6.150  1.00  0.00     0.191 C 
BRANCH  37  38
ATOM     38  O   UNL     1     -11.929  14.366   6.801  1.00  0.00    -0.394 OA
ATOM     39  H   UNL     1     -11.611  13.473   6.507  1.00  0.00     0.210 HD
ENDBRANCH  37  38
ENDBRANCH  31  37
BRANCH  32  40
ATOM     40  O   UNL     1      -9.642  12.856   5.377  1.00  0.00    -0.387 OA
ATOM     41  H   UNL     1     -10.453  12.930   5.944  1.00  0.00     0.211 HD
ENDBRANCH  32  40
ENDBRANCH   1  27
TORSDOF 12
ENDMDL
MODEL 5
REMARK VINA RESULT:    -6.569      1.729      6.367
REMARK INTER + INTRA:         -11.494
REMARK INTER:                  -9.525
REMARK INTRA:                  -1.969
REMARK UNBOUND:                -1.852
REMARK SMILES O=c1c(O[C@@H]2O[C@@H](CO)[C@H](O)[C@@H](O)[C@@H]2O)c(-c2ccc(O)c(O)c2)oc2cc(O)cc(O)c12
REMARK SMILES IDX 4 1 3 2 16 3 25 4 2 5 26 6 1 7 33 8 27 9 31 10 28 11 30 12
REMARK SMILES IDX 17 13 18 14 19 15 20 16 24 17 22 18 21 19 23 21 32 23 29 25
REMARK SMILES IDX 5 27 14 28 6 29 12 30 7 31 10 32 15 33 13 35 8 37 9 38 11 40
REMARK H PARENT 21 20 23 22 32 24 29 26 15 34 13 36 9 39 11 41
REMARK Flexibility Score: inf
ROOT
ATOM      1  O   UNL     1      -8.941  17.385   9.805  1.00  0.00    -0.454 OA
ENDROOT
BRANCH   1   2
ATOM      2  C   UNL     1      -8.453  16.525   8.800  1.00  0.00     0.214 A 
ATOM      3  C   UNL     1      -9.365  16.047   7.836  1.00  0.00     0.180 A 
ATOM      4  O   UNL     1      -8.946  15.278   6.838  1.00  0.00    -0.452 OA
ATOM      5  C   UNL     1      -7.097  16.140   8.682  1.00  0.00     0.239 A 
ATOM      6  C   UNL     1      -7.686  14.893   6.692  1.00  0.00     0.146 A 
ATOM      7  O   UNL     1      -6.243  16.546   9.514  1.00  0.00    -0.285 OA
ATOM      8  C   UNL     1      -6.698  15.303   7.617  1.00  0.00     0.111 A 
ATOM      9  C   UNL     1      -7.346  14.074   5.613  1.00  0.00     0.094 A 
ATOM     10  C   UNL     1      -5.361  14.868   7.432  1.00  0.00     0.134 A 
ATOM     11  C   UNL     1      -6.029  13.649   5.435  1.00  0.00     0.123 A 
ATOM     12  C   UNL     1      -5.042  14.045   6.342  1.00  0.00     0.093 A 
BRANCH   3  13
ATOM     13  C   UNL     1     -10.801  16.399   7.883  1.00  0.00     0.025 A 
ATOM     14  C   UNL     1     -11.276  17.474   7.118  1.00  0.00     0.016 A 
ATOM     15  C   UNL     1     -12.631  17.817   7.145  1.00  0.00     0.051 A 
ATOM     16  C   UNL     1     -13.531  17.080   7.927  1.00  0.00     0.157 A 
ATOM     17  C   UNL     1     -11.711  15.646   8.645  1.00  0.00     0.062 A 
ATOM     18  C   UNL     1     -13.069  15.987   8.677  1.00  0.00     0.158 A 
BRANCH  16  19
ATOM     19  O   UNL     1     -14.881  17.428   7.957  1.00  0.00    -0.504 OA
ATOM     20  H   UNL     1     -15.594  16.765   8.238  1.00  0.00     0.293 HD
ENDBRANCH  16  19
BRANCH  18  21
ATOM     21  O   UNL     1     -13.939  15.226   9.457  1.00  0.00    -0.504 OA
ATOM     22  H   UNL     1     -14.562  15.647  10.134  1.00  0.00     0.293 HD
ENDBRANCH  18  21
ENDBRANCH   3  13
BRANCH  10  23
ATOM     23  O   UNL     1      -4.353  15.247   8.319  1.00  0.00    -0.507 OA
ATOM     24  H   UNL     1      -4.523  15.908   9.067  1.00  0.00     0.293 HD
ENDBRANCH  10  23
BRANCH  11  25
ATOM     25  O   UNL     1      -5.712  12.831   4.352  1.00  0.00    -0.508 OA
ATOM     26  H   UNL     1      -4.771  12.486   4.207  1.00  0.00     0.293 HD
ENDBRANCH  11  25
ENDBRANCH   1   2
BRANCH   1  27
ATOM     27  C   UNL     1      -9.105  17.096  11.197  1.00  0.00     0.339 C 
ATOM     28  C   UNL     1      -8.393  18.163  12.052  1.00  0.00     0.214 C 
ATOM     29  O   UNL     1     -10.475  16.996  11.556  1.00  0.00    -0.332 OA
ATOM     30  C   UNL     1      -9.109  19.517  11.918  1.00  0.00     0.180 C 
ATOM     31  C   UNL     1     -11.175  18.205  11.310  1.00  0.00     0.179 C 
ATOM     32  C   UNL     1     -10.611  19.349  12.187  1.00  0.00     0.177 C 
BRANCH  28  33
ATOM     33  O   UNL     1      -7.056  18.298  11.644  1.00  0.00    -0.384 OA
ATOM     34  H   UNL     1      -7.057  18.273  10.651  1.00  0.00     0.211 HD
ENDBRANCH  28  33
BRANCH  30  35
ATOM     35  O   UNL     1      -8.576  20.433  12.840  1.00  0.00    -0.387 OA
ATOM     36  H   UNL     1      -8.647  20.014  13.737  1.00  0.00     0.211 HD
ENDBRANCH  30  35
BRANCH  31  37
ATOM     37  C   UNL     1     -12.660  17.967  11.606  1.00  0.00     0.191 C 
BRANCH  37  38
ATOM     38  O   UNL     1     -12.850  16.643  12.022  1.00  0.00    -0.394 OA
ATOM     39  H   UNL     1     -12.289  16.525  12.832  1.00  0.00     0.210 HD
ENDBRANCH  37  38
ENDBRANCH  31  37
BRANCH  32  40
ATOM     40  O   UNL     1     -11.261  20.558  11.886  1.00  0.00    -0.387 OA
ATOM     41  H   UNL     1     -10.978  20.826  10.974  1.00  0.00     0.211 HD
ENDBRANCH  32  40
ENDBRANCH   1  27
TORSDOF 12
ENDMDL
MODEL 6
REMARK VINA RESULT:    -6.566      2.737      6.330
REMARK INTER + INTRA:         -11.488
REMARK INTER:                  -9.378
REMARK INTRA:                  -2.111
REMARK UNBOUND:                -1.852
REMARK SMILES O=c1c(O[C@@H]2O[C@@H](CO)[C@H](O)[C@@H](O)[C@@H]2O)c(-c2ccc(O)c(O)c2)oc2cc(O)cc(O)c12
REMARK SMILES IDX 4 1 3 2 16 3 25 4 2 5 26 6 1 7 33 8 27 9 31 10 28 11 30 12
REMARK SMILES IDX 17 13 18 14 19 15 20 16 24 17 22 18 21 19 23 21 32 23 29 25
REMARK SMILES IDX 5 27 14 28 6 29 12 30 7 31 10 32 15 33 13 35 8 37 9 38 11 40
REMARK H PARENT 21 20 23 22 32 24 29 26 15 34 13 36 9 39 11 41
REMARK Flexibility Score: inf
ROOT
ATOM      1  O   UNL     1      -8.791  15.802   9.018  1.00  0.00    -0.454 OA
ENDROOT
BRANCH   1   2
ATOM      2  C   UNL     1      -7.393  15.769   9.198  1.00  0.00     0.214 A 
ATOM      3  C   UNL     1      -6.897  15.459  10.481  1.00  0.00     0.180 A 
ATOM      4  O   UNL     1      -5.590  15.363  10.691  1.00  0.00    -0.452 OA
ATOM      5  C   UNL     1      -6.459  15.994   8.160  1.00  0.00     0.239 A 
ATOM      6  C   UNL     1      -4.682  15.569   9.747  1.00  0.00     0.146 A 
ATOM      7  O   UNL     1      -6.852  16.268   6.995  1.00  0.00    -0.285 OA
ATOM      8  C   UNL     1      -5.076  15.903   8.431  1.00  0.00     0.111 A 
ATOM      9  C   UNL     1      -3.328  15.453  10.071  1.00  0.00     0.094 A 
ATOM     10  C   UNL     1      -4.077  16.120   7.449  1.00  0.00     0.134 A 
ATOM     11  C   UNL     1      -2.348  15.667   9.101  1.00  0.00     0.123 A 
ATOM     12  C   UNL     1      -2.723  16.000   7.795  1.00  0.00     0.093 A 
BRANCH   3  13
ATOM     13  C   UNL     1      -7.802  15.209  11.625  1.00  0.00     0.025 A 
ATOM     14  C   UNL     1      -8.004  16.216  12.580  1.00  0.00     0.016 A 
ATOM     15  C   UNL     1      -8.861  16.000  13.664  1.00  0.00     0.051 A 
ATOM     16  C   UNL     1      -9.536  14.779  13.799  1.00  0.00     0.157 A 
ATOM     17  C   UNL     1      -8.501  13.996  11.749  1.00  0.00     0.062 A 
ATOM     18  C   UNL     1      -9.358  13.774  12.834  1.00  0.00     0.158 A 
BRANCH  16  19
ATOM     19  O   UNL     1     -10.385  14.565  14.885  1.00  0.00    -0.504 OA
ATOM     20  H   UNL     1     -11.278  15.036  14.960  1.00  0.00     0.293 HD
ENDBRANCH  16  19
BRANCH  18  21
ATOM     21  O   UNL     1     -10.023  12.553  12.933  1.00  0.00    -0.504 OA
ATOM     22  H   UNL     1     -11.033  12.489  12.917  1.00  0.00     0.293 HD
ENDBRANCH  18  21
ENDBRANCH   3  13
BRANCH  10  23
ATOM     23  O   UNL     1      -4.419  16.453   6.138  1.00  0.00    -0.507 OA
ATOM     24  H   UNL     1      -3.717  16.550   5.413  1.00  0.00     0.293 HD
ENDBRANCH  10  23
BRANCH  11  25
ATOM     25  O   UNL     1      -1.003  15.548   9.444  1.00  0.00    -0.508 OA
ATOM     26  H   UNL     1      -0.662  15.827  10.356  1.00  0.00     0.293 HD
ENDBRANCH  11  25
ENDBRANCH   1   2
BRANCH   1  27
ATOM     27  C   UNL     1      -9.672  16.910   9.228  1.00  0.00     0.339 C 
ATOM     28  C   UNL     1     -10.416  17.257   7.923  1.00  0.00     0.214 C 
ATOM     29  O   UNL     1     -10.592  16.659  10.280  1.00  0.00    -0.332 OA
ATOM     30  C   UNL     1     -11.396  16.132   7.554  1.00  0.00     0.180 C 
ATOM     31  C   UNL     1     -11.415  15.536  10.004  1.00  0.00     0.179 C 
ATOM     32  C   UNL     1     -12.291  15.796   8.755  1.00  0.00     0.177 C 
BRANCH  28  33
ATOM     33  O   UNL     1      -9.497  17.440   6.876  1.00  0.00    -0.384 OA
ATOM     34  H   UNL     1      -8.606  17.567   7.297  1.00  0.00     0.211 HD
ENDBRANCH  28  33
BRANCH  30  35
ATOM     35  O   UNL     1     -12.203  16.535   6.477  1.00  0.00    -0.387 OA
ATOM     36  H   UNL     1     -12.660  17.371   6.756  1.00  0.00     0.211 HD
ENDBRANCH  30  35
BRANCH  31  37
ATOM     37  C   UNL     1     -12.283  15.265  11.237  1.00  0.00     0.191 C 
BRANCH  37  38
ATOM     38  O   UNL     1     -12.475  13.884  11.383  1.00  0.00    -0.394 OA
ATOM     39  H   UNL     1     -11.759  13.568  11.992  1.00  0.00     0.210 HD
ENDBRANCH  37  38
ENDBRANCH  31  37
BRANCH  32  40
ATOM     40  O   UNL     1     -13.050  14.654   8.447  1.00  0.00    -0.387 OA
ATOM     41  H   UNL     1     -12.720  14.307   7.578  1.00  0.00     0.211 HD
ENDBRANCH  32  40
ENDBRANCH   1  27
TORSDOF 12
ENDMDL
MODEL 7
REMARK VINA RESULT:    -6.538      4.820      7.390
REMARK INTER + INTRA:         -11.448
REMARK INTER:                  -9.408
REMARK INTRA:                  -2.040
REMARK UNBOUND:                -1.852
REMARK SMILES O=c1c(O[C@@H]2O[C@@H](CO)[C@H](O)[C@@H](O)[C@@H]2O)c(-c2ccc(O)c(O)c2)oc2cc(O)cc(O)c12
REMARK SMILES IDX 4 1 3 2 16 3 25 4 2 5 26 6 1 7 33 8 27 9 31 10 28 11 30 12
REMARK SMILES IDX 17 13 18 14 19 15 20 16 24 17 22 18 21 19 23 21 32 23 29 25
REMARK SMILES IDX 5 27 14 28 6 29 12 30 7 31 10 32 15 33 13 35 8 37 9 38 11 40
REMARK H PARENT 21 20 23 22 32 24 29 26 15 34 13 36 9 39 11 41
REMARK Flexibility Score: inf
ROOT
ATOM      1  O   UNL     1     -10.305  16.317  13.166  1.00  0.00    -0.454 OA
ENDROOT
BRANCH   1   2
ATOM      2  C   UNL     1     -10.565  17.692  12.991  1.00  0.00     0.214 A 
ATOM      3  C   UNL     1      -9.540  18.606  13.314  1.00  0.00     0.180 A 
ATOM      4  O   UNL     1      -9.715  19.907  13.118  1.00  0.00    -0.452 OA
ATOM      5  C   UNL     1     -11.780  18.206  12.481  1.00  0.00     0.239 A 
ATOM      6  C   UNL     1     -10.838  20.430  12.644  1.00  0.00     0.146 A 
ATOM      7  O   UNL     1     -12.723  17.429  12.173  1.00  0.00    -0.285 OA
ATOM      8  C   UNL     1     -11.932  19.599  12.308  1.00  0.00     0.111 A 
ATOM      9  C   UNL     1     -10.927  21.814  12.482  1.00  0.00     0.094 A 
ATOM     10  C   UNL     1     -13.118  20.194  11.809  1.00  0.00     0.134 A 
ATOM     11  C   UNL     1     -12.097  22.395  11.991  1.00  0.00     0.123 A 
ATOM     12  C   UNL     1     -13.187  21.587  11.656  1.00  0.00     0.093 A 
BRANCH   3  13
ATOM     13  C   UNL     1      -8.238  18.156  13.853  1.00  0.00     0.025 A 
ATOM     14  C   UNL     1      -7.994  18.242  15.232  1.00  0.00     0.016 A 
ATOM     15  C   UNL     1      -6.772  17.816  15.761  1.00  0.00     0.051 A 
ATOM     16  C   UNL     1      -5.784  17.286  14.919  1.00  0.00     0.157 A 
ATOM     17  C   UNL     1      -7.255  17.599  13.017  1.00  0.00     0.062 A 
ATOM     18  C   UNL     1      -6.029  17.174  13.541  1.00  0.00     0.158 A 
BRANCH  16  19
ATOM     19  O   UNL     1      -4.563  16.867  15.449  1.00  0.00    -0.504 OA
ATOM     20  H   UNL     1      -4.435  16.737  16.445  1.00  0.00     0.293 HD
ENDBRANCH  16  19
BRANCH  18  21
ATOM     21  O   UNL     1      -5.073  16.640  12.678  1.00  0.00    -0.504 OA
ATOM     22  H   UNL     1      -4.293  16.090  13.015  1.00  0.00     0.293 HD
ENDBRANCH  18  21
ENDBRANCH   3  13
BRANCH  10  23
ATOM     23  O   UNL     1     -14.223  19.414  11.465  1.00  0.00    -0.507 OA
ATOM     24  H   UNL     1     -14.328  19.020  10.538  1.00  0.00     0.293 HD
ENDBRANCH  10  23
BRANCH  11  25
ATOM     25  O   UNL     1     -12.166  23.778  11.838  1.00  0.00    -0.508 OA
ATOM     26  H   UNL     1     -11.536  24.398  12.332  1.00  0.00     0.293 HD
ENDBRANCH  11  25
ENDBRANCH   1   2
BRANCH   1  27
ATOM     27  C   UNL     1     -10.879  15.436  14.138  1.00  0.00     0.339 C 
ATOM     28  C   UNL     1     -11.402  14.156  13.456  1.00  0.00     0.214 C 
ATOM     29  O   UNL     1      -9.956  15.117  15.168  1.00  0.00    -0.332 OA
ATOM     30  C   UNL     1     -10.229  13.322  12.919  1.00  0.00     0.180 C 
ATOM     31  C   UNL     1      -8.805  14.462  14.660  1.00  0.00     0.179 C 
ATOM     32  C   UNL     1      -9.186  13.103  14.024  1.00  0.00     0.177 C 
BRANCH  28  33
ATOM     33  O   UNL     1     -12.264  14.489  12.398  1.00  0.00    -0.384 OA
ATOM     34  H   UNL     1     -12.995  13.817  12.404  1.00  0.00     0.211 HD
ENDBRANCH  28  33
BRANCH  30  35
ATOM     35  O   UNL     1     -10.693  12.074  12.472  1.00  0.00    -0.387 OA
ATOM     36  H   UNL     1     -11.157  12.232  11.608  1.00  0.00     0.211 HD
ENDBRANCH  30  35
BRANCH  31  37
ATOM     37  C   UNL     1      -7.815  14.269  15.815  1.00  0.00     0.191 C 
BRANCH  37  38
ATOM     38  O   UNL     1      -6.551  13.946  15.303  1.00  0.00    -0.394 OA
ATOM     39  H   UNL     1      -6.242  13.152  15.812  1.00  0.00     0.210 HD
ENDBRANCH  37  38
ENDBRANCH  31  37
BRANCH  32  40
ATOM     40  O   UNL     1      -8.052  12.494  13.462  1.00  0.00    -0.387 OA
ATOM     41  H   UNL     1      -7.987  12.804  12.522  1.00  0.00     0.211 HD
ENDBRANCH  32  40
ENDBRANCH   1  27
TORSDOF 12
ENDMDL
MODEL 8
REMARK VINA RESULT:    -6.500      2.317      6.154
REMARK INTER + INTRA:         -11.392
REMARK INTER:                  -9.242
REMARK INTRA:                  -2.150
REMARK UNBOUND:                -1.852
REMARK SMILES O=c1c(O[C@@H]2O[C@@H](CO)[C@H](O)[C@@H](O)[C@@H]2O)c(-c2ccc(O)c(O)c2)oc2cc(O)cc(O)c12
REMARK SMILES IDX 4 1 3 2 16 3 25 4 2 5 26 6 1 7 33 8 27 9 31 10 28 11 30 12
REMARK SMILES IDX 17 13 18 14 19 15 20 16 24 17 22 18 21 19 23 21 32 23 29 25
REMARK SMILES IDX 5 27 14 28 6 29 12 30 7 31 10 32 15 33 13 35 8 37 9 38 11 40
REMARK H PARENT 21 20 23 22 32 24 29 26 15 34 13 36 9 39 11 41
REMARK Flexibility Score: inf
ROOT
ATOM      1  O   UNL     1     -10.243  16.152   8.426  1.00  0.00    -0.454 OA
ENDROOT
BRANCH   1   2
ATOM      2  C   UNL     1      -8.871  16.121   8.752  1.00  0.00     0.214 A 
ATOM      3  C   UNL     1      -8.512  16.209  10.114  1.00  0.00     0.180 A 
ATOM      4  O   UNL     1      -7.238  16.132  10.478  1.00  0.00    -0.452 OA
ATOM      5  C   UNL     1      -7.837  15.974   7.798  1.00  0.00     0.239 A 
ATOM      6  C   UNL     1      -6.239  15.996   9.616  1.00  0.00     0.146 A 
ATOM      7  O   UNL     1      -8.108  15.885   6.572  1.00  0.00    -0.285 OA
ATOM      8  C   UNL     1      -6.494  15.918   8.228  1.00  0.00     0.111 A 
ATOM      9  C   UNL     1      -4.930  15.934  10.099  1.00  0.00     0.094 A 
ATOM     10  C   UNL     1      -5.400  15.778   7.336  1.00  0.00     0.134 A 
ATOM     11  C   UNL     1      -3.857  15.796   9.218  1.00  0.00     0.123 A 
ATOM     12  C   UNL     1      -4.092  15.719   7.842  1.00  0.00     0.093 A 
BRANCH   3  13
ATOM     13  C   UNL     1      -9.528  16.365  11.178  1.00  0.00     0.025 A 
ATOM     14  C   UNL     1      -9.855  17.649  11.639  1.00  0.00     0.016 A 
ATOM     15  C   UNL     1     -10.817  17.816  12.640  1.00  0.00     0.051 A 
ATOM     16  C   UNL     1     -11.474  16.702  13.182  1.00  0.00     0.157 A 
ATOM     17  C   UNL     1     -10.208  15.254  11.704  1.00  0.00     0.062 A 
ATOM     18  C   UNL     1     -11.171  15.415  12.708  1.00  0.00     0.158 A 
BRANCH  16  19
ATOM     19  O   UNL     1     -12.429  16.872  14.184  1.00  0.00    -0.504 OA
ATOM     20  H   UNL     1     -12.166  17.118  15.131  1.00  0.00     0.293 HD
ENDBRANCH  16  19
BRANCH  18  21
ATOM     21  O   UNL     1     -11.814  14.288  13.217  1.00  0.00    -0.504 OA
ATOM     22  H   UNL     1     -12.091  13.515  12.626  1.00  0.00     0.293 HD
ENDBRANCH  18  21
ENDBRANCH   3  13
BRANCH  10  23
ATOM     23  O   UNL     1      -5.602  15.697   5.958  1.00  0.00    -0.507 OA
ATOM     24  H   UNL     1      -5.962  14.856   5.521  1.00  0.00     0.293 HD
ENDBRANCH  10  23
BRANCH  11  25
ATOM     25  O   UNL     1      -2.558  15.738   9.720  1.00  0.00    -0.508 OA
ATOM     26  H   UNL     1      -1.782  16.172   9.235  1.00  0.00     0.293 HD
ENDBRANCH  11  25
ENDBRANCH   1   2
BRANCH   1  27
ATOM     27  C   UNL     1     -10.999  17.263   7.933  1.00  0.00     0.339 C 
ATOM     28  C   UNL     1     -11.714  16.883   6.622  1.00  0.00     0.214 C 
ATOM     29  O   UNL     1     -11.929  17.734   8.897  1.00  0.00    -0.332 OA
ATOM     30  C   UNL     1     -12.813  15.845   6.896  1.00  0.00     0.180 C 
ATOM     31  C   UNL     1     -12.870  16.734   9.255  1.00  0.00     0.179 C 
ATOM     32  C   UNL     1     -13.726  16.327   8.032  1.00  0.00     0.177 C 
BRANCH  28  33
ATOM     33  O   UNL     1     -10.792  16.360   5.702  1.00  0.00    -0.384 OA
ATOM     34  H   UNL     1     -10.774  15.377   5.843  1.00  0.00     0.211 HD
ENDBRANCH  28  33
BRANCH  30  35
ATOM     35  O   UNL     1     -13.583  15.645   5.739  1.00  0.00    -0.387 OA
ATOM     36  H   UNL     1     -14.199  14.890   5.929  1.00  0.00     0.211 HD
ENDBRANCH  30  35
BRANCH  31  37
ATOM     37  C   UNL     1     -13.750  17.286  10.382  1.00  0.00     0.191 C 
BRANCH  37  38
ATOM     38  O   UNL     1     -14.323  16.224  11.094  1.00  0.00    -0.394 OA
ATOM     39  H   UNL     1     -15.305  16.352  11.037  1.00  0.00     0.210 HD
ENDBRANCH  37  38
ENDBRANCH  31  37
BRANCH  32  40
ATOM     40  O   UNL     1     -14.606  15.287   8.377  1.00  0.00    -0.387 OA
ATOM     41  H   UNL     1     -15.518  15.675   8.417  1.00  0.00     0.211 HD
ENDBRANCH  32  40
ENDBRANCH   1  27
TORSDOF 12
ENDMDL
MODEL 9
REMARK VINA RESULT:    -6.421      2.246      5.277
REMARK INTER + INTRA:         -11.276
REMARK INTER:                  -9.726
REMARK INTRA:                  -1.550
REMARK UNBOUND:                -1.852
REMARK SMILES O=c1c(O[C@@H]2O[C@@H](CO)[C@H](O)[C@@H](O)[C@@H]2O)c(-c2ccc(O)c(O)c2)oc2cc(O)cc(O)c12
REMARK SMILES IDX 4 1 3 2 16 3 25 4 2 5 26 6 1 7 33 8 27 9 31 10 28 11 30 12
REMARK SMILES IDX 17 13 18 14 19 15 20 16 24 17 22 18 21 19 23 21 32 23 29 25
REMARK SMILES IDX 5 27 14 28 6 29 12 30 7 31 10 32 15 33 13 35 8 37 9 38 11 40
REMARK H PARENT 21 20 23 22 32 24 29 26 15 34 13 36 9 39 11 41
REMARK Flexibility Score: inf
ROOT
ATOM      1  O   UNL     1      -8.733  15.807   9.100  1.00  0.00    -0.454 OA
ENDROOT
BRANCH   1   2
ATOM      2  C   UNL     1      -9.967  16.353   9.509  1.00  0.00     0.214 A 
ATOM      3  C   UNL     1     -10.063  16.864  10.821  1.00  0.00     0.180 A 
ATOM      4  O   UNL     1     -11.186  17.436  11.237  1.00  0.00    -0.452 OA
ATOM      5  C   UNL     1     -11.103  16.449   8.672  1.00  0.00     0.239 A 
ATOM      6  C   UNL     1     -12.273  17.545  10.486  1.00  0.00     0.146 A 
ATOM      7  O   UNL     1     -11.065  16.013   7.491  1.00  0.00    -0.285 OA
ATOM      8  C   UNL     1     -12.284  17.047   9.163  1.00  0.00     0.111 A 
ATOM      9  C   UNL     1     -13.410  18.156  11.020  1.00  0.00     0.094 A 
ATOM     10  C   UNL     1     -13.466  17.176   8.391  1.00  0.00     0.134 A 
ATOM     11  C   UNL     1     -14.571  18.281  10.256  1.00  0.00     0.123 A 
ATOM     12  C   UNL     1     -14.598  17.792   8.947  1.00  0.00     0.093 A 
BRANCH   3  13
ATOM     13  C   UNL     1      -8.925  16.805  11.764  1.00  0.00     0.025 A 
ATOM     14  C   UNL     1      -8.186  17.967  12.030  1.00  0.00     0.016 A 
ATOM     15  C   UNL     1      -7.111  17.932  12.923  1.00  0.00     0.051 A 
ATOM     16  C   UNL     1      -6.769  16.736  13.571  1.00  0.00     0.157 A 
ATOM     17  C   UNL     1      -8.596  15.615  12.436  1.00  0.00     0.062 A 
ATOM     18  C   UNL     1      -7.519  15.574  13.329  1.00  0.00     0.158 A 
BRANCH  16  19
ATOM     19  O   UNL     1      -5.693  16.703  14.457  1.00  0.00    -0.504 OA
ATOM     20  H   UNL     1      -4.740  16.597  14.129  1.00  0.00     0.293 HD
ENDBRANCH  16  19
BRANCH  18  21
ATOM     21  O   UNL     1      -7.214  14.371  13.966  1.00  0.00    -0.504 OA
ATOM     22  H   UNL     1      -7.847  13.582  13.957  1.00  0.00     0.293 HD
ENDBRANCH  18  21
ENDBRANCH   3  13
BRANCH  10  23
ATOM     23  O   UNL     1     -13.525  16.699   7.081  1.00  0.00    -0.507 OA
ATOM     24  H   UNL     1     -13.927  17.250   6.331  1.00  0.00     0.293 HD
ENDBRANCH  10  23
BRANCH  11  25
ATOM     25  O   UNL     1     -15.694  18.893  10.808  1.00  0.00    -0.508 OA
ATOM     26  H   UNL     1     -16.631  18.636  10.524  1.00  0.00     0.293 HD
ENDBRANCH  11  25
ENDBRANCH   1   2
BRANCH   1  27
ATOM     27  C   UNL     1      -7.718  16.438   8.311  1.00  0.00     0.339 C 
ATOM     28  C   UNL     1      -6.332  15.869   8.671  1.00  0.00     0.214 C 
ATOM     29  O   UNL     1      -7.973  16.301   6.921  1.00  0.00    -0.332 OA
ATOM     30  C   UNL     1      -6.224  14.404   8.222  1.00  0.00     0.180 C 
ATOM     31  C   UNL     1      -8.007  14.940   6.522  1.00  0.00     0.179 C 
ATOM     32  C   UNL     1      -6.630  14.271   6.747  1.00  0.00     0.177 C 
BRANCH  28  33
ATOM     33  O   UNL     1      -6.120  15.952  10.057  1.00  0.00    -0.384 OA
ATOM     34  H   UNL     1      -6.287  16.896  10.315  1.00  0.00     0.211 HD
ENDBRANCH  28  33
BRANCH  30  35
ATOM     35  O   UNL     1      -4.903  13.951   8.378  1.00  0.00    -0.387 OA
ATOM     36  H   UNL     1      -4.830  13.097   7.875  1.00  0.00     0.211 HD
ENDBRANCH  30  35
BRANCH  31  37
ATOM     37  C   UNL     1      -8.409  14.885   5.044  1.00  0.00     0.191 C 
BRANCH  37  38
ATOM     38  O   UNL     1      -7.258  14.836   4.245  1.00  0.00    -0.394 OA
ATOM     39  H   UNL     1      -6.692  14.113   4.621  1.00  0.00     0.210 HD
ENDBRANCH  37  38
ENDBRANCH  31  37
BRANCH  32  40
ATOM     40  O   UNL     1      -6.691  12.907   6.416  1.00  0.00    -0.387 OA
ATOM     41  H   UNL     1      -7.203  12.833   5.570  1.00  0.00     0.211 HD
ENDBRANCH  32  40
ENDBRANCH   1  27
TORSDOF 12
ENDMDL
