MODEL 1
REMARK VINA RESULT:    -3.083      0.000      0.000
REMARK INTER + INTRA:          -3.054
REMARK INTER:                  -3.804
REMARK INTRA:                   0.750
REMARK UNBOUND:                 0.750
REMARK SMILES CC1=CC=CC(C)(C)CC1=O
REMARK SMILES IDX 1 1 2 2 3 3 10 4 11 5 9 6 4 8 5 9 6 10 7 11 8 12
REMARK H PARENT
REMARK Flexibility Score: 80.00
ROOT
ATOM      1  C   UNL     1     152.261 162.314 202.335  1.00  0.00     0.048 C 
ATOM      2  C   UNL     1     152.671 160.931 201.884  1.00  0.00    -0.008 C 
ATOM      3  C   UNL     1     153.795 160.823 201.143  1.00  0.00     0.007 C 
ENDROOT
BRANCH   2   4
ATOM      4  C   UNL     1     151.762 159.810 202.232  1.00  0.00     0.159 C 
ATOM      5  O   UNL     1     150.622 160.075 202.704  1.00  0.00    -0.295 OA
BRANCH   4   6
ATOM      6  C   UNL     1     152.130 158.367 202.067  1.00  0.00     0.091 CG0
ATOM      7  G   UNL     1     152.473 157.990 200.609  1.00  0.00     0.000 G0
ENDBRANCH   4   6
ENDBRANCH   2   4
BRANCH   3   8
ATOM      8  C   UNL     1     154.425 159.624 200.543  1.00  0.00    -0.003 C 
ATOM      9  C   UNL     1     153.891 158.420 200.299  1.00  0.00    -0.020 C 
BRANCH   9  10
ATOM     10  C   UNL     1     152.479 157.985 200.617  1.00  0.00    -0.010 CG0
ATOM     11  C   UNL     1     152.412 156.444 200.511  1.00  0.00     0.016 C 
ATOM     12  C   UNL     1     151.498 158.577 199.579  1.00  0.00     0.016 C 
ATOM     13  G   UNL     1     152.126 158.383 202.067  1.00  0.00     0.000 G0
ENDBRANCH   9  10
ENDBRANCH   3   8
TORSDOF 0
ENDMDL
MODEL 2
REMARK VINA RESULT:    -2.956      1.771      2.643
REMARK INTER + INTRA:          -2.898
REMARK INTER:                  -3.655
REMARK INTRA:                   0.757
REMARK UNBOUND:                 0.750
REMARK SMILES CC1=CC=CC(C)(C)CC1=O
REMARK SMILES IDX 1 1 2 2 3 3 10 4 11 5 9 6 4 8 5 9 6 10 7 11 8 12
REMARK H PARENT
REMARK Flexibility Score: 80.00
ROOT
ATOM      1  C   UNL     1     152.250 162.197 202.243  1.00  0.00     0.048 C 
ATOM      2  C   UNL     1     152.176 161.166 201.141  1.00  0.00    -0.008 C 
ATOM      3  C   UNL     1     150.951 160.815 200.694  1.00  0.00     0.007 C 
ENDROOT
BRANCH   2   4
ATOM      4  C   UNL     1     153.457 160.567 200.689  1.00  0.00     0.159 C 
ATOM      5  O   UNL     1     154.500 160.779 201.366  1.00  0.00    -0.295 OA
BRANCH   4   6
ATOM      6  C   UNL     1     153.586 159.729 199.454  1.00  0.00     0.091 CG0
ATOM      7  G   UNL     1     152.728 158.446 199.497  1.00  0.00     0.000 G0
ENDBRANCH   4   6
ENDBRANCH   2   4
BRANCH   3   8
ATOM      8  C   UNL     1     150.563 159.829 199.659  1.00  0.00    -0.003 C 
ATOM      9  C   UNL     1     151.276 158.817 199.147  1.00  0.00    -0.020 C 
BRANCH   9  10
ATOM     10  C   UNL     1     152.699 158.453 199.500  1.00  0.00    -0.010 CG0
ATOM     11  C   UNL     1     153.226 157.468 198.432  1.00  0.00     0.016 C 
ATOM     12  C   UNL     1     152.736 157.736 200.870  1.00  0.00     0.016 C 
ATOM     13  G   UNL     1     153.583 159.718 199.465  1.00  0.00     0.000 G0
ENDBRANCH   9  10
ENDBRANCH   3   8
TORSDOF 0
ENDMDL
MODEL 3
REMARK VINA RESULT:    -2.935      2.017      2.834
REMARK INTER + INTRA:          -2.871
REMARK INTER:                  -3.621
REMARK INTRA:                   0.749
REMARK UNBOUND:                 0.750
REMARK SMILES CC1=CC=CC(C)(C)CC1=O
REMARK SMILES IDX 1 1 2 2 3 3 10 4 11 5 9 6 4 8 5 9 6 10 7 11 8 12
REMARK H PARENT
REMARK Flexibility Score: 80.00
ROOT
ATOM      1  C   UNL     1     151.660 161.008 197.253  1.00  0.00     0.048 C 
ATOM      2  C   UNL     1     151.953 160.746 198.712  1.00  0.00    -0.008 C 
ATOM      3  C   UNL     1     153.237 160.836 199.118  1.00  0.00     0.007 C 
ENDROOT
BRANCH   2   4
ATOM      4  C   UNL     1     150.810 160.338 199.567  1.00  0.00     0.159 C 
ATOM      5  O   UNL     1     149.708 160.061 199.019  1.00  0.00    -0.295 OA
BRANCH   4   6
ATOM      6  C   UNL     1     150.888 160.248 201.061  1.00  0.00     0.091 CG0
ATOM      7  G   UNL     1     151.968 159.262 201.556  1.00  0.00     0.000 G0
ENDBRANCH   4   6
ENDBRANCH   2   4
BRANCH   3   8
ATOM      8  C   UNL     1     153.829 160.611 200.458  1.00  0.00    -0.003 C 
ATOM      9  C   UNL     1     153.321 159.949 201.505  1.00  0.00    -0.020 C 
BRANCH   9  10
ATOM     10  C   UNL     1     151.970 159.277 201.572  1.00  0.00    -0.010 CG0
ATOM     11  C   UNL     1     151.654 158.970 203.054  1.00  0.00     0.016 C 
ATOM     12  C   UNL     1     152.009 157.934 200.806  1.00  0.00     0.016 C 
ATOM     13  G   UNL     1     150.885 160.236 201.038  1.00  0.00     0.000 G0
ENDBRANCH   9  10
ENDBRANCH   3   8
TORSDOF 0
ENDMDL
MODEL 4
REMARK VINA RESULT:    -2.912      2.543      3.626
REMARK INTER + INTRA:          -2.843
REMARK INTER:                  -3.594
REMARK INTRA:                   0.751
REMARK UNBOUND:                 0.750
REMARK SMILES CC1=CC=CC(C)(C)CC1=O
REMARK SMILES IDX 1 1 2 2 3 3 10 4 11 5 9 6 4 8 5 9 6 10 7 11 8 12
REMARK H PARENT
REMARK Flexibility Score: 80.00
ROOT
ATOM      1  C   UNL     1     155.948 160.685 199.923  1.00  0.00     0.048 C 
ATOM      2  C   UNL     1     154.449 160.759 200.091  1.00  0.00    -0.008 C 
ATOM      3  C   UNL     1     153.960 160.757 201.349  1.00  0.00     0.007 C 
ENDROOT
BRANCH   2   4
ATOM      4  C   UNL     1     153.629 160.754 198.853  1.00  0.00     0.159 C 
ATOM      5  O   UNL     1     154.185 160.470 197.756  1.00  0.00    -0.295 OA
BRANCH   4   6
ATOM      6  C   UNL     1     152.168 161.082 198.828  1.00  0.00     0.091 CG0
ATOM      7  G   UNL     1     151.314 160.121 199.683  1.00  0.00     0.000 G0
ENDBRANCH   4   6
ENDBRANCH   2   4
BRANCH   3   8
ATOM      8  C   UNL     1     152.556 160.793 201.824  1.00  0.00    -0.003 C 
ATOM      9  C   UNL     1     151.430 160.515 201.154  1.00  0.00    -0.020 C 
BRANCH   9  10
ATOM     10  C   UNL     1     151.327 160.111 199.702  1.00  0.00    -0.010 CG0
ATOM     11  C   UNL     1     149.851 160.248 199.265  1.00  0.00     0.016 C 
ATOM     12  C   UNL     1     151.737 158.629 199.536  1.00  0.00     0.016 C 
ATOM     13  G   UNL     1     152.176 161.065 198.835  1.00  0.00     0.000 G0
ENDBRANCH   9  10
ENDBRANCH   3   8
TORSDOF 0
ENDMDL
MODEL 5
REMARK VINA RESULT:    -2.851      1.932      2.939
REMARK INTER + INTRA:          -2.768
REMARK INTER:                  -3.540
REMARK INTRA:                   0.772
REMARK UNBOUND:                 0.750
REMARK SMILES CC1=CC=CC(C)(C)CC1=O
REMARK SMILES IDX 1 1 2 2 3 3 10 4 11 5 9 6 4 8 5 9 6 10 7 11 8 12
REMARK H PARENT
REMARK Flexibility Score: 80.00
ROOT
ATOM      1  C   UNL     1     149.127 160.409 199.755  1.00  0.00     0.048 C 
ATOM      2  C   UNL     1     150.627 160.580 199.822  1.00  0.00    -0.008 C 
ATOM      3  C   UNL     1     151.303 160.622 198.654  1.00  0.00     0.007 C 
ENDROOT
BRANCH   2   4
ATOM      4  C   UNL     1     151.243 160.613 201.172  1.00  0.00     0.159 C 
ATOM      5  O   UNL     1     150.536 160.309 202.172  1.00  0.00    -0.295 OA
BRANCH   4   6
ATOM      6  C   UNL     1     152.668 161.003 201.419  1.00  0.00     0.091 CG0
ATOM      7  G   UNL     1     153.683 160.105 200.679  1.00  0.00     0.000 G0
ENDBRANCH   4   6
ENDBRANCH   2   4
BRANCH   3   8
ATOM      8  C   UNL     1     152.758 160.751 198.403  1.00  0.00    -0.003 C 
ATOM      9  C   UNL     1     153.783 160.529 199.236  1.00  0.00    -0.020 C 
BRANCH   9  10
ATOM     10  C   UNL     1     153.686 160.107 200.684  1.00  0.00    -0.010 CG0
ATOM     11  C   UNL     1     155.073 160.302 201.339  1.00  0.00     0.016 C 
ATOM     12  C   UNL     1     153.324 158.606 200.773  1.00  0.00     0.016 C 
ATOM     13  G   UNL     1     152.674 161.009 201.423  1.00  0.00     0.000 G0
ENDBRANCH   9  10
ENDBRANCH   3   8
TORSDOF 0
ENDMDL
MODEL 6
REMARK VINA RESULT:    -2.850      1.662      2.038
REMARK INTER + INTRA:          -2.767
REMARK INTER:                  -3.534
REMARK INTRA:                   0.767
REMARK UNBOUND:                 0.750
REMARK SMILES CC1=CC=CC(C)(C)CC1=O
REMARK SMILES IDX 1 1 2 2 3 3 10 4 11 5 9 6 4 8 5 9 6 10 7 11 8 12
REMARK H PARENT
REMARK Flexibility Score: 80.00
ROOT
ATOM      1  C   UNL     1     152.246 161.988 202.357  1.00  0.00     0.048 C 
ATOM      2  C   UNL     1     152.562 160.950 201.306  1.00  0.00    -0.008 C 
ATOM      3  C   UNL     1     153.860 160.760 200.985  1.00  0.00     0.007 C 
ENDROOT
BRANCH   2   4
ATOM      4  C   UNL     1     151.411 160.275 200.655  1.00  0.00     0.159 C 
ATOM      5  O   UNL     1     150.250 160.733 200.844  1.00  0.00    -0.295 OA
BRANCH   4   6
ATOM      6  C   UNL     1     151.548 159.059 199.791  1.00  0.00     0.091 CG0
ATOM      7  G   UNL     1     152.421 159.297 198.540  1.00  0.00     0.000 G0
ENDBRANCH   4   6
ENDBRANCH   2   4
BRANCH   3   8
ATOM      8  C   UNL     1     154.469 159.847 199.990  1.00  0.00    -0.003 C 
ATOM      9  C   UNL     1     153.898 159.231 198.947  1.00  0.00    -0.020 C 
BRANCH   9  10
ATOM     10  C   UNL     1     152.442 159.307 198.548  1.00  0.00    -0.010 CG0
ATOM     11  C   UNL     1     152.163 158.186 197.520  1.00  0.00     0.016 C 
ATOM     12  C   UNL     1     152.153 160.663 197.864  1.00  0.00     0.016 C 
ATOM     13  G   UNL     1     151.551 159.059 199.784  1.00  0.00     0.000 G0
ENDBRANCH   9  10
ENDBRANCH   3   8
TORSDOF 0
ENDMDL
MODEL 7
REMARK VINA RESULT:    -2.762      1.859      3.061
REMARK INTER + INTRA:          -2.658
REMARK INTER:                  -3.404
REMARK INTRA:                   0.746
REMARK UNBOUND:                 0.750
REMARK SMILES CC1=CC=CC(C)(C)CC1=O
REMARK SMILES IDX 1 1 2 2 3 3 10 4 11 5 9 6 4 8 5 9 6 10 7 11 8 12
REMARK H PARENT
REMARK Flexibility Score: 80.00
ROOT
ATOM      1  C   UNL     1     150.941 160.473 198.462  1.00  0.00     0.048 C 
ATOM      2  C   UNL     1     151.188 159.835 199.809  1.00  0.00    -0.008 C 
ATOM      3  C   UNL     1     150.870 160.551 200.908  1.00  0.00     0.007 C 
ENDROOT
BRANCH   2   4
ATOM      4  C   UNL     1     151.832 158.497 199.815  1.00  0.00     0.159 C 
ATOM      5  O   UNL     1     152.325 158.054 198.741  1.00  0.00    -0.295 OA
BRANCH   4   6
ATOM      6  C   UNL     1     151.918 157.628 201.032  1.00  0.00     0.091 CG0
ATOM      7  G   UNL     1     152.687 158.287 202.197  1.00  0.00     0.000 G0
ENDBRANCH   4   6
ENDBRANCH   2   4
BRANCH   3   8
ATOM      8  C   UNL     1     151.019 160.210 202.342  1.00  0.00    -0.003 C 
ATOM      9  C   UNL     1     151.788 159.272 202.912  1.00  0.00    -0.020 C 
BRANCH   9  10
ATOM     10  C   UNL     1     152.692 158.296 202.195  1.00  0.00    -0.010 CG0
ATOM     11  C   UNL     1     153.088 157.182 203.191  1.00  0.00     0.016 C 
ATOM     12  C   UNL     1     153.986 159.011 201.740  1.00  0.00     0.016 C 
ATOM     13  G   UNL     1     151.928 157.645 201.022  1.00  0.00     0.000 G0
ENDBRANCH   9  10
ENDBRANCH   3   8
TORSDOF 0
ENDMDL
MODEL 8
REMARK VINA RESULT:    -2.758      3.081      4.200
REMARK INTER + INTRA:          -2.654
REMARK INTER:                  -3.405
REMARK INTRA:                   0.751
REMARK UNBOUND:                 0.750
REMARK SMILES CC1=CC=CC(C)(C)CC1=O
REMARK SMILES IDX 1 1 2 2 3 3 10 4 11 5 9 6 4 8 5 9 6 10 7 11 8 12
REMARK H PARENT
REMARK Flexibility Score: 80.00
ROOT
ATOM      1  C   UNL     1     152.591 161.309 201.573  1.00  0.00     0.048 C 
ATOM      2  C   UNL     1     151.652 161.040 200.420  1.00  0.00    -0.008 C 
ATOM      3  C   UNL     1     150.376 160.713 200.716  1.00  0.00     0.007 C 
ENDROOT
BRANCH   2   4
ATOM      4  C   UNL     1     152.231 161.085 199.054  1.00  0.00     0.159 C 
ATOM      5  O   UNL     1     153.486 161.123 198.924  1.00  0.00    -0.295 OA
BRANCH   4   6
ATOM      6  C   UNL     1     151.401 161.101 197.806  1.00  0.00     0.091 CG0
ATOM      7  G   UNL     1     150.498 159.858 197.659  1.00  0.00     0.000 G0
ENDBRANCH   4   6
ENDBRANCH   2   4
BRANCH   3   8
ATOM      8  C   UNL     1     149.249 160.373 199.817  1.00  0.00    -0.003 C 
ATOM      9  C   UNL     1     149.277 160.000 198.530  1.00  0.00    -0.020 C 
BRANCH   9  10
ATOM     10  C   UNL     1     150.507 159.860 197.664  1.00  0.00    -0.010 CG0
ATOM     11  C   UNL     1     150.053 159.785 196.188  1.00  0.00     0.016 C 
ATOM     12  C   UNL     1     151.246 158.545 198.003  1.00  0.00     0.016 C 
ATOM     13  G   UNL     1     151.403 161.107 197.828  1.00  0.00     0.000 G0
ENDBRANCH   9  10
ENDBRANCH   3   8
TORSDOF 0
ENDMDL
MODEL 9
REMARK VINA RESULT:    -2.597      1.560      1.975
REMARK INTER + INTRA:          -2.454
REMARK INTER:                  -3.210
REMARK INTRA:                   0.756
REMARK UNBOUND:                 0.750
REMARK SMILES CC1=CC=CC(C)(C)CC1=O
REMARK SMILES IDX 1 1 2 2 3 3 10 4 11 5 9 6 4 8 5 9 6 10 7 11 8 12
REMARK H PARENT
REMARK Flexibility Score: 80.00
ROOT
ATOM      1  C   UNL     1     150.832 160.383 202.329  1.00  0.00     0.048 C 
ATOM      2  C   UNL     1     152.204 159.844 201.995  1.00  0.00    -0.008 C 
ATOM      3  C   UNL     1     153.057 160.665 201.346  1.00  0.00     0.007 C 
ENDROOT
BRANCH   2   4
ATOM      4  C   UNL     1     152.476 158.426 202.342  1.00  0.00     0.159 C 
ATOM      5  O   UNL     1     151.513 157.691 202.695  1.00  0.00    -0.295 OA
BRANCH   4   6
ATOM      6  C   UNL     1     153.844 157.817 202.310  1.00  0.00     0.091 CG0
ATOM      7  G   UNL     1     154.499 157.864 200.913  1.00  0.00     0.000 G0
ENDBRANCH   4   6
ENDBRANCH   2   4
BRANCH   3   8
ATOM      8  C   UNL     1     154.437 160.417 200.868  1.00  0.00    -0.003 C 
ATOM      9  C   UNL     1     155.063 159.250 200.662  1.00  0.00    -0.020 C 
BRANCH   9  10
ATOM     10  C   UNL     1     154.493 157.872 200.904  1.00  0.00    -0.010 CG0
ATOM     11  C   UNL     1     155.658 156.856 200.879  1.00  0.00     0.016 C 
ATOM     12  C   UNL     1     153.511 157.499 199.769  1.00  0.00     0.016 C 
ATOM     13  G   UNL     1     153.838 157.818 202.301  1.00  0.00     0.000 G0
ENDBRANCH   9  10
ENDBRANCH   3   8
TORSDOF 0
ENDMDL
