MODEL 1
REMARK VINA RESULT:    -3.446      0.000      0.000
REMARK INTER + INTRA:          -4.130
REMARK INTER:                  -3.950
REMARK INTRA:                  -0.180
REMARK UNBOUND:                -0.180
REMARK SMILES CC=Cc1ccc(O)c(OC)c1
REMARK SMILES IDX 4 1 12 2 9 3 7 4 6 5 5 6 3 7 1 8 2 9 10 10 11 11 8 12
REMARK H PARENT 8 13
REMARK Flexibility Score: inf
ROOT
ATOM      1  C   UNL     1     121.268 107.866 118.627  1.00  0.00    -0.022 A 
ATOM      2  C   UNL     1     121.920 107.370 117.481  1.00  0.00     0.058 A 
ATOM      3  C   UNL     1     121.547 107.809 116.194  1.00  0.00     0.161 A 
ATOM      4  C   UNL     1     120.507 108.745 116.062  1.00  0.00     0.157 A 
ATOM      5  C   UNL     1     119.850 109.225 117.198  1.00  0.00     0.051 A 
ATOM      6  C   UNL     1     120.222 108.786 118.469  1.00  0.00     0.012 A 
ENDROOT
BRANCH   1   7
ATOM      7  C   UNL     1     121.620 107.425 120.000  1.00  0.00     0.003 C 
ATOM      8  C   UNL     1     121.170 106.876 122.360  1.00  0.00     0.035 C 
ATOM      9  C   UNL     1     120.741 107.344 121.006  1.00  0.00    -0.030 C 
ENDBRANCH   1   7
BRANCH   3  10
ATOM     10  O   UNL     1     122.182 107.337 115.034  1.00  0.00    -0.493 OA
ATOM     11  C   UNL     1     123.592 107.242 114.863  1.00  0.00     0.278 C 
ENDBRANCH   3  10
BRANCH   4  12
ATOM     12  O   UNL     1     120.108 109.210 114.808  1.00  0.00    -0.504 OA
ATOM     13  H   UNL     1     119.675 110.117 114.682  1.00  0.00     0.293 HD
ENDBRANCH   4  12
TORSDOF 3
ENDMDL
MODEL 2
REMARK VINA RESULT:    -3.403      8.455     10.026
REMARK INTER + INTRA:          -4.081
REMARK INTER:                  -3.917
REMARK INTRA:                  -0.163
REMARK UNBOUND:                -0.180
REMARK SMILES CC=Cc1ccc(O)c(OC)c1
REMARK SMILES IDX 4 1 12 2 9 3 7 4 6 5 5 6 3 7 1 8 2 9 10 10 11 11 8 12
REMARK H PARENT 8 13
REMARK Flexibility Score: inf
ROOT
ATOM      1  C   UNL     1     115.992 114.070 113.273  1.00  0.00    -0.022 A 
ATOM      2  C   UNL     1     115.680 114.135 114.645  1.00  0.00     0.058 A 
ATOM      3  C   UNL     1     114.400 113.768 115.110  1.00  0.00     0.161 A 
ATOM      4  C   UNL     1     113.429 113.343 114.187  1.00  0.00     0.157 A 
ATOM      5  C   UNL     1     113.734 113.295 112.824  1.00  0.00     0.051 A 
ATOM      6  C   UNL     1     115.002 113.660 112.370  1.00  0.00     0.012 A 
ENDROOT
BRANCH   1   7
ATOM      7  C   UNL     1     117.322 114.455 112.738  1.00  0.00     0.003 C 
ATOM      8  C   UNL     1     119.785 114.504 112.683  1.00  0.00     0.035 C 
ATOM      9  C   UNL     1     118.484 114.088 113.291  1.00  0.00    -0.030 C 
ENDBRANCH   1   7
BRANCH   3  10
ATOM     10  O   UNL     1     114.061 113.817 116.472  1.00  0.00    -0.493 OA
ATOM     11  C   UNL     1     114.359 112.797 117.419  1.00  0.00     0.278 C 
ENDBRANCH   3  10
BRANCH   4  12
ATOM     12  O   UNL     1     112.152 112.968 114.603  1.00  0.00    -0.504 OA
ATOM     13  H   UNL     1     111.988 112.135 115.157  1.00  0.00     0.293 HD
ENDBRANCH   4  12
TORSDOF 3
ENDMDL
MODEL 3
REMARK VINA RESULT:    -3.400     13.609     14.403
REMARK INTER + INTRA:          -4.077
REMARK INTER:                  -3.882
REMARK INTRA:                  -0.195
REMARK UNBOUND:                -0.180
REMARK SMILES CC=Cc1ccc(O)c(OC)c1
REMARK SMILES IDX 4 1 12 2 9 3 7 4 6 5 5 6 3 7 1 8 2 9 10 10 11 11 8 12
REMARK H PARENT 8 13
REMARK Flexibility Score: inf
ROOT
ATOM      1  C   UNL     1     124.682 120.811 117.871  1.00  0.00    -0.022 A 
ATOM      2  C   UNL     1     125.460 121.964 118.090  1.00  0.00     0.058 A 
ATOM      3  C   UNL     1     125.987 122.694 117.004  1.00  0.00     0.161 A 
ATOM      4  C   UNL     1     125.735 122.253 115.693  1.00  0.00     0.157 A 
ATOM      5  C   UNL     1     124.976 121.100 115.477  1.00  0.00     0.051 A 
ATOM      6  C   UNL     1     124.459 120.381 116.556  1.00  0.00     0.012 A 
ENDROOT
BRANCH   1   7
ATOM      7  C   UNL     1     124.116 120.007 118.983  1.00  0.00     0.003 C 
ATOM      8  C   UNL     1     122.841 118.148 119.979  1.00  0.00     0.035 C 
ATOM      9  C   UNL     1     123.363 118.915 118.806  1.00  0.00    -0.030 C 
ENDBRANCH   1   7
BRANCH   3  10
ATOM     10  O   UNL     1     126.761 123.851 117.190  1.00  0.00    -0.493 OA
ATOM     11  C   UNL     1     126.232 125.154 117.407  1.00  0.00     0.278 C 
ENDBRANCH   3  10
BRANCH   4  12
ATOM     12  O   UNL     1     126.233 122.946 114.590  1.00  0.00    -0.504 OA
ATOM     13  H   UNL     1     126.855 122.514 113.917  1.00  0.00     0.293 HD
ENDBRANCH   4  12
TORSDOF 3
ENDMDL
MODEL 4
REMARK VINA RESULT:    -3.384     13.605     14.229
REMARK INTER + INTRA:          -4.059
REMARK INTER:                  -3.882
REMARK INTRA:                  -0.176
REMARK UNBOUND:                -0.180
REMARK SMILES CC=Cc1ccc(O)c(OC)c1
REMARK SMILES IDX 4 1 12 2 9 3 7 4 6 5 5 6 3 7 1 8 2 9 10 10 11 11 8 12
REMARK H PARENT 8 13
REMARK Flexibility Score: inf
ROOT
ATOM      1  C   UNL     1     125.441 121.482 118.827  1.00  0.00    -0.022 A 
ATOM      2  C   UNL     1     125.854 122.121 117.641  1.00  0.00     0.058 A 
ATOM      3  C   UNL     1     125.291 121.766 116.398  1.00  0.00     0.161 A 
ATOM      4  C   UNL     1     124.315 120.755 116.349  1.00  0.00     0.157 A 
ATOM      5  C   UNL     1     123.918 120.110 117.524  1.00  0.00     0.051 A 
ATOM      6  C   UNL     1     124.479 120.466 118.751  1.00  0.00     0.012 A 
ENDROOT
BRANCH   1   7
ATOM      7  C   UNL     1     126.012 121.817 120.155  1.00  0.00     0.003 C 
ATOM      8  C   UNL     1     126.686 121.363 122.482  1.00  0.00     0.035 C 
ATOM      9  C   UNL     1     126.081 120.955 121.177  1.00  0.00    -0.030 C 
ENDBRANCH   1   7
BRANCH   3  10
ATOM     10  O   UNL     1     125.679 122.388 115.201  1.00  0.00    -0.493 OA
ATOM     11  C   UNL     1     126.065 123.753 115.085  1.00  0.00     0.278 C 
ENDBRANCH   3  10
BRANCH   4  12
ATOM     12  O   UNL     1     123.730 120.374 115.142  1.00  0.00    -0.504 OA
ATOM     13  H   UNL     1     123.670 119.405 114.854  1.00  0.00     0.293 HD
ENDBRANCH   4  12
TORSDOF 3
ENDMDL
MODEL 5
REMARK VINA RESULT:    -3.338      7.845     10.204
REMARK INTER + INTRA:          -4.005
REMARK INTER:                  -3.841
REMARK INTRA:                  -0.164
REMARK UNBOUND:                -0.180
REMARK SMILES CC=Cc1ccc(O)c(OC)c1
REMARK SMILES IDX 4 1 12 2 9 3 7 4 6 5 5 6 3 7 1 8 2 9 10 10 11 11 8 12
REMARK H PARENT 8 13
REMARK Flexibility Score: inf
ROOT
ATOM      1  C   UNL     1     119.061 116.423 112.955  1.00  0.00    -0.022 A 
ATOM      2  C   UNL     1     118.930 116.253 114.348  1.00  0.00     0.058 A 
ATOM      3  C   UNL     1     119.183 115.002 114.947  1.00  0.00     0.161 A 
ATOM      4  C   UNL     1     119.560 113.916 114.138  1.00  0.00     0.157 A 
ATOM      5  C   UNL     1     119.674 114.081 112.755  1.00  0.00     0.051 A 
ATOM      6  C   UNL     1     119.422 115.321 112.167  1.00  0.00     0.012 A 
ENDROOT
BRANCH   1   7
ATOM      7  C   UNL     1     118.796 117.718 112.280  1.00  0.00     0.003 C 
ATOM      8  C   UNL     1     118.637 120.173 112.128  1.00  0.00     0.035 C 
ATOM      9  C   UNL     1     118.907 118.909 112.881  1.00  0.00    -0.030 C 
ENDBRANCH   1   7
BRANCH   3  10
ATOM     10  O   UNL     1     119.067 114.804 116.332  1.00  0.00    -0.493 OA
ATOM     11  C   UNL     1     120.054 115.172 117.289  1.00  0.00     0.278 C 
ENDBRANCH   3  10
BRANCH   4  12
ATOM     12  O   UNL     1     119.823 112.662 114.689  1.00  0.00    -0.504 OA
ATOM     13  H   UNL     1     120.187 112.551 115.628  1.00  0.00     0.293 HD
ENDBRANCH   4  12
TORSDOF 3
ENDMDL
MODEL 6
REMARK VINA RESULT:    -3.311     18.274     20.106
REMARK INTER + INTRA:          -3.975
REMARK INTER:                  -3.780
REMARK INTRA:                  -0.195
REMARK UNBOUND:                -0.180
REMARK SMILES CC=Cc1ccc(O)c(OC)c1
REMARK SMILES IDX 4 1 12 2 9 3 7 4 6 5 5 6 3 7 1 8 2 9 10 10 11 11 8 12
REMARK H PARENT 8 13
REMARK Flexibility Score: inf
ROOT
ATOM      1  C   UNL     1     112.431 124.907 117.755  1.00  0.00    -0.022 A 
ATOM      2  C   UNL     1     111.323 125.741 118.003  1.00  0.00     0.058 A 
ATOM      3  C   UNL     1     110.586 126.296 116.936  1.00  0.00     0.161 A 
ATOM      4  C   UNL     1     110.975 126.016 115.614  1.00  0.00     0.157 A 
ATOM      5  C   UNL     1     112.084 125.203 115.369  1.00  0.00     0.051 A 
ATOM      6  C   UNL     1     112.810 124.657 116.428  1.00  0.00     0.012 A 
ENDROOT
BRANCH   1   7
ATOM      7  C   UNL     1     113.241 124.310 118.845  1.00  0.00     0.003 C 
ATOM      8  C   UNL     1     115.152 123.080 119.800  1.00  0.00     0.035 C 
ATOM      9  C   UNL     1     114.383 123.640 118.646  1.00  0.00    -0.030 C 
ENDBRANCH   1   7
BRANCH   3  10
ATOM     10  O   UNL     1     109.474 127.125 117.152  1.00  0.00    -0.493 OA
ATOM     11  C   UNL     1     108.157 126.659 117.426  1.00  0.00     0.278 C 
ENDBRANCH   3  10
BRANCH   4  12
ATOM     12  O   UNL     1     110.273 126.541 114.529  1.00  0.00    -0.504 OA
ATOM     13  H   UNL     1     109.332 126.905 114.620  1.00  0.00     0.293 HD
ENDBRANCH   4  12
TORSDOF 3
ENDMDL
MODEL 7
REMARK VINA RESULT:    -3.267     18.413     20.169
REMARK INTER + INTRA:          -3.925
REMARK INTER:                  -3.746
REMARK INTRA:                  -0.179
REMARK UNBOUND:                -0.180
REMARK SMILES CC=Cc1ccc(O)c(OC)c1
REMARK SMILES IDX 4 1 12 2 9 3 7 4 6 5 5 6 3 7 1 8 2 9 10 10 11 11 8 12
REMARK H PARENT 8 13
REMARK Flexibility Score: inf
ROOT
ATOM      1  C   UNL     1     111.675 125.755 118.488  1.00  0.00    -0.022 A 
ATOM      2  C   UNL     1     111.013 126.054 117.281  1.00  0.00     0.058 A 
ATOM      3  C   UNL     1     111.369 125.399 116.083  1.00  0.00     0.161 A 
ATOM      4  C   UNL     1     112.402 124.447 116.102  1.00  0.00     0.157 A 
ATOM      5  C   UNL     1     113.070 124.163 117.296  1.00  0.00     0.051 A 
ATOM      6  C   UNL     1     112.714 124.814 118.478  1.00  0.00     0.012 A 
ENDROOT
BRANCH   1   7
ATOM      7  C   UNL     1     111.341 126.426 119.769  1.00  0.00     0.003 C 
ATOM      8  C   UNL     1     111.733 127.125 122.100  1.00  0.00     0.035 C 
ATOM      9  C   UNL     1     112.133 126.411 120.848  1.00  0.00    -0.030 C 
ENDBRANCH   1   7
BRANCH   3  10
ATOM     10  O   UNL     1     110.723 125.672 114.866  1.00  0.00    -0.493 OA
ATOM     11  C   UNL     1     109.359 126.060 114.742  1.00  0.00     0.278 C 
ENDBRANCH   3  10
BRANCH   4  12
ATOM     12  O   UNL     1     112.784 123.773 114.942  1.00  0.00    -0.504 OA
ATOM     13  H   UNL     1     112.336 122.914 114.644  1.00  0.00     0.293 HD
ENDBRANCH   4  12
TORSDOF 3
ENDMDL
MODEL 8
REMARK VINA RESULT:    -3.235     12.447     13.356
REMARK INTER + INTRA:          -3.887
REMARK INTER:                  -3.696
REMARK INTRA:                  -0.191
REMARK UNBOUND:                -0.180
REMARK SMILES CC=Cc1ccc(O)c(OC)c1
REMARK SMILES IDX 4 1 12 2 9 3 7 4 6 5 5 6 3 7 1 8 2 9 10 10 11 11 8 12
REMARK H PARENT 8 13
REMARK Flexibility Score: inf
ROOT
ATOM      1  C   UNL     1     117.061 119.249 114.128  1.00  0.00    -0.022 A 
ATOM      2  C   UNL     1     117.511 119.332 115.460  1.00  0.00     0.058 A 
ATOM      3  C   UNL     1     118.847 119.682 115.748  1.00  0.00     0.161 A 
ATOM      4  C   UNL     1     119.735 119.939 114.688  1.00  0.00     0.157 A 
ATOM      5  C   UNL     1     119.292 119.840 113.367  1.00  0.00     0.051 A 
ATOM      6  C   UNL     1     117.969 119.493 113.087  1.00  0.00     0.012 A 
ENDROOT
BRANCH   1   7
ATOM      7  C   UNL     1     115.668 118.876 113.777  1.00  0.00     0.003 C 
ATOM      8  C   UNL     1     113.665 118.795 112.344  1.00  0.00     0.035 C 
ATOM      9  C   UNL     1     115.069 119.223 112.632  1.00  0.00    -0.030 C 
ENDBRANCH   1   7
BRANCH   3  10
ATOM     10  O   UNL     1     119.323 119.778 117.066  1.00  0.00    -0.493 OA
ATOM     11  C   UNL     1     119.159 120.916 117.905  1.00  0.00     0.278 C 
ENDBRANCH   3  10
BRANCH   4  12
ATOM     12  O   UNL     1     121.063 120.291 114.928  1.00  0.00    -0.504 OA
ATOM     13  H   UNL     1     121.469 120.264 115.855  1.00  0.00     0.293 HD
ENDBRANCH   4  12
TORSDOF 3
ENDMDL
