MODEL 1
REMARK VINA RESULT:    -3.543      0.000      0.000
REMARK INTER + INTRA:          -5.418
REMARK INTER:                  -4.992
REMARK INTRA:                  -0.426
REMARK UNBOUND:                -0.426
REMARK SMILES CCCCCCCCC(=O)[O-]
REMARK SMILES IDX 6 1 7 2 8 3 9 4 10 5 11 6 5 7 4 8 3 9 2 10 1 11
REMARK H PARENT
REMARK Flexibility Score: inf
ROOT
ATOM      1  C   UNL     1      57.078  28.234  51.164  1.00  0.00     0.000 C 
ENDROOT
BRANCH   1   2
ATOM      2  C   UNL     1      58.334  29.032  50.772  1.00  0.00     0.006 C 
BRANCH   2   3
ATOM      3  C   UNL     1      58.777  28.742  49.332  1.00  0.00     0.053 C 
BRANCH   3   4
ATOM      4  C   UNL     1      59.726  27.584  49.265  1.00  0.00     0.041 C 
ATOM      5  O   UNL     1      60.969  27.782  49.259  1.00  0.00    -0.550 OA
ATOM      6  O   UNL     1      59.236  26.284  49.237  1.00  0.00    -0.550 OA
ENDBRANCH   3   4
ENDBRANCH   2   3
ENDBRANCH   1   2
BRANCH   1   7
ATOM      7  C   UNL     1      55.775  28.945  50.760  1.00  0.00     0.000 C 
BRANCH   7   8
ATOM      8  C   UNL     1      54.735  27.984  50.164  1.00  0.00    -0.000 C 
BRANCH   8   9
ATOM      9  C   UNL     1      55.327  26.582  49.977  1.00  0.00    -0.000 C 
BRANCH   9  10
ATOM     10  C   UNL     1      54.378  25.687  49.173  1.00  0.00    -0.003 C 
ATOM     11  C   UNL     1      52.985  26.303  49.080  1.00  0.00     0.004 C 
ENDBRANCH   9  10
ENDBRANCH   8   9
ENDBRANCH   7   8
ENDBRANCH   1   7
TORSDOF 7
ENDMDL
MODEL 2
REMARK VINA RESULT:    -3.515     12.663     14.386
REMARK INTER + INTRA:          -5.379
REMARK INTER:                  -5.073
REMARK INTRA:                  -0.306
REMARK UNBOUND:                -0.426
REMARK SMILES CCCCCCCCC(=O)[O-]
REMARK SMILES IDX 6 1 7 2 8 3 9 4 10 5 11 6 5 7 4 8 3 9 2 10 1 11
REMARK H PARENT
REMARK Flexibility Score: inf
ROOT
ATOM      1  C   UNL     1      61.143  32.153  60.537  1.00  0.00     0.000 C 
ENDROOT
BRANCH   1   2
ATOM      2  C   UNL     1      61.101  31.094  61.652  1.00  0.00     0.006 C 
BRANCH   2   3
ATOM      3  C   UNL     1      61.282  29.672  61.106  1.00  0.00     0.053 C 
BRANCH   3   4
ATOM      4  C   UNL     1      62.495  29.006  61.680  1.00  0.00     0.041 C 
ATOM      5  O   UNL     1      62.440  27.806  62.058  1.00  0.00    -0.550 OA
ATOM      6  O   UNL     1      63.693  29.703  61.772  1.00  0.00    -0.550 OA
ENDBRANCH   3   4
ENDBRANCH   2   3
ENDBRANCH   1   2
BRANCH   1   7
ATOM      7  C   UNL     1      62.232  33.214  60.769  1.00  0.00     0.000 C 
BRANCH   7   8
ATOM      8  C   UNL     1      61.708  34.648  60.599  1.00  0.00    -0.000 C 
BRANCH   8   9
ATOM      9  C   UNL     1      62.715  35.667  61.144  1.00  0.00    -0.000 C 
BRANCH   9  10
ATOM     10  C   UNL     1      64.059  35.001  61.456  1.00  0.00    -0.003 C 
ATOM     11  C   UNL     1      65.066  36.014  61.994  1.00  0.00     0.004 C 
ENDBRANCH   9  10
ENDBRANCH   8   9
ENDBRANCH   7   8
ENDBRANCH   1   7
TORSDOF 7
ENDMDL
MODEL 3
REMARK VINA RESULT:    -3.505      0.952      1.708
REMARK INTER + INTRA:          -5.366
REMARK INTER:                  -4.975
REMARK INTRA:                  -0.390
REMARK UNBOUND:                -0.426
REMARK SMILES CCCCCCCCC(=O)[O-]
REMARK SMILES IDX 6 1 7 2 8 3 9 4 10 5 11 6 5 7 4 8 3 9 2 10 1 11
REMARK H PARENT
REMARK Flexibility Score: inf
ROOT
ATOM      1  C   UNL     1      58.041  29.125  50.405  1.00  0.00     0.000 C 
ENDROOT
BRANCH   1   2
ATOM      2  C   UNL     1      58.923  28.819  49.182  1.00  0.00     0.006 C 
BRANCH   2   3
ATOM      3  C   UNL     1      59.495  27.396  49.224  1.00  0.00     0.053 C 
BRANCH   3   4
ATOM      4  C   UNL     1      60.954  27.394  49.564  1.00  0.00     0.041 C 
ATOM      5  O   UNL     1      61.610  26.320  49.538  1.00  0.00    -0.550 OA
ATOM      6  O   UNL     1      61.596  28.585  49.881  1.00  0.00    -0.550 OA
ENDBRANCH   3   4
ENDBRANCH   2   3
ENDBRANCH   1   2
BRANCH   1   7
ATOM      7  C   UNL     1      57.069  27.980  50.736  1.00  0.00     0.000 C 
BRANCH   7   8
ATOM      8  C   UNL     1      55.640  28.474  51.007  1.00  0.00    -0.000 C 
BRANCH   8   9
ATOM      9  C   UNL     1      54.635  27.785  50.076  1.00  0.00    -0.000 C 
BRANCH   9  10
ATOM     10  C   UNL     1      55.060  26.343  49.778  1.00  0.00    -0.003 C 
ATOM     11  C   UNL     1      53.921  25.552  49.140  1.00  0.00     0.004 C 
ENDBRANCH   9  10
ENDBRANCH   8   9
ENDBRANCH   7   8
ENDBRANCH   1   7
TORSDOF 7
ENDMDL
MODEL 4
REMARK VINA RESULT:    -3.409     12.358     14.303
REMARK INTER + INTRA:          -5.230
REMARK INTER:                  -4.808
REMARK INTRA:                  -0.422
REMARK UNBOUND:                -0.426
REMARK SMILES CCCCCCCCC(=O)[O-]
REMARK SMILES IDX 6 1 7 2 8 3 9 4 10 5 11 6 5 7 4 8 3 9 2 10 1 11
REMARK H PARENT
REMARK Flexibility Score: inf
ROOT
ATOM      1  C   UNL     1      61.160  32.357  59.827  1.00  0.00     0.000 C 
ENDROOT
BRANCH   1   2
ATOM      2  C   UNL     1      61.129  31.871  61.287  1.00  0.00     0.006 C 
BRANCH   2   3
ATOM      3  C   UNL     1      61.024  30.344  61.386  1.00  0.00     0.053 C 
BRANCH   3   4
ATOM      4  C   UNL     1      62.338  29.717  61.735  1.00  0.00     0.041 C 
ATOM      5  O   UNL     1      63.373  30.428  61.837  1.00  0.00    -0.550 OA
ATOM      6  O   UNL     1      62.415  28.351  61.977  1.00  0.00    -0.550 OA
ENDBRANCH   3   4
ENDBRANCH   2   3
ENDBRANCH   1   2
BRANCH   1   7
ATOM      7  C   UNL     1      62.257  33.404  59.575  1.00  0.00     0.000 C 
BRANCH   7   8
ATOM      8  C   UNL     1      62.619  34.201  60.837  1.00  0.00    -0.000 C 
BRANCH   8   9
ATOM      9  C   UNL     1      64.117  34.091  61.145  1.00  0.00    -0.000 C 
BRANCH   9  10
ATOM     10  C   UNL     1      64.635  35.365  61.820  1.00  0.00    -0.003 C 
ATOM     11  C   UNL     1      63.636  36.510  61.679  1.00  0.00     0.004 C 
ENDBRANCH   9  10
ENDBRANCH   8   9
ENDBRANCH   7   8
ENDBRANCH   1   7
TORSDOF 7
ENDMDL
MODEL 5
REMARK VINA RESULT:    -3.357      1.431      2.509
REMARK INTER + INTRA:          -5.157
REMARK INTER:                  -4.813
REMARK INTRA:                  -0.344
REMARK UNBOUND:                -0.426
REMARK SMILES CCCCCCCCC(=O)[O-]
REMARK SMILES IDX 6 1 7 2 8 3 9 4 10 5 11 6 5 7 4 8 3 9 2 10 1 11
REMARK H PARENT
REMARK Flexibility Score: inf
ROOT
ATOM      1  C   UNL     1      58.992  28.800  49.180  1.00  0.00     0.000 C 
ENDROOT
BRANCH   1   2
ATOM      2  C   UNL     1      59.581  27.385  49.313  1.00  0.00     0.006 C 
BRANCH   2   3
ATOM      3  C   UNL     1      60.762  27.340  50.291  1.00  0.00     0.053 C 
BRANCH   3   4
ATOM      4  C   UNL     1      62.030  26.922  49.612  1.00  0.00     0.041 C 
ATOM      5  O   UNL     1      62.527  25.787  49.839  1.00  0.00    -0.550 OA
ATOM      6  O   UNL     1      62.648  27.776  48.707  1.00  0.00    -0.550 OA
ENDBRANCH   3   4
ENDBRANCH   2   3
ENDBRANCH   1   2
BRANCH   1   7
ATOM      7  C   UNL     1      57.868  29.071  50.195  1.00  0.00     0.000 C 
BRANCH   7   8
ATOM      8  C   UNL     1      56.888  27.896  50.323  1.00  0.00    -0.000 C 
BRANCH   8   9
ATOM      9  C   UNL     1      55.445  28.397  50.454  1.00  0.00    -0.000 C 
BRANCH   9  10
ATOM     10  C   UNL     1      54.448  27.338  49.972  1.00  0.00    -0.003 C 
ATOM     11  C   UNL     1      55.159  26.039  49.602  1.00  0.00     0.004 C 
ENDBRANCH   9  10
ENDBRANCH   8   9
ENDBRANCH   7   8
ENDBRANCH   1   7
TORSDOF 7
ENDMDL
MODEL 6
REMARK VINA RESULT:    -3.356     13.121     14.027
REMARK INTER + INTRA:          -5.155
REMARK INTER:                  -4.789
REMARK INTRA:                  -0.365
REMARK UNBOUND:                -0.426
REMARK SMILES CCCCCCCCC(=O)[O-]
REMARK SMILES IDX 6 1 7 2 8 3 9 4 10 5 11 6 5 7 4 8 3 9 2 10 1 11
REMARK H PARENT
REMARK Flexibility Score: inf
ROOT
ATOM      1  C   UNL     1      61.654  30.584  61.848  1.00  0.00     0.000 C 
ENDROOT
BRANCH   1   2
ATOM      2  C   UNL     1      63.169  30.360  61.709  1.00  0.00     0.006 C 
BRANCH   2   3
ATOM      3  C   UNL     1      63.506  28.919  61.307  1.00  0.00     0.053 C 
BRANCH   3   4
ATOM      4  C   UNL     1      64.977  28.730  61.095  1.00  0.00     0.041 C 
ATOM      5  O   UNL     1      65.470  27.572  61.062  1.00  0.00    -0.550 OA
ATOM      6  O   UNL     1      65.799  29.834  60.904  1.00  0.00    -0.550 OA
ENDBRANCH   3   4
ENDBRANCH   2   3
ENDBRANCH   1   2
BRANCH   1   7
ATOM      7  C   UNL     1      61.180  31.874  61.159  1.00  0.00     0.000 C 
BRANCH   7   8
ATOM      8  C   UNL     1      62.344  32.739  60.654  1.00  0.00    -0.000 C 
BRANCH   8   9
ATOM      9  C   UNL     1      61.886  34.180  60.396  1.00  0.00    -0.000 C 
BRANCH   9  10
ATOM     10  C   UNL     1      62.841  35.186  61.047  1.00  0.00    -0.003 C 
ATOM     11  C   UNL     1      64.184  34.540  61.374  1.00  0.00     0.004 C 
ENDBRANCH   9  10
ENDBRANCH   8   9
ENDBRANCH   7   8
ENDBRANCH   1   7
TORSDOF 7
ENDMDL
MODEL 7
REMARK VINA RESULT:    -3.345      3.004      5.468
REMARK INTER + INTRA:          -5.140
REMARK INTER:                  -4.784
REMARK INTRA:                  -0.356
REMARK UNBOUND:                -0.426
REMARK SMILES CCCCCCCCC(=O)[O-]
REMARK SMILES IDX 6 1 7 2 8 3 9 4 10 5 11 6 5 7 4 8 3 9 2 10 1 11
REMARK H PARENT
REMARK Flexibility Score: inf
ROOT
ATOM      1  C   UNL     1      57.423  27.746  50.664  1.00  0.00     0.000 C 
ENDROOT
BRANCH   1   2
ATOM      2  C   UNL     1      55.929  27.618  50.320  1.00  0.00     0.006 C 
BRANCH   2   3
ATOM      3  C   UNL     1      55.565  26.207  49.839  1.00  0.00     0.053 C 
BRANCH   3   4
ATOM      4  C   UNL     1      54.114  26.099  49.482  1.00  0.00     0.041 C 
ATOM      5  O   UNL     1      53.416  27.138  49.341  1.00  0.00    -0.550 OA
ATOM      6  O   UNL     1      53.540  24.851  49.276  1.00  0.00    -0.550 OA
ENDBRANCH   3   4
ENDBRANCH   2   3
ENDBRANCH   1   2
BRANCH   1   7
ATOM      7  C   UNL     1      58.066  29.000  50.050  1.00  0.00     0.000 C 
BRANCH   7   8
ATOM      8  C   UNL     1      59.304  28.677  49.200  1.00  0.00    -0.000 C 
BRANCH   8   9
ATOM      9  C   UNL     1      59.623  27.178  49.242  1.00  0.00    -0.000 C 
BRANCH   9  10
ATOM     10  C   UNL     1      60.938  26.915  49.982  1.00  0.00    -0.003 C 
ATOM     11  C   UNL     1      62.121  27.529  49.241  1.00  0.00     0.004 C 
ENDBRANCH   9  10
ENDBRANCH   8   9
ENDBRANCH   7   8
ENDBRANCH   1   7
TORSDOF 7
ENDMDL
MODEL 8
REMARK VINA RESULT:    -3.334      3.053      5.259
REMARK INTER + INTRA:          -5.125
REMARK INTER:                  -4.404
REMARK INTRA:                  -0.721
REMARK UNBOUND:                -0.426
REMARK SMILES CCCCCCCCC(=O)[O-]
REMARK SMILES IDX 6 1 7 2 8 3 9 4 10 5 11 6 5 7 4 8 3 9 2 10 1 11
REMARK H PARENT
REMARK Flexibility Score: inf
ROOT
ATOM      1  C   UNL     1      57.362  25.730  50.876  1.00  0.00     0.000 C 
ENDROOT
BRANCH   1   2
ATOM      2  C   UNL     1      56.270  26.128  49.868  1.00  0.00     0.006 C 
BRANCH   2   3
ATOM      3  C   UNL     1      55.448  27.330  50.352  1.00  0.00     0.053 C 
BRANCH   3   4
ATOM      4  C   UNL     1      54.084  27.354  49.734  1.00  0.00     0.041 C 
ATOM      5  O   UNL     1      53.605  26.314  49.210  1.00  0.00    -0.550 OA
ATOM      6  O   UNL     1      53.328  28.520  49.762  1.00  0.00    -0.550 OA
ENDBRANCH   3   4
ENDBRANCH   2   3
ENDBRANCH   1   2
BRANCH   1   7
ATOM      7  C   UNL     1      58.744  25.572  50.220  1.00  0.00     0.000 C 
BRANCH   7   8
ATOM      8  C   UNL     1      59.634  26.811  50.405  1.00  0.00    -0.000 C 
BRANCH   8   9
ATOM      9  C   UNL     1      59.656  27.665  49.132  1.00  0.00    -0.000 C 
BRANCH   9  10
ATOM     10  C   UNL     1      58.878  28.970  49.331  1.00  0.00    -0.003 C 
ATOM     11  C   UNL     1      58.658  29.261  50.812  1.00  0.00     0.004 C 
ENDBRANCH   9  10
ENDBRANCH   8   9
ENDBRANCH   7   8
ENDBRANCH   1   7
TORSDOF 7
ENDMDL
MODEL 9
REMARK VINA RESULT:    -3.212     13.238     14.754
REMARK INTER + INTRA:          -4.952
REMARK INTER:                  -4.233
REMARK INTRA:                  -0.719
REMARK UNBOUND:                -0.426
REMARK SMILES CCCCCCCCC(=O)[O-]
REMARK SMILES IDX 6 1 7 2 8 3 9 4 10 5 11 6 5 7 4 8 3 9 2 10 1 11
REMARK H PARENT
REMARK Flexibility Score: inf
ROOT
ATOM      1  C   UNL     1      62.072  33.890  59.898  1.00  0.00     0.000 C 
ENDROOT
BRANCH   1   2
ATOM      2  C   UNL     1      62.392  32.703  60.822  1.00  0.00     0.006 C 
BRANCH   2   3
ATOM      3  C   UNL     1      63.899  32.433  60.917  1.00  0.00     0.053 C 
BRANCH   3   4
ATOM      4  C   UNL     1      64.191  30.985  61.163  1.00  0.00     0.041 C 
ATOM      5  O   UNL     1      63.390  30.281  61.833  1.00  0.00    -0.550 OA
ATOM      6  O   UNL     1      65.335  30.405  60.628  1.00  0.00    -0.550 OA
ENDBRANCH   3   4
ENDBRANCH   2   3
ENDBRANCH   1   2
BRANCH   1   7
ATOM      7  C   UNL     1      61.468  35.084  60.655  1.00  0.00     0.000 C 
BRANCH   7   8
ATOM      8  C   UNL     1      62.507  36.168  60.979  1.00  0.00    -0.000 C 
BRANCH   8   9
ATOM      9  C   UNL     1      63.662  36.140  59.971  1.00  0.00    -0.000 C 
BRANCH   9  10
ATOM     10  C   UNL     1      65.015  36.067  60.686  1.00  0.00    -0.003 C 
ATOM     11  C   UNL     1      64.838  35.807  62.179  1.00  0.00     0.004 C 
ENDBRANCH   9  10
ENDBRANCH   8   9
ENDBRANCH   7   8
ENDBRANCH   1   7
TORSDOF 7
ENDMDL
