MODEL 1
REMARK VINA RESULT:    -3.796      0.000      0.000
REMARK INTER + INTRA:          -8.030
REMARK INTER:                  -6.903
REMARK INTRA:                  -1.127
REMARK UNBOUND:                -1.127
REMARK SMILES CCCCCCCCCCCCCCCC(=O)[O-]
REMARK SMILES IDX 9 1 10 2 11 3 12 4 13 5 14 6 15 7 16 8 17 9 18 10 8 11 7 12
REMARK SMILES IDX 6 13 5 14 4 15 3 16 2 17 1 18
REMARK H PARENT
REMARK Flexibility Score: inf
ROOT
ATOM      1  C   UNL     1      -7.095  -6.544   9.821  1.00  0.00     0.000 C 
ENDROOT
BRANCH   1   2
ATOM      2  C   UNL     1      -7.977  -5.300   9.969  1.00  0.00     0.000 C 
BRANCH   2   3
ATOM      3  C   UNL     1      -7.579  -4.219   8.954  1.00  0.00     0.000 C 
BRANCH   3   4
ATOM      4  C   UNL     1      -8.778  -3.682   8.152  1.00  0.00     0.000 C 
BRANCH   4   5
ATOM      5  C   UNL     1      -9.712  -2.733   8.930  1.00  0.00     0.000 C 
BRANCH   5   6
ATOM      6  C   UNL     1      -9.530  -1.234   8.620  1.00  0.00     0.006 C 
BRANCH   6   7
ATOM      7  C   UNL     1      -8.561  -0.505   9.563  1.00  0.00     0.053 C 
BRANCH   7   8
ATOM      8  C   UNL     1      -7.288  -0.123   8.870  1.00  0.00     0.041 C 
ATOM      9  O   UNL     1      -7.260   0.873   8.099  1.00  0.00    -0.550 OA
ATOM     10  O   UNL     1      -6.142  -0.888   9.049  1.00  0.00    -0.550 OA
ENDBRANCH   7   8
ENDBRANCH   6   7
ENDBRANCH   5   6
ENDBRANCH   4   5
ENDBRANCH   3   4
ENDBRANCH   2   3
ENDBRANCH   1   2
BRANCH   1  11
ATOM     11  C   UNL     1      -5.760  -6.197   9.151  1.00  0.00     0.000 C 
BRANCH  11  12
ATOM     12  C   UNL     1      -4.613  -7.022   9.746  1.00  0.00    -0.000 C 
BRANCH  12  13
ATOM     13  C   UNL     1      -4.016  -7.971   8.697  1.00  0.00    -0.000 C 
BRANCH  13  14
ATOM     14  C   UNL     1      -4.404  -7.588   7.260  1.00  0.00    -0.000 C 
BRANCH  14  15
ATOM     15  C   UNL     1      -5.023  -8.760   6.482  1.00  0.00    -0.000 C 
BRANCH  15  16
ATOM     16  C   UNL     1      -5.835  -9.670   7.415  1.00  0.00    -0.000 C 
BRANCH  16  17
ATOM     17  C   UNL     1      -6.213 -11.006   6.758  1.00  0.00    -0.003 C 
ATOM     18  C   UNL     1      -6.341 -10.902   5.238  1.00  0.00     0.004 C 
ENDBRANCH  16  17
ENDBRANCH  15  16
ENDBRANCH  14  15
ENDBRANCH  13  14
ENDBRANCH  12  13
ENDBRANCH  11  12
ENDBRANCH   1  11
TORSDOF 14
ENDMDL
MODEL 2
REMARK VINA RESULT:    -3.753      4.419      8.160
REMARK INTER + INTRA:          -7.952
REMARK INTER:                  -6.270
REMARK INTRA:                  -1.682
REMARK UNBOUND:                -1.127
REMARK SMILES CCCCCCCCCCCCCCCC(=O)[O-]
REMARK SMILES IDX 9 1 10 2 11 3 12 4 13 5 14 6 15 7 16 8 17 9 18 10 8 11 7 12
REMARK SMILES IDX 6 13 5 14 4 15 3 16 2 17 1 18
REMARK H PARENT
REMARK Flexibility Score: inf
ROOT
ATOM      1  C   UNL     1      -3.723  -8.182   7.103  1.00  0.00     0.000 C 
ENDROOT
BRANCH   1   2
ATOM      2  C   UNL     1      -3.059  -8.650   8.403  1.00  0.00     0.000 C 
BRANCH   2   3
ATOM      3  C   UNL     1      -3.166 -10.174   8.557  1.00  0.00     0.000 C 
BRANCH   3   4
ATOM      4  C   UNL     1      -4.576 -10.636   8.969  1.00  0.00     0.000 C 
BRANCH   4   5
ATOM      5  C   UNL     1      -5.329 -11.460   7.905  1.00  0.00     0.000 C 
BRANCH   5   6
ATOM      6  C   UNL     1      -6.482 -10.720   7.197  1.00  0.00     0.006 C 
BRANCH   6   7
ATOM      7  C   UNL     1      -6.192 -10.344   5.736  1.00  0.00     0.053 C 
BRANCH   7   8
ATOM      8  C   UNL     1      -6.576 -11.440   4.790  1.00  0.00     0.041 C 
ATOM      9  O   UNL     1      -5.713 -12.270   4.398  1.00  0.00    -0.550 OA
ATOM     10  O   UNL     1      -7.879 -11.525   4.316  1.00  0.00    -0.550 OA
ENDBRANCH   7   8
ENDBRANCH   6   7
ENDBRANCH   5   6
ENDBRANCH   4   5
ENDBRANCH   3   4
ENDBRANCH   2   3
ENDBRANCH   1   2
BRANCH   1  11
ATOM     11  C   UNL     1      -4.849  -7.181   7.389  1.00  0.00     0.000 C 
BRANCH  11  12
ATOM     12  C   UNL     1      -4.992  -6.926   8.893  1.00  0.00    -0.000 C 
BRANCH  12  13
ATOM     13  C   UNL     1      -6.380  -7.351   9.394  1.00  0.00    -0.000 C 
BRANCH  13  14
ATOM     14  C   UNL     1      -7.283  -6.154   9.729  1.00  0.00    -0.000 C 
BRANCH  14  15
ATOM     15  C   UNL     1      -6.542  -4.810   9.641  1.00  0.00    -0.000 C 
BRANCH  15  16
ATOM     16  C   UNL     1      -7.319  -3.813   8.768  1.00  0.00    -0.000 C 
BRANCH  16  17
ATOM     17  C   UNL     1      -8.810  -3.746   9.132  1.00  0.00    -0.003 C 
ATOM     18  C   UNL     1      -9.719  -3.721   7.904  1.00  0.00     0.004 C 
ENDBRANCH  16  17
ENDBRANCH  15  16
ENDBRANCH  14  15
ENDBRANCH  13  14
ENDBRANCH  12  13
ENDBRANCH  11  12
ENDBRANCH   1  11
TORSDOF 14
ENDMDL
MODEL 3
REMARK VINA RESULT:    -3.743     12.838     15.400
REMARK INTER + INTRA:          -7.933
REMARK INTER:                  -7.077
REMARK INTRA:                  -0.857
REMARK UNBOUND:                -1.127
REMARK SMILES CCCCCCCCCCCCCCCC(=O)[O-]
REMARK SMILES IDX 9 1 10 2 11 3 12 4 13 5 14 6 15 7 16 8 17 9 18 10 8 11 7 12
REMARK SMILES IDX 6 13 5 14 4 15 3 16 2 17 1 18
REMARK H PARENT
REMARK Flexibility Score: inf
ROOT
ATOM      1  C   UNL     1      -8.184  -4.898  -4.627  1.00  0.00     0.000 C 
ENDROOT
BRANCH   1   2
ATOM      2  C   UNL     1      -9.381  -5.844  -4.486  1.00  0.00     0.000 C 
BRANCH   2   3
ATOM      3  C   UNL     1      -8.925  -7.253  -4.079  1.00  0.00     0.000 C 
BRANCH   3   4
ATOM      4  C   UNL     1      -9.802  -8.363  -4.684  1.00  0.00     0.000 C 
BRANCH   4   5
ATOM      5  C   UNL     1      -9.330  -9.801  -4.387  1.00  0.00     0.000 C 
BRANCH   5   6
ATOM      6  C   UNL     1      -9.887 -10.419  -3.088  1.00  0.00     0.006 C 
BRANCH   6   7
ATOM      7  C   UNL     1      -9.249 -11.762  -2.700  1.00  0.00     0.053 C 
BRANCH   7   8
ATOM      8  C   UNL     1      -8.338 -11.626  -1.518  1.00  0.00     0.041 C 
ATOM      9  O   UNL     1      -8.454 -10.645  -0.737  1.00  0.00    -0.550 OA
ATOM     10  O   UNL     1      -7.338 -12.565  -1.300  1.00  0.00    -0.550 OA
ENDBRANCH   7   8
ENDBRANCH   6   7
ENDBRANCH   5   6
ENDBRANCH   4   5
ENDBRANCH   3   4
ENDBRANCH   2   3
ENDBRANCH   1   2
BRANCH   1  11
ATOM     11  C   UNL     1      -8.335  -3.676  -3.714  1.00  0.00     0.000 C 
BRANCH  11  12
ATOM     12  C   UNL     1      -9.157  -2.575  -4.395  1.00  0.00    -0.000 C 
BRANCH  12  13
ATOM     13  C   UNL     1      -8.427  -2.029  -5.630  1.00  0.00    -0.000 C 
BRANCH  13  14
ATOM     14  C   UNL     1      -9.353  -1.870  -6.846  1.00  0.00    -0.000 C 
BRANCH  14  15
ATOM     15  C   UNL     1      -8.784  -2.524  -8.115  1.00  0.00    -0.000 C 
BRANCH  15  16
ATOM     16  C   UNL     1      -7.517  -3.330  -7.794  1.00  0.00    -0.000 C 
BRANCH  16  17
ATOM     17  C   UNL     1      -6.745  -3.746  -9.056  1.00  0.00    -0.003 C 
ATOM     18  C   UNL     1      -5.436  -2.977  -9.229  1.00  0.00     0.004 C 
ENDBRANCH  16  17
ENDBRANCH  15  16
ENDBRANCH  14  15
ENDBRANCH  13  14
ENDBRANCH  12  13
ENDBRANCH  11  12
ENDBRANCH   1  11
TORSDOF 14
ENDMDL
MODEL 4
REMARK VINA RESULT:    -3.737      5.493      7.795
REMARK INTER + INTRA:          -7.923
REMARK INTER:                  -6.052
REMARK INTRA:                  -1.871
REMARK UNBOUND:                -1.127
REMARK SMILES CCCCCCCCCCCCCCCC(=O)[O-]
REMARK SMILES IDX 9 1 10 2 11 3 12 4 13 5 14 6 15 7 16 8 17 9 18 10 8 11 7 12
REMARK SMILES IDX 6 13 5 14 4 15 3 16 2 17 1 18
REMARK H PARENT
REMARK Flexibility Score: inf
ROOT
ATOM      1  C   UNL     1      -4.878  -7.610   7.485  1.00  0.00     0.000 C 
ENDROOT
BRANCH   1   2
ATOM      2  C   UNL     1      -3.509  -8.299   7.503  1.00  0.00     0.000 C 
BRANCH   2   3
ATOM      3  C   UNL     1      -3.583  -9.652   8.225  1.00  0.00     0.000 C 
BRANCH   3   4
ATOM      4  C   UNL     1      -2.804  -9.665   9.552  1.00  0.00     0.000 C 
BRANCH   4   5
ATOM      5  C   UNL     1      -1.982  -8.392   9.839  1.00  0.00     0.000 C 
BRANCH   5   6
ATOM      6  C   UNL     1      -0.453  -8.562   9.733  1.00  0.00     0.006 C 
BRANCH   6   7
ATOM      7  C   UNL     1       0.006  -9.462   8.575  1.00  0.00     0.053 C 
BRANCH   7   8
ATOM      8  C   UNL     1       1.478  -9.339   8.322  1.00  0.00     0.041 C 
ATOM      9  O   UNL     1       2.275  -9.180   9.284  1.00  0.00    -0.550 OA
ATOM     10  O   UNL     1       1.965  -9.366   7.022  1.00  0.00    -0.550 OA
ENDBRANCH   7   8
ENDBRANCH   6   7
ENDBRANCH   5   6
ENDBRANCH   4   5
ENDBRANCH   3   4
ENDBRANCH   2   3
ENDBRANCH   1   2
BRANCH   1  11
ATOM     11  C   UNL     1      -5.082  -6.756   8.742  1.00  0.00     0.000 C 
BRANCH  11  12
ATOM     12  C   UNL     1      -6.453  -7.022   9.374  1.00  0.00    -0.000 C 
BRANCH  12  13
ATOM     13  C   UNL     1      -6.519  -8.435   9.970  1.00  0.00    -0.000 C 
BRANCH  13  14
ATOM     14  C   UNL     1      -7.666  -9.273   9.385  1.00  0.00    -0.000 C 
BRANCH  14  15
ATOM     15  C   UNL     1      -7.166 -10.469   8.559  1.00  0.00    -0.000 C 
BRANCH  15  16
ATOM     16  C   UNL     1      -7.350 -10.212   7.056  1.00  0.00    -0.000 C 
BRANCH  16  17
ATOM     17  C   UNL     1      -6.258 -10.876   6.205  1.00  0.00    -0.003 C 
ATOM     18  C   UNL     1      -6.748 -11.265   4.811  1.00  0.00     0.004 C 
ENDBRANCH  16  17
ENDBRANCH  15  16
ENDBRANCH  14  15
ENDBRANCH  13  14
ENDBRANCH  12  13
ENDBRANCH  11  12
ENDBRANCH   1  11
TORSDOF 14
ENDMDL
MODEL 5
REMARK VINA RESULT:    -3.736     15.024     16.795
REMARK INTER + INTRA:          -7.920
REMARK INTER:                  -6.527
REMARK INTRA:                  -1.394
REMARK UNBOUND:                -1.127
REMARK SMILES CCCCCCCCCCCCCCCC(=O)[O-]
REMARK SMILES IDX 9 1 10 2 11 3 12 4 13 5 14 6 15 7 16 8 17 9 18 10 8 11 7 12
REMARK SMILES IDX 6 13 5 14 4 15 3 16 2 17 1 18
REMARK H PARENT
REMARK Flexibility Score: inf
ROOT
ATOM      1  C   UNL     1      -8.568   6.941  -1.844  1.00  0.00     0.000 C 
ENDROOT
BRANCH   1   2
ATOM      2  C   UNL     1      -8.138   6.408  -0.473  1.00  0.00     0.000 C 
BRANCH   2   3
ATOM      3  C   UNL     1      -6.609   6.325  -0.369  1.00  0.00     0.000 C 
BRANCH   3   4
ATOM      4  C   UNL     1      -5.900   6.663  -1.693  1.00  0.00     0.000 C 
BRANCH   4   5
ATOM      5  C   UNL     1      -4.927   5.583  -2.207  1.00  0.00     0.000 C 
BRANCH   5   6
ATOM      6  C   UNL     1      -3.593   6.116  -2.767  1.00  0.00     0.006 C 
BRANCH   6   7
ATOM      7  C   UNL     1      -2.710   6.830  -1.731  1.00  0.00     0.053 C 
BRANCH   7   8
ATOM      8  C   UNL     1      -1.998   5.858  -0.840  1.00  0.00     0.041 C 
ATOM      9  O   UNL     1      -1.056   5.155  -1.292  1.00  0.00    -0.550 OA
ATOM     10  O   UNL     1      -2.399   5.705   0.481  1.00  0.00    -0.550 OA
ENDBRANCH   7   8
ENDBRANCH   6   7
ENDBRANCH   5   6
ENDBRANCH   4   5
ENDBRANCH   3   4
ENDBRANCH   2   3
ENDBRANCH   1   2
BRANCH   1  11
ATOM     11  C   UNL     1      -9.647   6.048  -2.469  1.00  0.00     0.000 C 
BRANCH  11  12
ATOM     12  C   UNL     1      -9.411   5.867  -3.973  1.00  0.00    -0.000 C 
BRANCH  12  13
ATOM     13  C   UNL     1      -8.079   6.500  -4.401  1.00  0.00    -0.000 C 
BRANCH  13  14
ATOM     14  C   UNL     1      -7.532   5.905  -5.708  1.00  0.00    -0.000 C 
BRANCH  14  15
ATOM     15  C   UNL     1      -6.085   5.405  -5.571  1.00  0.00    -0.000 C 
BRANCH  15  16
ATOM     16  C   UNL     1      -5.907   4.047  -6.266  1.00  0.00    -0.000 C 
BRANCH  16  17
ATOM     17  C   UNL     1      -4.815   4.076  -7.347  1.00  0.00    -0.003 C 
ATOM     18  C   UNL     1      -5.367   4.380  -8.739  1.00  0.00     0.004 C 
ENDBRANCH  16  17
ENDBRANCH  15  16
ENDBRANCH  14  15
ENDBRANCH  13  14
ENDBRANCH  12  13
ENDBRANCH  11  12
ENDBRANCH   1  11
TORSDOF 14
ENDMDL
MODEL 6
REMARK VINA RESULT:    -3.688     16.351     19.014
REMARK INTER + INTRA:          -7.833
REMARK INTER:                  -6.979
REMARK INTRA:                  -0.854
REMARK UNBOUND:                -1.127
REMARK SMILES CCCCCCCCCCCCCCCC(=O)[O-]
REMARK SMILES IDX 9 1 10 2 11 3 12 4 13 5 14 6 15 7 16 8 17 9 18 10 8 11 7 12
REMARK SMILES IDX 6 13 5 14 4 15 3 16 2 17 1 18
REMARK H PARENT
REMARK Flexibility Score: inf
ROOT
ATOM      1  C   UNL     1      -5.332   5.196  -5.588  1.00  0.00     0.000 C 
ENDROOT
BRANCH   1   2
ATOM      2  C   UNL     1      -6.058   4.073  -6.337  1.00  0.00     0.000 C 
BRANCH   2   3
ATOM      3  C   UNL     1      -5.811   4.170  -7.849  1.00  0.00     0.000 C 
BRANCH   3   4
ATOM      4  C   UNL     1      -4.420   4.731  -8.193  1.00  0.00     0.000 C 
BRANCH   4   5
ATOM      5  C   UNL     1      -4.038   4.659  -9.686  1.00  0.00     0.000 C 
BRANCH   5   6
ATOM      6  C   UNL     1      -2.842   3.742 -10.013  1.00  0.00     0.006 C 
BRANCH   6   7
ATOM      7  C   UNL     1      -1.488   4.259  -9.502  1.00  0.00     0.053 C 
BRANCH   7   8
ATOM      8  C   UNL     1      -0.542   3.138  -9.194  1.00  0.00     0.041 C 
ATOM      9  O   UNL     1      -0.517   2.112  -9.923  1.00  0.00    -0.550 OA
ATOM     10  O   UNL     1       0.286   3.214  -8.081  1.00  0.00    -0.550 OA
ENDBRANCH   7   8
ENDBRANCH   6   7
ENDBRANCH   5   6
ENDBRANCH   4   5
ENDBRANCH   3   4
ENDBRANCH   2   3
ENDBRANCH   1   2
BRANCH   1  11
ATOM     11  C   UNL     1      -6.331   6.149  -4.920  1.00  0.00     0.000 C 
BRANCH  11  12
ATOM     12  C   UNL     1      -5.682   6.897  -3.750  1.00  0.00    -0.000 C 
BRANCH  12  13
ATOM     13  C   UNL     1      -6.254   6.419  -2.407  1.00  0.00    -0.000 C 
BRANCH  13  14
ATOM     14  C   UNL     1      -5.160   6.080  -1.383  1.00  0.00    -0.000 C 
BRANCH  14  15
ATOM     15  C   UNL     1      -3.841   5.651  -2.045  1.00  0.00    -0.000 C 
BRANCH  15  16
ATOM     16  C   UNL     1      -2.785   5.302  -0.985  1.00  0.00    -0.000 C 
BRANCH  16  17
ATOM     17  C   UNL     1      -1.355   5.614  -1.451  1.00  0.00    -0.003 C 
ATOM     18  C   UNL     1      -1.317   6.404  -2.759  1.00  0.00     0.004 C 
ENDBRANCH  16  17
ENDBRANCH  15  16
ENDBRANCH  14  15
ENDBRANCH  13  14
ENDBRANCH  12  13
ENDBRANCH  11  12
ENDBRANCH   1  11
TORSDOF 14
ENDMDL
MODEL 7
REMARK VINA RESULT:    -3.632     13.943     16.485
REMARK INTER + INTRA:          -7.731
REMARK INTER:                  -6.487
REMARK INTRA:                  -1.244
REMARK UNBOUND:                -1.127
REMARK SMILES CCCCCCCCCCCCCCCC(=O)[O-]
REMARK SMILES IDX 9 1 10 2 11 3 12 4 13 5 14 6 15 7 16 8 17 9 18 10 8 11 7 12
REMARK SMILES IDX 6 13 5 14 4 15 3 16 2 17 1 18
REMARK H PARENT
REMARK Flexibility Score: inf
ROOT
ATOM      1  C   UNL     1      -8.465  -5.406  -4.498  1.00  0.00     0.000 C 
ENDROOT
BRANCH   1   2
ATOM      2  C   UNL     1      -9.865  -5.928  -4.157  1.00  0.00     0.000 C 
BRANCH   2   3
ATOM      3  C   UNL     1     -10.086  -7.331  -4.741  1.00  0.00     0.000 C 
BRANCH   3   4
ATOM      4  C   UNL     1      -9.020  -8.342  -4.288  1.00  0.00     0.000 C 
BRANCH   4   5
ATOM      5  C   UNL     1      -9.363  -9.821  -4.563  1.00  0.00     0.000 C 
BRANCH   5   6
ATOM      6  C   UNL     1      -9.740 -10.145  -6.022  1.00  0.00     0.006 C 
BRANCH   6   7
ATOM      7  C   UNL     1      -9.378 -11.570  -6.469  1.00  0.00     0.053 C 
BRANCH   7   8
ATOM      8  C   UNL     1      -9.103 -11.641  -7.940  1.00  0.00     0.041 C 
ATOM      9  O   UNL     1      -8.251 -10.876  -8.464  1.00  0.00    -0.550 OA
ATOM     10  O   UNL     1      -9.814 -12.529  -8.738  1.00  0.00    -0.550 OA
ENDBRANCH   7   8
ENDBRANCH   6   7
ENDBRANCH   5   6
ENDBRANCH   4   5
ENDBRANCH   3   4
ENDBRANCH   2   3
ENDBRANCH   1   2
BRANCH   1  11
ATOM     11  C   UNL     1      -8.224  -4.025  -3.875  1.00  0.00     0.000 C 
BRANCH  11  12
ATOM     12  C   UNL     1      -9.545  -3.378  -3.440  1.00  0.00    -0.000 C 
BRANCH  12  13
ATOM     13  C   UNL     1     -10.009  -2.332  -4.463  1.00  0.00    -0.000 C 
BRANCH  13  14
ATOM     14  C   UNL     1      -8.879  -1.875  -5.399  1.00  0.00    -0.000 C 
BRANCH  14  15
ATOM     15  C   UNL     1      -9.311  -1.831  -6.873  1.00  0.00    -0.000 C 
BRANCH  15  16
ATOM     16  C   UNL     1      -9.294  -3.237  -7.490  1.00  0.00    -0.000 C 
BRANCH  16  17
ATOM     17  C   UNL     1      -7.870  -3.751  -7.750  1.00  0.00    -0.003 C 
ATOM     18  C   UNL     1      -7.257  -3.177  -9.027  1.00  0.00     0.004 C 
ENDBRANCH  16  17
ENDBRANCH  15  16
ENDBRANCH  14  15
ENDBRANCH  13  14
ENDBRANCH  12  13
ENDBRANCH  11  12
ENDBRANCH   1  11
TORSDOF 14
ENDMDL
MODEL 8
REMARK VINA RESULT:    -3.597     14.234     16.522
REMARK INTER + INTRA:          -7.668
REMARK INTER:                  -5.249
REMARK INTRA:                  -2.418
REMARK UNBOUND:                -1.127
REMARK SMILES CCCCCCCCCCCCCCCC(=O)[O-]
REMARK SMILES IDX 9 1 10 2 11 3 12 4 13 5 14 6 15 7 16 8 17 9 18 10 8 11 7 12
REMARK SMILES IDX 6 13 5 14 4 15 3 16 2 17 1 18
REMARK H PARENT
REMARK Flexibility Score: inf
ROOT
ATOM      1  C   UNL     1       3.890   2.390   8.504  1.00  0.00     0.000 C 
ENDROOT
BRANCH   1   2
ATOM      2  C   UNL     1       4.270   0.918   8.705  1.00  0.00     0.000 C 
BRANCH   2   3
ATOM      3  C   UNL     1       5.716   0.785   9.204  1.00  0.00     0.000 C 
BRANCH   3   4
ATOM      4  C   UNL     1       6.541  -0.221   8.383  1.00  0.00     0.000 C 
BRANCH   4   5
ATOM      5  C   UNL     1       7.992   0.212   8.089  1.00  0.00     0.000 C 
BRANCH   5   6
ATOM      6  C   UNL     1       8.712  -0.608   6.999  1.00  0.00     0.006 C 
BRANCH   6   7
ATOM      7  C   UNL     1       9.393   0.239   5.913  1.00  0.00     0.053 C 
BRANCH   7   8
ATOM      8  C   UNL     1       8.792   0.002   4.561  1.00  0.00     0.041 C 
ATOM      9  O   UNL     1       8.990   0.823   3.627  1.00  0.00    -0.550 OA
ATOM     10  O   UNL     1       7.985  -1.107   4.345  1.00  0.00    -0.550 OA
ENDBRANCH   7   8
ENDBRANCH   6   7
ENDBRANCH   5   6
ENDBRANCH   4   5
ENDBRANCH   3   4
ENDBRANCH   2   3
ENDBRANCH   1   2
BRANCH   1  11
ATOM     11  C   UNL     1       5.008   3.319   8.993  1.00  0.00     0.000 C 
BRANCH  11  12
ATOM     12  C   UNL     1       4.901   4.702   8.341  1.00  0.00    -0.000 C 
BRANCH  12  13
ATOM     13  C   UNL     1       6.175   5.040   7.554  1.00  0.00    -0.000 C 
BRANCH  13  14
ATOM     14  C   UNL     1       7.184   3.881   7.531  1.00  0.00    -0.000 C 
BRANCH  14  15
ATOM     15  C   UNL     1       7.456   3.359   6.111  1.00  0.00    -0.000 C 
BRANCH  15  16
ATOM     16  C   UNL     1       6.341   2.406   5.656  1.00  0.00    -0.000 C 
BRANCH  16  17
ATOM     17  C   UNL     1       5.952   2.612   4.184  1.00  0.00    -0.003 C 
ATOM     18  C   UNL     1       5.947   4.085   3.773  1.00  0.00     0.004 C 
ENDBRANCH  16  17
ENDBRANCH  15  16
ENDBRANCH  14  15
ENDBRANCH  13  14
ENDBRANCH  12  13
ENDBRANCH  11  12
ENDBRANCH   1  11
TORSDOF 14
ENDMDL
MODEL 9
REMARK VINA RESULT:    -3.592      6.033      7.826
REMARK INTER + INTRA:          -7.659
REMARK INTER:                  -5.897
REMARK INTRA:                  -1.762
REMARK UNBOUND:                -1.127
REMARK SMILES CCCCCCCCCCCCCCCC(=O)[O-]
REMARK SMILES IDX 9 1 10 2 11 3 12 4 13 5 14 6 15 7 16 8 17 9 18 10 8 11 7 12
REMARK SMILES IDX 6 13 5 14 4 15 3 16 2 17 1 18
REMARK H PARENT
REMARK Flexibility Score: inf
ROOT
ATOM      1  C   UNL     1      -5.350  -9.200   6.448  1.00  0.00     0.000 C 
ENDROOT
BRANCH   1   2
ATOM      2  C   UNL     1      -4.351  -8.076   6.747  1.00  0.00     0.000 C 
BRANCH   2   3
ATOM      3  C   UNL     1      -4.601  -7.473   8.137  1.00  0.00     0.000 C 
BRANCH   3   4
ATOM      4  C   UNL     1      -3.585  -7.952   9.188  1.00  0.00     0.000 C 
BRANCH   4   5
ATOM      5  C   UNL     1      -2.517  -8.935   8.664  1.00  0.00     0.000 C 
BRANCH   5   6
ATOM      6  C   UNL     1      -1.338  -9.193   9.623  1.00  0.00     0.006 C 
BRANCH   6   7
ATOM      7  C   UNL     1       0.015  -8.662   9.122  1.00  0.00     0.053 C 
BRANCH   7   8
ATOM      8  C   UNL     1       0.747  -9.682   8.304  1.00  0.00     0.041 C 
ATOM      9  O   UNL     1       0.462 -10.904   8.411  1.00  0.00    -0.550 OA
ATOM     10  O   UNL     1       1.767  -9.285   7.449  1.00  0.00    -0.550 OA
ENDBRANCH   7   8
ENDBRANCH   6   7
ENDBRANCH   5   6
ENDBRANCH   4   5
ENDBRANCH   3   4
ENDBRANCH   2   3
ENDBRANCH   1   2
BRANCH   1  11
ATOM     11  C   UNL     1      -6.404  -9.310   7.556  1.00  0.00     0.000 C 
BRANCH  11  12
ATOM     12  C   UNL     1      -6.368 -10.693   8.217  1.00  0.00    -0.000 C 
BRANCH  12  13
ATOM     13  C   UNL     1      -5.362 -11.613   7.512  1.00  0.00    -0.000 C 
BRANCH  13  14
ATOM     14  C   UNL     1      -6.033 -12.815   6.829  1.00  0.00    -0.000 C 
BRANCH  14  15
ATOM     15  C   UNL     1      -6.298 -12.576   5.334  1.00  0.00    -0.000 C 
BRANCH  15  16
ATOM     16  C   UNL     1      -7.805 -12.514   5.048  1.00  0.00    -0.000 C 
BRANCH  16  17
ATOM     17  C   UNL     1      -8.294 -11.087   4.758  1.00  0.00    -0.003 C 
ATOM     18  C   UNL     1      -9.332 -10.600   5.769  1.00  0.00     0.004 C 
ENDBRANCH  16  17
ENDBRANCH  15  16
ENDBRANCH  14  15
ENDBRANCH  13  14
ENDBRANCH  12  13
ENDBRANCH  11  12
ENDBRANCH   1  11
TORSDOF 14
ENDMDL
