MODEL 1
REMARK VINA RESULT:    -2.810      0.000      0.000
REMARK INTER + INTRA:          -3.454
REMARK INTER:                  -4.371
REMARK INTRA:                   0.917
REMARK UNBOUND:                 0.917
REMARK SMILES C=C(C)[C@H]1CC=C2C(=CC[C@@]3(C)[C@@H]([C@H](CCC=C(C)C)C(=O)[O-])[C@@H](O)C[C@@]23C)[C@]1(C)CCC(=O)[O-]
REMARK SMILES IDX 29 1 8 2 4 3 30 4 7 5 9 6 5 7 27 8 6 9 10 10 11 11 26 12
REMARK SMILES IDX 28 13 13 14 12 15 24 16 31 17 32 18 33 19 34 20 35 21 2 22
REMARK SMILES IDX 1 23 3 24 14 25 21 26 22 27 23 28 15 29 16 30 17 31 18 32
REMARK SMILES IDX 19 33 20 34 25 35
REMARK H PARENT 25 36
REMARK Flexibility Score: inf
ROOT
ATOM      1  C   UNL     1     100.555 115.542 122.230  1.00  0.00    -0.000 C 
ATOM      2  C   UNL     1     100.523 115.329 120.700  1.00  0.00    -0.042 C 
ATOM      3  C   UNL     1     101.349 116.868 122.534  1.00  0.00     0.028 C 
ATOM      4  C   UNL     1     101.241 114.294 122.837  1.00  0.00     0.017 C 
ATOM      5  C   UNL     1     101.657 115.802 119.840  1.00  0.00    -0.042 C 
ATOM      6  C   UNL     1      99.537 114.626 120.123  1.00  0.00    -0.022 C 
ATOM      7  C   UNL     1     102.706 116.919 121.818  1.00  0.00     0.036 C 
ATOM      8  C   UNL     1     101.774 115.373 118.359  1.00  0.00     0.001 C 
ATOM      9  C   UNL     1     102.571 116.650 120.354  1.00  0.00    -0.022 C 
ATOM     10  C   UNL     1      99.359 114.600 118.642  1.00  0.00     0.035 C 
ATOM     11  C   UNL     1     100.691 114.318 117.906  1.00  0.00    -0.014 C 
ATOM     12  C   UNL     1     101.509 116.592 117.444  1.00  0.00     0.044 C 
ATOM     13  C   UNL     1     103.219 114.841 118.096  1.00  0.00     0.017 C 
ATOM     14  C   UNL     1     100.580 114.580 116.371  1.00  0.00     0.034 C 
ATOM     15  C   UNL     1     101.098 112.844 118.180  1.00  0.00     0.013 C 
ATOM     16  C   UNL     1     100.803 116.094 116.172  1.00  0.00     0.119 C 
ENDROOT
BRANCH   1  17
ATOM     17  C   UNL     1      99.119 115.645 122.867  1.00  0.00     0.018 C 
BRANCH  17  18
ATOM     18  C   UNL     1      98.384 116.982 122.639  1.00  0.00     0.053 C 
BRANCH  18  19
ATOM     19  C   UNL     1      98.286 117.747 123.920  1.00  0.00     0.041 C 
ATOM     20  O   UNL     1      98.083 117.140 125.003  1.00  0.00    -0.550 OA
ATOM     21  O   UNL     1      98.378 119.134 123.912  1.00  0.00    -0.550 OA
ENDBRANCH  18  19
ENDBRANCH  17  18
ENDBRANCH   1  17
BRANCH   3  22
ATOM     22  C   UNL     1     101.503 117.214 124.020  1.00  0.00    -0.076 C 
ATOM     23  C   UNL     1     101.452 116.276 124.983  1.00  0.00     0.008 C 
ATOM     24  C   UNL     1     101.797 118.634 124.438  1.00  0.00     0.039 C 
ENDBRANCH   3  22
BRANCH  14  25
ATOM     25  C   UNL     1      99.456 113.877 115.526  1.00  0.00     0.042 C 
BRANCH  25  26
ATOM     26  C   UNL     1      99.206 114.428 114.140  1.00  0.00     0.045 C 
ATOM     27  O   UNL     1     100.145 114.458 113.304  1.00  0.00    -0.550 OA
ATOM     28  O   UNL     1      97.984 114.995 113.796  1.00  0.00    -0.550 OA
ENDBRANCH  25  26
BRANCH  25  29
ATOM     29  C   UNL     1      99.693 112.349 115.447  1.00  0.00     0.014 C 
BRANCH  29  30
ATOM     30  C   UNL     1      98.772 111.666 114.424  1.00  0.00     0.028 C 
BRANCH  30  31
ATOM     31  C   UNL     1      99.496 111.474 113.114  1.00  0.00    -0.028 C 
ATOM     32  C   UNL     1      99.004 111.856 111.913  1.00  0.00    -0.080 C 
ATOM     33  C   UNL     1      99.870 111.691 110.689  1.00  0.00     0.039 C 
ATOM     34  C   UNL     1      97.610 112.426 111.767  1.00  0.00     0.039 C 
ENDBRANCH  30  31
ENDBRANCH  29  30
ENDBRANCH  25  29
ENDBRANCH  14  25
BRANCH  16  35
ATOM     35  O   UNL     1      99.594 116.782 115.996  1.00  0.00    -0.393 OA
ATOM     36  H   UNL     1      99.635 117.583 116.582  1.00  0.00     0.210 HD
ENDBRANCH  16  35
TORSDOF 10
ENDMDL
MODEL 2
REMARK VINA RESULT:    -2.543      3.109      8.881
REMARK INTER + INTRA:          -3.039
REMARK INTER:                  -4.742
REMARK INTRA:                   1.703
REMARK UNBOUND:                 0.917
REMARK SMILES C=C(C)[C@H]1CC=C2C(=CC[C@@]3(C)[C@@H]([C@H](CCC=C(C)C)C(=O)[O-])[C@@H](O)C[C@@]23C)[C@]1(C)CCC(=O)[O-]
REMARK SMILES IDX 29 1 8 2 4 3 30 4 7 5 9 6 5 7 27 8 6 9 10 10 11 11 26 12
REMARK SMILES IDX 28 13 13 14 12 15 24 16 31 17 32 18 33 19 34 20 35 21 2 22
REMARK SMILES IDX 1 23 3 24 14 25 21 26 22 27 23 28 15 29 16 30 17 31 18 32
REMARK SMILES IDX 19 33 20 34 25 35
REMARK H PARENT 25 36
REMARK Flexibility Score: inf
ROOT
ATOM      1  C   UNL     1      99.598 111.895 117.955  1.00  0.00    -0.000 C 
ATOM      2  C   UNL     1      99.902 113.025 118.966  1.00  0.00    -0.042 C 
ATOM      3  C   UNL     1     100.123 112.338 116.538  1.00  0.00     0.028 C 
ATOM      4  C   UNL     1      98.064 111.685 117.975  1.00  0.00     0.017 C 
ATOM      5  C   UNL     1      99.918 114.458 118.526  1.00  0.00    -0.042 C 
ATOM      6  C   UNL     1     100.052 112.758 120.272  1.00  0.00    -0.022 C 
ATOM      7  C   UNL     1      99.644 113.742 116.144  1.00  0.00     0.036 C 
ATOM      8  C   UNL     1      99.956 115.613 119.554  1.00  0.00     0.001 C 
ATOM      9  C   UNL     1      99.940 114.748 117.209  1.00  0.00    -0.022 C 
ATOM     10  C   UNL     1     100.567 113.784 121.225  1.00  0.00     0.035 C 
ATOM     11  C   UNL     1      99.844 115.142 121.056  1.00  0.00    -0.014 C 
ATOM     12  C   UNL     1     101.331 116.319 119.488  1.00  0.00     0.044 C 
ATOM     13  C   UNL     1      98.835 116.644 119.205  1.00  0.00     0.017 C 
ATOM     14  C   UNL     1     100.567 116.290 121.829  1.00  0.00     0.034 C 
ATOM     15  C   UNL     1      98.382 114.983 121.557  1.00  0.00     0.013 C 
ATOM     16  C   UNL     1     101.698 116.790 120.906  1.00  0.00     0.119 C 
ENDROOT
BRANCH   1  17
ATOM     17  C   UNL     1     100.265 110.524 118.346  1.00  0.00     0.018 C 
BRANCH  17  18
ATOM     18  C   UNL     1     101.389 110.607 119.400  1.00  0.00     0.053 C 
BRANCH  18  19
ATOM     19  C   UNL     1     101.812 109.235 119.818  1.00  0.00     0.041 C 
ATOM     20  O   UNL     1     100.953 108.401 120.205  1.00  0.00    -0.550 OA
ATOM     21  O   UNL     1     103.159 108.892 119.821  1.00  0.00    -0.550 OA
ENDBRANCH  18  19
ENDBRANCH  17  18
ENDBRANCH   1  17
BRANCH   3  22
ATOM     22  C   UNL     1      99.871 111.337 115.404  1.00  0.00    -0.076 C 
ATOM     23  C   UNL     1      99.552 110.052 115.640  1.00  0.00     0.008 C 
ATOM     24  C   UNL     1      99.903 111.800 113.968  1.00  0.00     0.039 C 
ENDBRANCH   3  22
BRANCH  14  25
ATOM     25  C   UNL     1     100.870 116.144 123.364  1.00  0.00     0.042 C 
BRANCH  25  26
ATOM     26  C   UNL     1     101.884 117.103 123.949  1.00  0.00     0.045 C 
ATOM     27  O   UNL     1     102.169 117.037 125.171  1.00  0.00    -0.550 OA
ATOM     28  O   UNL     1     102.437 118.125 123.185  1.00  0.00    -0.550 OA
ENDBRANCH  25  26
BRANCH  25  29
ATOM     29  C   UNL     1      99.566 116.191 124.196  1.00  0.00     0.014 C 
BRANCH  29  30
ATOM     30  C   UNL     1      98.596 117.276 123.704  1.00  0.00     0.028 C 
BRANCH  30  31
ATOM     31  C   UNL     1      98.939 118.607 124.327  1.00  0.00    -0.028 C 
ATOM     32  C   UNL     1      98.400 119.786 123.940  1.00  0.00    -0.080 C 
ATOM     33  C   UNL     1      98.759 121.034 124.708  1.00  0.00     0.039 C 
ATOM     34  C   UNL     1      97.466 119.886 122.753  1.00  0.00     0.039 C 
ENDBRANCH  30  31
ENDBRANCH  29  30
ENDBRANCH  25  29
ENDBRANCH  14  25
BRANCH  16  35
ATOM     35  O   UNL     1     102.945 116.266 121.276  1.00  0.00    -0.393 OA
ATOM     36  H   UNL     1     103.437 117.001 121.730  1.00  0.00     0.210 HD
ENDBRANCH  16  35
TORSDOF 10
ENDMDL
MODEL 3
REMARK VINA RESULT:    -2.466      3.324      5.961
REMARK INTER + INTRA:          -2.919
REMARK INTER:                  -2.460
REMARK INTRA:                  -0.459
REMARK UNBOUND:                 0.917
REMARK SMILES C=C(C)[C@H]1CC=C2C(=CC[C@@]3(C)[C@@H]([C@H](CCC=C(C)C)C(=O)[O-])[C@@H](O)C[C@@]23C)[C@]1(C)CCC(=O)[O-]
REMARK SMILES IDX 29 1 8 2 4 3 30 4 7 5 9 6 5 7 27 8 6 9 10 10 11 11 26 12
REMARK SMILES IDX 28 13 13 14 12 15 24 16 31 17 32 18 33 19 34 20 35 21 2 22
REMARK SMILES IDX 1 23 3 24 14 25 21 26 22 27 23 28 15 29 16 30 17 31 18 32
REMARK SMILES IDX 19 33 20 34 25 35
REMARK H PARENT 25 36
REMARK Flexibility Score: inf
ROOT
ATOM      1  C   UNL     1     100.446 115.332 117.394  1.00  0.00    -0.000 C 
ATOM      2  C   UNL     1     100.002 114.554 116.134  1.00  0.00    -0.042 C 
ATOM      3  C   UNL     1     100.687 114.301 118.559  1.00  0.00     0.028 C 
ATOM      4  C   UNL     1      99.309 116.332 117.719  1.00  0.00     0.017 C 
ATOM      5  C   UNL     1      99.216 113.284 116.260  1.00  0.00    -0.042 C 
ATOM      6  C   UNL     1     100.218 115.050 114.907  1.00  0.00    -0.022 C 
ATOM      7  C   UNL     1      99.509 113.334 118.744  1.00  0.00     0.036 C 
ATOM      8  C   UNL     1      98.540 112.633 115.030  1.00  0.00     0.001 C 
ATOM      9  C   UNL     1      99.128 112.673 117.459  1.00  0.00    -0.022 C 
ATOM     10  C   UNL     1     100.010 114.224 113.682  1.00  0.00     0.035 C 
ATOM     11  C   UNL     1      98.648 113.487 113.708  1.00  0.00    -0.014 C 
ATOM     12  C   UNL     1      99.265 111.312 114.680  1.00  0.00     0.044 C 
ATOM     13  C   UNL     1      97.048 112.321 115.375  1.00  0.00     0.017 C 
ATOM     14  C   UNL     1      98.549 112.401 112.591  1.00  0.00     0.034 C 
ATOM     15  C   UNL     1      97.520 114.542 113.547  1.00  0.00     0.013 C 
ATOM     16  C   UNL     1      99.231 111.137 113.152  1.00  0.00     0.119 C 
ENDROOT
BRANCH   1  17
ATOM     17  C   UNL     1     101.758 116.171 117.168  1.00  0.00     0.018 C 
BRANCH  17  18
ATOM     18  C   UNL     1     103.007 115.358 116.770  1.00  0.00     0.053 C 
BRANCH  18  19
ATOM     19  C   UNL     1     104.247 116.160 117.006  1.00  0.00     0.041 C 
ATOM     20  O   UNL     1     104.663 116.953 116.122  1.00  0.00    -0.550 OA
ATOM     21  O   UNL     1     104.966 116.002 118.186  1.00  0.00    -0.550 OA
ENDBRANCH  18  19
ENDBRANCH  17  18
ENDBRANCH   1  17
BRANCH   3  22
ATOM     22  C   UNL     1     101.105 114.915 119.901  1.00  0.00    -0.076 C 
ATOM     23  C   UNL     1     101.981 115.932 119.981  1.00  0.00     0.008 C 
ATOM     24  C   UNL     1     100.472 114.430 121.183  1.00  0.00     0.039 C 
ENDBRANCH   3  22
BRANCH  14  25
ATOM     25  C   UNL     1      98.810 112.784 111.088  1.00  0.00     0.042 C 
BRANCH  25  26
ATOM     26  C   UNL     1     100.142 112.365 110.505  1.00  0.00     0.045 C 
ATOM     27  O   UNL     1     100.224 111.295 109.850  1.00  0.00    -0.550 OA
ATOM     28  O   UNL     1     101.303 113.087 110.760  1.00  0.00    -0.550 OA
ENDBRANCH  25  26
BRANCH  25  29
ATOM     29  C   UNL     1      97.661 112.286 110.179  1.00  0.00     0.014 C 
BRANCH  29  30
ATOM     30  C   UNL     1      96.316 112.945 110.520  1.00  0.00     0.028 C 
BRANCH  30  31
ATOM     31  C   UNL     1      95.487 112.026 111.383  1.00  0.00    -0.028 C 
ATOM     32  C   UNL     1      94.586 111.139 110.899  1.00  0.00    -0.080 C 
ATOM     33  C   UNL     1      93.890 110.212 111.864  1.00  0.00     0.039 C 
ATOM     34  C   UNL     1      94.250 111.068 109.425  1.00  0.00     0.039 C 
ENDBRANCH  30  31
ENDBRANCH  29  30
ENDBRANCH  25  29
ENDBRANCH  14  25
BRANCH  16  35
ATOM     35  O   UNL     1     100.535 110.984 112.659  1.00  0.00    -0.393 OA
ATOM     36  H   UNL     1     101.113 111.588 113.196  1.00  0.00     0.210 HD
ENDBRANCH  16  35
TORSDOF 10
ENDMDL
MODEL 4
REMARK VINA RESULT:    -2.331      1.985      8.845
REMARK INTER + INTRA:          -2.709
REMARK INTER:                  -2.105
REMARK INTRA:                  -0.604
REMARK UNBOUND:                 0.917
REMARK SMILES C=C(C)[C@H]1CC=C2C(=CC[C@@]3(C)[C@@H]([C@H](CCC=C(C)C)C(=O)[O-])[C@@H](O)C[C@@]23C)[C@]1(C)CCC(=O)[O-]
REMARK SMILES IDX 29 1 8 2 4 3 30 4 7 5 9 6 5 7 27 8 6 9 10 10 11 11 26 12
REMARK SMILES IDX 28 13 13 14 12 15 24 16 31 17 32 18 33 19 34 20 35 21 2 22
REMARK SMILES IDX 1 23 3 24 14 25 21 26 22 27 23 28 15 29 16 30 17 31 18 32
REMARK SMILES IDX 19 33 20 34 25 35
REMARK H PARENT 25 36
REMARK Flexibility Score: inf
ROOT
ATOM      1  C   UNL     1     100.951 115.222 117.083  1.00  0.00    -0.000 C 
ATOM      2  C   UNL     1     100.541 115.304 118.571  1.00  0.00    -0.042 C 
ATOM      3  C   UNL     1     100.248 113.969 116.439  1.00  0.00     0.028 C 
ATOM      4  C   UNL     1     102.495 115.109 117.054  1.00  0.00     0.017 C 
ATOM      5  C   UNL     1     100.247 114.058 119.351  1.00  0.00    -0.042 C 
ATOM      6  C   UNL     1     100.542 116.476 119.222  1.00  0.00    -0.022 C 
ATOM      7  C   UNL     1     100.449 112.691 117.264  1.00  0.00     0.036 C 
ATOM      8  C   UNL     1     100.095 114.091 120.889  1.00  0.00     0.001 C 
ATOM      9  C   UNL     1     100.072 112.891 118.697  1.00  0.00    -0.022 C 
ATOM     10  C   UNL     1      99.938 116.619 120.579  1.00  0.00     0.035 C 
ATOM     11  C   UNL     1     100.404 115.496 121.538  1.00  0.00    -0.014 C 
ATOM     12  C   UNL     1      98.619 113.824 121.269  1.00  0.00     0.044 C 
ATOM     13  C   UNL     1     100.993 112.975 121.514  1.00  0.00     0.017 C 
ATOM     14  C   UNL     1      99.560 115.460 122.850  1.00  0.00     0.034 C 
ATOM     15  C   UNL     1     101.907 115.722 121.860  1.00  0.00     0.013 C 
ATOM     16  C   UNL     1      98.291 114.643 122.529  1.00  0.00     0.119 C 
ENDROOT
BRANCH   1  17
ATOM     17  C   UNL     1     100.560 116.509 116.265  1.00  0.00     0.018 C 
BRANCH  17  18
ATOM     18  C   UNL     1      99.084 116.945 116.375  1.00  0.00     0.053 C 
BRANCH  18  19
ATOM     19  C   UNL     1      98.864 118.229 115.642  1.00  0.00     0.041 C 
ATOM     20  O   UNL     1      97.709 118.723 115.567  1.00  0.00    -0.550 OA
ATOM     21  O   UNL     1      99.928 118.859 115.005  1.00  0.00    -0.550 OA
ENDBRANCH  18  19
ENDBRANCH  17  18
ENDBRANCH   1  17
BRANCH   3  22
ATOM     22  C   UNL     1     100.575 113.721 114.961  1.00  0.00    -0.076 C 
ATOM     23  C   UNL     1     101.770 113.250 114.562  1.00  0.00     0.008 C 
ATOM     24  C   UNL     1      99.515 113.932 113.907  1.00  0.00     0.039 C 
ENDBRANCH   3  22
BRANCH  14  25
ATOM     25  C   UNL     1      99.409 116.753 123.732  1.00  0.00     0.042 C 
BRANCH  25  26
ATOM     26  C   UNL     1      98.564 116.627 124.980  1.00  0.00     0.045 C 
ATOM     27  O   UNL     1      98.746 115.656 125.758  1.00  0.00    -0.550 OA
ATOM     28  O   UNL     1      97.520 117.508 125.239  1.00  0.00    -0.550 OA
ENDBRANCH  25  26
BRANCH  25  29
ATOM     29  C   UNL     1     100.793 117.344 124.095  1.00  0.00     0.014 C 
BRANCH  29  30
ATOM     30  C   UNL     1     100.999 118.752 123.514  1.00  0.00     0.028 C 
BRANCH  30  31
ATOM     31  C   UNL     1     100.256 119.773 124.340  1.00  0.00    -0.028 C 
ATOM     32  C   UNL     1      98.984 120.164 124.097  1.00  0.00    -0.080 C 
ATOM     33  C   UNL     1      98.325 121.125 125.056  1.00  0.00     0.039 C 
ATOM     34  C   UNL     1      98.217 119.678 122.886  1.00  0.00     0.039 C 
ENDBRANCH  30  31
ENDBRANCH  29  30
ENDBRANCH  25  29
ENDBRANCH  14  25
BRANCH  16  35
ATOM     35  O   UNL     1      97.185 115.470 122.287  1.00  0.00    -0.393 OA
ATOM     36  H   UNL     1      96.409 115.044 122.738  1.00  0.00     0.210 HD
ENDBRANCH  16  35
TORSDOF 10
ENDMDL
MODEL 5
REMARK VINA RESULT:    -2.312      1.946      8.632
REMARK INTER + INTRA:          -2.679
REMARK INTER:                  -1.524
REMARK INTRA:                  -1.156
REMARK UNBOUND:                 0.917
REMARK SMILES C=C(C)[C@H]1CC=C2C(=CC[C@@]3(C)[C@@H]([C@H](CCC=C(C)C)C(=O)[O-])[C@@H](O)C[C@@]23C)[C@]1(C)CCC(=O)[O-]
REMARK SMILES IDX 29 1 8 2 4 3 30 4 7 5 9 6 5 7 27 8 6 9 10 10 11 11 26 12
REMARK SMILES IDX 28 13 13 14 12 15 24 16 31 17 32 18 33 19 34 20 35 21 2 22
REMARK SMILES IDX 1 23 3 24 14 25 21 26 22 27 23 28 15 29 16 30 17 31 18 32
REMARK SMILES IDX 19 33 20 34 25 35
REMARK H PARENT 25 36
REMARK Flexibility Score: inf
ROOT
ATOM      1  C   UNL     1     100.778 115.091 116.882  1.00  0.00    -0.000 C 
ATOM      2  C   UNL     1     100.508 115.134 118.403  1.00  0.00    -0.042 C 
ATOM      3  C   UNL     1      99.890 113.954 116.249  1.00  0.00     0.028 C 
ATOM      4  C   UNL     1     102.293 114.819 116.709  1.00  0.00     0.017 C 
ATOM      5  C   UNL     1     100.148 113.885 119.150  1.00  0.00    -0.042 C 
ATOM      6  C   UNL     1     100.692 116.263 119.103  1.00  0.00    -0.022 C 
ATOM      7  C   UNL     1     100.021 112.619 116.995  1.00  0.00     0.036 C 
ATOM      8  C   UNL     1     100.132 113.851 120.696  1.00  0.00     0.001 C 
ATOM      9  C   UNL     1      99.792 112.780 118.463  1.00  0.00    -0.022 C 
ATOM     10  C   UNL     1     100.225 116.394 120.514  1.00  0.00     0.035 C 
ATOM     11  C   UNL     1     100.647 115.179 121.376  1.00  0.00    -0.014 C 
ATOM     12  C   UNL     1      98.675 113.719 121.196  1.00  0.00     0.044 C 
ATOM     13  C   UNL     1     100.954 112.616 121.187  1.00  0.00     0.017 C 
ATOM     14  C   UNL     1      99.919 115.160 122.757  1.00  0.00     0.034 C 
ATOM     15  C   UNL     1     102.187 115.230 121.570  1.00  0.00     0.013 C 
ATOM     16  C   UNL     1      98.547 114.499 122.516  1.00  0.00     0.119 C 
ENDROOT
BRANCH   1  17
ATOM     17  C   UNL     1     100.460 116.454 116.162  1.00  0.00     0.018 C 
BRANCH  17  18
ATOM     18  C   UNL     1      99.048 117.023 116.407  1.00  0.00     0.053 C 
BRANCH  18  19
ATOM     19  C   UNL     1      98.847 118.276 115.617  1.00  0.00     0.041 C 
ATOM     20  O   UNL     1      99.813 118.790 114.994  1.00  0.00    -0.550 OA
ATOM     21  O   UNL     1      97.605 118.900 115.602  1.00  0.00    -0.550 OA
ENDBRANCH  18  19
ENDBRANCH  17  18
ENDBRANCH   1  17
BRANCH   3  22
ATOM     22  C   UNL     1     100.061 113.754 114.738  1.00  0.00    -0.076 C 
ATOM     23  C   UNL     1     101.196 113.268 114.205  1.00  0.00     0.008 C 
ATOM     24  C   UNL     1      98.908 114.031 113.805  1.00  0.00     0.039 C 
ENDBRANCH   3  22
BRANCH  14  25
ATOM     25  C   UNL     1      99.986 116.412 123.705  1.00  0.00     0.042 C 
BRANCH  25  26
ATOM     26  C   UNL     1      98.734 117.256 123.801  1.00  0.00     0.045 C 
ATOM     27  O   UNL     1      97.999 117.164 124.818  1.00  0.00    -0.550 OA
ATOM     28  O   UNL     1      98.321 118.061 122.745  1.00  0.00    -0.550 OA
ENDBRANCH  25  26
BRANCH  25  29
ATOM     29  C   UNL     1     100.457 116.013 125.124  1.00  0.00     0.014 C 
BRANCH  29  30
ATOM     30  C   UNL     1     101.742 116.744 125.542  1.00  0.00     0.028 C 
BRANCH  30  31
ATOM     31  C   UNL     1     102.558 117.105 124.326  1.00  0.00    -0.028 C 
ATOM     32  C   UNL     1     102.580 118.337 123.766  1.00  0.00    -0.080 C 
ATOM     33  C   UNL     1     103.512 118.590 122.607  1.00  0.00     0.039 C 
ATOM     34  C   UNL     1     101.686 119.454 124.260  1.00  0.00     0.039 C 
ENDBRANCH  30  31
ENDBRANCH  29  30
ENDBRANCH  25  29
ENDBRANCH  14  25
BRANCH  16  35
ATOM     35  O   UNL     1      97.520 115.448 122.413  1.00  0.00    -0.393 OA
ATOM     36  H   UNL     1      97.315 115.745 123.339  1.00  0.00     0.210 HD
ENDBRANCH  16  35
TORSDOF 10
ENDMDL
MODEL 6
REMARK VINA RESULT:    -2.086      1.770      9.036
REMARK INTER + INTRA:          -2.328
REMARK INTER:                  -3.446
REMARK INTRA:                   1.118
REMARK UNBOUND:                 0.917
REMARK SMILES C=C(C)[C@H]1CC=C2C(=CC[C@@]3(C)[C@@H]([C@H](CCC=C(C)C)C(=O)[O-])[C@@H](O)C[C@@]23C)[C@]1(C)CCC(=O)[O-]
REMARK SMILES IDX 29 1 8 2 4 3 30 4 7 5 9 6 5 7 27 8 6 9 10 10 11 11 26 12
REMARK SMILES IDX 28 13 13 14 12 15 24 16 31 17 32 18 33 19 34 20 35 21 2 22
REMARK SMILES IDX 1 23 3 24 14 25 21 26 22 27 23 28 15 29 16 30 17 31 18 32
REMARK SMILES IDX 19 33 20 34 25 35
REMARK H PARENT 25 36
REMARK Flexibility Score: inf
ROOT
ATOM      1  C   UNL     1     100.204 114.400 116.491  1.00  0.00    -0.000 C 
ATOM      2  C   UNL     1     100.120 114.689 118.007  1.00  0.00    -0.042 C 
ATOM      3  C   UNL     1      99.304 113.148 116.170  1.00  0.00     0.028 C 
ATOM      4  C   UNL     1     101.697 114.148 116.170  1.00  0.00     0.017 C 
ATOM      5  C   UNL     1      99.917 113.571 118.986  1.00  0.00    -0.042 C 
ATOM      6  C   UNL     1     100.331 115.924 118.486  1.00  0.00    -0.022 C 
ATOM      7  C   UNL     1      99.592 111.961 117.099  1.00  0.00     0.036 C 
ATOM      8  C   UNL     1     100.092 113.795 120.507  1.00  0.00     0.001 C 
ATOM      9  C   UNL     1      99.536 112.358 118.539  1.00  0.00    -0.022 C 
ATOM     10  C   UNL     1     100.033 116.274 119.905  1.00  0.00     0.035 C 
ATOM     11  C   UNL     1     100.618 115.232 120.890  1.00  0.00    -0.014 C 
ATOM     12  C   UNL     1      98.715 113.705 121.205  1.00  0.00     0.044 C 
ATOM     13  C   UNL     1     101.029 112.684 121.080  1.00  0.00     0.017 C 
ATOM     14  C   UNL     1     100.067 115.423 122.339  1.00  0.00     0.034 C 
ATOM     15  C   UNL     1     102.166 115.360 120.874  1.00  0.00     0.013 C 
ATOM     16  C   UNL     1      98.710 114.690 122.386  1.00  0.00     0.119 C 
ENDROOT
BRANCH   1  17
ATOM     17  C   UNL     1      99.732 115.614 115.607  1.00  0.00     0.018 C 
BRANCH  17  18
ATOM     18  C   UNL     1     100.156 117.009 116.111  1.00  0.00     0.053 C 
BRANCH  18  19
ATOM     19  C   UNL     1      99.280 118.065 115.516  1.00  0.00     0.041 C 
ATOM     20  O   UNL     1      98.028 117.969 115.604  1.00  0.00    -0.550 OA
ATOM     21  O   UNL     1      99.845 119.134 114.829  1.00  0.00    -0.550 OA
ENDBRANCH  18  19
ENDBRANCH  17  18
ENDBRANCH   1  17
BRANCH   3  22
ATOM     22  C   UNL     1      99.298 112.703 114.702  1.00  0.00    -0.076 C 
ATOM     23  C   UNL     1      99.032 111.436 114.339  1.00  0.00     0.008 C 
ATOM     24  C   UNL     1      99.523 113.716 113.606  1.00  0.00     0.039 C 
ENDBRANCH   3  22
BRANCH  14  25
ATOM     25  C   UNL     1     100.185 116.817 123.055  1.00  0.00     0.042 C 
BRANCH  25  26
ATOM     26  C   UNL     1      99.032 117.219 123.948  1.00  0.00     0.045 C 
ATOM     27  O   UNL     1      98.473 118.332 123.778  1.00  0.00    -0.550 OA
ATOM     28  O   UNL     1      98.638 116.427 125.021  1.00  0.00    -0.550 OA
ENDBRANCH  25  26
BRANCH  25  29
ATOM     29  C   UNL     1     101.516 116.930 123.837  1.00  0.00     0.014 C 
BRANCH  29  30
ATOM     30  C   UNL     1     102.480 117.948 123.207  1.00  0.00     0.028 C 
BRANCH  30  31
ATOM     31  C   UNL     1     103.138 118.779 124.281  1.00  0.00    -0.028 C 
ATOM     32  C   UNL     1     102.509 119.752 124.979  1.00  0.00    -0.080 C 
ATOM     33  C   UNL     1     103.255 120.446 126.092  1.00  0.00     0.039 C 
ATOM     34  C   UNL     1     101.090 120.172 124.661  1.00  0.00     0.039 C 
ENDBRANCH  30  31
ENDBRANCH  29  30
ENDBRANCH  25  29
ENDBRANCH  14  25
BRANCH  16  35
ATOM     35  O   UNL     1      97.632 115.578 122.264  1.00  0.00    -0.393 OA
ATOM     36  H   UNL     1      96.810 115.021 122.221  1.00  0.00     0.210 HD
ENDBRANCH  16  35
TORSDOF 10
ENDMDL
MODEL 7
REMARK VINA RESULT:    -1.962      1.466      2.263
REMARK INTER + INTRA:          -2.135
REMARK INTER:                  -3.089
REMARK INTRA:                   0.954
REMARK UNBOUND:                 0.917
REMARK SMILES C=C(C)[C@H]1CC=C2C(=CC[C@@]3(C)[C@@H]([C@H](CCC=C(C)C)C(=O)[O-])[C@@H](O)C[C@@]23C)[C@]1(C)CCC(=O)[O-]
REMARK SMILES IDX 29 1 8 2 4 3 30 4 7 5 9 6 5 7 27 8 6 9 10 10 11 11 26 12
REMARK SMILES IDX 28 13 13 14 12 15 24 16 31 17 32 18 33 19 34 20 35 21 2 22
REMARK SMILES IDX 1 23 3 24 14 25 21 26 22 27 23 28 15 29 16 30 17 31 18 32
REMARK SMILES IDX 19 33 20 34 25 35
REMARK H PARENT 25 36
REMARK Flexibility Score: inf
ROOT
ATOM      1  C   UNL     1     100.677 115.751 122.204  1.00  0.00    -0.000 C 
ATOM      2  C   UNL     1     100.756 115.667 120.663  1.00  0.00    -0.042 C 
ATOM      3  C   UNL     1     101.449 117.039 122.675  1.00  0.00     0.028 C 
ATOM      4  C   UNL     1     101.313 114.450 122.752  1.00  0.00     0.017 C 
ATOM      5  C   UNL     1     101.951 116.201 119.931  1.00  0.00    -0.042 C 
ATOM      6  C   UNL     1      99.814 115.023 119.958  1.00  0.00    -0.022 C 
ATOM      7  C   UNL     1     102.855 117.139 122.067  1.00  0.00     0.036 C 
ATOM      8  C   UNL     1     102.175 115.896 118.431  1.00  0.00     0.001 C 
ATOM      9  C   UNL     1     102.827 116.995 120.580  1.00  0.00    -0.022 C 
ATOM     10  C   UNL     1      99.744 115.122 118.471  1.00  0.00     0.035 C 
ATOM     11  C   UNL     1     101.127 114.892 117.813  1.00  0.00    -0.014 C 
ATOM     12  C   UNL     1     101.981 117.190 117.605  1.00  0.00     0.044 C 
ATOM     13  C   UNL     1     103.635 115.376 118.230  1.00  0.00     0.017 C 
ATOM     14  C   UNL     1     101.128 115.283 116.302  1.00  0.00     0.034 C 
ATOM     15  C   UNL     1     101.509 113.396 117.991  1.00  0.00     0.013 C 
ATOM     16  C   UNL     1     101.369 116.806 116.248  1.00  0.00     0.119 C 
ENDROOT
BRANCH   1  17
ATOM     17  C   UNL     1      99.198 115.812 122.741  1.00  0.00     0.018 C 
BRANCH  17  18
ATOM     18  C   UNL     1      98.561 117.216 122.779  1.00  0.00     0.053 C 
BRANCH  18  19
ATOM     19  C   UNL     1      98.250 117.608 124.188  1.00  0.00     0.041 C 
ATOM     20  O   UNL     1      98.232 118.824 124.515  1.00  0.00    -0.550 OA
ATOM     21  O   UNL     1      98.022 116.630 125.150  1.00  0.00    -0.550 OA
ENDBRANCH  18  19
ENDBRANCH  17  18
ENDBRANCH   1  17
BRANCH   3  22
ATOM     22  C   UNL     1     101.495 117.259 124.192  1.00  0.00    -0.076 C 
ATOM     23  C   UNL     1     101.421 116.238 125.066  1.00  0.00     0.008 C 
ATOM     24  C   UNL     1     101.704 118.646 124.749  1.00  0.00     0.039 C 
ENDBRANCH   3  22
BRANCH  14  25
ATOM     25  C   UNL     1     100.068 114.662 115.321  1.00  0.00     0.042 C 
BRANCH  25  26
ATOM     26  C   UNL     1     100.594 113.703 114.276  1.00  0.00     0.045 C 
ATOM     27  O   UNL     1     101.709 113.147 114.446  1.00  0.00    -0.550 OA
ATOM     28  O   UNL     1      99.916 113.494 113.079  1.00  0.00    -0.550 OA
ENDBRANCH  25  26
BRANCH  25  29
ATOM     29  C   UNL     1      98.908 113.999 116.102  1.00  0.00     0.014 C 
BRANCH  29  30
ATOM     30  C   UNL     1      98.846 112.480 115.882  1.00  0.00     0.028 C 
BRANCH  30  31
ATOM     31  C   UNL     1      99.323 111.753 117.116  1.00  0.00    -0.028 C 
ATOM     32  C   UNL     1      99.506 110.413 117.183  1.00  0.00    -0.080 C 
ATOM     33  C   UNL     1     100.077 109.822 118.448  1.00  0.00     0.039 C 
ATOM     34  C   UNL     1      99.139 109.499 116.034  1.00  0.00     0.039 C 
ENDBRANCH  30  31
ENDBRANCH  29  30
ENDBRANCH  25  29
ENDBRANCH  14  25
BRANCH  16  35
ATOM     35  O   UNL     1     100.177 117.516 116.042  1.00  0.00    -0.393 OA
ATOM     36  H   UNL     1     100.198 117.837 115.102  1.00  0.00     0.210 HD
ENDBRANCH  16  35
TORSDOF 10
ENDMDL
MODEL 8
REMARK VINA RESULT:    -1.402      2.645      8.683
REMARK INTER + INTRA:          -1.264
REMARK INTER:                  -2.699
REMARK INTRA:                   1.434
REMARK UNBOUND:                 0.917
REMARK SMILES C=C(C)[C@H]1CC=C2C(=CC[C@@]3(C)[C@@H]([C@H](CCC=C(C)C)C(=O)[O-])[C@@H](O)C[C@@]23C)[C@]1(C)CCC(=O)[O-]
REMARK SMILES IDX 29 1 8 2 4 3 30 4 7 5 9 6 5 7 27 8 6 9 10 10 11 11 26 12
REMARK SMILES IDX 28 13 13 14 12 15 24 16 31 17 32 18 33 19 34 20 35 21 2 22
REMARK SMILES IDX 1 23 3 24 14 25 21 26 22 27 23 28 15 29 16 30 17 31 18 32
REMARK SMILES IDX 19 33 20 34 25 35
REMARK H PARENT 25 36
REMARK Flexibility Score: inf
ROOT
ATOM      1  C   UNL     1      99.212 112.385 116.331  1.00  0.00    -0.000 C 
ATOM      2  C   UNL     1      99.754 113.443 117.318  1.00  0.00    -0.042 C 
ATOM      3  C   UNL     1     100.196 112.294 115.105  1.00  0.00     0.028 C 
ATOM      4  C   UNL     1      97.795 112.852 115.914  1.00  0.00     0.017 C 
ATOM      5  C   UNL     1     100.528 114.626 116.818  1.00  0.00    -0.042 C 
ATOM      6  C   UNL     1      99.456 113.383 118.624  1.00  0.00    -0.022 C 
ATOM      7  C   UNL     1     100.520 113.669 114.506  1.00  0.00     0.036 C 
ATOM      8  C   UNL     1     100.850 115.823 117.743  1.00  0.00     0.001 C 
ATOM      9  C   UNL     1     100.987 114.632 115.550  1.00  0.00    -0.022 C 
ATOM     10  C   UNL     1     100.145 114.250 119.625  1.00  0.00     0.035 C 
ATOM     11  C   UNL     1     100.188 115.730 119.173  1.00  0.00    -0.014 C 
ATOM     12  C   UNL     1     102.368 115.854 118.040  1.00  0.00     0.044 C 
ATOM     13  C   UNL     1     100.444 117.148 117.023  1.00  0.00     0.017 C 
ATOM     14  C   UNL     1     101.154 116.583 120.054  1.00  0.00     0.034 C 
ATOM     15  C   UNL     1      98.744 116.301 119.234  1.00  0.00     0.013 C 
ATOM     16  C   UNL     1     102.568 116.376 119.472  1.00  0.00     0.119 C 
ENDROOT
BRANCH   1  17
ATOM     17  C   UNL     1      99.063 110.958 116.979  1.00  0.00     0.018 C 
BRANCH  17  18
ATOM     18  C   UNL     1      99.171 110.911 118.517  1.00  0.00     0.053 C 
BRANCH  18  19
ATOM     19  C   UNL     1     100.402 110.169 118.930  1.00  0.00     0.041 C 
ATOM     20  O   UNL     1     100.538 108.956 118.625  1.00  0.00    -0.550 OA
ATOM     21  O   UNL     1     101.379 110.806 119.687  1.00  0.00    -0.550 OA
ENDBRANCH  18  19
ENDBRANCH  17  18
ENDBRANCH   1  17
BRANCH   3  22
ATOM     22  C   UNL     1      99.786 111.304 114.007  1.00  0.00    -0.076 C 
ATOM     23  C   UNL     1      99.463 110.027 114.278  1.00  0.00     0.008 C 
ATOM     24  C   UNL     1      99.660 111.773 112.578  1.00  0.00     0.039 C 
ENDBRANCH   3  22
BRANCH  14  25
ATOM     25  C   UNL     1     100.988 116.608 121.617  1.00  0.00     0.042 C 
BRANCH  25  26
ATOM     26  C   UNL     1     100.568 115.311 122.273  1.00  0.00     0.045 C 
ATOM     27  O   UNL     1     101.407 114.386 122.416  1.00  0.00    -0.550 OA
ATOM     28  O   UNL     1      99.246 115.079 122.637  1.00  0.00    -0.550 OA
ENDBRANCH  25  26
BRANCH  25  29
ATOM     29  C   UNL     1     102.263 117.152 122.304  1.00  0.00     0.014 C 
BRANCH  29  30
ATOM     30  C   UNL     1     102.019 117.535 123.772  1.00  0.00     0.028 C 
BRANCH  30  31
ATOM     31  C   UNL     1     101.471 118.938 123.863  1.00  0.00    -0.028 C 
ATOM     32  C   UNL     1     100.168 119.229 124.080  1.00  0.00    -0.080 C 
ATOM     33  C   UNL     1      99.766 120.674 124.243  1.00  0.00     0.039 C 
ATOM     34  C   UNL     1      99.108 118.150 124.145  1.00  0.00     0.039 C 
ENDBRANCH  30  31
ENDBRANCH  29  30
ENDBRANCH  25  29
ENDBRANCH  14  25
BRANCH  16  35
ATOM     35  O   UNL     1     103.310 115.452 120.220  1.00  0.00    -0.393 OA
ATOM     36  H   UNL     1     102.698 115.094 120.916  1.00  0.00     0.210 HD
ENDBRANCH  16  35
TORSDOF 10
ENDMDL
MODEL 9
REMARK VINA RESULT:    -1.381      1.460      1.776
REMARK INTER + INTRA:          -1.232
REMARK INTER:                  -4.061
REMARK INTRA:                   2.829
REMARK UNBOUND:                 0.917
REMARK SMILES C=C(C)[C@H]1CC=C2C(=CC[C@@]3(C)[C@@H]([C@H](CCC=C(C)C)C(=O)[O-])[C@@H](O)C[C@@]23C)[C@]1(C)CCC(=O)[O-]
REMARK SMILES IDX 29 1 8 2 4 3 30 4 7 5 9 6 5 7 27 8 6 9 10 10 11 11 26 12
REMARK SMILES IDX 28 13 13 14 12 15 24 16 31 17 32 18 33 19 34 20 35 21 2 22
REMARK SMILES IDX 1 23 3 24 14 25 21 26 22 27 23 28 15 29 16 30 17 31 18 32
REMARK SMILES IDX 19 33 20 34 25 35
REMARK H PARENT 25 36
REMARK Flexibility Score: inf
ROOT
ATOM      1  C   UNL     1     100.455 114.940 121.877  1.00  0.00    -0.000 C 
ATOM      2  C   UNL     1     100.522 114.765 120.343  1.00  0.00    -0.042 C 
ATOM      3  C   UNL     1     100.939 116.395 122.236  1.00  0.00     0.028 C 
ATOM      4  C   UNL     1     101.369 113.849 122.488  1.00  0.00     0.017 C 
ATOM      5  C   UNL     1     101.558 115.489 119.537  1.00  0.00    -0.042 C 
ATOM      6  C   UNL     1      99.728 113.885 119.715  1.00  0.00    -0.022 C 
ATOM      7  C   UNL     1     102.278 116.751 121.575  1.00  0.00     0.036 C 
ATOM      8  C   UNL     1     101.815 115.133 118.054  1.00  0.00     0.001 C 
ATOM      9  C   UNL     1     102.253 116.497 120.102  1.00  0.00    -0.022 C 
ATOM     10  C   UNL     1      99.610 113.860 118.228  1.00  0.00     0.035 C 
ATOM     11  C   UNL     1     100.997 113.885 117.540  1.00  0.00    -0.014 C 
ATOM     12  C   UNL     1     101.329 116.292 117.152  1.00  0.00     0.044 C 
ATOM     13  C   UNL     1     103.349 114.926 117.838  1.00  0.00     0.017 C 
ATOM     14  C   UNL     1     100.885 114.158 116.007  1.00  0.00     0.034 C 
ATOM     15  C   UNL     1     101.697 112.524 117.803  1.00  0.00     0.013 C 
ATOM     16  C   UNL     1     100.789 115.689 115.844  1.00  0.00     0.119 C 
ENDROOT
BRANCH   1  17
ATOM     17  C   UNL     1      99.009 114.720 122.459  1.00  0.00     0.018 C 
BRANCH  17  18
ATOM     18  C   UNL     1      97.861 115.352 121.645  1.00  0.00     0.053 C 
BRANCH  18  19
ATOM     19  C   UNL     1      98.023 116.838 121.584  1.00  0.00     0.041 C 
ATOM     20  O   UNL     1      98.085 117.420 120.470  1.00  0.00    -0.550 OA
ATOM     21  O   UNL     1      98.147 117.574 122.757  1.00  0.00    -0.550 OA
ENDBRANCH  18  19
ENDBRANCH  17  18
ENDBRANCH   1  17
BRANCH   3  22
ATOM     22  C   UNL     1     100.965 116.727 123.733  1.00  0.00    -0.076 C 
ATOM     23  C   UNL     1     100.480 115.883 124.662  1.00  0.00     0.008 C 
ATOM     24  C   UNL     1     101.617 118.001 124.213  1.00  0.00     0.039 C 
ENDBRANCH   3  22
BRANCH  14  25
ATOM     25  C   UNL     1      99.967 113.255 115.106  1.00  0.00     0.042 C 
BRANCH  25  26
ATOM     26  C   UNL     1      99.084 112.258 115.824  1.00  0.00     0.045 C 
ATOM     27  O   UNL     1      97.961 112.622 116.258  1.00  0.00    -0.550 OA
ATOM     28  O   UNL     1      99.526 110.970 116.103  1.00  0.00    -0.550 OA
ENDBRANCH  25  26
BRANCH  25  29
ATOM     29  C   UNL     1      99.110 114.115 114.145  1.00  0.00     0.014 C 
BRANCH  29  30
ATOM     30  C   UNL     1      98.484 113.283 113.016  1.00  0.00     0.028 C 
BRANCH  30  31
ATOM     31  C   UNL     1      99.559 112.569 112.233  1.00  0.00    -0.028 C 
ATOM     32  C   UNL     1      99.425 112.179 110.944  1.00  0.00    -0.080 C 
ATOM     33  C   UNL     1     100.611 111.558 110.248  1.00  0.00     0.039 C 
ATOM     34  C   UNL     1      98.119 112.333 110.195  1.00  0.00     0.039 C 
ENDBRANCH  30  31
ENDBRANCH  29  30
ENDBRANCH  25  29
ENDBRANCH  14  25
BRANCH  16  35
ATOM     35  O   UNL     1      99.468 116.111 115.633  1.00  0.00    -0.393 OA
ATOM     36  H   UNL     1      98.885 115.343 115.872  1.00  0.00     0.210 HD
ENDBRANCH  16  35
TORSDOF 10
ENDMDL
