MODEL 1
REMARK VINA RESULT:    -6.213      0.000      0.000
REMARK INTER + INTRA:         -11.605
REMARK INTER:                  -9.481
REMARK INTRA:                  -2.123
REMARK UNBOUND:                -2.123
REMARK SMILES CC(=O)CCC=C(C)CCC=C(C)CCC=C(C)C
REMARK SMILES IDX 10 1 11 2 12 3 13 4 14 5 15 6 16 7 18 8 17 9 19 10 9 11 7 12
REMARK SMILES IDX 6 13 8 14 5 15 4 16 2 17 3 18 1 19
REMARK H PARENT
REMARK Flexibility Score: inf
ROOT
ATOM      1  C   UNL     1      -5.790  13.984 -28.932  1.00  0.00     0.032 C 
ENDROOT
BRANCH   1   2
ATOM      2  C   UNL     1      -5.712  14.729 -30.240  1.00  0.00    -0.028 C 
ATOM      3  C   UNL     1      -4.904  14.394 -31.273  1.00  0.00    -0.077 C 
ATOM      4  C   UNL     1      -4.906  15.277 -32.494  1.00  0.00     0.039 C 
BRANCH   3   5
ATOM      5  C   UNL     1      -4.026  13.155 -31.266  1.00  0.00     0.034 C 
BRANCH   5   6
ATOM      6  C   UNL     1      -2.575  13.472 -31.650  1.00  0.00     0.032 C 
BRANCH   6   7
ATOM      7  C   UNL     1      -1.704  13.628 -30.425  1.00  0.00    -0.028 C 
ATOM      8  C   UNL     1       0.313  13.430 -29.038  1.00  0.00     0.039 C 
ATOM      9  C   UNL     1      -0.452  13.133 -30.301  1.00  0.00    -0.080 C 
ATOM     10  C   UNL     1       0.193  12.300 -31.383  1.00  0.00     0.039 C 
ENDBRANCH   6   7
ENDBRANCH   5   6
ENDBRANCH   3   5
ENDBRANCH   1   2
BRANCH   1  11
ATOM     11  C   UNL     1      -5.041  14.741 -27.830  1.00  0.00     0.034 C 
BRANCH  11  12
ATOM     12  C   UNL     1      -4.103  13.816 -27.086  1.00  0.00    -0.077 C 
ATOM     13  C   UNL     1      -3.413  12.885 -27.784  1.00  0.00    -0.028 C 
ATOM     14  C   UNL     1      -3.948  13.970 -25.591  1.00  0.00     0.039 C 
BRANCH  13  15
ATOM     15  C   UNL     1      -2.487  11.867 -27.165  1.00  0.00     0.035 C 
BRANCH  15  16
ATOM     16  C   UNL     1      -2.935  10.443 -27.526  1.00  0.00     0.079 C 
BRANCH  16  17
ATOM     17  C   UNL     1      -3.213  10.228 -28.997  1.00  0.00     0.130 C 
ATOM     18  O   UNL     1      -2.271  10.253 -29.774  1.00  0.00    -0.300 OA
ATOM     19  C   UNL     1      -4.594   9.989 -29.544  1.00  0.00     0.087 C 
ENDBRANCH  16  17
ENDBRANCH  15  16
ENDBRANCH  13  15
ENDBRANCH  11  12
ENDBRANCH   1  11
TORSDOF 9
ENDMDL
MODEL 2
REMARK VINA RESULT:    -5.962      2.337      5.277
REMARK INTER + INTRA:         -11.222
REMARK INTER:                  -9.123
REMARK INTRA:                  -2.099
REMARK UNBOUND:                -2.123
REMARK SMILES CC(=O)CCC=C(C)CCC=C(C)CCC=C(C)C
REMARK SMILES IDX 10 1 11 2 12 3 13 4 14 5 15 6 16 7 18 8 17 9 19 10 9 11 7 12
REMARK SMILES IDX 6 13 8 14 5 15 4 16 2 17 3 18 1 19
REMARK H PARENT
REMARK Flexibility Score: inf
ROOT
ATOM      1  C   UNL     1      -2.782  10.933 -30.376  1.00  0.00     0.032 C 
ENDROOT
BRANCH   1   2
ATOM      2  C   UNL     1      -1.401  11.089 -30.961  1.00  0.00    -0.028 C 
ATOM      3  C   UNL     1      -0.641  12.204 -30.860  1.00  0.00    -0.077 C 
ATOM      4  C   UNL     1       0.699  12.218 -31.550  1.00  0.00     0.039 C 
BRANCH   3   5
ATOM      5  C   UNL     1      -1.064  13.422 -30.057  1.00  0.00     0.034 C 
BRANCH   5   6
ATOM      6  C   UNL     1      -0.849  13.223 -28.550  1.00  0.00     0.032 C 
BRANCH   6   7
ATOM      7  C   UNL     1      -2.001  13.788 -27.752  1.00  0.00    -0.028 C 
ATOM      8  C   UNL     1      -3.892  13.780 -26.185  1.00  0.00     0.039 C 
ATOM      9  C   UNL     1      -2.829  13.058 -26.972  1.00  0.00    -0.080 C 
ATOM     10  C   UNL     1      -2.718  11.555 -26.868  1.00  0.00     0.039 C 
ENDBRANCH   6   7
ENDBRANCH   5   6
ENDBRANCH   3   5
ENDBRANCH   1   2
BRANCH   1  11
ATOM     11  C   UNL     1      -3.849  11.414 -31.366  1.00  0.00     0.034 C 
BRANCH  11  12
ATOM     12  C   UNL     1      -4.233  12.850 -31.082  1.00  0.00    -0.077 C 
ATOM     13  C   UNL     1      -4.768  13.158 -29.879  1.00  0.00    -0.028 C 
ATOM     14  C   UNL     1      -3.988  13.901 -32.140  1.00  0.00     0.039 C 
BRANCH  13  15
ATOM     15  C   UNL     1      -5.243  14.535 -29.483  1.00  0.00     0.035 C 
BRANCH  15  16
ATOM     16  C   UNL     1      -6.469  14.437 -28.563  1.00  0.00     0.079 C 
BRANCH  16  17
ATOM     17  C   UNL     1      -7.503  15.519 -28.783  1.00  0.00     0.130 C 
ATOM     18  O   UNL     1      -8.684  15.210 -28.732  1.00  0.00    -0.300 OA
ATOM     19  C   UNL     1      -7.143  16.952 -29.065  1.00  0.00     0.087 C 
ENDBRANCH  16  17
ENDBRANCH  15  16
ENDBRANCH  13  15
ENDBRANCH  11  12
ENDBRANCH   1  11
TORSDOF 9
ENDMDL
MODEL 3
REMARK VINA RESULT:    -5.904      2.352      4.195
REMARK INTER + INTRA:         -11.134
REMARK INTER:                  -8.847
REMARK INTRA:                  -2.287
REMARK UNBOUND:                -2.123
REMARK SMILES CC(=O)CCC=C(C)CCC=C(C)CCC=C(C)C
REMARK SMILES IDX 10 1 11 2 12 3 13 4 14 5 15 6 16 7 18 8 17 9 19 10 9 11 7 12
REMARK SMILES IDX 6 13 8 14 5 15 4 16 2 17 3 18 1 19
REMARK H PARENT
REMARK Flexibility Score: inf
ROOT
ATOM      1  C   UNL     1      -3.810  10.630 -28.335  1.00  0.00     0.032 C 
ENDROOT
BRANCH   1   2
ATOM      2  C   UNL     1      -2.971  10.088 -29.464  1.00  0.00    -0.028 C 
ATOM      3  C   UNL     1      -2.896  10.632 -30.701  1.00  0.00    -0.077 C 
ATOM      4  C   UNL     1      -2.051   9.936 -31.736  1.00  0.00     0.039 C 
BRANCH   3   5
ATOM      5  C   UNL     1      -3.596  11.927 -31.077  1.00  0.00     0.034 C 
BRANCH   5   6
ATOM      6  C   UNL     1      -2.601  13.048 -31.402  1.00  0.00     0.032 C 
BRANCH   6   7
ATOM      7  C   UNL     1      -1.864  13.505 -30.165  1.00  0.00    -0.028 C 
ATOM      8  C   UNL     1       0.061  13.925 -28.699  1.00  0.00     0.039 C 
ATOM      9  C   UNL     1      -0.536  13.356 -29.959  1.00  0.00    -0.080 C 
ATOM     10  C   UNL     1       0.355  12.644 -30.949  1.00  0.00     0.039 C 
ENDBRANCH   6   7
ENDBRANCH   5   6
ENDBRANCH   3   5
ENDBRANCH   1   2
BRANCH   1  11
ATOM     11  C   UNL     1      -2.969  11.521 -27.414  1.00  0.00     0.034 C 
BRANCH  11  12
ATOM     12  C   UNL     1      -3.708  12.799 -27.085  1.00  0.00    -0.077 C 
ATOM     13  C   UNL     1      -4.622  13.271 -27.964  1.00  0.00    -0.028 C 
ATOM     14  C   UNL     1      -3.420  13.502 -25.778  1.00  0.00     0.039 C 
BRANCH  13  15
ATOM     15  C   UNL     1      -5.391  14.558 -27.788  1.00  0.00     0.035 C 
BRANCH  15  16
ATOM     16  C   UNL     1      -5.922  15.056 -29.140  1.00  0.00     0.079 C 
BRANCH  16  17
ATOM     17  C   UNL     1      -7.157  15.924 -29.045  1.00  0.00     0.130 C 
ATOM     18  O   UNL     1      -7.044  17.118 -29.272  1.00  0.00    -0.300 OA
ATOM     19  C   UNL     1      -8.512  15.382 -28.684  1.00  0.00     0.087 C 
ENDBRANCH  16  17
ENDBRANCH  15  16
ENDBRANCH  13  15
ENDBRANCH  11  12
ENDBRANCH   1  11
TORSDOF 9
ENDMDL
MODEL 4
REMARK VINA RESULT:    -5.846      2.282      4.666
REMARK INTER + INTRA:         -11.045
REMARK INTER:                  -8.749
REMARK INTRA:                  -2.296
REMARK UNBOUND:                -2.123
REMARK SMILES CC(=O)CCC=C(C)CCC=C(C)CCC=C(C)C
REMARK SMILES IDX 10 1 11 2 12 3 13 4 14 5 15 6 16 7 18 8 17 9 19 10 9 11 7 12
REMARK SMILES IDX 6 13 8 14 5 15 4 16 2 17 3 18 1 19
REMARK H PARENT
REMARK Flexibility Score: inf
ROOT
ATOM      1  C   UNL     1      -0.998  13.326 -28.211  1.00  0.00     0.032 C 
ENDROOT
BRANCH   1   2
ATOM      2  C   UNL     1      -0.290  12.735 -29.404  1.00  0.00    -0.028 C 
ATOM      3  C   UNL     1      -0.715  12.841 -30.685  1.00  0.00    -0.077 C 
ATOM      4  C   UNL     1       0.081  12.144 -31.759  1.00  0.00     0.039 C 
BRANCH   3   5
ATOM      5  C   UNL     1      -1.932  13.655 -31.087  1.00  0.00     0.034 C 
BRANCH   5   6
ATOM      6  C   UNL     1      -3.018  12.789 -31.739  1.00  0.00     0.032 C 
BRANCH   6   7
ATOM      7  C   UNL     1      -3.869  12.099 -30.699  1.00  0.00    -0.028 C 
ATOM      8  C   UNL     1      -4.622  10.282 -29.227  1.00  0.00     0.039 C 
ATOM      9  C   UNL     1      -3.738  10.805 -30.329  1.00  0.00    -0.080 C 
ATOM     10  C   UNL     1      -2.738   9.881 -30.983  1.00  0.00     0.039 C 
ENDBRANCH   6   7
ENDBRANCH   5   6
ENDBRANCH   3   5
ENDBRANCH   1   2
BRANCH   1  11
ATOM     11  C   UNL     1      -2.030  12.341 -27.650  1.00  0.00     0.034 C 
BRANCH  11  12
ATOM     12  C   UNL     1      -3.261  13.075 -27.165  1.00  0.00    -0.077 C 
ATOM     13  C   UNL     1      -3.915  13.894 -28.021  1.00  0.00    -0.028 C 
ATOM     14  C   UNL     1      -3.738  12.857 -25.747  1.00  0.00     0.039 C 
BRANCH  13  15
ATOM     15  C   UNL     1      -5.121  14.724 -27.656  1.00  0.00     0.035 C 
BRANCH  15  16
ATOM     16  C   UNL     1      -6.333  14.313 -28.505  1.00  0.00     0.079 C 
BRANCH  16  17
ATOM     17  C   UNL     1      -7.336  15.421 -28.740  1.00  0.00     0.130 C 
ATOM     18  O   UNL     1      -8.524  15.139 -28.724  1.00  0.00    -0.300 OA
ATOM     19  C   UNL     1      -6.935  16.848 -28.994  1.00  0.00     0.087 C 
ENDBRANCH  16  17
ENDBRANCH  15  16
ENDBRANCH  13  15
ENDBRANCH  11  12
ENDBRANCH   1  11
TORSDOF 9
ENDMDL
MODEL 5
REMARK VINA RESULT:    -5.681      2.283      4.980
REMARK INTER + INTRA:         -10.794
REMARK INTER:                  -9.307
REMARK INTRA:                  -1.487
REMARK UNBOUND:                -2.123
REMARK SMILES CC(=O)CCC=C(C)CCC=C(C)CCC=C(C)C
REMARK SMILES IDX 10 1 11 2 12 3 13 4 14 5 15 6 16 7 18 8 17 9 19 10 9 11 7 12
REMARK SMILES IDX 6 13 8 14 5 15 4 16 2 17 3 18 1 19
REMARK H PARENT
REMARK Flexibility Score: inf
ROOT
ATOM      1  C   UNL     1      -2.172  10.767 -29.668  1.00  0.00     0.032 C 
ENDROOT
BRANCH   1   2
ATOM      2  C   UNL     1      -1.303  11.867 -29.113  1.00  0.00    -0.028 C 
ATOM      3  C   UNL     1      -0.939  12.981 -29.791  1.00  0.00    -0.077 C 
ATOM      4  C   UNL     1      -0.020  13.961 -29.109  1.00  0.00     0.039 C 
BRANCH   3   5
ATOM      5  C   UNL     1      -1.442  13.298 -31.188  1.00  0.00     0.034 C 
BRANCH   5   6
ATOM      6  C   UNL     1      -2.816  13.981 -31.166  1.00  0.00     0.032 C 
BRANCH   6   7
ATOM      7  C   UNL     1      -3.743  13.383 -32.199  1.00  0.00    -0.028 C 
ATOM      8  C   UNL     1      -5.451  13.352 -33.964  1.00  0.00     0.039 C 
ATOM      9  C   UNL     1      -4.644  14.084 -32.924  1.00  0.00    -0.080 C 
ATOM     10  C   UNL     1      -4.858  15.566 -32.724  1.00  0.00     0.039 C 
ENDBRANCH   6   7
ENDBRANCH   5   6
ENDBRANCH   3   5
ENDBRANCH   1   2
BRANCH   1  11
ATOM     11  C   UNL     1      -3.357  10.489 -28.737  1.00  0.00     0.034 C 
BRANCH  11  12
ATOM     12  C   UNL     1      -3.837  11.767 -28.085  1.00  0.00    -0.077 C 
ATOM     13  C   UNL     1      -4.773  12.512 -28.716  1.00  0.00    -0.028 C 
ATOM     14  C   UNL     1      -3.274  12.165 -26.740  1.00  0.00     0.039 C 
BRANCH  13  15
ATOM     15  C   UNL     1      -5.301  13.831 -28.207  1.00  0.00     0.035 C 
BRANCH  15  16
ATOM     16  C   UNL     1      -5.821  14.688 -29.371  1.00  0.00     0.079 C 
BRANCH  16  17
ATOM     17  C   UNL     1      -6.935  15.641 -28.997  1.00  0.00     0.130 C 
ATOM     18  O   UNL     1      -6.709  16.840 -29.038  1.00  0.00    -0.300 OA
ATOM     19  C   UNL     1      -8.303  15.177 -28.577  1.00  0.00     0.087 C 
ENDBRANCH  16  17
ENDBRANCH  15  16
ENDBRANCH  13  15
ENDBRANCH  11  12
ENDBRANCH   1  11
TORSDOF 9
ENDMDL
MODEL 6
REMARK VINA RESULT:    -5.591      1.659      5.367
REMARK INTER + INTRA:         -10.657
REMARK INTER:                  -8.929
REMARK INTRA:                  -1.728
REMARK UNBOUND:                -2.123
REMARK SMILES CC(=O)CCC=C(C)CCC=C(C)CCC=C(C)C
REMARK SMILES IDX 10 1 11 2 12 3 13 4 14 5 15 6 16 7 18 8 17 9 19 10 9 11 7 12
REMARK SMILES IDX 6 13 8 14 5 15 4 16 2 17 3 18 1 19
REMARK H PARENT
REMARK Flexibility Score: inf
ROOT
ATOM      1  C   UNL     1      -2.659  11.073 -27.410  1.00  0.00     0.032 C 
ENDROOT
BRANCH   1   2
ATOM      2  C   UNL     1      -3.306  12.158 -26.587  1.00  0.00    -0.028 C 
ATOM      3  C   UNL     1      -3.732  13.347 -27.074  1.00  0.00    -0.077 C 
ATOM      4  C   UNL     1      -4.311  14.348 -26.107  1.00  0.00     0.039 C 
BRANCH   3   5
ATOM      5  C   UNL     1      -3.685  13.698 -28.551  1.00  0.00     0.034 C 
BRANCH   5   6
ATOM      6  C   UNL     1      -5.080  13.700 -29.190  1.00  0.00     0.032 C 
BRANCH   6   7
ATOM      7  C   UNL     1      -5.549  15.106 -29.481  1.00  0.00    -0.028 C 
ATOM      8  C   UNL     1      -7.034  17.062 -29.406  1.00  0.00     0.039 C 
ATOM      9  C   UNL     1      -6.740  15.617 -29.095  1.00  0.00    -0.080 C 
ATOM     10  C   UNL     1      -7.772  14.789 -28.367  1.00  0.00     0.039 C 
ENDBRANCH   6   7
ENDBRANCH   5   6
ENDBRANCH   3   5
ENDBRANCH   1   2
BRANCH   1  11
ATOM     11  C   UNL     1      -3.679  10.429 -28.356  1.00  0.00     0.034 C 
BRANCH  11  12
ATOM     12  C   UNL     1      -3.183  10.471 -29.785  1.00  0.00    -0.077 C 
ATOM     13  C   UNL     1      -1.854  10.574 -30.014  1.00  0.00    -0.028 C 
ATOM     14  C   UNL     1      -4.183  10.375 -30.914  1.00  0.00     0.039 C 
BRANCH  13  15
ATOM     15  C   UNL     1      -1.229  10.678 -31.383  1.00  0.00     0.035 C 
BRANCH  15  16
ATOM     16  C   UNL     1      -0.199  11.817 -31.419  1.00  0.00     0.079 C 
BRANCH  16  17
ATOM     17  C   UNL     1      -0.724  13.151 -30.937  1.00  0.00     0.130 C 
ATOM     18  O   UNL     1      -1.609  13.692 -31.582  1.00  0.00    -0.300 OA
ATOM     19  C   UNL     1      -0.205  13.838 -29.705  1.00  0.00     0.087 C 
ENDBRANCH  16  17
ENDBRANCH  15  16
ENDBRANCH  13  15
ENDBRANCH  11  12
ENDBRANCH   1  11
TORSDOF 9
ENDMDL
MODEL 7
REMARK VINA RESULT:    -5.552      1.103      4.515
REMARK INTER + INTRA:         -10.596
REMARK INTER:                  -8.296
REMARK INTRA:                  -2.301
REMARK UNBOUND:                -2.123
REMARK SMILES CC(=O)CCC=C(C)CCC=C(C)CCC=C(C)C
REMARK SMILES IDX 10 1 11 2 12 3 13 4 14 5 15 6 16 7 18 8 17 9 19 10 9 11 7 12
REMARK SMILES IDX 6 13 8 14 5 15 4 16 2 17 3 18 1 19
REMARK H PARENT
REMARK Flexibility Score: inf
ROOT
ATOM      1  C   UNL     1      -5.808  13.737 -28.913  1.00  0.00     0.032 C 
ENDROOT
BRANCH   1   2
ATOM      2  C   UNL     1      -5.521  14.343 -27.563  1.00  0.00    -0.028 C 
ATOM      3  C   UNL     1      -4.348  14.226 -26.897  1.00  0.00    -0.077 C 
ATOM      4  C   UNL     1      -4.240  14.848 -25.528  1.00  0.00     0.039 C 
BRANCH   3   5
ATOM      5  C   UNL     1      -3.133  13.527 -27.482  1.00  0.00     0.034 C 
BRANCH   5   6
ATOM      6  C   UNL     1      -3.127  12.024 -27.174  1.00  0.00     0.032 C 
BRANCH   6   7
ATOM      7  C   UNL     1      -2.397  11.247 -28.244  1.00  0.00    -0.028 C 
ATOM      8  C   UNL     1      -2.125   9.875 -30.264  1.00  0.00     0.039 C 
ATOM      9  C   UNL     1      -2.996  10.544 -29.231  1.00  0.00    -0.080 C 
ATOM     10  C   UNL     1      -4.497  10.414 -29.327  1.00  0.00     0.039 C 
ENDBRANCH   6   7
ENDBRANCH   5   6
ENDBRANCH   3   5
ENDBRANCH   1   2
BRANCH   1  11
ATOM     11  C   UNL     1      -5.727  14.801 -30.013  1.00  0.00     0.034 C 
BRANCH  11  12
ATOM     12  C   UNL     1      -4.743  14.388 -31.086  1.00  0.00    -0.077 C 
ATOM     13  C   UNL     1      -3.651  13.671 -30.732  1.00  0.00    -0.028 C 
ATOM     14  C   UNL     1      -5.017  14.766 -32.523  1.00  0.00     0.039 C 
BRANCH  13  15
ATOM     15  C   UNL     1      -2.567  13.239 -31.687  1.00  0.00     0.035 C 
BRANCH  15  16
ATOM     16  C   UNL     1      -1.232  13.905 -31.323  1.00  0.00     0.079 C 
BRANCH  16  17
ATOM     17  C   UNL     1      -0.194  12.960 -30.761  1.00  0.00     0.130 C 
ATOM     18  O   UNL     1       0.268  12.103 -31.497  1.00  0.00    -0.300 OA
ATOM     19  C   UNL     1       0.290  13.028 -29.338  1.00  0.00     0.087 C 
ENDBRANCH  16  17
ENDBRANCH  15  16
ENDBRANCH  13  15
ENDBRANCH  11  12
ENDBRANCH   1  11
TORSDOF 9
ENDMDL
MODEL 8
REMARK VINA RESULT:    -5.488      1.647      4.862
REMARK INTER + INTRA:         -10.498
REMARK INTER:                  -8.507
REMARK INTRA:                  -1.992
REMARK UNBOUND:                -2.123
REMARK SMILES CC(=O)CCC=C(C)CCC=C(C)CCC=C(C)C
REMARK SMILES IDX 10 1 11 2 12 3 13 4 14 5 15 6 16 7 18 8 17 9 19 10 9 11 7 12
REMARK SMILES IDX 6 13 8 14 5 15 4 16 2 17 3 18 1 19
REMARK H PARENT
REMARK Flexibility Score: inf
ROOT
ATOM      1  C   UNL     1      -4.404  10.752 -28.743  1.00  0.00     0.032 C 
ENDROOT
BRANCH   1   2
ATOM      2  C   UNL     1      -4.172  11.875 -27.764  1.00  0.00    -0.028 C 
ATOM      3  C   UNL     1      -4.357  13.188 -28.036  1.00  0.00    -0.077 C 
ATOM      4  C   UNL     1      -4.028  14.192 -26.962  1.00  0.00     0.039 C 
BRANCH   3   5
ATOM      5  C   UNL     1      -4.912  13.686 -29.360  1.00  0.00     0.034 C 
BRANCH   5   6
ATOM      6  C   UNL     1      -3.827  13.783 -30.441  1.00  0.00     0.032 C 
BRANCH   6   7
ATOM      7  C   UNL     1      -4.328  13.264 -31.769  1.00  0.00    -0.028 C 
ATOM      8  C   UNL     1      -5.219  13.375 -34.055  1.00  0.00     0.039 C 
ATOM      9  C   UNL     1      -4.821  14.038 -32.762  1.00  0.00    -0.080 C 
ATOM     10  C   UNL     1      -4.981  15.532 -32.612  1.00  0.00     0.039 C 
ENDBRANCH   6   7
ENDBRANCH   5   6
ENDBRANCH   3   5
ENDBRANCH   1   2
BRANCH   1  11
ATOM     11  C   UNL     1      -3.124   9.932 -28.941  1.00  0.00     0.034 C 
BRANCH  11  12
ATOM     12  C   UNL     1      -2.335  10.449 -30.123  1.00  0.00    -0.077 C 
ATOM     13  C   UNL     1      -1.297  11.287 -29.901  1.00  0.00    -0.028 C 
ATOM     14  C   UNL     1      -2.714   9.999 -31.516  1.00  0.00     0.039 C 
BRANCH  13  15
ATOM     15  C   UNL     1      -0.460  11.917 -30.987  1.00  0.00     0.035 C 
BRANCH  15  16
ATOM     16  C   UNL     1      -0.094  13.361 -30.615  1.00  0.00     0.079 C 
BRANCH  16  17
ATOM     17  C   UNL     1       0.065  13.603 -29.130  1.00  0.00     0.130 C 
ATOM     18  O   UNL     1       0.983  13.046 -28.548  1.00  0.00    -0.300 OA
ATOM     19  C   UNL     1      -0.855  14.495 -28.343  1.00  0.00     0.087 C 
ENDBRANCH  16  17
ENDBRANCH  15  16
ENDBRANCH  13  15
ENDBRANCH  11  12
ENDBRANCH   1  11
TORSDOF 9
ENDMDL
MODEL 9
REMARK VINA RESULT:    -5.486      1.138      5.198
REMARK INTER + INTRA:         -10.496
REMARK INTER:                  -8.932
REMARK INTRA:                  -1.563
REMARK UNBOUND:                -2.123
REMARK SMILES CC(=O)CCC=C(C)CCC=C(C)CCC=C(C)C
REMARK SMILES IDX 10 1 11 2 12 3 13 4 14 5 15 6 16 7 18 8 17 9 19 10 9 11 7 12
REMARK SMILES IDX 6 13 8 14 5 15 4 16 2 17 3 18 1 19
REMARK H PARENT
REMARK Flexibility Score: inf
ROOT
ATOM      1  C   UNL     1      -0.971  14.023 -28.184  1.00  0.00     0.032 C 
ENDROOT
BRANCH   1   2
ATOM      2  C   UNL     1      -1.478  12.669 -27.758  1.00  0.00    -0.028 C 
ATOM      3  C   UNL     1      -2.667  12.445 -27.151  1.00  0.00    -0.077 C 
ATOM      4  C   UNL     1      -3.002  11.034 -26.739  1.00  0.00     0.039 C 
BRANCH   3   5
ATOM      5  C   UNL     1      -3.686  13.543 -26.901  1.00  0.00     0.034 C 
BRANCH   5   6
ATOM      6  C   UNL     1      -4.332  14.038 -28.202  1.00  0.00     0.032 C 
BRANCH   6   7
ATOM      7  C   UNL     1      -5.775  14.429 -27.984  1.00  0.00    -0.028 C 
ATOM      8  C   UNL     1      -8.038  15.173 -28.586  1.00  0.00     0.039 C 
ATOM      9  C   UNL     1      -6.604  14.887 -28.950  1.00  0.00    -0.080 C 
ATOM     10  C   UNL     1      -6.137  15.115 -30.368  1.00  0.00     0.039 C 
ENDBRANCH   6   7
ENDBRANCH   5   6
ENDBRANCH   3   5
ENDBRANCH   1   2
BRANCH   1  11
ATOM     11  C   UNL     1      -0.100  13.906 -29.439  1.00  0.00     0.034 C 
BRANCH  11  12
ATOM     12  C   UNL     1      -0.848  13.194 -30.545  1.00  0.00    -0.077 C 
ATOM     13  C   UNL     1      -2.158  13.471 -30.732  1.00  0.00    -0.028 C 
ATOM     14  C   UNL     1      -0.106  12.211 -31.422  1.00  0.00     0.039 C 
BRANCH  13  15
ATOM     15  C   UNL     1      -3.035  12.799 -31.760  1.00  0.00     0.035 C 
BRANCH  15  16
ATOM     16  C   UNL     1      -4.185  12.045 -31.076  1.00  0.00     0.079 C 
BRANCH  16  17
ATOM     17  C   UNL     1      -3.850  10.626 -30.673  1.00  0.00     0.130 C 
ATOM     18  O   UNL     1      -2.923  10.067 -31.237  1.00  0.00    -0.300 OA
ATOM     19  C   UNL     1      -4.610   9.875 -29.614  1.00  0.00     0.087 C 
ENDBRANCH  16  17
ENDBRANCH  15  16
ENDBRANCH  13  15
ENDBRANCH  11  12
ENDBRANCH   1  11
TORSDOF 9
ENDMDL
