MODEL 1
REMARK VINA RESULT:    -4.744      0.000      0.000
REMARK INTER + INTRA:         -11.143
REMARK INTER:                  -9.182
REMARK INTRA:                  -1.962
REMARK UNBOUND:                -1.962
REMARK SMILES CCCCCCCCCCCCCCCCCC(=O)[O-]
REMARK SMILES IDX 10 1 11 2 12 3 13 4 14 5 15 6 16 7 17 8 18 9 19 10 20 11
REMARK SMILES IDX 9 12 8 13 7 14 6 15 5 16 4 17 3 18 2 19 1 20
REMARK H PARENT
REMARK Flexibility Score: inf
ROOT
ATOM      1  C   UNL     1      19.083  73.643  18.740  1.00  0.00     0.000 C 
ENDROOT
BRANCH   1   2
ATOM      2  C   UNL     1      18.657  73.114  20.125  1.00  0.00     0.000 C 
BRANCH   2   3
ATOM      3  C   UNL     1      18.425  71.591  20.171  1.00  0.00     0.000 C 
BRANCH   3   4
ATOM      4  C   UNL     1      18.925  70.810  18.941  1.00  0.00     0.000 C 
BRANCH   4   5
ATOM      5  C   UNL     1      18.141  69.523  18.619  1.00  0.00     0.000 C 
BRANCH   5   6
ATOM      6  C   UNL     1      17.461  69.559  17.243  1.00  0.00     0.000 C 
BRANCH   6   7
ATOM      7  C   UNL     1      17.335  70.999  16.727  1.00  0.00     0.006 C 
BRANCH   7   8
ATOM      8  C   UNL     1      15.869  71.438  16.682  1.00  0.00     0.053 C 
BRANCH   8   9
ATOM      9  C   UNL     1      15.494  72.160  17.938  1.00  0.00     0.041 C 
ATOM     10  O   UNL     1      15.515  73.419  17.975  1.00  0.00    -0.550 OA
ATOM     11  O   UNL     1      15.151  71.444  19.080  1.00  0.00    -0.550 OA
ENDBRANCH   8   9
ENDBRANCH   7   8
ENDBRANCH   6   7
ENDBRANCH   5   6
ENDBRANCH   4   5
ENDBRANCH   3   4
ENDBRANCH   2   3
ENDBRANCH   1   2
BRANCH   1  12
ATOM     12  C   UNL     1      18.519  75.043  18.433  1.00  0.00     0.000 C 
BRANCH  12  13
ATOM     13  C   UNL     1      19.181  76.150  19.282  1.00  0.00    -0.000 C 
BRANCH  13  14
ATOM     14  C   UNL     1      20.699  75.963  19.476  1.00  0.00    -0.000 C 
BRANCH  14  15
ATOM     15  C   UNL     1      21.587  76.627  18.405  1.00  0.00    -0.000 C 
BRANCH  15  16
ATOM     16  C   UNL     1      21.276  76.227  16.949  1.00  0.00    -0.000 C 
BRANCH  16  17
ATOM     17  C   UNL     1      21.083  77.437  16.018  1.00  0.00    -0.000 C 
BRANCH  17  18
ATOM     18  C   UNL     1      19.861  78.292  16.401  1.00  0.00    -0.000 C 
BRANCH  18  19
ATOM     19  C   UNL     1      20.169  79.769  16.696  1.00  0.00    -0.003 C 
ATOM     20  C   UNL     1      20.407  80.042  18.179  1.00  0.00     0.004 C 
ENDBRANCH  18  19
ENDBRANCH  17  18
ENDBRANCH  16  17
ENDBRANCH  15  16
ENDBRANCH  14  15
ENDBRANCH  13  14
ENDBRANCH  12  13
ENDBRANCH   1  12
TORSDOF 16
ENDMDL
MODEL 2
REMARK VINA RESULT:    -4.679      2.894      7.572
REMARK INTER + INTRA:         -11.018
REMARK INTER:                  -9.256
REMARK INTRA:                  -1.762
REMARK UNBOUND:                -1.962
REMARK SMILES CCCCCCCCCCCCCCCCCC(=O)[O-]
REMARK SMILES IDX 10 1 11 2 12 3 13 4 14 5 15 6 16 7 17 8 18 9 19 10 20 11
REMARK SMILES IDX 9 12 8 13 7 14 6 15 5 16 4 17 3 18 2 19 1 20
REMARK H PARENT
REMARK Flexibility Score: inf
ROOT
ATOM      1  C   UNL     1      18.824  73.789  19.437  1.00  0.00     0.000 C 
ENDROOT
BRANCH   1   2
ATOM      2  C   UNL     1      20.186  74.489  19.618  1.00  0.00     0.000 C 
BRANCH   2   3
ATOM      3  C   UNL     1      20.096  76.026  19.699  1.00  0.00     0.000 C 
BRANCH   3   4
ATOM      4  C   UNL     1      21.126  76.793  18.848  1.00  0.00     0.000 C 
BRANCH   4   5
ATOM      5  C   UNL     1      21.327  76.252  17.419  1.00  0.00     0.000 C 
BRANCH   5   6
ATOM      6  C   UNL     1      20.897  77.248  16.332  1.00  0.00     0.000 C 
BRANCH   6   7
ATOM      7  C   UNL     1      19.770  78.162  16.834  1.00  0.00     0.006 C 
BRANCH   7   8
ATOM      8  C   UNL     1      20.184  79.634  16.756  1.00  0.00     0.053 C 
BRANCH   8   9
ATOM      9  C   UNL     1      20.280  80.231  18.125  1.00  0.00     0.041 C 
ATOM     10  O   UNL     1      21.182  81.069  18.387  1.00  0.00    -0.550 OA
ATOM     11  O   UNL     1      19.394  79.838  19.123  1.00  0.00    -0.550 OA
ENDBRANCH   8   9
ENDBRANCH   7   8
ENDBRANCH   6   7
ENDBRANCH   5   6
ENDBRANCH   4   5
ENDBRANCH   3   4
ENDBRANCH   2   3
ENDBRANCH   1   2
BRANCH   1  12
ATOM     12  C   UNL     1      18.456  73.566  17.959  1.00  0.00     0.000 C 
BRANCH  12  13
ATOM     13  C   UNL     1      18.446  72.072  17.567  1.00  0.00    -0.000 C 
BRANCH  13  14
ATOM     14  C   UNL     1      18.843  71.123  18.716  1.00  0.00    -0.000 C 
BRANCH  14  15
ATOM     15  C   UNL     1      18.309  69.682  18.595  1.00  0.00    -0.000 C 
BRANCH  15  16
ATOM     16  C   UNL     1      17.201  69.474  17.544  1.00  0.00    -0.000 C 
BRANCH  16  17
ATOM     17  C   UNL     1      15.783  69.614  18.125  1.00  0.00    -0.000 C 
BRANCH  17  18
ATOM     18  C   UNL     1      14.987  70.762  17.480  1.00  0.00    -0.000 C 
BRANCH  18  19
ATOM     19  C   UNL     1      14.382  71.771  18.470  1.00  0.00    -0.003 C 
ATOM     20  C   UNL     1      15.304  72.073  19.649  1.00  0.00     0.004 C 
ENDBRANCH  18  19
ENDBRANCH  17  18
ENDBRANCH  16  17
ENDBRANCH  15  16
ENDBRANCH  14  15
ENDBRANCH  13  14
ENDBRANCH  12  13
ENDBRANCH   1  12
TORSDOF 16
ENDMDL
MODEL 3
REMARK VINA RESULT:    -4.660      2.005      3.133
REMARK INTER + INTRA:         -10.981
REMARK INTER:                  -8.428
REMARK INTRA:                  -2.553
REMARK UNBOUND:                -1.962
REMARK SMILES CCCCCCCCCCCCCCCCCC(=O)[O-]
REMARK SMILES IDX 10 1 11 2 12 3 13 4 14 5 15 6 16 7 17 8 18 9 19 10 20 11
REMARK SMILES IDX 9 12 8 13 7 14 6 15 5 16 4 17 3 18 2 19 1 20
REMARK H PARENT
REMARK Flexibility Score: inf
ROOT
ATOM      1  C   UNL     1      16.756  74.840  18.467  1.00  0.00     0.000 C 
ENDROOT
BRANCH   1   2
ATOM      2  C   UNL     1      16.899  73.467  19.155  1.00  0.00     0.000 C 
BRANCH   2   3
ATOM      3  C   UNL     1      18.319  73.168  19.672  1.00  0.00     0.000 C 
BRANCH   3   4
ATOM      4  C   UNL     1      19.188  72.292  18.749  1.00  0.00     0.000 C 
BRANCH   4   5
ATOM      5  C   UNL     1      18.410  71.274  17.891  1.00  0.00     0.000 C 
BRANCH   5   6
ATOM      6  C   UNL     1      18.314  69.887  18.542  1.00  0.00     0.000 C 
BRANCH   6   7
ATOM      7  C   UNL     1      16.850  69.489  18.779  1.00  0.00     0.006 C 
BRANCH   7   8
ATOM      8  C   UNL     1      16.679  68.829  20.150  1.00  0.00     0.053 C 
BRANCH   8   9
ATOM      9  C   UNL     1      16.729  69.853  21.240  1.00  0.00     0.041 C 
ATOM     10  O   UNL     1      17.433  69.651  22.265  1.00  0.00    -0.550 OA
ATOM     11  O   UNL     1      15.974  71.017  21.143  1.00  0.00    -0.550 OA
ENDBRANCH   8   9
ENDBRANCH   7   8
ENDBRANCH   6   7
ENDBRANCH   5   6
ENDBRANCH   4   5
ENDBRANCH   3   4
ENDBRANCH   2   3
ENDBRANCH   1   2
BRANCH   1  12
ATOM     12  C   UNL     1      16.938  74.768  16.940  1.00  0.00     0.000 C 
BRANCH  12  13
ATOM     13  C   UNL     1      17.372  76.118  16.328  1.00  0.00    -0.000 C 
BRANCH  13  14
ATOM     14  C   UNL     1      18.846  76.153  15.877  1.00  0.00    -0.000 C 
BRANCH  14  15
ATOM     15  C   UNL     1      19.690  74.929  16.284  1.00  0.00    -0.000 C 
BRANCH  15  16
ATOM     16  C   UNL     1      21.131  75.240  16.733  1.00  0.00    -0.000 C 
BRANCH  16  17
ATOM     17  C   UNL     1      21.256  76.580  17.479  1.00  0.00    -0.000 C 
BRANCH  17  18
ATOM     18  C   UNL     1      21.215  76.415  19.009  1.00  0.00    -0.000 C 
BRANCH  18  19
ATOM     19  C   UNL     1      19.809  76.458  19.630  1.00  0.00    -0.003 C 
ATOM     20  C   UNL     1      18.993  77.664  19.169  1.00  0.00     0.004 C 
ENDBRANCH  18  19
ENDBRANCH  17  18
ENDBRANCH  16  17
ENDBRANCH  15  16
ENDBRANCH  14  15
ENDBRANCH  13  14
ENDBRANCH  12  13
ENDBRANCH   1  12
TORSDOF 16
ENDMDL
MODEL 4
REMARK VINA RESULT:    -4.621      2.249      6.967
REMARK INTER + INTRA:         -10.905
REMARK INTER:                  -8.393
REMARK INTRA:                  -2.512
REMARK UNBOUND:                -1.962
REMARK SMILES CCCCCCCCCCCCCCCCCC(=O)[O-]
REMARK SMILES IDX 10 1 11 2 12 3 13 4 14 5 15 6 16 7 17 8 18 9 19 10 20 11
REMARK SMILES IDX 9 12 8 13 7 14 6 15 5 16 4 17 3 18 2 19 1 20
REMARK H PARENT
REMARK Flexibility Score: inf
ROOT
ATOM      1  C   UNL     1      16.556  75.093  18.584  1.00  0.00     0.000 C 
ENDROOT
BRANCH   1   2
ATOM      2  C   UNL     1      15.929  75.364  17.201  1.00  0.00     0.000 C 
BRANCH   2   3
ATOM      3  C   UNL     1      16.959  75.619  16.083  1.00  0.00     0.000 C 
BRANCH   3   4
ATOM      4  C   UNL     1      18.383  75.960  16.564  1.00  0.00     0.000 C 
BRANCH   4   5
ATOM      5  C   UNL     1      18.718  77.464  16.604  1.00  0.00     0.000 C 
BRANCH   5   6
ATOM      6  C   UNL     1      19.766  77.820  17.668  1.00  0.00     0.000 C 
BRANCH   6   7
ATOM      7  C   UNL     1      19.499  77.068  18.979  1.00  0.00     0.006 C 
BRANCH   7   8
ATOM      8  C   UNL     1      20.745  76.304  19.435  1.00  0.00     0.053 C 
BRANCH   8   9
ATOM      9  C   UNL     1      20.379  74.938  19.923  1.00  0.00     0.041 C 
ATOM     10  O   UNL     1      20.062  74.037  19.102  1.00  0.00    -0.550 OA
ATOM     11  O   UNL     1      20.356  74.664  21.287  1.00  0.00    -0.550 OA
ENDBRANCH   8   9
ENDBRANCH   7   8
ENDBRANCH   6   7
ENDBRANCH   5   6
ENDBRANCH   4   5
ENDBRANCH   3   4
ENDBRANCH   2   3
ENDBRANCH   1   2
BRANCH   1  12
ATOM     12  C   UNL     1      16.559  73.600  18.959  1.00  0.00     0.000 C 
BRANCH  12  13
ATOM     13  C   UNL     1      15.276  72.870  18.504  1.00  0.00    -0.000 C 
BRANCH  13  14
ATOM     14  C   UNL     1      15.540  71.637  17.618  1.00  0.00    -0.000 C 
BRANCH  14  15
ATOM     15  C   UNL     1      16.861  71.667  16.824  1.00  0.00    -0.000 C 
BRANCH  15  16
ATOM     16  C   UNL     1      17.624  70.329  16.759  1.00  0.00    -0.000 C 
BRANCH  16  17
ATOM     17  C   UNL     1      17.911  69.729  18.147  1.00  0.00    -0.000 C 
BRANCH  17  18
ATOM     18  C   UNL     1      18.893  70.580  18.970  1.00  0.00    -0.000 C 
BRANCH  18  19
ATOM     19  C   UNL     1      18.469  70.838  20.426  1.00  0.00    -0.003 C 
ATOM     20  C   UNL     1      17.113  70.225  20.766  1.00  0.00     0.004 C 
ENDBRANCH  18  19
ENDBRANCH  17  18
ENDBRANCH  16  17
ENDBRANCH  15  16
ENDBRANCH  14  15
ENDBRANCH  13  14
ENDBRANCH  12  13
ENDBRANCH   1  12
TORSDOF 16
ENDMDL
MODEL 5
REMARK VINA RESULT:    -4.612      2.849      7.273
REMARK INTER + INTRA:         -10.888
REMARK INTER:                  -8.089
REMARK INTRA:                  -2.799
REMARK UNBOUND:                -1.962
REMARK SMILES CCCCCCCCCCCCCCCCCC(=O)[O-]
REMARK SMILES IDX 10 1 11 2 12 3 13 4 14 5 15 6 16 7 17 8 18 9 19 10 20 11
REMARK SMILES IDX 9 12 8 13 7 14 6 15 5 16 4 17 3 18 2 19 1 20
REMARK H PARENT
REMARK Flexibility Score: inf
ROOT
ATOM      1  C   UNL     1      14.846  72.300  19.197  1.00  0.00     0.000 C 
ENDROOT
BRANCH   1   2
ATOM      2  C   UNL     1      15.005  72.596  17.692  1.00  0.00     0.000 C 
BRANCH   2   3
ATOM      3  C   UNL     1      15.905  73.808  17.382  1.00  0.00     0.000 C 
BRANCH   3   4
ATOM      4  C   UNL     1      17.249  73.477  16.705  1.00  0.00     0.000 C 
BRANCH   4   5
ATOM      5  C   UNL     1      18.370  74.509  16.936  1.00  0.00     0.000 C 
BRANCH   5   6
ATOM      6  C   UNL     1      18.435  75.014  18.385  1.00  0.00     0.000 C 
BRANCH   6   7
ATOM      7  C   UNL     1      18.055  76.499  18.469  1.00  0.00     0.006 C 
BRANCH   7   8
ATOM      8  C   UNL     1      19.127  77.297  19.218  1.00  0.00     0.053 C 
BRANCH   8   9
ATOM      9  C   UNL     1      20.462  77.131  18.565  1.00  0.00     0.041 C 
ATOM     10  O   UNL     1      21.414  76.602  19.198  1.00  0.00    -0.550 OA
ATOM     11  O   UNL     1      20.669  77.588  17.267  1.00  0.00    -0.550 OA
ENDBRANCH   8   9
ENDBRANCH   7   8
ENDBRANCH   6   7
ENDBRANCH   5   6
ENDBRANCH   4   5
ENDBRANCH   3   4
ENDBRANCH   2   3
ENDBRANCH   1   2
BRANCH   1  12
ATOM     12  C   UNL     1      16.103  72.655  20.014  1.00  0.00     0.000 C 
BRANCH  12  13
ATOM     13  C   UNL     1      16.949  71.413  20.372  1.00  0.00    -0.000 C 
BRANCH  13  14
ATOM     14  C   UNL     1      18.445  71.559  20.033  1.00  0.00    -0.000 C 
BRANCH  14  15
ATOM     15  C   UNL     1      18.908  70.820  18.762  1.00  0.00    -0.000 C 
BRANCH  15  16
ATOM     16  C   UNL     1      18.057  69.599  18.361  1.00  0.00    -0.000 C 
BRANCH  16  17
ATOM     17  C   UNL     1      17.309  69.794  17.031  1.00  0.00    -0.000 C 
BRANCH  17  18
ATOM     18  C   UNL     1      16.000  68.987  16.961  1.00  0.00    -0.000 C 
BRANCH  18  19
ATOM     19  C   UNL     1      15.296  68.771  18.311  1.00  0.00    -0.003 C 
ATOM     20  C   UNL     1      13.926  68.113  18.168  1.00  0.00     0.004 C 
ENDBRANCH  18  19
ENDBRANCH  17  18
ENDBRANCH  16  17
ENDBRANCH  15  16
ENDBRANCH  14  15
ENDBRANCH  13  14
ENDBRANCH  12  13
ENDBRANCH   1  12
TORSDOF 16
ENDMDL
MODEL 6
REMARK VINA RESULT:    -4.558      2.830      7.390
REMARK INTER + INTRA:         -10.784
REMARK INTER:                  -8.253
REMARK INTRA:                  -2.531
REMARK UNBOUND:                -1.962
REMARK SMILES CCCCCCCCCCCCCCCCCC(=O)[O-]
REMARK SMILES IDX 10 1 11 2 12 3 13 4 14 5 15 6 16 7 17 8 18 9 19 10 20 11
REMARK SMILES IDX 9 12 8 13 7 14 6 15 5 16 4 17 3 18 2 19 1 20
REMARK H PARENT
REMARK Flexibility Score: inf
ROOT
ATOM      1  C   UNL     1      14.489  72.375  18.267  1.00  0.00     0.000 C 
ENDROOT
BRANCH   1   2
ATOM      2  C   UNL     1      15.690  73.333  18.402  1.00  0.00     0.000 C 
BRANCH   2   3
ATOM      3  C   UNL     1      16.566  73.424  17.137  1.00  0.00     0.000 C 
BRANCH   3   4
ATOM      4  C   UNL     1      17.692  74.474  17.188  1.00  0.00     0.000 C 
BRANCH   4   5
ATOM      5  C   UNL     1      17.853  75.196  18.540  1.00  0.00     0.000 C 
BRANCH   5   6
ATOM      6  C   UNL     1      19.187  74.887  19.234  1.00  0.00     0.000 C 
BRANCH   6   7
ATOM      7  C   UNL     1      19.939  76.178  19.587  1.00  0.00     0.006 C 
BRANCH   7   8
ATOM      8  C   UNL     1      19.216  77.404  19.020  1.00  0.00     0.053 C 
BRANCH   8   9
ATOM      9  C   UNL     1      20.126  78.188  18.128  1.00  0.00     0.041 C 
ATOM     10  O   UNL     1      20.778  77.607  17.221  1.00  0.00    -0.550 OA
ATOM     11  O   UNL     1      20.281  79.558  18.317  1.00  0.00    -0.550 OA
ENDBRANCH   8   9
ENDBRANCH   7   8
ENDBRANCH   6   7
ENDBRANCH   5   6
ENDBRANCH   4   5
ENDBRANCH   3   4
ENDBRANCH   2   3
ENDBRANCH   1   2
BRANCH   1  12
ATOM     12  C   UNL     1      14.736  71.241  17.254  1.00  0.00     0.000 C 
BRANCH  12  13
ATOM     13  C   UNL     1      14.768  69.847  17.918  1.00  0.00    -0.000 C 
BRANCH  13  14
ATOM     14  C   UNL     1      15.886  68.929  17.386  1.00  0.00    -0.000 C 
BRANCH  14  15
ATOM     15  C   UNL     1      17.241  69.618  17.133  1.00  0.00    -0.000 C 
BRANCH  15  16
ATOM     16  C   UNL     1      18.246  69.547  18.300  1.00  0.00    -0.000 C 
BRANCH  16  17
ATOM     17  C   UNL     1      18.593  70.928  18.885  1.00  0.00    -0.000 C 
BRANCH  17  18
ATOM     18  C   UNL     1      18.317  71.019  20.396  1.00  0.00    -0.000 C 
BRANCH  18  19
ATOM     19  C   UNL     1      16.844  70.842  20.800  1.00  0.00    -0.003 C 
ATOM     20  C   UNL     1      16.584  69.532  21.540  1.00  0.00     0.004 C 
ENDBRANCH  18  19
ENDBRANCH  17  18
ENDBRANCH  16  17
ENDBRANCH  15  16
ENDBRANCH  14  15
ENDBRANCH  13  14
ENDBRANCH  12  13
ENDBRANCH   1  12
TORSDOF 16
ENDMDL
MODEL 7
REMARK VINA RESULT:    -4.520      2.471      6.880
REMARK INTER + INTRA:         -10.709
REMARK INTER:                  -8.058
REMARK INTRA:                  -2.651
REMARK UNBOUND:                -1.962
REMARK SMILES CCCCCCCCCCCCCCCCCC(=O)[O-]
REMARK SMILES IDX 10 1 11 2 12 3 13 4 14 5 15 6 16 7 17 8 18 9 19 10 20 11
REMARK SMILES IDX 9 12 8 13 7 14 6 15 5 16 4 17 3 18 2 19 1 20
REMARK H PARENT
REMARK Flexibility Score: inf
ROOT
ATOM      1  C   UNL     1      18.783  73.263  19.774  1.00  0.00     0.000 C 
ENDROOT
BRANCH   1   2
ATOM      2  C   UNL     1      17.844  74.084  18.867  1.00  0.00     0.000 C 
BRANCH   2   3
ATOM      3  C   UNL     1      18.326  74.205  17.408  1.00  0.00     0.000 C 
BRANCH   3   4
ATOM      4  C   UNL     1      17.435  75.061  16.487  1.00  0.00     0.000 C 
BRANCH   4   5
ATOM      5  C   UNL     1      17.633  76.584  16.617  1.00  0.00     0.000 C 
BRANCH   5   6
ATOM      6  C   UNL     1      18.980  77.067  16.060  1.00  0.00     0.000 C 
BRANCH   6   7
ATOM      7  C   UNL     1      19.637  78.082  17.006  1.00  0.00     0.006 C 
BRANCH   7   8
ATOM      8  C   UNL     1      19.620  77.575  18.450  1.00  0.00     0.053 C 
BRANCH   8   9
ATOM      9  C   UNL     1      20.802  76.698  18.717  1.00  0.00     0.041 C 
ATOM     10  O   UNL     1      20.929  76.131  19.835  1.00  0.00    -0.550 OA
ATOM     11  O   UNL     1      21.783  76.529  17.745  1.00  0.00    -0.550 OA
ENDBRANCH   8   9
ENDBRANCH   7   8
ENDBRANCH   6   7
ENDBRANCH   5   6
ENDBRANCH   4   5
ENDBRANCH   3   4
ENDBRANCH   2   3
ENDBRANCH   1   2
BRANCH   1  12
ATOM     12  C   UNL     1      18.351  71.790  19.906  1.00  0.00     0.000 C 
BRANCH  12  13
ATOM     13  C   UNL     1      18.930  70.898  18.787  1.00  0.00    -0.000 C 
BRANCH  13  14
ATOM     14  C   UNL     1      18.179  69.564  18.602  1.00  0.00    -0.000 C 
BRANCH  14  15
ATOM     15  C   UNL     1      17.113  69.556  17.489  1.00  0.00    -0.000 C 
BRANCH  15  16
ATOM     16  C   UNL     1      17.002  70.858  16.672  1.00  0.00    -0.000 C 
BRANCH  16  17
ATOM     17  C   UNL     1      15.680  71.609  16.908  1.00  0.00    -0.000 C 
BRANCH  17  18
ATOM     18  C   UNL     1      15.037  71.269  18.264  1.00  0.00    -0.000 C 
BRANCH  18  19
ATOM     19  C   UNL     1      14.504  72.477  19.053  1.00  0.00    -0.003 C 
ATOM     20  C   UNL     1      14.261  73.700  18.173  1.00  0.00     0.004 C 
ENDBRANCH  18  19
ENDBRANCH  17  18
ENDBRANCH  16  17
ENDBRANCH  15  16
ENDBRANCH  14  15
ENDBRANCH  13  14
ENDBRANCH  12  13
ENDBRANCH   1  12
TORSDOF 16
ENDMDL
MODEL 8
REMARK VINA RESULT:    -4.508      2.866      7.363
REMARK INTER + INTRA:         -10.687
REMARK INTER:                  -8.662
REMARK INTRA:                  -2.025
REMARK UNBOUND:                -1.962
REMARK SMILES CCCCCCCCCCCCCCCCCC(=O)[O-]
REMARK SMILES IDX 10 1 11 2 12 3 13 4 14 5 15 6 16 7 17 8 18 9 19 10 20 11
REMARK SMILES IDX 9 12 8 13 7 14 6 15 5 16 4 17 3 18 2 19 1 20
REMARK H PARENT
REMARK Flexibility Score: inf
ROOT
ATOM      1  C   UNL     1      17.818  75.443  18.494  1.00  0.00     0.000 C 
ENDROOT
BRANCH   1   2
ATOM      2  C   UNL     1      19.148  74.775  18.897  1.00  0.00     0.000 C 
BRANCH   2   3
ATOM      3  C   UNL     1      20.150  75.729  19.576  1.00  0.00     0.000 C 
BRANCH   3   4
ATOM      4  C   UNL     1      21.081  76.498  18.619  1.00  0.00     0.000 C 
BRANCH   4   5
ATOM      5  C   UNL     1      21.066  76.009  17.158  1.00  0.00     0.000 C 
BRANCH   5   6
ATOM      6  C   UNL     1      20.835  77.140  16.146  1.00  0.00     0.000 C 
BRANCH   6   7
ATOM      7  C   UNL     1      19.760  78.116  16.645  1.00  0.00     0.006 C 
BRANCH   7   8
ATOM      8  C   UNL     1      20.301  79.548  16.690  1.00  0.00     0.053 C 
BRANCH   8   9
ATOM      9  C   UNL     1      20.267  80.082  18.088  1.00  0.00     0.041 C 
ATOM     10  O   UNL     1      19.493  79.573  18.941  1.00  0.00    -0.550 OA
ATOM     11  O   UNL     1      21.065  81.165  18.443  1.00  0.00    -0.550 OA
ENDBRANCH   8   9
ENDBRANCH   7   8
ENDBRANCH   6   7
ENDBRANCH   5   6
ENDBRANCH   4   5
ENDBRANCH   3   4
ENDBRANCH   2   3
ENDBRANCH   1   2
BRANCH   1  12
ATOM     12  C   UNL     1      17.329  75.013  17.098  1.00  0.00     0.000 C 
BRANCH  12  13
ATOM     13  C   UNL     1      15.946  74.328  17.138  1.00  0.00    -0.000 C 
BRANCH  13  14
ATOM     14  C   UNL     1      15.899  73.067  18.022  1.00  0.00    -0.000 C 
BRANCH  14  15
ATOM     15  C   UNL     1      16.044  71.729  17.271  1.00  0.00    -0.000 C 
BRANCH  15  16
ATOM     16  C   UNL     1      17.492  71.272  17.008  1.00  0.00    -0.000 C 
BRANCH  16  17
ATOM     17  C   UNL     1      18.035  70.327  18.095  1.00  0.00    -0.000 C 
BRANCH  17  18
ATOM     18  C   UNL     1      18.804  71.072  19.200  1.00  0.00    -0.000 C 
BRANCH  18  19
ATOM     19  C   UNL     1      18.340  70.765  20.634  1.00  0.00    -0.003 C 
ATOM     20  C   UNL     1      16.822  70.672  20.761  1.00  0.00     0.004 C 
ENDBRANCH  18  19
ENDBRANCH  17  18
ENDBRANCH  16  17
ENDBRANCH  15  16
ENDBRANCH  14  15
ENDBRANCH  13  14
ENDBRANCH  12  13
ENDBRANCH   1  12
TORSDOF 16
ENDMDL
MODEL 9
REMARK VINA RESULT:    -4.507      2.544      3.723
REMARK INTER + INTRA:         -10.685
REMARK INTER:                  -8.251
REMARK INTRA:                  -2.435
REMARK UNBOUND:                -1.962
REMARK SMILES CCCCCCCCCCCCCCCCCC(=O)[O-]
REMARK SMILES IDX 10 1 11 2 12 3 13 4 14 5 15 6 16 7 17 8 18 9 19 10 20 11
REMARK SMILES IDX 9 12 8 13 7 14 6 15 5 16 4 17 3 18 2 19 1 20
REMARK H PARENT
REMARK Flexibility Score: inf
ROOT
ATOM      1  C   UNL     1      15.958  71.831  20.383  1.00  0.00     0.000 C 
ENDROOT
BRANCH   1   2
ATOM      2  C   UNL     1      17.463  72.150  20.497  1.00  0.00     0.000 C 
BRANCH   2   3
ATOM      3  C   UNL     1      18.378  70.920  20.340  1.00  0.00     0.000 C 
BRANCH   3   4
ATOM      4  C   UNL     1      18.877  70.647  18.908  1.00  0.00     0.000 C 
BRANCH   4   5
ATOM      5  C   UNL     1      18.105  69.554  18.143  1.00  0.00     0.000 C 
BRANCH   5   6
ATOM      6  C   UNL     1      17.325  70.098  16.937  1.00  0.00     0.000 C 
BRANCH   6   7
ATOM      7  C   UNL     1      15.911  69.503  16.879  1.00  0.00     0.006 C 
BRANCH   7   8
ATOM      8  C   UNL     1      15.534  68.858  18.216  1.00  0.00     0.053 C 
BRANCH   8   9
ATOM      9  C   UNL     1      14.339  67.972  18.057  1.00  0.00     0.041 C 
ATOM     10  O   UNL     1      13.848  67.770  16.915  1.00  0.00    -0.550 OA
ATOM     11  O   UNL     1      13.744  67.392  19.173  1.00  0.00    -0.550 OA
ENDBRANCH   8   9
ENDBRANCH   7   8
ENDBRANCH   6   7
ENDBRANCH   5   6
ENDBRANCH   4   5
ENDBRANCH   3   4
ENDBRANCH   2   3
ENDBRANCH   1   2
BRANCH   1  12
ATOM     12  C   UNL     1      15.316  72.413  19.110  1.00  0.00     0.000 C 
BRANCH  12  13
ATOM     13  C   UNL     1      15.840  73.826  18.772  1.00  0.00    -0.000 C 
BRANCH  13  14
ATOM     14  C   UNL     1      16.543  73.919  17.403  1.00  0.00    -0.000 C 
BRANCH  14  15
ATOM     15  C   UNL     1      18.074  74.095  17.460  1.00  0.00    -0.000 C 
BRANCH  15  16
ATOM     16  C   UNL     1      18.576  75.548  17.341  1.00  0.00    -0.000 C 
BRANCH  16  17
ATOM     17  C   UNL     1      18.173  76.426  18.539  1.00  0.00    -0.000 C 
BRANCH  17  18
ATOM     18  C   UNL     1      19.383  76.880  19.376  1.00  0.00    -0.000 C 
BRANCH  18  19
ATOM     19  C   UNL     1      20.509  75.842  19.507  1.00  0.00    -0.003 C 
ATOM     20  C   UNL     1      20.258  74.831  20.623  1.00  0.00     0.004 C 
ENDBRANCH  18  19
ENDBRANCH  17  18
ENDBRANCH  16  17
ENDBRANCH  15  16
ENDBRANCH  14  15
ENDBRANCH  13  14
ENDBRANCH  12  13
ENDBRANCH   1  12
TORSDOF 16
ENDMDL
