MODEL 1
REMARK VINA RESULT:    -4.177      0.000      0.000
REMARK INTER + INTRA:          -5.111
REMARK INTER:                  -5.032
REMARK INTRA:                  -0.079
REMARK UNBOUND:                -0.079
REMARK SMILES OCCc1ccc(O)c(O)c1
REMARK SMILES IDX 3 1 4 2 5 3 6 4 7 5 11 6 9 7 8 8 10 10 2 12 1 13
REMARK H PARENT 8 9 10 11 1 14
REMARK Flexibility Score: inf
ROOT
ATOM      1  C   UNL     1      18.428 -49.266   6.973  1.00  0.00     0.064 C 
ENDROOT
BRANCH   1   2
ATOM      2  C   UNL     1      18.598 -47.771   6.931  1.00  0.00    -0.042 A 
ATOM      3  C   UNL     1      19.535 -47.190   6.063  1.00  0.00     0.008 A 
ATOM      4  C   UNL     1      19.672 -45.800   6.001  1.00  0.00     0.050 A 
ATOM      5  C   UNL     1      18.869 -44.975   6.796  1.00  0.00     0.157 A 
ATOM      6  C   UNL     1      17.782 -46.943   7.718  1.00  0.00     0.054 A 
ATOM      7  C   UNL     1      17.917 -45.548   7.657  1.00  0.00     0.157 A 
BRANCH   5   8
ATOM      8  O   UNL     1      19.027 -43.592   6.714  1.00  0.00    -0.504 OA
ATOM      9  H   UNL     1      19.906 -43.166   6.446  1.00  0.00     0.293 HD
ENDBRANCH   5   8
BRANCH   7  10
ATOM     10  O   UNL     1      17.108 -44.732   8.447  1.00  0.00    -0.504 OA
ATOM     11  H   UNL     1      17.386 -43.790   8.696  1.00  0.00     0.293 HD
ENDBRANCH   7  10
ENDBRANCH   1   2
BRANCH   1  12
ATOM     12  C   UNL     1      18.144 -49.739   8.400  1.00  0.00     0.161 C 
BRANCH  12  13
ATOM     13  O   UNL     1      17.143 -50.719   8.396  1.00  0.00    -0.396 OA
ATOM     14  H   UNL     1      16.990 -50.964   7.446  1.00  0.00     0.210 HD
ENDBRANCH  12  13
ENDBRANCH   1  12
TORSDOF 5
ENDMDL
MODEL 2
REMARK VINA RESULT:    -3.992      1.043      2.116
REMARK INTER + INTRA:          -4.888
REMARK INTER:                  -4.805
REMARK INTRA:                  -0.083
REMARK UNBOUND:                -0.079
REMARK SMILES OCCc1ccc(O)c(O)c1
REMARK SMILES IDX 3 1 4 2 5 3 6 4 7 5 11 6 9 7 8 8 10 10 2 12 1 13
REMARK H PARENT 8 9 10 11 1 14
REMARK Flexibility Score: inf
ROOT
ATOM      1  C   UNL     1      18.175 -49.659   7.226  1.00  0.00     0.064 C 
ENDROOT
BRANCH   1   2
ATOM      2  C   UNL     1      18.379 -48.176   7.068  1.00  0.00    -0.042 A 
ATOM      3  C   UNL     1      17.727 -47.277   7.926  1.00  0.00     0.008 A 
ATOM      4  C   UNL     1      17.941 -45.901   7.799  1.00  0.00     0.050 A 
ATOM      5  C   UNL     1      18.813 -45.408   6.824  1.00  0.00     0.157 A 
ATOM      6  C   UNL     1      19.265 -47.682   6.098  1.00  0.00     0.054 A 
ATOM      7  C   UNL     1      19.481 -46.302   5.969  1.00  0.00     0.157 A 
BRANCH   5   8
ATOM      8  O   UNL     1      19.006 -44.031   6.720  1.00  0.00    -0.504 OA
ATOM      9  H   UNL     1      18.805 -43.521   5.868  1.00  0.00     0.293 HD
ENDBRANCH   5   8
BRANCH   7  10
ATOM     10  O   UNL     1      20.357 -45.819   4.998  1.00  0.00    -0.504 OA
ATOM     11  H   UNL     1      20.602 -46.368   4.183  1.00  0.00     0.293 HD
ENDBRANCH   7  10
ENDBRANCH   1   2
BRANCH   1  12
ATOM     12  C   UNL     1      17.983 -50.025   8.699  1.00  0.00     0.161 C 
BRANCH  12  13
ATOM     13  O   UNL     1      16.964 -50.978   8.834  1.00  0.00    -0.396 OA
ATOM     14  H   UNL     1      16.147 -50.578   8.435  1.00  0.00     0.210 HD
ENDBRANCH  12  13
ENDBRANCH   1  12
TORSDOF 5
ENDMDL
MODEL 3
REMARK VINA RESULT:    -3.934      3.313      4.482
REMARK INTER + INTRA:          -4.818
REMARK INTER:                  -4.754
REMARK INTRA:                  -0.064
REMARK UNBOUND:                -0.079
REMARK SMILES OCCc1ccc(O)c(O)c1
REMARK SMILES IDX 3 1 4 2 5 3 6 4 7 5 11 6 9 7 8 8 10 10 2 12 1 13
REMARK H PARENT 8 9 10 11 1 14
REMARK Flexibility Score: inf
ROOT
ATOM      1  C   UNL     1      19.293 -45.742   6.505  1.00  0.00     0.064 C 
ENDROOT
BRANCH   1   2
ATOM      2  C   UNL     1      20.213 -44.737   7.144  1.00  0.00    -0.042 A 
ATOM      3  C   UNL     1      19.780 -43.419   7.360  1.00  0.00     0.008 A 
ATOM      4  C   UNL     1      20.623 -42.493   7.982  1.00  0.00     0.050 A 
ATOM      5  C   UNL     1      21.901 -42.873   8.403  1.00  0.00     0.157 A 
ATOM      6  C   UNL     1      21.490 -45.121   7.580  1.00  0.00     0.054 A 
ATOM      7  C   UNL     1      22.338 -44.194   8.204  1.00  0.00     0.157 A 
BRANCH   5   8
ATOM      8  O   UNL     1      22.721 -41.928   9.020  1.00  0.00    -0.504 OA
ATOM      9  H   UNL     1      23.668 -42.143   9.308  1.00  0.00     0.293 HD
ENDBRANCH   5   8
BRANCH   7  10
ATOM     10  O   UNL     1      23.608 -44.582   8.627  1.00  0.00    -0.504 OA
ATOM     11  H   UNL     1      24.336 -43.903   8.815  1.00  0.00     0.293 HD
ENDBRANCH   7  10
ENDBRANCH   1   2
BRANCH   1  12
ATOM     12  C   UNL     1      20.093 -46.796   5.737  1.00  0.00     0.161 C 
BRANCH  12  13
ATOM     13  O   UNL     1      19.229 -47.621   5.003  1.00  0.00    -0.396 OA
ATOM     14  H   UNL     1      19.707 -47.856   4.165  1.00  0.00     0.210 HD
ENDBRANCH  12  13
ENDBRANCH   1  12
TORSDOF 5
ENDMDL
MODEL 4
REMARK VINA RESULT:    -3.915      2.317      2.945
REMARK INTER + INTRA:          -4.795
REMARK INTER:                  -4.709
REMARK INTRA:                  -0.086
REMARK UNBOUND:                -0.079
REMARK SMILES OCCc1ccc(O)c(O)c1
REMARK SMILES IDX 3 1 4 2 5 3 6 4 7 5 11 6 9 7 8 8 10 10 2 12 1 13
REMARK H PARENT 8 9 10 11 1 14
REMARK Flexibility Score: inf
ROOT
ATOM      1  C   UNL     1      18.147 -47.466   7.126  1.00  0.00     0.064 C 
ENDROOT
BRANCH   1   2
ATOM      2  C   UNL     1      18.976 -46.310   7.618  1.00  0.00    -0.042 A 
ATOM      3  C   UNL     1      19.920 -46.500   8.639  1.00  0.00     0.008 A 
ATOM      4  C   UNL     1      20.712 -45.433   9.074  1.00  0.00     0.050 A 
ATOM      5  C   UNL     1      20.579 -44.169   8.489  1.00  0.00     0.157 A 
ATOM      6  C   UNL     1      18.853 -45.045   7.021  1.00  0.00     0.054 A 
ATOM      7  C   UNL     1      19.647 -43.973   7.455  1.00  0.00     0.157 A 
BRANCH   5   8
ATOM      8  O   UNL     1      21.382 -43.124   8.944  1.00  0.00    -0.504 OA
ATOM      9  H   UNL     1      21.775 -42.434   8.314  1.00  0.00     0.293 HD
ENDBRANCH   5   8
BRANCH   7  10
ATOM     10  O   UNL     1      19.513 -42.718   6.863  1.00  0.00    -0.504 OA
ATOM     11  H   UNL     1      18.665 -42.173   6.960  1.00  0.00     0.293 HD
ENDBRANCH   7  10
ENDBRANCH   1   2
BRANCH   1  12
ATOM     12  C   UNL     1      18.979 -48.388   6.233  1.00  0.00     0.161 C 
BRANCH  12  13
ATOM     13  O   UNL     1      19.080 -47.850   4.943  1.00  0.00    -0.396 OA
ATOM     14  H   UNL     1      19.733 -48.415   4.451  1.00  0.00     0.210 HD
ENDBRANCH  12  13
ENDBRANCH   1  12
TORSDOF 5
ENDMDL
MODEL 5
REMARK VINA RESULT:    -3.852      1.946      3.932
REMARK INTER + INTRA:          -4.720
REMARK INTER:                  -4.627
REMARK INTRA:                  -0.093
REMARK UNBOUND:                -0.079
REMARK SMILES OCCc1ccc(O)c(O)c1
REMARK SMILES IDX 3 1 4 2 5 3 6 4 7 5 11 6 9 7 8 8 10 10 2 12 1 13
REMARK H PARENT 8 9 10 11 1 14
REMARK Flexibility Score: inf
ROOT
ATOM      1  C   UNL     1      17.801 -44.762   7.989  1.00  0.00     0.064 C 
ENDROOT
BRANCH   1   2
ATOM      2  C   UNL     1      18.488 -45.843   7.196  1.00  0.00    -0.042 A 
ATOM      3  C   UNL     1      19.566 -45.526   6.355  1.00  0.00     0.008 A 
ATOM      4  C   UNL     1      20.223 -46.534   5.642  1.00  0.00     0.050 A 
ATOM      5  C   UNL     1      19.821 -47.867   5.769  1.00  0.00     0.157 A 
ATOM      6  C   UNL     1      18.093 -47.183   7.334  1.00  0.00     0.054 A 
ATOM      7  C   UNL     1      18.752 -48.195   6.621  1.00  0.00     0.157 A 
BRANCH   5   8
ATOM      8  O   UNL     1      20.495 -48.850   5.046  1.00  0.00    -0.504 OA
ATOM      9  H   UNL     1      20.779 -49.728   5.466  1.00  0.00     0.293 HD
ENDBRANCH   5   8
BRANCH   7  10
ATOM     10  O   UNL     1      18.349 -49.523   6.757  1.00  0.00    -0.504 OA
ATOM     11  H   UNL     1      17.395 -49.810   6.578  1.00  0.00     0.293 HD
ENDBRANCH   7  10
ENDBRANCH   1   2
BRANCH   1  12
ATOM     12  C   UNL     1      16.467 -45.264   8.543  1.00  0.00     0.161 C 
BRANCH  12  13
ATOM     13  O   UNL     1      15.407 -44.792   7.755  1.00  0.00    -0.396 OA
ATOM     14  H   UNL     1      14.581 -45.215   8.109  1.00  0.00     0.210 HD
ENDBRANCH  12  13
ENDBRANCH   1  12
TORSDOF 5
ENDMDL
MODEL 6
REMARK VINA RESULT:    -3.849      2.538      5.186
REMARK INTER + INTRA:          -4.716
REMARK INTER:                  -4.616
REMARK INTRA:                  -0.100
REMARK UNBOUND:                -0.079
REMARK SMILES OCCc1ccc(O)c(O)c1
REMARK SMILES IDX 3 1 4 2 5 3 6 4 7 5 11 6 9 7 8 8 10 10 2 12 1 13
REMARK H PARENT 8 9 10 11 1 14
REMARK Flexibility Score: inf
ROOT
ATOM      1  C   UNL     1      19.969 -43.043   7.324  1.00  0.00     0.064 C 
ENDROOT
BRANCH   1   2
ATOM      2  C   UNL     1      19.855 -44.544   7.365  1.00  0.00    -0.042 A 
ATOM      3  C   UNL     1      19.937 -45.226   8.589  1.00  0.00     0.008 A 
ATOM      4  C   UNL     1      19.800 -46.617   8.631  1.00  0.00     0.050 A 
ATOM      5  C   UNL     1      19.569 -47.340   7.457  1.00  0.00     0.157 A 
ATOM      6  C   UNL     1      19.609 -45.269   6.189  1.00  0.00     0.054 A 
ATOM      7  C   UNL     1      19.470 -46.664   6.228  1.00  0.00     0.157 A 
BRANCH   5   8
ATOM      8  O   UNL     1      19.437 -48.727   7.529  1.00  0.00    -0.504 OA
ATOM      9  H   UNL     1      19.693 -49.249   8.359  1.00  0.00     0.293 HD
ENDBRANCH   5   8
BRANCH   7  10
ATOM     10  O   UNL     1      19.233 -47.378   5.055  1.00  0.00    -0.504 OA
ATOM     11  H   UNL     1      19.878 -47.345   4.274  1.00  0.00     0.293 HD
ENDBRANCH   7  10
ENDBRANCH   1   2
BRANCH   1  12
ATOM     12  C   UNL     1      21.011 -42.553   8.331  1.00  0.00     0.161 C 
BRANCH  12  13
ATOM     13  O   UNL     1      22.285 -42.549   7.747  1.00  0.00    -0.396 OA
ATOM     14  H   UNL     1      22.146 -42.559   6.763  1.00  0.00     0.210 HD
ENDBRANCH  12  13
ENDBRANCH   1  12
TORSDOF 5
ENDMDL
MODEL 7
REMARK VINA RESULT:    -3.807      2.794      5.229
REMARK INTER + INTRA:          -4.665
REMARK INTER:                  -4.571
REMARK INTRA:                  -0.094
REMARK UNBOUND:                -0.079
REMARK SMILES OCCc1ccc(O)c(O)c1
REMARK SMILES IDX 3 1 4 2 5 3 6 4 7 5 11 6 9 7 8 8 10 10 2 12 1 13
REMARK H PARENT 8 9 10 11 1 14
REMARK Flexibility Score: inf
ROOT
ATOM      1  C   UNL     1      20.744 -42.494   8.398  1.00  0.00     0.064 C 
ENDROOT
BRANCH   1   2
ATOM      2  C   UNL     1      20.097 -43.853   8.360  1.00  0.00    -0.042 A 
ATOM      3  C   UNL     1      20.835 -44.998   8.701  1.00  0.00     0.008 A 
ATOM      4  C   UNL     1      20.225 -46.256   8.696  1.00  0.00     0.050 A 
ATOM      5  C   UNL     1      18.874 -46.386   8.361  1.00  0.00     0.157 A 
ATOM      6  C   UNL     1      18.737 -43.982   8.038  1.00  0.00     0.054 A 
ATOM      7  C   UNL     1      18.123 -45.244   8.032  1.00  0.00     0.157 A 
BRANCH   5   8
ATOM      8  O   UNL     1      18.293 -47.654   8.364  1.00  0.00    -0.504 OA
ATOM      9  H   UNL     1      18.664 -48.414   8.921  1.00  0.00     0.293 HD
ENDBRANCH   5   8
BRANCH   7  10
ATOM     10  O   UNL     1      16.774 -45.364   7.704  1.00  0.00    -0.504 OA
ATOM     11  H   UNL     1      16.371 -44.863   6.922  1.00  0.00     0.293 HD
ENDBRANCH   7  10
ENDBRANCH   1   2
BRANCH   1  12
ATOM     12  C   UNL     1      22.239 -42.616   8.701  1.00  0.00     0.161 C 
BRANCH  12  13
ATOM     13  O   UNL     1      22.987 -42.426   7.531  1.00  0.00    -0.396 OA
ATOM     14  H   UNL     1      23.930 -42.295   7.817  1.00  0.00     0.210 HD
ENDBRANCH  12  13
ENDBRANCH   1  12
TORSDOF 5
ENDMDL
MODEL 8
REMARK VINA RESULT:    -3.775      2.972      4.501
REMARK INTER + INTRA:          -4.627
REMARK INTER:                  -4.546
REMARK INTRA:                  -0.081
REMARK UNBOUND:                -0.079
REMARK SMILES OCCc1ccc(O)c(O)c1
REMARK SMILES IDX 3 1 4 2 5 3 6 4 7 5 11 6 9 7 8 8 10 10 2 12 1 13
REMARK H PARENT 8 9 10 11 1 14
REMARK Flexibility Score: inf
ROOT
ATOM      1  C   UNL     1      18.861 -45.613   6.886  1.00  0.00     0.064 C 
ENDROOT
BRANCH   1   2
ATOM      2  C   UNL     1      19.985 -44.681   7.255  1.00  0.00    -0.042 A 
ATOM      3  C   UNL     1      19.731 -43.317   7.472  1.00  0.00     0.008 A 
ATOM      4  C   UNL     1      20.768 -42.458   7.846  1.00  0.00     0.050 A 
ATOM      5  C   UNL     1      22.066 -42.950   8.016  1.00  0.00     0.157 A 
ATOM      6  C   UNL     1      21.285 -45.177   7.440  1.00  0.00     0.054 A 
ATOM      7  C   UNL     1      22.327 -44.316   7.815  1.00  0.00     0.157 A 
BRANCH   5   8
ATOM      8  O   UNL     1      23.082 -42.069   8.389  1.00  0.00    -0.504 OA
ATOM      9  H   UNL     1      22.896 -41.228   8.922  1.00  0.00     0.293 HD
ENDBRANCH   5   8
BRANCH   7  10
ATOM     10  O   UNL     1      23.617 -44.815   7.990  1.00  0.00    -0.504 OA
ATOM     11  H   UNL     1      23.963 -45.088   8.902  1.00  0.00     0.293 HD
ENDBRANCH   7  10
ENDBRANCH   1   2
BRANCH   1  12
ATOM     12  C   UNL     1      17.871 -45.751   8.044  1.00  0.00     0.161 C 
BRANCH  12  13
ATOM     13  O   UNL     1      16.674 -45.088   7.739  1.00  0.00    -0.396 OA
ATOM     14  H   UNL     1      16.542 -45.179   6.759  1.00  0.00     0.210 HD
ENDBRANCH  12  13
ENDBRANCH   1  12
TORSDOF 5
ENDMDL
MODEL 9
REMARK VINA RESULT:    -3.752      1.858      2.861
REMARK INTER + INTRA:          -4.600
REMARK INTER:                  -4.532
REMARK INTRA:                  -0.067
REMARK UNBOUND:                -0.079
REMARK SMILES OCCc1ccc(O)c(O)c1
REMARK SMILES IDX 3 1 4 2 5 3 6 4 7 5 11 6 9 7 8 8 10 10 2 12 1 13
REMARK H PARENT 8 9 10 11 1 14
REMARK Flexibility Score: inf
ROOT
ATOM      1  C   UNL     1      20.506 -48.068   5.345  1.00  0.00     0.064 C 
ENDROOT
BRANCH   1   2
ATOM      2  C   UNL     1      19.580 -47.182   6.135  1.00  0.00    -0.042 A 
ATOM      3  C   UNL     1      18.645 -47.744   7.018  1.00  0.00     0.008 A 
ATOM      4  C   UNL     1      17.807 -46.920   7.775  1.00  0.00     0.050 A 
ATOM      5  C   UNL     1      17.899 -45.529   7.668  1.00  0.00     0.157 A 
ATOM      6  C   UNL     1      19.682 -45.786   6.038  1.00  0.00     0.054 A 
ATOM      7  C   UNL     1      18.843 -44.957   6.798  1.00  0.00     0.157 A 
BRANCH   5   8
ATOM      8  O   UNL     1      17.050 -44.732   8.436  1.00  0.00    -0.504 OA
ATOM      9  H   UNL     1      16.136 -45.051   8.734  1.00  0.00     0.293 HD
ENDBRANCH   5   8
BRANCH   7  10
ATOM     10  O   UNL     1      18.945 -43.571   6.690  1.00  0.00    -0.504 OA
ATOM     11  H   UNL     1      19.621 -43.044   7.230  1.00  0.00     0.293 HD
ENDBRANCH   7  10
ENDBRANCH   1   2
BRANCH   1  12
ATOM     12  C   UNL     1      20.870 -49.320   6.145  1.00  0.00     0.161 C 
BRANCH  12  13
ATOM     13  O   UNL     1      21.594 -50.214   5.345  1.00  0.00    -0.396 OA
ATOM     14  H   UNL     1      22.554 -49.995   5.473  1.00  0.00     0.210 HD
ENDBRANCH  12  13
ENDBRANCH   1  12
TORSDOF 5
ENDMDL
