MODEL 1
REMARK VINA RESULT:    -7.076      0.000      0.000
REMARK INTER + INTRA:          -8.580
REMARK INTER:                  -8.316
REMARK INTRA:                  -0.264
REMARK UNBOUND:                -0.264
REMARK SMILES O=c1cc(-c2ccc(O)c(O)c2)oc2cc(O)cc(O)c12
REMARK SMILES IDX 4 1 3 2 2 3 1 4 21 5 19 6 18 7 16 8 15 9 14 10 13 11 5 12
REMARK SMILES IDX 6 13 7 14 8 15 12 16 10 17 9 18 11 20 20 22 17 24
REMARK H PARENT 9 19 11 21 20 23 17 25
REMARK Flexibility Score: inf
ROOT
ATOM      1  C   UNL     1      -3.170 -27.759  18.045  1.00  0.00     0.138 A 
ATOM      2  C   UNL     1      -3.925 -27.823  19.223  1.00  0.00     0.100 A 
ATOM      3  C   UNL     1      -3.826 -26.795  20.164  1.00  0.00     0.197 A 
ATOM      4  O   UNL     1      -4.474 -26.909  21.236  1.00  0.00    -0.289 OA
ATOM      5  C   UNL     1      -2.994 -25.681  19.903  1.00  0.00     0.107 A 
ATOM      6  C   UNL     1      -2.839 -24.558  20.772  1.00  0.00     0.134 A 
ATOM      7  C   UNL     1      -1.910 -23.561  20.452  1.00  0.00     0.093 A 
ATOM      8  C   UNL     1      -1.172 -23.614  19.271  1.00  0.00     0.123 A 
ATOM      9  C   UNL     1      -1.350 -24.681  18.389  1.00  0.00     0.094 A 
ATOM     10  C   UNL     1      -2.244 -25.709  18.696  1.00  0.00     0.146 A 
ATOM     11  O   UNL     1      -2.371 -26.717  17.839  1.00  0.00    -0.456 OA
ENDROOT
BRANCH   1  12
ATOM     12  C   UNL     1      -3.239 -28.821  17.010  1.00  0.00     0.021 A 
ATOM     13  C   UNL     1      -2.222 -29.785  16.868  1.00  0.00     0.016 A 
ATOM     14  C   UNL     1      -2.310 -30.767  15.879  1.00  0.00     0.051 A 
ATOM     15  C   UNL     1      -3.404 -30.802  15.010  1.00  0.00     0.157 A 
ATOM     16  C   UNL     1      -4.331 -28.853  16.123  1.00  0.00     0.062 A 
ATOM     17  C   UNL     1      -4.419 -29.839  15.130  1.00  0.00     0.158 A 
BRANCH  15  18
ATOM     18  O   UNL     1      -3.463 -31.796  14.033  1.00  0.00    -0.504 OA
ATOM     19  H   UNL     1      -3.696 -32.756  14.256  1.00  0.00     0.293 HD
ENDBRANCH  15  18
BRANCH  17  20
ATOM     20  O   UNL     1      -5.512 -29.865  14.264  1.00  0.00    -0.504 OA
ATOM     21  H   UNL     1      -6.367 -29.362  14.473  1.00  0.00     0.293 HD
ENDBRANCH  17  20
ENDBRANCH   1  12
BRANCH   6  22
ATOM     22  O   UNL     1      -3.584 -24.363  21.940  1.00  0.00    -0.507 OA
ATOM     23  H   UNL     1      -3.351 -23.712  22.674  1.00  0.00     0.293 HD
ENDBRANCH   6  22
BRANCH   8  24
ATOM     24  O   UNL     1      -0.268 -22.595  18.978  1.00  0.00    -0.508 OA
ATOM     25  H   UNL     1       0.589 -22.479  19.505  1.00  0.00     0.293 HD
ENDBRANCH   8  24
TORSDOF 5
ENDMDL
MODEL 2
REMARK VINA RESULT:    -7.072      3.268      5.927
REMARK INTER + INTRA:          -8.576
REMARK INTER:                  -8.281
REMARK INTRA:                  -0.295
REMARK UNBOUND:                -0.264
REMARK SMILES O=c1cc(-c2ccc(O)c(O)c2)oc2cc(O)cc(O)c12
REMARK SMILES IDX 4 1 3 2 2 3 1 4 21 5 19 6 18 7 16 8 15 9 14 10 13 11 5 12
REMARK SMILES IDX 6 13 7 14 8 15 12 16 10 17 9 18 11 20 20 22 17 24
REMARK H PARENT 9 19 11 21 20 23 17 25
REMARK Flexibility Score: inf
ROOT
ATOM      1  C   UNL     1      -2.950 -26.473  18.912  1.00  0.00     0.138 A 
ATOM      2  C   UNL     1      -4.061 -26.444  19.764  1.00  0.00     0.100 A 
ATOM      3  C   UNL     1      -4.344 -27.550  20.568  1.00  0.00     0.197 A 
ATOM      4  O   UNL     1      -5.381 -27.514  21.281  1.00  0.00    -0.289 OA
ATOM      5  C   UNL     1      -3.487 -28.676  20.544  1.00  0.00     0.107 A 
ATOM      6  C   UNL     1      -3.656 -29.846  21.343  1.00  0.00     0.134 A 
ATOM      7  C   UNL     1      -2.798 -30.938  21.159  1.00  0.00     0.093 A 
ATOM      8  C   UNL     1      -1.745 -30.882  20.247  1.00  0.00     0.123 A 
ATOM      9  C   UNL     1      -1.539 -29.724  19.495  1.00  0.00     0.094 A 
ATOM     10  C   UNL     1      -2.398 -28.631  19.631  1.00  0.00     0.146 A 
ATOM     11  O   UNL     1      -2.179 -27.555  18.884  1.00  0.00    -0.456 OA
ENDROOT
BRANCH   1  12
ATOM     12  C   UNL     1      -2.601 -25.324  18.038  1.00  0.00     0.021 A 
ATOM     13  C   UNL     1      -3.578 -24.633  17.296  1.00  0.00     0.016 A 
ATOM     14  C   UNL     1      -3.217 -23.562  16.475  1.00  0.00     0.051 A 
ATOM     15  C   UNL     1      -1.881 -23.166  16.372  1.00  0.00     0.157 A 
ATOM     16  C   UNL     1      -1.255 -24.930  17.919  1.00  0.00     0.062 A 
ATOM     17  C   UNL     1      -0.894 -23.854  17.095  1.00  0.00     0.158 A 
BRANCH  15  18
ATOM     18  O   UNL     1      -1.554 -22.093  15.544  1.00  0.00    -0.504 OA
ATOM     19  H   UNL     1      -1.296 -22.221  14.573  1.00  0.00     0.293 HD
ENDBRANCH  15  18
BRANCH  17  20
ATOM     20  O   UNL     1       0.442 -23.468  16.993  1.00  0.00    -0.504 OA
ATOM     21  H   UNL     1       1.068 -23.894  16.320  1.00  0.00     0.293 HD
ENDBRANCH  17  20
ENDBRANCH   1  12
BRANCH   6  22
ATOM     22  O   UNL     1      -4.627 -29.980  22.341  1.00  0.00    -0.507 OA
ATOM     23  H   UNL     1      -4.578 -30.625  23.115  1.00  0.00     0.293 HD
ENDBRANCH   6  22
BRANCH   8  24
ATOM     24  O   UNL     1      -0.902 -31.981  20.102  1.00  0.00    -0.508 OA
ATOM     25  H   UNL     1       0.035 -31.885  19.727  1.00  0.00     0.293 HD
ENDBRANCH   8  24
TORSDOF 5
ENDMDL
MODEL 3
REMARK VINA RESULT:    -6.565      3.291      5.789
REMARK INTER + INTRA:          -7.980
REMARK INTER:                  -7.665
REMARK INTRA:                  -0.315
REMARK UNBOUND:                -0.264
REMARK SMILES O=c1cc(-c2ccc(O)c(O)c2)oc2cc(O)cc(O)c12
REMARK SMILES IDX 4 1 3 2 2 3 1 4 21 5 19 6 18 7 16 8 15 9 14 10 13 11 5 12
REMARK SMILES IDX 6 13 7 14 8 15 12 16 10 17 9 18 11 20 20 22 17 24
REMARK H PARENT 9 19 11 21 20 23 17 25
REMARK Flexibility Score: inf
ROOT
ATOM      1  C   UNL     1      -5.574 -28.672  15.110  1.00  0.00     0.138 A 
ATOM      2  C   UNL     1      -4.776 -29.716  14.622  1.00  0.00     0.100 A 
ATOM      3  C   UNL     1      -3.623 -30.085  15.316  1.00  0.00     0.197 A 
ATOM      4  O   UNL     1      -2.898 -30.988  14.823  1.00  0.00    -0.289 OA
ATOM      5  C   UNL     1      -3.288 -29.430  16.525  1.00  0.00     0.107 A 
ATOM      6  C   UNL     1      -2.155 -29.744  17.336  1.00  0.00     0.134 A 
ATOM      7  C   UNL     1      -1.873 -28.958  18.460  1.00  0.00     0.093 A 
ATOM      8  C   UNL     1      -2.710 -27.908  18.836  1.00  0.00     0.123 A 
ATOM      9  C   UNL     1      -3.848 -27.623  18.079  1.00  0.00     0.094 A 
ATOM     10  C   UNL     1      -4.138 -28.366  16.933  1.00  0.00     0.146 A 
ATOM     11  O   UNL     1      -5.220 -28.051  16.230  1.00  0.00    -0.456 OA
ENDROOT
BRANCH   1  12
ATOM     12  C   UNL     1      -6.812 -28.240  14.413  1.00  0.00     0.021 A 
ATOM     13  C   UNL     1      -7.418 -29.031  13.418  1.00  0.00     0.016 A 
ATOM     14  C   UNL     1      -8.578 -28.593  12.774  1.00  0.00     0.051 A 
ATOM     15  C   UNL     1      -9.148 -27.360  13.101  1.00  0.00     0.157 A 
ATOM     16  C   UNL     1      -7.383 -26.993  14.728  1.00  0.00     0.062 A 
ATOM     17  C   UNL     1      -8.548 -26.554  14.081  1.00  0.00     0.158 A 
BRANCH  15  18
ATOM     18  O   UNL     1     -10.306 -26.952  12.440  1.00  0.00    -0.504 OA
ATOM     19  H   UNL     1     -11.103 -26.572  12.936  1.00  0.00     0.293 HD
ENDBRANCH  15  18
BRANCH  17  20
ATOM     20  O   UNL     1      -9.109 -25.321  14.410  1.00  0.00    -0.504 OA
ATOM     21  H   UNL     1      -9.630 -25.187  15.269  1.00  0.00     0.293 HD
ENDBRANCH  17  20
ENDBRANCH   1  12
BRANCH   6  22
ATOM     22  O   UNL     1      -1.297 -30.821  17.098  1.00  0.00    -0.507 OA
ATOM     23  H   UNL     1      -1.550 -31.794  17.181  1.00  0.00     0.293 HD
ENDBRANCH   6  22
BRANCH   8  24
ATOM     24  O   UNL     1      -2.406 -27.159  19.970  1.00  0.00    -0.508 OA
ATOM     25  H   UNL     1      -3.125 -26.673  20.493  1.00  0.00     0.293 HD
ENDBRANCH   8  24
TORSDOF 5
ENDMDL
MODEL 4
REMARK VINA RESULT:    -6.188      2.268      7.156
REMARK INTER + INTRA:          -7.537
REMARK INTER:                  -7.258
REMARK INTRA:                  -0.279
REMARK UNBOUND:                -0.264
REMARK SMILES O=c1cc(-c2ccc(O)c(O)c2)oc2cc(O)cc(O)c12
REMARK SMILES IDX 4 1 3 2 2 3 1 4 21 5 19 6 18 7 16 8 15 9 14 10 13 11 5 12
REMARK SMILES IDX 6 13 7 14 8 15 12 16 10 17 9 18 11 20 20 22 17 24
REMARK H PARENT 9 19 11 21 20 23 17 25
REMARK Flexibility Score: inf
ROOT
ATOM      1  C   UNL     1      -3.708 -28.315  18.129  1.00  0.00     0.138 A 
ATOM      2  C   UNL     1      -2.752 -29.213  17.637  1.00  0.00     0.100 A 
ATOM      3  C   UNL     1      -2.885 -29.725  16.345  1.00  0.00     0.197 A 
ATOM      4  O   UNL     1      -2.041 -30.572  15.954  1.00  0.00    -0.289 OA
ATOM      5  C   UNL     1      -3.963 -29.306  15.529  1.00  0.00     0.107 A 
ATOM      6  C   UNL     1      -4.182 -29.735  14.185  1.00  0.00     0.134 A 
ATOM      7  C   UNL     1      -5.340 -29.327  13.512  1.00  0.00     0.093 A 
ATOM      8  C   UNL     1      -6.257 -28.463  14.109  1.00  0.00     0.123 A 
ATOM      9  C   UNL     1      -6.028 -27.998  15.405  1.00  0.00     0.094 A 
ATOM     10  C   UNL     1      -4.900 -28.413  16.116  1.00  0.00     0.146 A 
ATOM     11  O   UNL     1      -4.728 -27.962  17.354  1.00  0.00    -0.456 OA
ENDROOT
BRANCH   1  12
ATOM     12  C   UNL     1      -3.613 -27.737  19.493  1.00  0.00     0.021 A 
ATOM     13  C   UNL     1      -4.752 -27.552  20.301  1.00  0.00     0.016 A 
ATOM     14  C   UNL     1      -4.633 -26.996  21.577  1.00  0.00     0.051 A 
ATOM     15  C   UNL     1      -3.383 -26.608  22.067  1.00  0.00     0.157 A 
ATOM     16  C   UNL     1      -2.360 -27.331  19.986  1.00  0.00     0.062 A 
ATOM     17  C   UNL     1      -2.240 -26.773  21.268  1.00  0.00     0.158 A 
BRANCH  15  18
ATOM     18  O   UNL     1      -3.298 -26.057  23.345  1.00  0.00    -0.504 OA
ATOM     19  H   UNL     1      -2.546 -25.434  23.613  1.00  0.00     0.293 HD
ENDBRANCH  15  18
BRANCH  17  20
ATOM     20  O   UNL     1      -0.991 -26.385  21.749  1.00  0.00    -0.504 OA
ATOM     21  H   UNL     1      -0.815 -25.438  22.065  1.00  0.00     0.293 HD
ENDBRANCH  17  20
ENDBRANCH   1  12
BRANCH   6  22
ATOM     22  O   UNL     1      -3.292 -30.535  13.463  1.00  0.00    -0.507 OA
ATOM     23  H   UNL     1      -2.705 -31.253  13.859  1.00  0.00     0.293 HD
ENDBRANCH   6  22
BRANCH   8  24
ATOM     24  O   UNL     1      -7.390 -28.066  13.402  1.00  0.00    -0.508 OA
ATOM     25  H   UNL     1      -8.265 -28.571  13.477  1.00  0.00     0.293 HD
ENDBRANCH   8  24
TORSDOF 5
ENDMDL
MODEL 5
REMARK VINA RESULT:    -5.857      3.100      4.014
REMARK INTER + INTRA:          -7.148
REMARK INTER:                  -6.831
REMARK INTRA:                  -0.317
REMARK UNBOUND:                -0.264
REMARK SMILES O=c1cc(-c2ccc(O)c(O)c2)oc2cc(O)cc(O)c12
REMARK SMILES IDX 4 1 3 2 2 3 1 4 21 5 19 6 18 7 16 8 15 9 14 10 13 11 5 12
REMARK SMILES IDX 6 13 7 14 8 15 12 16 10 17 9 18 11 20 20 22 17 24
REMARK H PARENT 9 19 11 21 20 23 17 25
REMARK Flexibility Score: inf
ROOT
ATOM      1  C   UNL     1      -3.533 -29.114  16.307  1.00  0.00     0.138 A 
ATOM      2  C   UNL     1      -2.284 -29.590  16.727  1.00  0.00     0.100 A 
ATOM      3  C   UNL     1      -1.904 -29.445  18.063  1.00  0.00     0.197 A 
ATOM      4  O   UNL     1      -0.754 -29.832  18.397  1.00  0.00    -0.289 OA
ATOM      5  C   UNL     1      -2.796 -28.854  18.989  1.00  0.00     0.107 A 
ATOM      6  C   UNL     1      -2.531 -28.684  20.382  1.00  0.00     0.134 A 
ATOM      7  C   UNL     1      -3.453 -27.995  21.180  1.00  0.00     0.093 A 
ATOM      8  C   UNL     1      -4.652 -27.519  20.651  1.00  0.00     0.123 A 
ATOM      9  C   UNL     1      -4.944 -27.723  19.302  1.00  0.00     0.094 A 
ATOM     10  C   UNL     1      -4.031 -28.377  18.472  1.00  0.00     0.146 A 
ATOM     11  O   UNL     1      -4.340 -28.534  17.189  1.00  0.00    -0.456 OA
ENDROOT
BRANCH   1  12
ATOM     12  C   UNL     1      -3.989 -29.244  14.900  1.00  0.00     0.021 A 
ATOM     13  C   UNL     1      -3.109 -29.621  13.867  1.00  0.00     0.016 A 
ATOM     14  C   UNL     1      -3.565 -29.726  12.551  1.00  0.00     0.051 A 
ATOM     15  C   UNL     1      -4.899 -29.449  12.238  1.00  0.00     0.157 A 
ATOM     16  C   UNL     1      -5.327 -28.953  14.577  1.00  0.00     0.062 A 
ATOM     17  C   UNL     1      -5.785 -29.059  13.255  1.00  0.00     0.158 A 
BRANCH  15  18
ATOM     18  O   UNL     1      -5.323 -29.564  10.915  1.00  0.00    -0.504 OA
ATOM     19  H   UNL     1      -6.009 -30.251  10.627  1.00  0.00     0.293 HD
ENDBRANCH  15  18
BRANCH  17  20
ATOM     20  O   UNL     1      -7.116 -28.777  12.951  1.00  0.00    -0.504 OA
ATOM     21  H   UNL     1      -7.367 -28.087  12.253  1.00  0.00     0.293 HD
ENDBRANCH  17  20
ENDBRANCH   1  12
BRANCH   6  22
ATOM     22  O   UNL     1      -1.401 -29.189  21.031  1.00  0.00    -0.507 OA
ATOM     23  H   UNL     1      -1.203 -29.086  22.015  1.00  0.00     0.293 HD
ENDBRANCH   6  22
BRANCH   8  24
ATOM     24  O   UNL     1      -5.551 -26.852  21.480  1.00  0.00    -0.508 OA
ATOM     25  H   UNL     1      -5.964 -25.966  21.210  1.00  0.00     0.293 HD
ENDBRANCH   8  24
TORSDOF 5
ENDMDL
MODEL 6
REMARK VINA RESULT:    -5.808      1.108      1.312
REMARK INTER + INTRA:          -7.090
REMARK INTER:                  -6.826
REMARK INTRA:                  -0.263
REMARK UNBOUND:                -0.264
REMARK SMILES O=c1cc(-c2ccc(O)c(O)c2)oc2cc(O)cc(O)c12
REMARK SMILES IDX 4 1 3 2 2 3 1 4 21 5 19 6 18 7 16 8 15 9 14 10 13 11 5 12
REMARK SMILES IDX 6 13 7 14 8 15 12 16 10 17 9 18 11 20 20 22 17 24
REMARK H PARENT 9 19 11 21 20 23 17 25
REMARK Flexibility Score: inf
ROOT
ATOM      1  C   UNL     1      -3.685 -28.262  17.574  1.00  0.00     0.138 A 
ATOM      2  C   UNL     1      -4.420 -28.718  18.676  1.00  0.00     0.100 A 
ATOM      3  C   UNL     1      -4.416 -27.980  19.862  1.00  0.00     0.197 A 
ATOM      4  O   UNL     1      -5.040 -28.444  20.851  1.00  0.00    -0.289 OA
ATOM      5  C   UNL     1      -3.702 -26.760  19.929  1.00  0.00     0.107 A 
ATOM      6  C   UNL     1      -3.653 -25.906  21.073  1.00  0.00     0.134 A 
ATOM      7  C   UNL     1      -2.831 -24.773  21.053  1.00  0.00     0.093 A 
ATOM      8  C   UNL     1      -2.101 -24.430  19.915  1.00  0.00     0.123 A 
ATOM      9  C   UNL     1      -2.179 -25.230  18.774  1.00  0.00     0.094 A 
ATOM     10  C   UNL     1      -2.964 -26.386  18.774  1.00  0.00     0.146 A 
ATOM     11  O   UNL     1      -2.997 -27.130  17.674  1.00  0.00    -0.456 OA
ENDROOT
BRANCH   1  12
ATOM     12  C   UNL     1      -3.657 -29.005  16.289  1.00  0.00     0.021 A 
ATOM     13  C   UNL     1      -2.704 -30.010  16.034  1.00  0.00     0.016 A 
ATOM     14  C   UNL     1      -2.695 -30.685  14.811  1.00  0.00     0.051 A 
ATOM     15  C   UNL     1      -3.627 -30.367  13.820  1.00  0.00     0.157 A 
ATOM     16  C   UNL     1      -4.583 -28.680  15.281  1.00  0.00     0.062 A 
ATOM     17  C   UNL     1      -4.575 -29.358  14.054  1.00  0.00     0.158 A 
BRANCH  15  18
ATOM     18  O   UNL     1      -3.593 -31.060  12.610  1.00  0.00    -0.504 OA
ATOM     19  H   UNL     1      -3.986 -31.988  12.511  1.00  0.00     0.293 HD
ENDBRANCH  15  18
BRANCH  17  20
ATOM     20  O   UNL     1      -5.506 -29.033  13.068  1.00  0.00    -0.504 OA
ATOM     21  H   UNL     1      -5.656 -29.629  12.262  1.00  0.00     0.293 HD
ENDBRANCH  17  20
ENDBRANCH   1  12
BRANCH   6  22
ATOM     22  O   UNL     1      -4.403 -26.110  22.235  1.00  0.00    -0.507 OA
ATOM     23  H   UNL     1      -4.778 -25.378  22.819  1.00  0.00     0.293 HD
ENDBRANCH   6  22
BRANCH   8  24
ATOM     24  O   UNL     1      -1.306 -23.287  19.927  1.00  0.00    -0.508 OA
ATOM     25  H   UNL     1      -1.595 -22.435  19.460  1.00  0.00     0.293 HD
ENDBRANCH   8  24
TORSDOF 5
ENDMDL
MODEL 7
REMARK VINA RESULT:    -5.657      7.823     11.219
REMARK INTER + INTRA:          -6.913
REMARK INTER:                  -6.632
REMARK INTRA:                  -0.281
REMARK UNBOUND:                -0.264
REMARK SMILES O=c1cc(-c2ccc(O)c(O)c2)oc2cc(O)cc(O)c12
REMARK SMILES IDX 4 1 3 2 2 3 1 4 21 5 19 6 18 7 16 8 15 9 14 10 13 11 5 12
REMARK SMILES IDX 6 13 7 14 8 15 12 16 10 17 9 18 11 20 20 22 17 24
REMARK H PARENT 9 19 11 21 20 23 17 25
REMARK Flexibility Score: inf
ROOT
ATOM      1  C   UNL     1      -6.088 -28.043   7.724  1.00  0.00     0.138 A 
ATOM      2  C   UNL     1      -4.855 -27.728   7.138  1.00  0.00     0.100 A 
ATOM      3  C   UNL     1      -3.682 -27.863   7.883  1.00  0.00     0.197 A 
ATOM      4  O   UNL     1      -2.596 -27.519   7.347  1.00  0.00    -0.289 OA
ATOM      5  C   UNL     1      -3.742 -28.350   9.211  1.00  0.00     0.107 A 
ATOM      6  C   UNL     1      -2.610 -28.560  10.054  1.00  0.00     0.134 A 
ATOM      7  C   UNL     1      -2.805 -28.953  11.385  1.00  0.00     0.093 A 
ATOM      8  C   UNL     1      -4.082 -29.198  11.885  1.00  0.00     0.123 A 
ATOM      9  C   UNL     1      -5.194 -29.044  11.055  1.00  0.00     0.094 A 
ATOM     10  C   UNL     1      -5.036 -28.620   9.734  1.00  0.00     0.146 A 
ATOM     11  O   UNL     1      -6.121 -28.468   8.983  1.00  0.00    -0.456 OA
ENDROOT
BRANCH   1  12
ATOM     12  C   UNL     1      -7.365 -27.921   6.977  1.00  0.00     0.021 A 
ATOM     13  C   UNL     1      -7.573 -28.583   5.752  1.00  0.00     0.016 A 
ATOM     14  C   UNL     1      -8.783 -28.442   5.067  1.00  0.00     0.051 A 
ATOM     15  C   UNL     1      -9.800 -27.635   5.583  1.00  0.00     0.157 A 
ATOM     16  C   UNL     1      -8.387 -27.099   7.485  1.00  0.00     0.062 A 
ATOM     17  C   UNL     1      -9.602 -26.957   6.797  1.00  0.00     0.158 A 
BRANCH  15  18
ATOM     18  O   UNL     1     -10.995 -27.515   4.876  1.00  0.00    -0.504 OA
ATOM     19  H   UNL     1     -11.038 -27.083   3.960  1.00  0.00     0.293 HD
ENDBRANCH  15  18
BRANCH  17  20
ATOM     20  O   UNL     1     -10.610 -26.147   7.317  1.00  0.00    -0.504 OA
ATOM     21  H   UNL     1     -10.404 -25.379   7.944  1.00  0.00     0.293 HD
ENDBRANCH  17  20
ENDBRANCH   1  12
BRANCH   6  22
ATOM     22  O   UNL     1      -1.284 -28.422   9.634  1.00  0.00    -0.507 OA
ATOM     23  H   UNL     1      -0.959 -27.757   8.949  1.00  0.00     0.293 HD
ENDBRANCH   6  22
BRANCH   8  24
ATOM     24  O   UNL     1      -4.236 -29.603  13.210  1.00  0.00    -0.508 OA
ATOM     25  H   UNL     1      -3.467 -30.000  13.735  1.00  0.00     0.293 HD
ENDBRANCH   8  24
TORSDOF 5
ENDMDL
MODEL 8
REMARK VINA RESULT:    -5.628      1.577      7.110
REMARK INTER + INTRA:          -6.879
REMARK INTER:                  -6.615
REMARK INTRA:                  -0.264
REMARK UNBOUND:                -0.264
REMARK SMILES O=c1cc(-c2ccc(O)c(O)c2)oc2cc(O)cc(O)c12
REMARK SMILES IDX 4 1 3 2 2 3 1 4 21 5 19 6 18 7 16 8 15 9 14 10 13 11 5 12
REMARK SMILES IDX 6 13 7 14 8 15 12 16 10 17 9 18 11 20 20 22 17 24
REMARK H PARENT 9 19 11 21 20 23 17 25
REMARK Flexibility Score: inf
ROOT
ATOM      1  C   UNL     1      -2.724 -28.004  18.310  1.00  0.00     0.138 A 
ATOM      2  C   UNL     1      -1.973 -29.131  18.670  1.00  0.00     0.100 A 
ATOM      3  C   UNL     1      -1.856 -30.197  17.776  1.00  0.00     0.197 A 
ATOM      4  O   UNL     1      -1.222 -31.218  18.151  1.00  0.00    -0.289 OA
ATOM      5  C   UNL     1      -2.463 -30.117  16.501  1.00  0.00     0.107 A 
ATOM      6  C   UNL     1      -2.383 -31.127  15.494  1.00  0.00     0.134 A 
ATOM      7  C   UNL     1      -3.109 -30.976  14.307  1.00  0.00     0.093 A 
ATOM      8  C   UNL     1      -3.866 -29.830  14.063  1.00  0.00     0.123 A 
ATOM      9  C   UNL     1      -3.912 -28.814  15.019  1.00  0.00     0.094 A 
ATOM     10  C   UNL     1      -3.226 -28.949  16.228  1.00  0.00     0.146 A 
ATOM     11  O   UNL     1      -3.311 -27.967  17.119  1.00  0.00    -0.456 OA
ENDROOT
BRANCH   1  12
ATOM     12  C   UNL     1      -2.879 -26.841  19.220  1.00  0.00     0.021 A 
ATOM     13  C   UNL     1      -3.899 -26.790  20.190  1.00  0.00     0.016 A 
ATOM     14  C   UNL     1      -4.026 -25.678  21.026  1.00  0.00     0.051 A 
ATOM     15  C   UNL     1      -3.149 -24.596  20.905  1.00  0.00     0.157 A 
ATOM     16  C   UNL     1      -2.009 -25.743  19.094  1.00  0.00     0.062 A 
ATOM     17  C   UNL     1      -2.136 -24.627  19.933  1.00  0.00     0.158 A 
BRANCH  15  18
ATOM     18  O   UNL     1      -3.302 -23.502  21.755  1.00  0.00    -0.504 OA
ATOM     19  H   UNL     1      -3.427 -22.560  21.402  1.00  0.00     0.293 HD
ENDBRANCH  15  18
BRANCH  17  20
ATOM     20  O   UNL     1      -1.261 -23.550  19.804  1.00  0.00    -0.504 OA
ATOM     21  H   UNL     1      -1.560 -22.598  19.981  1.00  0.00     0.293 HD
ENDBRANCH  17  20
ENDBRANCH   1  12
BRANCH   6  22
ATOM     22  O   UNL     1      -1.593 -32.276  15.599  1.00  0.00    -0.507 OA
ATOM     23  H   UNL     1      -0.620 -32.336  15.343  1.00  0.00     0.293 HD
ENDBRANCH   6  22
BRANCH   8  24
ATOM     24  O   UNL     1      -4.563 -29.709  12.863  1.00  0.00    -0.508 OA
ATOM     25  H   UNL     1      -5.287 -29.011  12.739  1.00  0.00     0.293 HD
ENDBRANCH   8  24
TORSDOF 5
ENDMDL
MODEL 9
REMARK VINA RESULT:    -5.171      3.060      7.571
REMARK INTER + INTRA:          -6.341
REMARK INTER:                  -6.023
REMARK INTRA:                  -0.317
REMARK UNBOUND:                -0.264
REMARK SMILES O=c1cc(-c2ccc(O)c(O)c2)oc2cc(O)cc(O)c12
REMARK SMILES IDX 4 1 3 2 2 3 1 4 21 5 19 6 18 7 16 8 15 9 14 10 13 11 5 12
REMARK SMILES IDX 6 13 7 14 8 15 12 16 10 17 9 18 11 20 20 22 17 24
REMARK H PARENT 9 19 11 21 20 23 17 25
REMARK Flexibility Score: inf
ROOT
ATOM      1  C   UNL     1      -4.182 -29.060  15.521  1.00  0.00     0.138 A 
ATOM      2  C   UNL     1      -3.484 -29.513  14.395  1.00  0.00     0.100 A 
ATOM      3  C   UNL     1      -4.133 -29.580  13.160  1.00  0.00     0.197 A 
ATOM      4  O   UNL     1      -3.495 -30.044  12.180  1.00  0.00    -0.289 OA
ATOM      5  C   UNL     1      -5.479 -29.156  13.049  1.00  0.00     0.107 A 
ATOM      6  C   UNL     1      -6.233 -29.148  11.836  1.00  0.00     0.134 A 
ATOM      7  C   UNL     1      -7.589 -28.799  11.869  1.00  0.00     0.093 A 
ATOM      8  C   UNL     1      -8.203 -28.404  13.057  1.00  0.00     0.123 A 
ATOM      9  C   UNL     1      -7.464 -28.361  14.240  1.00  0.00     0.094 A 
ATOM     10  C   UNL     1      -6.119 -28.735  14.246  1.00  0.00     0.146 A 
ATOM     11  O   UNL     1      -5.455 -28.698  15.396  1.00  0.00    -0.456 OA
ENDROOT
BRANCH   1  12
ATOM     12  C   UNL     1      -3.540 -28.965  16.857  1.00  0.00     0.021 A 
ATOM     13  C   UNL     1      -2.258 -29.492  17.102  1.00  0.00     0.016 A 
ATOM     14  C   UNL     1      -1.684 -29.396  18.372  1.00  0.00     0.051 A 
ATOM     15  C   UNL     1      -2.378 -28.784  19.420  1.00  0.00     0.157 A 
ATOM     16  C   UNL     1      -4.240 -28.363  17.919  1.00  0.00     0.062 A 
ATOM     17  C   UNL     1      -3.663 -28.266  19.194  1.00  0.00     0.158 A 
BRANCH  15  18
ATOM     18  O   UNL     1      -1.777 -28.704  20.675  1.00  0.00    -0.504 OA
ATOM     19  H   UNL     1      -1.839 -29.456  21.351  1.00  0.00     0.293 HD
ENDBRANCH  15  18
BRANCH  17  20
ATOM     20  O   UNL     1      -4.363 -27.658  20.235  1.00  0.00    -0.504 OA
ATOM     21  H   UNL     1      -3.917 -26.996  20.859  1.00  0.00     0.293 HD
ENDBRANCH  17  20
ENDBRANCH   1  12
BRANCH   6  22
ATOM     22  O   UNL     1      -5.698 -29.447  10.579  1.00  0.00    -0.507 OA
ATOM     23  H   UNL     1      -5.213 -28.793   9.984  1.00  0.00     0.293 HD
ENDBRANCH   6  22
BRANCH   8  24
ATOM     24  O   UNL     1      -9.551 -28.049  13.048  1.00  0.00    -0.508 OA
ATOM     25  H   UNL     1      -9.844 -27.082  13.123  1.00  0.00     0.293 HD
ENDBRANCH   8  24
TORSDOF 5
ENDMDL
