MODEL 1
REMARK VINA RESULT:    49.038      0.000      0.000
REMARK INTER + INTRA:          53.339
REMARK INTER:                  53.339
REMARK INTRA:                   0.000
REMARK UNBOUND:                 0.000
REMARK SMILES Cc1cc(O)c2c(c1)C(=O)c1cc(O)cc(O)c1C2=O
REMARK SMILES IDX 1 1 2 2 8 3 7 4 6 5 4 6 3 7 19 8 20 9 18 10 11 11 9 12 10 13
REMARK SMILES IDX 12 14 13 15 15 16 16 17 5 18 17 20 14 22
REMARK H PARENT 5 19 17 21 14 23
REMARK Flexibility Score: inf
ROOT
ATOM      1  C   UNL     1       8.250  -7.060 -18.240  1.00  0.00     0.044 C 
ATOM      2  C   UNL     1       9.647  -7.465 -17.871  1.00  0.00    -0.047 A 
ATOM      3  C   UNL     1      10.002  -8.817 -17.839  1.00  0.00     0.016 A 
ATOM      4  C   UNL     1      11.299  -9.212 -17.461  1.00  0.00     0.038 A 
ATOM      5  C   UNL     1      12.252  -8.235 -17.095  1.00  0.00     0.076 A 
ATOM      6  C   UNL     1      11.878  -6.869 -17.109  1.00  0.00     0.127 A 
ATOM      7  C   UNL     1      10.582  -6.499 -17.490  1.00  0.00     0.050 A 
ATOM      8  C   UNL     1      13.622  -8.665 -16.697  1.00  0.00     0.201 C 
ATOM      9  O   UNL     1      14.480  -7.799 -16.376  1.00  0.00    -0.288 OA
ATOM     10  C   UNL     1      13.988 -10.110 -16.678  1.00  0.00     0.076 A 
ATOM     11  C   UNL     1      13.021 -11.073 -17.046  1.00  0.00     0.041 A 
ATOM     12  C   UNL     1      11.660 -10.647 -17.444  1.00  0.00     0.194 C 
ATOM     13  O   UNL     1      10.803 -11.515 -17.772  1.00  0.00    -0.289 OA
ATOM     14  C   UNL     1      13.355 -12.439 -17.031  1.00  0.00     0.059 A 
ATOM     15  C   UNL     1      14.636 -12.855 -16.656  1.00  0.00     0.120 A 
ATOM     16  C   UNL     1      15.593 -11.909 -16.294  1.00  0.00     0.093 A 
ATOM     17  C   UNL     1      15.283 -10.543 -16.300  1.00  0.00     0.131 A 
ENDROOT
BRANCH   6  18
ATOM     18  O   UNL     1      12.787  -5.875 -16.743  1.00  0.00    -0.507 OA
ATOM     19  H   UNL     1      13.731  -5.854 -17.109  1.00  0.00     0.293 HD
ENDBRANCH   6  18
BRANCH  17  20
ATOM     20  O   UNL     1      16.265  -9.624 -15.931  1.00  0.00    -0.507 OA
ATOM     21  H   UNL     1      16.941  -9.268 -16.597  1.00  0.00     0.293 HD
ENDBRANCH  17  20
BRANCH  15  22
ATOM     22  O   UNL     1      14.968 -14.208 -16.642  1.00  0.00    -0.508 OA
ATOM     23  H   UNL     1      14.263 -14.926 -16.517  1.00  0.00     0.293 HD
ENDBRANCH  15  22
TORSDOF 3
ENDMDL
MODEL 2
REMARK VINA RESULT:    50.587      1.129      5.485
REMARK INTER + INTRA:          55.023
REMARK INTER:                  55.023
REMARK INTRA:                   0.000
REMARK UNBOUND:                 0.000
REMARK SMILES Cc1cc(O)c2c(c1)C(=O)c1cc(O)cc(O)c1C2=O
REMARK SMILES IDX 1 1 2 2 8 3 7 4 6 5 4 6 3 7 19 8 20 9 18 10 11 11 9 12 10 13
REMARK SMILES IDX 12 14 13 15 15 16 16 17 5 18 17 20 14 22
REMARK H PARENT 5 19 17 21 14 23
REMARK Flexibility Score: inf
ROOT
ATOM      1  C   UNL     1      15.015 -14.312 -16.784  1.00  0.00     0.044 C 
ATOM      2  C   UNL     1      14.654 -12.856 -16.725  1.00  0.00    -0.047 A 
ATOM      3  C   UNL     1      13.374 -12.433 -17.099  1.00  0.00     0.016 A 
ATOM      4  C   UNL     1      13.033 -11.068 -17.083  1.00  0.00     0.038 A 
ATOM      5  C   UNL     1      13.997 -10.109 -16.698  1.00  0.00     0.076 A 
ATOM      6  C   UNL     1      15.297 -10.542 -16.341  1.00  0.00     0.127 A 
ATOM      7  C   UNL     1      15.613 -11.906 -16.364  1.00  0.00     0.050 A 
ATOM      8  C   UNL     1      13.624  -8.666 -16.682  1.00  0.00     0.201 C 
ATOM      9  O   UNL     1      14.476  -7.804 -16.333  1.00  0.00    -0.288 OA
ATOM     10  C   UNL     1      12.253  -8.233 -17.074  1.00  0.00     0.076 A 
ATOM     11  C   UNL     1      11.304  -9.206 -17.457  1.00  0.00     0.041 A 
ATOM     12  C   UNL     1      11.670 -10.640 -17.470  1.00  0.00     0.194 C 
ATOM     13  O   UNL     1      10.815 -11.503 -17.813  1.00  0.00    -0.289 OA
ATOM     14  C   UNL     1      10.006  -8.808 -17.829  1.00  0.00     0.059 A 
ATOM     15  C   UNL     1       9.647  -7.458 -17.822  1.00  0.00     0.120 A 
ATOM     16  C   UNL     1      10.579  -6.494 -17.443  1.00  0.00     0.093 A 
ATOM     17  C   UNL     1      11.877  -6.867 -17.070  1.00  0.00     0.131 A 
ENDROOT
BRANCH   6  18
ATOM     18  O   UNL     1      16.280  -9.625 -15.966  1.00  0.00    -0.507 OA
ATOM     19  H   UNL     1      17.047  -9.883 -15.358  1.00  0.00     0.293 HD
ENDBRANCH   6  18
BRANCH  17  20
ATOM     20  O   UNL     1      12.785  -5.875 -16.697  1.00  0.00    -0.507 OA
ATOM     21  H   UNL     1      13.407  -5.440 -17.368  1.00  0.00     0.293 HD
ENDBRANCH  17  20
BRANCH  15  22
ATOM     22  O   UNL     1       8.361  -7.063 -18.190  1.00  0.00    -0.508 OA
ATOM     23  H   UNL     1       8.034  -7.145 -19.145  1.00  0.00     0.293 HD
ENDBRANCH  15  22
TORSDOF 3
ENDMDL
