MODEL 1
REMARK VINA RESULT:    -0.954      0.000      0.000
REMARK INTER + INTRA:          -6.062
REMARK INTER:                  -2.515
REMARK INTRA:                  -3.546
REMARK UNBOUND:                -3.546
REMARK SMILES CCCCCCCCCCCCCCCCCCCCCCCCCCCCCC(=O)[O-]
REMARK SMILES IDX 16 1 17 2 18 3 19 4 20 5 21 6 22 7 23 8 24 9 25 10 26 11
REMARK SMILES IDX 27 12 28 13 29 14 30 15 31 16 32 17 15 18 14 19 13 20 12 21
REMARK SMILES IDX 11 22 10 23 9 24 8 25 7 26 6 27 5 28 4 29 3 30 2 31 1 32
REMARK H PARENT
REMARK Flexibility Score: inf
ROOT
ATOM      1  C   UNL     1      41.235  57.932  44.557  1.00  0.00     0.000 C 
ENDROOT
BRANCH   1   2
ATOM      2  C   UNL     1      40.137  57.400  45.499  1.00  0.00     0.000 C 
BRANCH   2   3
ATOM      3  C   UNL     1      40.576  56.269  46.447  1.00  0.00     0.000 C 
BRANCH   3   4
ATOM      4  C   UNL     1      39.674  56.141  47.685  1.00  0.00     0.000 C 
BRANCH   4   5
ATOM      5  C   UNL     1      39.353  57.496  48.339  1.00  0.00     0.000 C 
BRANCH   5   6
ATOM      6  C   UNL     1      40.162  57.823  49.608  1.00  0.00     0.000 C 
BRANCH   6   7
ATOM      7  C   UNL     1      41.474  58.567  49.305  1.00  0.00     0.000 C 
BRANCH   7   8
ATOM      8  C   UNL     1      41.386  59.459  48.054  1.00  0.00     0.000 C 
BRANCH   8   9
ATOM      9  C   UNL     1      42.134  60.804  48.149  1.00  0.00     0.000 C 
BRANCH   9  10
ATOM     10  C   UNL     1      42.093  61.452  49.550  1.00  0.00     0.000 C 
BRANCH  10  11
ATOM     11  C   UNL     1      43.496  61.792  50.089  1.00  0.00     0.000 C 
BRANCH  11  12
ATOM     12  C   UNL     1      44.605  61.428  49.077  1.00  0.00     0.000 C 
BRANCH  12  13
ATOM     13  C   UNL     1      45.581  60.362  49.601  1.00  0.00     0.006 C 
BRANCH  13  14
ATOM     14  C   UNL     1      44.872  59.192  50.293  1.00  0.00     0.053 C 
BRANCH  14  15
ATOM     15  C   UNL     1      45.841  58.389  51.101  1.00  0.00     0.041 C 
ATOM     16  O   UNL     1      46.842  57.867  50.544  1.00  0.00    -0.550 OA
ATOM     17  O   UNL     1      45.662  58.245  52.472  1.00  0.00    -0.550 OA
ENDBRANCH  14  15
ENDBRANCH  13  14
ENDBRANCH  12  13
ENDBRANCH  11  12
ENDBRANCH  10  11
ENDBRANCH   9  10
ENDBRANCH   8   9
ENDBRANCH   7   8
ENDBRANCH   6   7
ENDBRANCH   5   6
ENDBRANCH   4   5
ENDBRANCH   3   4
ENDBRANCH   2   3
ENDBRANCH   1   2
BRANCH   1  18
ATOM     18  C   UNL     1      42.333  56.894  44.268  1.00  0.00     0.000 C 
BRANCH  18  19
ATOM     19  C   UNL     1      43.722  57.360  44.756  1.00  0.00     0.000 C 
BRANCH  19  20
ATOM     20  C   UNL     1      43.663  58.467  45.822  1.00  0.00     0.000 C 
BRANCH  20  21
ATOM     21  C   UNL     1      44.572  58.184  47.028  1.00  0.00     0.000 C 
BRANCH  21  22
ATOM     22  C   UNL     1      44.410  56.754  47.565  1.00  0.00     0.000 C 
BRANCH  22  23
ATOM     23  C   UNL     1      45.763  56.086  47.868  1.00  0.00     0.000 C 
BRANCH  23  24
ATOM     24  C   UNL     1      46.678  56.022  46.630  1.00  0.00    -0.000 C 
BRANCH  24  25
ATOM     25  C   UNL     1      47.210  54.607  46.318  1.00  0.00    -0.000 C 
BRANCH  25  26
ATOM     26  C   UNL     1      48.344  54.599  45.274  1.00  0.00    -0.000 C 
BRANCH  26  27
ATOM     27  C   UNL     1      48.602  53.187  44.711  1.00  0.00    -0.000 C 
BRANCH  27  28
ATOM     28  C   UNL     1      48.665  53.168  43.174  1.00  0.00    -0.000 C 
BRANCH  28  29
ATOM     29  C   UNL     1      47.750  54.209  42.491  1.00  0.00    -0.000 C 
BRANCH  29  30
ATOM     30  C   UNL     1      48.511  55.350  41.791  1.00  0.00    -0.000 C 
BRANCH  30  31
ATOM     31  C   UNL     1      50.016  55.333  42.099  1.00  0.00    -0.003 C 
ATOM     32  C   UNL     1      50.317  56.048  43.412  1.00  0.00     0.004 C 
ENDBRANCH  30  31
ENDBRANCH  29  30
ENDBRANCH  28  29
ENDBRANCH  27  28
ENDBRANCH  26  27
ENDBRANCH  25  26
ENDBRANCH  24  25
ENDBRANCH  23  24
ENDBRANCH  22  23
ENDBRANCH  21  22
ENDBRANCH  20  21
ENDBRANCH  19  20
ENDBRANCH  18  19
ENDBRANCH   1  18
TORSDOF 28
ENDMDL
MODEL 2
REMARK VINA RESULT:    -0.718      2.609      5.355
REMARK INTER + INTRA:          -5.440
REMARK INTER:                  -2.260
REMARK INTRA:                  -3.180
REMARK UNBOUND:                -3.546
REMARK SMILES CCCCCCCCCCCCCCCCCCCCCCCCCCCCCC(=O)[O-]
REMARK SMILES IDX 16 1 17 2 18 3 19 4 20 5 21 6 22 7 23 8 24 9 25 10 26 11
REMARK SMILES IDX 27 12 28 13 29 14 30 15 31 16 32 17 15 18 14 19 13 20 12 21
REMARK SMILES IDX 11 22 10 23 9 24 8 25 7 26 6 27 5 28 4 29 3 30 2 31 1 32
REMARK H PARENT
REMARK Flexibility Score: inf
ROOT
ATOM      1  C   UNL     1      45.626  58.095  50.267  1.00  0.00     0.000 C 
ENDROOT
BRANCH   1   2
ATOM      2  C   UNL     1      45.258  59.575  50.492  1.00  0.00     0.000 C 
BRANCH   2   3
ATOM      3  C   UNL     1      45.690  60.537  49.369  1.00  0.00     0.000 C 
BRANCH   3   4
ATOM      4  C   UNL     1      44.515  61.331  48.777  1.00  0.00     0.000 C 
BRANCH   4   5
ATOM      5  C   UNL     1      43.377  61.566  49.785  1.00  0.00     0.000 C 
BRANCH   5   6
ATOM      6  C   UNL     1      41.953  61.416  49.218  1.00  0.00     0.000 C 
BRANCH   6   7
ATOM      7  C   UNL     1      41.720  60.053  48.544  1.00  0.00     0.000 C 
BRANCH   7   8
ATOM      8  C   UNL     1      42.074  58.862  49.453  1.00  0.00     0.000 C 
BRANCH   8   9
ATOM      9  C   UNL     1      41.050  57.709  49.457  1.00  0.00     0.000 C 
BRANCH   9  10
ATOM     10  C   UNL     1      39.675  58.082  48.863  1.00  0.00     0.000 C 
BRANCH  10  11
ATOM     11  C   UNL     1      39.171  57.052  47.835  1.00  0.00     0.000 C 
BRANCH  11  12
ATOM     12  C   UNL     1      40.331  56.238  47.221  1.00  0.00     0.000 C 
BRANCH  12  13
ATOM     13  C   UNL     1      40.960  56.907  45.989  1.00  0.00     0.006 C 
BRANCH  13  14
ATOM     14  C   UNL     1      40.103  58.047  45.427  1.00  0.00     0.053 C 
BRANCH  14  15
ATOM     15  C   UNL     1      40.384  58.253  43.973  1.00  0.00     0.041 C 
ATOM     16  O   UNL     1      39.707  59.087  43.314  1.00  0.00    -0.550 OA
ATOM     17  O   UNL     1      41.413  57.556  43.350  1.00  0.00    -0.550 OA
ENDBRANCH  14  15
ENDBRANCH  13  14
ENDBRANCH  12  13
ENDBRANCH  11  12
ENDBRANCH  10  11
ENDBRANCH   9  10
ENDBRANCH   8   9
ENDBRANCH   7   8
ENDBRANCH   6   7
ENDBRANCH   5   6
ENDBRANCH   4   5
ENDBRANCH   3   4
ENDBRANCH   2   3
ENDBRANCH   1   2
BRANCH   1  18
ATOM     18  C   UNL     1      46.227  57.829  48.876  1.00  0.00     0.000 C 
BRANCH  18  19
ATOM     19  C   UNL     1      45.645  56.558  48.221  1.00  0.00     0.000 C 
BRANCH  19  20
ATOM     20  C   UNL     1      44.376  56.815  47.392  1.00  0.00     0.000 C 
BRANCH  20  21
ATOM     21  C   UNL     1      44.255  58.273  46.921  1.00  0.00     0.000 C 
BRANCH  21  22
ATOM     22  C   UNL     1      44.058  58.388  45.401  1.00  0.00     0.000 C 
BRANCH  22  23
ATOM     23  C   UNL     1      44.225  57.036  44.686  1.00  0.00     0.000 C 
BRANCH  23  24
ATOM     24  C   UNL     1      45.412  57.033  43.703  1.00  0.00    -0.000 C 
BRANCH  24  25
ATOM     25  C   UNL     1      46.388  55.855  43.904  1.00  0.00    -0.000 C 
BRANCH  25  26
ATOM     26  C   UNL     1      47.480  55.776  42.819  1.00  0.00    -0.000 C 
BRANCH  26  27
ATOM     27  C   UNL     1      47.431  54.445  42.045  1.00  0.00    -0.000 C 
BRANCH  27  28
ATOM     28  C   UNL     1      47.794  53.236  42.927  1.00  0.00    -0.000 C 
BRANCH  28  29
ATOM     29  C   UNL     1      49.259  53.228  43.417  1.00  0.00    -0.000 C 
BRANCH  29  30
ATOM     30  C   UNL     1      49.455  53.839  44.816  1.00  0.00    -0.000 C 
BRANCH  30  31
ATOM     31  C   UNL     1      49.991  55.278  44.764  1.00  0.00    -0.003 C 
ATOM     32  C   UNL     1      50.472  55.635  43.361  1.00  0.00     0.004 C 
ENDBRANCH  30  31
ENDBRANCH  29  30
ENDBRANCH  28  29
ENDBRANCH  27  28
ENDBRANCH  26  27
ENDBRANCH  25  26
ENDBRANCH  24  25
ENDBRANCH  23  24
ENDBRANCH  22  23
ENDBRANCH  21  22
ENDBRANCH  20  21
ENDBRANCH  19  20
ENDBRANCH  18  19
ENDBRANCH   1  18
TORSDOF 28
ENDMDL
MODEL 3
REMARK VINA RESULT:    -0.710      2.677      8.035
REMARK INTER + INTRA:          -5.419
REMARK INTER:                  -2.401
REMARK INTRA:                  -3.018
REMARK UNBOUND:                -3.546
REMARK SMILES CCCCCCCCCCCCCCCCCCCCCCCCCCCCCC(=O)[O-]
REMARK SMILES IDX 16 1 17 2 18 3 19 4 20 5 21 6 22 7 23 8 24 9 25 10 26 11
REMARK SMILES IDX 27 12 28 13 29 14 30 15 31 16 32 17 15 18 14 19 13 20 12 21
REMARK SMILES IDX 11 22 10 23 9 24 8 25 7 26 6 27 5 28 4 29 3 30 2 31 1 32
REMARK H PARENT
REMARK Flexibility Score: inf
ROOT
ATOM      1  C   UNL     1      40.591  57.581  45.483  1.00  0.00     0.000 C 
ENDROOT
BRANCH   1   2
ATOM      2  C   UNL     1      41.727  57.617  44.443  1.00  0.00     0.000 C 
BRANCH   2   3
ATOM      3  C   UNL     1      43.060  56.997  44.904  1.00  0.00     0.000 C 
BRANCH   3   4
ATOM      4  C   UNL     1      44.164  58.045  45.121  1.00  0.00     0.000 C 
BRANCH   4   5
ATOM      5  C   UNL     1      44.504  58.264  46.605  1.00  0.00     0.000 C 
BRANCH   5   6
ATOM      6  C   UNL     1      44.509  56.993  47.474  1.00  0.00     0.000 C 
BRANCH   6   7
ATOM      7  C   UNL     1      45.929  56.514  47.824  1.00  0.00     0.000 C 
BRANCH   7   8
ATOM      8  C   UNL     1      46.402  55.339  46.948  1.00  0.00     0.000 C 
BRANCH   8   9
ATOM      9  C   UNL     1      47.498  55.683  45.920  1.00  0.00     0.000 C 
BRANCH   9  10
ATOM     10  C   UNL     1      48.212  54.451  45.323  1.00  0.00     0.000 C 
BRANCH  10  11
ATOM     11  C   UNL     1      49.669  54.746  44.919  1.00  0.00     0.000 C 
BRANCH  11  12
ATOM     12  C   UNL     1      49.752  55.802  43.795  1.00  0.00     0.000 C 
BRANCH  12  13
ATOM     13  C   UNL     1      49.763  55.191  42.384  1.00  0.00     0.006 C 
BRANCH  13  14
ATOM     14  C   UNL     1      48.355  54.958  41.824  1.00  0.00     0.053 C 
BRANCH  14  15
ATOM     15  C   UNL     1      47.821  53.634  42.270  1.00  0.00     0.041 C 
ATOM     16  O   UNL     1      46.579  53.426  42.269  1.00  0.00    -0.550 OA
ATOM     17  O   UNL     1      48.690  52.618  42.652  1.00  0.00    -0.550 OA
ENDBRANCH  14  15
ENDBRANCH  13  14
ENDBRANCH  12  13
ENDBRANCH  11  12
ENDBRANCH  10  11
ENDBRANCH   9  10
ENDBRANCH   8   9
ENDBRANCH   7   8
ENDBRANCH   6   7
ENDBRANCH   5   6
ENDBRANCH   4   5
ENDBRANCH   3   4
ENDBRANCH   2   3
ENDBRANCH   1   2
BRANCH   1  18
ATOM     18  C   UNL     1      40.857  56.590  46.629  1.00  0.00     0.000 C 
BRANCH  18  19
ATOM     19  C   UNL     1      39.564  55.902  47.118  1.00  0.00     0.000 C 
BRANCH  19  20
ATOM     20  C   UNL     1      38.924  56.583  48.338  1.00  0.00     0.000 C 
BRANCH  20  21
ATOM     21  C   UNL     1      39.550  57.950  48.657  1.00  0.00     0.000 C 
BRANCH  21  22
ATOM     22  C   UNL     1      40.618  57.866  49.760  1.00  0.00     0.000 C 
BRANCH  22  23
ATOM     23  C   UNL     1      41.885  58.664  49.408  1.00  0.00     0.000 C 
BRANCH  23  24
ATOM     24  C   UNL     1      41.711  59.517  48.137  1.00  0.00    -0.000 C 
BRANCH  24  25
ATOM     25  C   UNL     1      41.760  61.038  48.392  1.00  0.00    -0.000 C 
BRANCH  25  26
ATOM     26  C   UNL     1      42.187  61.401  49.828  1.00  0.00    -0.000 C 
BRANCH  26  27
ATOM     27  C   UNL     1      43.581  62.057  49.869  1.00  0.00    -0.000 C 
BRANCH  27  28
ATOM     28  C   UNL     1      44.584  61.370  48.925  1.00  0.00    -0.000 C 
BRANCH  28  29
ATOM     29  C   UNL     1      45.647  60.513  49.648  1.00  0.00    -0.000 C 
BRANCH  29  30
ATOM     30  C   UNL     1      45.115  59.171  50.181  1.00  0.00    -0.000 C 
BRANCH  30  31
ATOM     31  C   UNL     1      46.179  58.379  50.958  1.00  0.00    -0.003 C 
ATOM     32  C   UNL     1      45.696  58.044  52.365  1.00  0.00     0.004 C 
ENDBRANCH  30  31
ENDBRANCH  29  30
ENDBRANCH  28  29
ENDBRANCH  27  28
ENDBRANCH  26  27
ENDBRANCH  25  26
ENDBRANCH  24  25
ENDBRANCH  23  24
ENDBRANCH  22  23
ENDBRANCH  21  22
ENDBRANCH  20  21
ENDBRANCH  19  20
ENDBRANCH  18  19
ENDBRANCH   1  18
TORSDOF 28
ENDMDL
MODEL 4
REMARK VINA RESULT:    -0.403      2.444      5.095
REMARK INTER + INTRA:          -4.610
REMARK INTER:                  -2.331
REMARK INTRA:                  -2.279
REMARK UNBOUND:                -3.546
REMARK SMILES CCCCCCCCCCCCCCCCCCCCCCCCCCCCCC(=O)[O-]
REMARK SMILES IDX 16 1 17 2 18 3 19 4 20 5 21 6 22 7 23 8 24 9 25 10 26 11
REMARK SMILES IDX 27 12 28 13 29 14 30 15 31 16 32 17 15 18 14 19 13 20 12 21
REMARK SMILES IDX 11 22 10 23 9 24 8 25 7 26 6 27 5 28 4 29 3 30 2 31 1 32
REMARK H PARENT
REMARK Flexibility Score: inf
ROOT
ATOM      1  C   UNL     1      46.377  57.134  48.182  1.00  0.00     0.000 C 
ENDROOT
BRANCH   1   2
ATOM      2  C   UNL     1      46.713  57.386  49.665  1.00  0.00     0.000 C 
BRANCH   2   3
ATOM      3  C   UNL     1      45.611  58.089  50.479  1.00  0.00     0.000 C 
BRANCH   3   4
ATOM      4  C   UNL     1      45.768  59.617  50.506  1.00  0.00     0.000 C 
BRANCH   4   5
ATOM      5  C   UNL     1      45.186  60.305  49.259  1.00  0.00     0.000 C 
BRANCH   5   6
ATOM      6  C   UNL     1      45.333  61.838  49.222  1.00  0.00     0.000 C 
BRANCH   6   7
ATOM      7  C   UNL     1      44.033  62.571  49.596  1.00  0.00     0.000 C 
BRANCH   7   8
ATOM      8  C   UNL     1      42.910  61.618  50.044  1.00  0.00     0.000 C 
BRANCH   8   9
ATOM      9  C   UNL     1      41.697  61.536  49.095  1.00  0.00     0.000 C 
BRANCH   9  10
ATOM     10  C   UNL     1      41.421  60.120  48.545  1.00  0.00     0.000 C 
BRANCH  10  11
ATOM     11  C   UNL     1      41.885  59.007  49.505  1.00  0.00     0.000 C 
BRANCH  11  12
ATOM     12  C   UNL     1      40.922  57.800  49.492  1.00  0.00     0.000 C 
BRANCH  12  13
ATOM     13  C   UNL     1      39.938  57.816  48.311  1.00  0.00     0.006 C 
BRANCH  13  14
ATOM     14  C   UNL     1      39.091  56.542  48.222  1.00  0.00     0.053 C 
BRANCH  14  15
ATOM     15  C   UNL     1      39.538  55.687  47.080  1.00  0.00     0.041 C 
ATOM     16  O   UNL     1      39.571  54.435  47.207  1.00  0.00    -0.550 OA
ATOM     17  O   UNL     1      39.884  56.265  45.863  1.00  0.00    -0.550 OA
ENDBRANCH  14  15
ENDBRANCH  13  14
ENDBRANCH  12  13
ENDBRANCH  11  12
ENDBRANCH  10  11
ENDBRANCH   9  10
ENDBRANCH   8   9
ENDBRANCH   7   8
ENDBRANCH   6   7
ENDBRANCH   5   6
ENDBRANCH   4   5
ENDBRANCH   3   4
ENDBRANCH   2   3
ENDBRANCH   1   2
BRANCH   1  18
ATOM     18  C   UNL     1      45.196  56.167  47.990  1.00  0.00     0.000 C 
BRANCH  18  19
ATOM     19  C   UNL     1      43.910  56.896  47.543  1.00  0.00     0.000 C 
BRANCH  19  20
ATOM     20  C   UNL     1      44.153  58.330  47.047  1.00  0.00     0.000 C 
BRANCH  20  21
ATOM     21  C   UNL     1      43.104  58.795  46.024  1.00  0.00     0.000 C 
BRANCH  21  22
ATOM     22  C   UNL     1      42.313  57.625  45.419  1.00  0.00     0.000 C 
BRANCH  22  23
ATOM     23  C   UNL     1      43.030  56.995  44.212  1.00  0.00     0.000 C 
BRANCH  23  24
ATOM     24  C   UNL     1      44.452  57.555  44.015  1.00  0.00    -0.000 C 
BRANCH  24  25
ATOM     25  C   UNL     1      45.567  56.496  44.156  1.00  0.00    -0.000 C 
BRANCH  25  26
ATOM     26  C   UNL     1      46.737  56.711  43.176  1.00  0.00    -0.000 C 
BRANCH  26  27
ATOM     27  C   UNL     1      47.477  55.396  42.863  1.00  0.00    -0.000 C 
BRANCH  27  28
ATOM     28  C   UNL     1      48.854  55.634  42.216  1.00  0.00    -0.000 C 
BRANCH  28  29
ATOM     29  C   UNL     1      50.036  55.026  43.004  1.00  0.00    -0.000 C 
BRANCH  29  30
ATOM     30  C   UNL     1      49.729  54.760  44.489  1.00  0.00    -0.000 C 
BRANCH  30  31
ATOM     31  C   UNL     1      49.370  53.291  44.765  1.00  0.00    -0.003 C 
ATOM     32  C   UNL     1      49.003  52.563  43.476  1.00  0.00     0.004 C 
ENDBRANCH  30  31
ENDBRANCH  29  30
ENDBRANCH  28  29
ENDBRANCH  27  28
ENDBRANCH  26  27
ENDBRANCH  25  26
ENDBRANCH  24  25
ENDBRANCH  23  24
ENDBRANCH  22  23
ENDBRANCH  21  22
ENDBRANCH  20  21
ENDBRANCH  19  20
ENDBRANCH  18  19
ENDBRANCH   1  18
TORSDOF 28
ENDMDL
MODEL 5
REMARK VINA RESULT:    -0.196      3.898      6.174
REMARK INTER + INTRA:          -4.064
REMARK INTER:                  -0.266
REMARK INTRA:                  -3.798
REMARK UNBOUND:                -3.546
REMARK SMILES CCCCCCCCCCCCCCCCCCCCCCCCCCCCCC(=O)[O-]
REMARK SMILES IDX 16 1 17 2 18 3 19 4 20 5 21 6 22 7 23 8 24 9 25 10 26 11
REMARK SMILES IDX 27 12 28 13 29 14 30 15 31 16 32 17 15 18 14 19 13 20 12 21
REMARK SMILES IDX 11 22 10 23 9 24 8 25 7 26 6 27 5 28 4 29 3 30 2 31 1 32
REMARK H PARENT
REMARK Flexibility Score: inf
ROOT
ATOM      1  C   UNL     1      40.692  56.545  46.537  1.00  0.00     0.000 C 
ENDROOT
BRANCH   1   2
ATOM      2  C   UNL     1      39.620  55.732  47.290  1.00  0.00     0.000 C 
BRANCH   2   3
ATOM      3  C   UNL     1      38.883  56.493  48.408  1.00  0.00     0.000 C 
BRANCH   3   4
ATOM      4  C   UNL     1      39.378  57.938  48.575  1.00  0.00     0.000 C 
BRANCH   4   5
ATOM      5  C   UNL     1      40.311  58.120  49.785  1.00  0.00     0.000 C 
BRANCH   5   6
ATOM      6  C   UNL     1      41.740  58.587  49.450  1.00  0.00     0.000 C 
BRANCH   6   7
ATOM      7  C   UNL     1      41.837  59.273  48.076  1.00  0.00     0.000 C 
BRANCH   7   8
ATOM      8  C   UNL     1      42.061  60.792  48.175  1.00  0.00     0.000 C 
BRANCH   8   9
ATOM      9  C   UNL     1      41.708  61.424  49.537  1.00  0.00     0.000 C 
BRANCH   9  10
ATOM     10  C   UNL     1      40.301  62.056  49.594  1.00  0.00     0.000 C 
BRANCH  10  11
ATOM     11  C   UNL     1      39.692  62.027  51.009  1.00  0.00     0.000 C 
BRANCH  11  12
ATOM     12  C   UNL     1      38.370  62.821  51.082  1.00  0.00     0.000 C 
BRANCH  12  13
ATOM     13  C   UNL     1      37.968  63.206  52.515  1.00  0.00     0.006 C 
BRANCH  13  14
ATOM     14  C   UNL     1      36.507  62.872  52.835  1.00  0.00     0.053 C 
BRANCH  14  15
ATOM     15  C   UNL     1      36.186  61.467  52.438  1.00  0.00     0.041 C 
ATOM     16  O   UNL     1      36.428  60.519  53.231  1.00  0.00    -0.550 OA
ATOM     17  O   UNL     1      35.587  61.202  51.211  1.00  0.00    -0.550 OA
ENDBRANCH  14  15
ENDBRANCH  13  14
ENDBRANCH  12  13
ENDBRANCH  11  12
ENDBRANCH  10  11
ENDBRANCH   9  10
ENDBRANCH   8   9
ENDBRANCH   7   8
ENDBRANCH   6   7
ENDBRANCH   5   6
ENDBRANCH   4   5
ENDBRANCH   3   4
ENDBRANCH   2   3
ENDBRANCH   1   2
BRANCH   1  18
ATOM     18  C   UNL     1      40.125  57.317  45.333  1.00  0.00     0.000 C 
BRANCH  18  19
ATOM     19  C   UNL     1      41.233  58.003  44.505  1.00  0.00     0.000 C 
BRANCH  19  20
ATOM     20  C   UNL     1      42.177  57.017  43.798  1.00  0.00     0.000 C 
BRANCH  20  21
ATOM     21  C   UNL     1      43.565  56.944  44.455  1.00  0.00     0.000 C 
BRANCH  21  22
ATOM     22  C   UNL     1      44.039  58.306  44.984  1.00  0.00     0.000 C 
BRANCH  22  23
ATOM     23  C   UNL     1      44.391  58.262  46.481  1.00  0.00     0.000 C 
BRANCH  23  24
ATOM     24  C   UNL     1      43.947  56.948  47.152  1.00  0.00    -0.000 C 
BRANCH  24  25
ATOM     25  C   UNL     1      44.886  56.473  48.282  1.00  0.00    -0.000 C 
BRANCH  25  26
ATOM     26  C   UNL     1      46.291  57.103  48.211  1.00  0.00    -0.000 C 
BRANCH  26  27
ATOM     27  C   UNL     1      46.599  57.969  49.448  1.00  0.00    -0.000 C 
BRANCH  27  28
ATOM     28  C   UNL     1      45.350  58.239  50.305  1.00  0.00    -0.000 C 
BRANCH  28  29
ATOM     29  C   UNL     1      44.855  59.702  50.259  1.00  0.00    -0.000 C 
BRANCH  29  30
ATOM     30  C   UNL     1      45.375  60.502  49.050  1.00  0.00    -0.000 C 
BRANCH  30  31
ATOM     31  C   UNL     1      45.536  61.999  49.357  1.00  0.00    -0.003 C 
ATOM     32  C   UNL     1      46.129  62.743  48.165  1.00  0.00     0.004 C 
ENDBRANCH  30  31
ENDBRANCH  29  30
ENDBRANCH  28  29
ENDBRANCH  27  28
ENDBRANCH  26  27
ENDBRANCH  25  26
ENDBRANCH  24  25
ENDBRANCH  23  24
ENDBRANCH  22  23
ENDBRANCH  21  22
ENDBRANCH  20  21
ENDBRANCH  19  20
ENDBRANCH  18  19
ENDBRANCH   1  18
TORSDOF 28
ENDMDL
MODEL 6
REMARK VINA RESULT:    -0.141      3.270      9.200
REMARK INTER + INTRA:          -3.918
REMARK INTER:                  -0.800
REMARK INTRA:                  -3.118
REMARK UNBOUND:                -3.546
REMARK SMILES CCCCCCCCCCCCCCCCCCCCCCCCCCCCCC(=O)[O-]
REMARK SMILES IDX 16 1 17 2 18 3 19 4 20 5 21 6 22 7 23 8 24 9 25 10 26 11
REMARK SMILES IDX 27 12 28 13 29 14 30 15 31 16 32 17 15 18 14 19 13 20 12 21
REMARK SMILES IDX 11 22 10 23 9 24 8 25 7 26 6 27 5 28 4 29 3 30 2 31 1 32
REMARK H PARENT
REMARK Flexibility Score: inf
ROOT
ATOM      1  C   UNL     1      39.844  56.110  47.743  1.00  0.00     0.000 C 
ENDROOT
BRANCH   1   2
ATOM      2  C   UNL     1      40.522  56.311  46.374  1.00  0.00     0.000 C 
BRANCH   2   3
ATOM      3  C   UNL     1      40.397  57.727  45.780  1.00  0.00     0.000 C 
BRANCH   3   4
ATOM      4  C   UNL     1      41.368  57.976  44.615  1.00  0.00     0.000 C 
BRANCH   4   5
ATOM      5  C   UNL     1      42.555  56.996  44.600  1.00  0.00     0.000 C 
BRANCH   5   6
ATOM      6  C   UNL     1      43.940  57.637  44.807  1.00  0.00     0.000 C 
BRANCH   6   7
ATOM      7  C   UNL     1      44.118  58.233  46.215  1.00  0.00     0.000 C 
BRANCH   7   8
ATOM      8  C   UNL     1      43.979  57.186  47.335  1.00  0.00     0.000 C 
BRANCH   8   9
ATOM      9  C   UNL     1      45.302  56.556  47.816  1.00  0.00     0.000 C 
BRANCH   9  10
ATOM     10  C   UNL     1      46.308  57.570  48.402  1.00  0.00     0.000 C 
BRANCH  10  11
ATOM     11  C   UNL     1      46.301  57.592  49.943  1.00  0.00     0.000 C 
BRANCH  11  12
ATOM     12  C   UNL     1      45.277  58.605  50.499  1.00  0.00     0.000 C 
BRANCH  12  13
ATOM     13  C   UNL     1      45.705  60.070  50.312  1.00  0.00     0.006 C 
BRANCH  13  14
ATOM     14  C   UNL     1      45.288  60.643  48.953  1.00  0.00     0.053 C 
BRANCH  14  15
ATOM     15  C   UNL     1      45.358  62.137  48.965  1.00  0.00     0.041 C 
ATOM     16  O   UNL     1      46.210  62.731  48.253  1.00  0.00    -0.550 OA
ATOM     17  O   UNL     1      44.464  62.876  49.730  1.00  0.00    -0.550 OA
ENDBRANCH  14  15
ENDBRANCH  13  14
ENDBRANCH  12  13
ENDBRANCH  11  12
ENDBRANCH  10  11
ENDBRANCH   9  10
ENDBRANCH   8   9
ENDBRANCH   7   8
ENDBRANCH   6   7
ENDBRANCH   5   6
ENDBRANCH   4   5
ENDBRANCH   3   4
ENDBRANCH   2   3
ENDBRANCH   1   2
BRANCH   1  18
ATOM     18  C   UNL     1      39.154  57.382  48.265  1.00  0.00     0.000 C 
BRANCH  18  19
ATOM     19  C   UNL     1      39.874  57.976  49.494  1.00  0.00     0.000 C 
BRANCH  19  20
ATOM     20  C   UNL     1      41.392  57.734  49.498  1.00  0.00     0.000 C 
BRANCH  20  21
ATOM     21  C   UNL     1      42.205  59.030  49.351  1.00  0.00     0.000 C 
BRANCH  21  22
ATOM     22  C   UNL     1      41.605  59.986  48.308  1.00  0.00     0.000 C 
BRANCH  22  23
ATOM     23  C   UNL     1      41.720  61.461  48.732  1.00  0.00     0.000 C 
BRANCH  23  24
ATOM     24  C   UNL     1      41.245  61.696  50.179  1.00  0.00    -0.000 C 
BRANCH  24  25
ATOM     25  C   UNL     1      39.730  61.483  50.383  1.00  0.00    -0.000 C 
BRANCH  25  26
ATOM     26  C   UNL     1      39.131  62.380  51.484  1.00  0.00    -0.000 C 
BRANCH  26  27
ATOM     27  C   UNL     1      38.041  63.321  50.935  1.00  0.00    -0.000 C 
BRANCH  27  28
ATOM     28  C   UNL     1      37.007  63.713  52.006  1.00  0.00    -0.000 C 
BRANCH  28  29
ATOM     29  C   UNL     1      35.663  62.960  51.893  1.00  0.00    -0.000 C 
BRANCH  29  30
ATOM     30  C   UNL     1      35.805  61.429  51.823  1.00  0.00    -0.000 C 
BRANCH  30  31
ATOM     31  C   UNL     1      36.544  60.847  53.038  1.00  0.00    -0.003 C 
ATOM     32  C   UNL     1      36.447  61.783  54.239  1.00  0.00     0.004 C 
ENDBRANCH  30  31
ENDBRANCH  29  30
ENDBRANCH  28  29
ENDBRANCH  27  28
ENDBRANCH  26  27
ENDBRANCH  25  26
ENDBRANCH  24  25
ENDBRANCH  23  24
ENDBRANCH  22  23
ENDBRANCH  21  22
ENDBRANCH  20  21
ENDBRANCH  19  20
ENDBRANCH  18  19
ENDBRANCH   1  18
TORSDOF 28
ENDMDL
MODEL 7
REMARK VINA RESULT:    -0.020      2.272      8.181
REMARK INTER + INTRA:          -3.600
REMARK INTER:                  -0.363
REMARK INTRA:                  -3.236
REMARK UNBOUND:                -3.546
REMARK SMILES CCCCCCCCCCCCCCCCCCCCCCCCCCCCCC(=O)[O-]
REMARK SMILES IDX 16 1 17 2 18 3 19 4 20 5 21 6 22 7 23 8 24 9 25 10 26 11
REMARK SMILES IDX 27 12 28 13 29 14 30 15 31 16 32 17 15 18 14 19 13 20 12 21
REMARK SMILES IDX 11 22 10 23 9 24 8 25 7 26 6 27 5 28 4 29 3 30 2 31 1 32
REMARK H PARENT
REMARK Flexibility Score: inf
ROOT
ATOM      1  C   UNL     1      45.061  56.363  47.991  1.00  0.00     0.000 C 
ENDROOT
BRANCH   1   2
ATOM      2  C   UNL     1      43.771  57.085  47.554  1.00  0.00     0.000 C 
BRANCH   2   3
ATOM      3  C   UNL     1      43.973  58.499  46.978  1.00  0.00     0.000 C 
BRANCH   3   4
ATOM      4  C   UNL     1      42.800  58.961  46.100  1.00  0.00     0.000 C 
BRANCH   4   5
ATOM      5  C   UNL     1      42.126  57.807  45.337  1.00  0.00     0.000 C 
BRANCH   5   6
ATOM      6  C   UNL     1      42.832  57.374  44.039  1.00  0.00     0.000 C 
BRANCH   6   7
ATOM      7  C   UNL     1      43.952  56.347  44.283  1.00  0.00     0.000 C 
BRANCH   7   8
ATOM      8  C   UNL     1      45.346  56.870  43.890  1.00  0.00     0.000 C 
BRANCH   8   9
ATOM      9  C   UNL     1      46.469  55.813  43.882  1.00  0.00     0.000 C 
BRANCH   9  10
ATOM     10  C   UNL     1      47.431  55.925  42.680  1.00  0.00     0.000 C 
BRANCH  10  11
ATOM     11  C   UNL     1      47.673  54.571  41.983  1.00  0.00     0.000 C 
BRANCH  11  12
ATOM     12  C   UNL     1      47.823  53.420  43.002  1.00  0.00     0.000 C 
BRANCH  12  13
ATOM     13  C   UNL     1      49.245  53.291  43.571  1.00  0.00     0.006 C 
BRANCH  13  14
ATOM     14  C   UNL     1      49.493  54.211  44.771  1.00  0.00     0.053 C 
BRANCH  14  15
ATOM     15  C   UNL     1      50.207  55.455  44.346  1.00  0.00     0.041 C 
ATOM     16  O   UNL     1      50.520  56.323  45.203  1.00  0.00    -0.550 OA
ATOM     17  O   UNL     1      50.560  55.642  43.014  1.00  0.00    -0.550 OA
ENDBRANCH  14  15
ENDBRANCH  13  14
ENDBRANCH  12  13
ENDBRANCH  11  12
ENDBRANCH  10  11
ENDBRANCH   9  10
ENDBRANCH   8   9
ENDBRANCH   7   8
ENDBRANCH   6   7
ENDBRANCH   5   6
ENDBRANCH   4   5
ENDBRANCH   3   4
ENDBRANCH   2   3
ENDBRANCH   1   2
BRANCH   1  18
ATOM     18  C   UNL     1      46.286  57.292  48.028  1.00  0.00     0.000 C 
BRANCH  18  19
ATOM     19  C   UNL     1      46.714  57.637  49.471  1.00  0.00     0.000 C 
BRANCH  19  20
ATOM     20  C   UNL     1      45.535  57.944  50.409  1.00  0.00     0.000 C 
BRANCH  20  21
ATOM     21  C   UNL     1      45.322  59.450  50.627  1.00  0.00     0.000 C 
BRANCH  21  22
ATOM     22  C   UNL     1      45.528  60.267  49.342  1.00  0.00     0.000 C 
BRANCH  22  23
ATOM     23  C   UNL     1      44.668  61.542  49.314  1.00  0.00     0.000 C 
BRANCH  23  24
ATOM     24  C   UNL     1      43.262  61.317  49.904  1.00  0.00    -0.000 C 
BRANCH  24  25
ATOM     25  C   UNL     1      42.121  61.453  48.873  1.00  0.00    -0.000 C 
BRANCH  25  26
ATOM     26  C   UNL     1      41.164  60.246  48.860  1.00  0.00    -0.000 C 
BRANCH  26  27
ATOM     27  C   UNL     1      41.793  59.002  49.520  1.00  0.00    -0.000 C 
BRANCH  27  28
ATOM     28  C   UNL     1      40.873  57.770  49.450  1.00  0.00    -0.000 C 
BRANCH  28  29
ATOM     29  C   UNL     1      39.746  57.880  48.399  1.00  0.00    -0.000 C 
BRANCH  29  30
ATOM     30  C   UNL     1      39.116  56.530  48.011  1.00  0.00    -0.000 C 
BRANCH  30  31
ATOM     31  C   UNL     1      39.998  55.720  47.049  1.00  0.00    -0.003 C 
ATOM     32  C   UNL     1      39.668  54.232  47.122  1.00  0.00     0.004 C 
ENDBRANCH  30  31
ENDBRANCH  29  30
ENDBRANCH  28  29
ENDBRANCH  27  28
ENDBRANCH  26  27
ENDBRANCH  25  26
ENDBRANCH  24  25
ENDBRANCH  23  24
ENDBRANCH  22  23
ENDBRANCH  21  22
ENDBRANCH  20  21
ENDBRANCH  19  20
ENDBRANCH  18  19
ENDBRANCH   1  18
TORSDOF 28
ENDMDL
MODEL 8
REMARK VINA RESULT:     0.012      2.730      7.888
REMARK INTER + INTRA:          -3.514
REMARK INTER:                  -0.795
REMARK INTRA:                  -2.719
REMARK UNBOUND:                -3.546
REMARK SMILES CCCCCCCCCCCCCCCCCCCCCCCCCCCCCC(=O)[O-]
REMARK SMILES IDX 16 1 17 2 18 3 19 4 20 5 21 6 22 7 23 8 24 9 25 10 26 11
REMARK SMILES IDX 27 12 28 13 29 14 30 15 31 16 32 17 15 18 14 19 13 20 12 21
REMARK SMILES IDX 11 22 10 23 9 24 8 25 7 26 6 27 5 28 4 29 3 30 2 31 1 32
REMARK H PARENT
REMARK Flexibility Score: inf
ROOT
ATOM      1  C   UNL     1      42.933  61.442  49.893  1.00  0.00     0.000 C 
ENDROOT
BRANCH   1   2
ATOM      2  C   UNL     1      44.199  62.122  49.335  1.00  0.00     0.000 C 
BRANCH   2   3
ATOM      3  C   UNL     1      45.498  61.306  49.473  1.00  0.00     0.000 C 
BRANCH   3   4
ATOM      4  C   UNL     1      45.300  59.810  49.182  1.00  0.00     0.000 C 
BRANCH   4   5
ATOM      5  C   UNL     1      45.626  58.913  50.388  1.00  0.00     0.000 C 
BRANCH   5   6
ATOM      6  C   UNL     1      46.203  57.528  50.042  1.00  0.00     0.000 C 
BRANCH   6   7
ATOM      7  C   UNL     1      46.744  57.449  48.603  1.00  0.00     0.000 C 
BRANCH   7   8
ATOM      8  C   UNL     1      46.334  56.156  47.875  1.00  0.00     0.000 C 
BRANCH   8   9
ATOM      9  C   UNL     1      46.911  55.988  46.455  1.00  0.00     0.000 C 
BRANCH   9  10
ATOM     10  C   UNL     1      47.525  54.597  46.184  1.00  0.00     0.000 C 
BRANCH  10  11
ATOM     11  C   UNL     1      48.597  54.626  45.077  1.00  0.00     0.000 C 
BRANCH  11  12
ATOM     12  C   UNL     1      48.804  53.233  44.442  1.00  0.00     0.000 C 
BRANCH  12  13
ATOM     13  C   UNL     1      48.446  53.185  42.948  1.00  0.00     0.006 C 
BRANCH  13  14
ATOM     14  C   UNL     1      47.927  54.526  42.416  1.00  0.00     0.053 C 
BRANCH  14  15
ATOM     15  C   UNL     1      49.039  55.319  41.806  1.00  0.00     0.041 C 
ATOM     16  O   UNL     1      48.826  56.006  40.772  1.00  0.00    -0.550 OA
ATOM     17  O   UNL     1      50.299  55.331  42.394  1.00  0.00    -0.550 OA
ENDBRANCH  14  15
ENDBRANCH  13  14
ENDBRANCH  12  13
ENDBRANCH  11  12
ENDBRANCH  10  11
ENDBRANCH   9  10
ENDBRANCH   8   9
ENDBRANCH   7   8
ENDBRANCH   6   7
ENDBRANCH   5   6
ENDBRANCH   4   5
ENDBRANCH   3   4
ENDBRANCH   2   3
ENDBRANCH   1   2
BRANCH   1  18
ATOM     18  C   UNL     1      41.796  61.350  48.861  1.00  0.00     0.000 C 
BRANCH  18  19
ATOM     19  C   UNL     1      41.828  60.023  48.073  1.00  0.00     0.000 C 
BRANCH  19  20
ATOM     20  C   UNL     1      40.692  59.056  48.444  1.00  0.00     0.000 C 
BRANCH  20  21
ATOM     21  C   UNL     1      41.085  58.072  49.557  1.00  0.00     0.000 C 
BRANCH  21  22
ATOM     22  C   UNL     1      42.506  57.515  49.377  1.00  0.00     0.000 C 
BRANCH  22  23
ATOM     23  C   UNL     1      42.621  56.592  48.152  1.00  0.00     0.000 C 
BRANCH  23  24
ATOM     24  C   UNL     1      43.831  56.940  47.263  1.00  0.00    -0.000 C 
BRANCH  24  25
ATOM     25  C   UNL     1      43.514  57.952  46.141  1.00  0.00    -0.000 C 
BRANCH  25  26
ATOM     26  C   UNL     1      43.521  57.323  44.735  1.00  0.00    -0.000 C 
BRANCH  26  27
ATOM     27  C   UNL     1      42.096  57.126  44.182  1.00  0.00    -0.000 C 
BRANCH  27  28
ATOM     28  C   UNL     1      41.082  58.103  44.803  1.00  0.00    -0.000 C 
BRANCH  28  29
ATOM     29  C   UNL     1      39.969  57.420  45.628  1.00  0.00    -0.000 C 
BRANCH  29  30
ATOM     30  C   UNL     1      40.218  55.925  45.899  1.00  0.00    -0.000 C 
BRANCH  30  31
ATOM     31  C   UNL     1      39.570  55.445  47.207  1.00  0.00    -0.003 C 
ATOM     32  C   UNL     1      39.725  53.937  47.377  1.00  0.00     0.004 C 
ENDBRANCH  30  31
ENDBRANCH  29  30
ENDBRANCH  28  29
ENDBRANCH  27  28
ENDBRANCH  26  27
ENDBRANCH  25  26
ENDBRANCH  24  25
ENDBRANCH  23  24
ENDBRANCH  22  23
ENDBRANCH  21  22
ENDBRANCH  20  21
ENDBRANCH  19  20
ENDBRANCH  18  19
ENDBRANCH   1  18
TORSDOF 28
ENDMDL
MODEL 9
REMARK VINA RESULT:     0.060      2.753      7.992
REMARK INTER + INTRA:          -3.388
REMARK INTER:                  -0.898
REMARK INTRA:                  -2.490
REMARK UNBOUND:                -3.546
REMARK SMILES CCCCCCCCCCCCCCCCCCCCCCCCCCCCCC(=O)[O-]
REMARK SMILES IDX 16 1 17 2 18 3 19 4 20 5 21 6 22 7 23 8 24 9 25 10 26 11
REMARK SMILES IDX 27 12 28 13 29 14 30 15 31 16 32 17 15 18 14 19 13 20 12 21
REMARK SMILES IDX 11 22 10 23 9 24 8 25 7 26 6 27 5 28 4 29 3 30 2 31 1 32
REMARK H PARENT
REMARK Flexibility Score: inf
ROOT
ATOM      1  C   UNL     1      42.020  61.496  48.780  1.00  0.00     0.000 C 
ENDROOT
BRANCH   1   2
ATOM      2  C   UNL     1      43.126  61.462  49.852  1.00  0.00     0.000 C 
BRANCH   2   3
ATOM      3  C   UNL     1      44.536  61.831  49.354  1.00  0.00     0.000 C 
BRANCH   3   4
ATOM      4  C   UNL     1      45.536  60.671  49.474  1.00  0.00     0.000 C 
BRANCH   4   5
ATOM      5  C   UNL     1      44.866  59.330  49.820  1.00  0.00     0.000 C 
BRANCH   5   6
ATOM      6  C   UNL     1      45.829  58.146  50.026  1.00  0.00     0.000 C 
BRANCH   6   7
ATOM      7  C   UNL     1      46.397  57.601  48.704  1.00  0.00     0.000 C 
BRANCH   7   8
ATOM      8  C   UNL     1      45.516  56.508  48.074  1.00  0.00     0.000 C 
BRANCH   8   9
ATOM      9  C   UNL     1      46.272  55.439  47.259  1.00  0.00     0.000 C 
BRANCH   9  10
ATOM     10  C   UNL     1      47.333  56.013  46.296  1.00  0.00     0.000 C 
BRANCH  10  11
ATOM     11  C   UNL     1      47.882  54.957  45.318  1.00  0.00     0.000 C 
BRANCH  11  12
ATOM     12  C   UNL     1      49.376  55.189  45.001  1.00  0.00     0.000 C 
BRANCH  12  13
ATOM     13  C   UNL     1      49.808  54.611  43.643  1.00  0.00     0.006 C 
BRANCH  13  14
ATOM     14  C   UNL     1      48.950  53.419  43.203  1.00  0.00     0.053 C 
BRANCH  14  15
ATOM     15  C   UNL     1      47.800  53.876  42.363  1.00  0.00     0.041 C 
ATOM     16  O   UNL     1      47.916  54.904  41.645  1.00  0.00    -0.550 OA
ATOM     17  O   UNL     1      46.614  53.152  42.342  1.00  0.00    -0.550 OA
ENDBRANCH  14  15
ENDBRANCH  13  14
ENDBRANCH  12  13
ENDBRANCH  11  12
ENDBRANCH  10  11
ENDBRANCH   9  10
ENDBRANCH   8   9
ENDBRANCH   7   8
ENDBRANCH   6   7
ENDBRANCH   5   6
ENDBRANCH   4   5
ENDBRANCH   3   4
ENDBRANCH   2   3
ENDBRANCH   1   2
BRANCH   1  18
ATOM     18  C   UNL     1      41.850  60.153  48.049  1.00  0.00     0.000 C 
BRANCH  18  19
ATOM     19  C   UNL     1      42.342  60.216  46.587  1.00  0.00     0.000 C 
BRANCH  19  20
ATOM     20  C   UNL     1      43.752  59.640  46.383  1.00  0.00     0.000 C 
BRANCH  20  21
ATOM     21  C   UNL     1      43.757  58.111  46.228  1.00  0.00     0.000 C 
BRANCH  21  22
ATOM     22  C   UNL     1      43.930  57.667  44.767  1.00  0.00     0.000 C 
BRANCH  22  23
ATOM     23  C   UNL     1      42.718  56.875  44.249  1.00  0.00     0.000 C 
BRANCH  23  24
ATOM     24  C   UNL     1      41.529  57.786  43.885  1.00  0.00    -0.000 C 
BRANCH  24  25
ATOM     25  C   UNL     1      40.313  57.634  44.824  1.00  0.00    -0.000 C 
BRANCH  25  26
ATOM     26  C   UNL     1      40.680  57.058  46.206  1.00  0.00    -0.000 C 
BRANCH  26  27
ATOM     27  C   UNL     1      39.692  55.963  46.656  1.00  0.00    -0.000 C 
BRANCH  27  28
ATOM     28  C   UNL     1      39.109  56.235  48.054  1.00  0.00    -0.000 C 
BRANCH  28  29
ATOM     29  C   UNL     1      39.290  57.689  48.543  1.00  0.00    -0.000 C 
BRANCH  29  30
ATOM     30  C   UNL     1      40.075  57.814  49.862  1.00  0.00    -0.000 C 
BRANCH  30  31
ATOM     31  C   UNL     1      41.564  58.120  49.638  1.00  0.00    -0.003 C 
ATOM     32  C   UNL     1      42.337  56.854  49.282  1.00  0.00     0.004 C 
ENDBRANCH  30  31
ENDBRANCH  29  30
ENDBRANCH  28  29
ENDBRANCH  27  28
ENDBRANCH  26  27
ENDBRANCH  25  26
ENDBRANCH  24  25
ENDBRANCH  23  24
ENDBRANCH  22  23
ENDBRANCH  21  22
ENDBRANCH  20  21
ENDBRANCH  19  20
ENDBRANCH  18  19
ENDBRANCH   1  18
TORSDOF 28
ENDMDL
