MODEL 1
REMARK VINA RESULT:    -5.132      0.000      0.000
REMARK INTER + INTRA:          -5.695
REMARK INTER:                  -5.432
REMARK INTRA:                  -0.264
REMARK UNBOUND:                -0.264
REMARK SMILES CC1=CC[C@H]2[C@H]3[C@@H]1[C@]2(C)CC[C@H]3C(C)C
REMARK SMILES IDX 1 1 2 2 3 3 4 4 5 5 6 6 7 7 8 8 10 9 11 10 12 11 9 12 13 13
REMARK SMILES IDX 14 14 15 15
REMARK H PARENT
REMARK Flexibility Score: inf
ROOT
ATOM      1  C   UNL     1     137.799 132.991 140.125  1.00  0.00     0.039 C 
ATOM      2  C   UNL     1     137.548 133.464 138.725  1.00  0.00    -0.073 C 
ATOM      3  C   UNL     1     136.287 133.698 138.276  1.00  0.00    -0.027 C 
ATOM      4  C   UNL     1     136.090 134.155 136.828  1.00  0.00     0.031 C 
ATOM      5  C   UNL     1     137.472 134.308 136.112  1.00  0.00     0.003 C 
ATOM      6  C   UNL     1     138.412 135.083 137.073  1.00  0.00     0.004 C 
ATOM      7  C   UNL     1     138.695 133.719 137.743  1.00  0.00     0.024 C 
ATOM      8  C   UNL     1     138.384 133.082 136.370  1.00  0.00    -0.022 C 
ATOM      9  C   UNL     1     139.660 133.153 135.474  1.00  0.00     0.008 C 
ATOM     10  C   UNL     1     140.127 134.610 135.217  1.00  0.00     0.005 C 
ATOM     11  C   UNL     1     139.701 135.587 136.358  1.00  0.00    -0.005 C 
ATOM     12  C   UNL     1     137.766 131.665 136.339  1.00  0.00     0.012 C 
ENDROOT
BRANCH  11  13
ATOM     13  C   UNL     1     139.591 137.078 135.919  1.00  0.00    -0.014 C 
ATOM     14  C   UNL     1     139.319 137.275 134.418  1.00  0.00     0.007 C 
ATOM     15  C   UNL     1     140.825 137.886 136.348  1.00  0.00     0.007 C 
ENDBRANCH  11  13
TORSDOF 1
ENDMDL
MODEL 2
REMARK VINA RESULT:    -5.122      4.953      7.146
REMARK INTER + INTRA:          -5.685
REMARK INTER:                  -5.422
REMARK INTRA:                  -0.263
REMARK UNBOUND:                -0.264
REMARK SMILES CC1=CC[C@H]2[C@H]3[C@@H]1[C@]2(C)CC[C@H]3C(C)C
REMARK SMILES IDX 1 1 2 2 3 3 4 4 5 5 6 6 7 7 8 8 10 9 11 10 12 11 9 12 13 13
REMARK SMILES IDX 14 14 15 15
REMARK H PARENT
REMARK Flexibility Score: inf
ROOT
ATOM      1  C   UNL     1     134.855 139.647 140.064  1.00  0.00     0.039 C 
ATOM      2  C   UNL     1     135.089 139.162 138.665  1.00  0.00    -0.073 C 
ATOM      3  C   UNL     1     136.345 138.930 138.200  1.00  0.00    -0.027 C 
ATOM      4  C   UNL     1     136.523 138.460 136.753  1.00  0.00     0.031 C 
ATOM      5  C   UNL     1     135.132 138.293 136.059  1.00  0.00     0.003 C 
ATOM      6  C   UNL     1     134.210 137.522 137.041  1.00  0.00     0.004 C 
ATOM      7  C   UNL     1     133.929 138.891 137.702  1.00  0.00     0.024 C 
ATOM      8  C   UNL     1     134.216 139.517 136.318  1.00  0.00    -0.022 C 
ATOM      9  C   UNL     1     132.928 139.431 135.442  1.00  0.00     0.008 C 
ATOM     10  C   UNL     1     132.465 137.969 135.205  1.00  0.00     0.005 C 
ATOM     11  C   UNL     1     132.913 137.005 136.349  1.00  0.00    -0.005 C 
ATOM     12  C   UNL     1     134.826 140.937 136.264  1.00  0.00     0.012 C 
ENDROOT
BRANCH  11  13
ATOM     13  C   UNL     1     133.025 135.510 135.923  1.00  0.00    -0.014 C 
ATOM     14  C   UNL     1     133.265 135.300 134.418  1.00  0.00     0.007 C 
ATOM     15  C   UNL     1     131.806 134.698 136.387  1.00  0.00     0.007 C 
ENDBRANCH  11  13
TORSDOF 1
ENDMDL
MODEL 3
REMARK VINA RESULT:    -5.095      3.158      5.047
REMARK INTER + INTRA:          -5.656
REMARK INTER:                  -5.389
REMARK INTRA:                  -0.268
REMARK UNBOUND:                -0.264
REMARK SMILES CC1=CC[C@H]2[C@H]3[C@@H]1[C@]2(C)CC[C@H]3C(C)C
REMARK SMILES IDX 1 1 2 2 3 3 4 4 5 5 6 6 7 7 8 8 10 9 11 10 12 11 9 12 13 13
REMARK SMILES IDX 14 14 15 15
REMARK H PARENT
REMARK Flexibility Score: inf
ROOT
ATOM      1  C   UNL     1     132.988 134.891 140.155  1.00  0.00     0.039 C 
ATOM      2  C   UNL     1     133.456 135.131 138.751  1.00  0.00    -0.073 C 
ATOM      3  C   UNL     1     133.677 136.388 138.287  1.00  0.00    -0.027 C 
ATOM      4  C   UNL     1     134.128 136.573 136.835  1.00  0.00     0.031 C 
ATOM      5  C   UNL     1     134.293 135.184 136.135  1.00  0.00     0.003 C 
ATOM      6  C   UNL     1     135.079 134.262 137.105  1.00  0.00     0.004 C 
ATOM      7  C   UNL     1     133.719 133.974 137.782  1.00  0.00     0.024 C 
ATOM      8  C   UNL     1     133.075 134.263 136.406  1.00  0.00    -0.022 C 
ATOM      9  C   UNL     1     133.156 132.978 135.526  1.00  0.00     0.008 C 
ATOM     10  C   UNL     1     134.617 132.521 135.270  1.00  0.00     0.005 C 
ATOM     11  C   UNL     1     135.593 132.970 136.403  1.00  0.00    -0.005 C 
ATOM     12  C   UNL     1     131.653 134.867 136.371  1.00  0.00     0.012 C 
ENDROOT
BRANCH  11  13
ATOM     13  C   UNL     1     137.081 133.088 135.959  1.00  0.00    -0.014 C 
ATOM     14  C   UNL     1     137.271 133.428 134.471  1.00  0.00     0.007 C 
ATOM     15  C   UNL     1     137.883 131.830 136.325  1.00  0.00     0.007 C 
ENDBRANCH  11  13
TORSDOF 1
ENDMDL
MODEL 4
REMARK VINA RESULT:    -5.042      3.165      4.987
REMARK INTER + INTRA:          -5.600
REMARK INTER:                  -5.350
REMARK INTRA:                  -0.250
REMARK UNBOUND:                -0.264
REMARK SMILES CC1=CC[C@H]2[C@H]3[C@@H]1[C@]2(C)CC[C@H]3C(C)C
REMARK SMILES IDX 1 1 2 2 3 3 4 4 5 5 6 6 7 7 8 8 10 9 11 10 12 11 9 12 13 13
REMARK SMILES IDX 14 14 15 15
REMARK H PARENT
REMARK Flexibility Score: inf
ROOT
ATOM      1  C   UNL     1     139.554 137.510 139.813  1.00  0.00     0.039 C 
ATOM      2  C   UNL     1     139.065 137.356 138.404  1.00  0.00    -0.073 C 
ATOM      3  C   UNL     1     138.758 136.135 137.894  1.00  0.00    -0.027 C 
ATOM      4  C   UNL     1     138.289 136.038 136.439  1.00  0.00     0.031 C 
ATOM      5  C   UNL     1     138.216 137.460 135.793  1.00  0.00     0.003 C 
ATOM      6  C   UNL     1     137.497 138.395 136.803  1.00  0.00     0.004 C 
ATOM      7  C   UNL     1     138.877 138.564 137.481  1.00  0.00     0.024 C 
ATOM      8  C   UNL     1     139.494 138.286 136.091  1.00  0.00    -0.022 C 
ATOM      9  C   UNL     1     139.496 139.606 135.261  1.00  0.00     0.008 C 
ATOM     10  C   UNL     1     138.068 140.170 135.033  1.00  0.00     0.005 C 
ATOM     11  C   UNL     1     137.069 139.745 136.154  1.00  0.00    -0.005 C 
ATOM     12  C   UNL     1     140.872 137.589 136.024  1.00  0.00     0.012 C 
ENDROOT
BRANCH  11  13
ATOM     13  C   UNL     1     135.574 139.744 135.717  1.00  0.00    -0.014 C 
ATOM     14  C   UNL     1     135.363 139.778 134.193  1.00  0.00     0.007 C 
ATOM     15  C   UNL     1     134.787 140.879 136.390  1.00  0.00     0.007 C 
ENDBRANCH  11  13
TORSDOF 1
ENDMDL
MODEL 5
REMARK VINA RESULT:    -4.995      4.844      7.417
REMARK INTER + INTRA:          -5.551
REMARK INTER:                  -5.137
REMARK INTRA:                  -0.414
REMARK UNBOUND:                -0.264
REMARK SMILES CC1=CC[C@H]2[C@H]3[C@@H]1[C@]2(C)CC[C@H]3C(C)C
REMARK SMILES IDX 1 1 2 2 3 3 4 4 5 5 6 6 7 7 8 8 10 9 11 10 12 11 9 12 13 13
REMARK SMILES IDX 14 14 15 15
REMARK H PARENT
REMARK Flexibility Score: inf
ROOT
ATOM      1  C   UNL     1     134.590 140.802 136.350  1.00  0.00     0.039 C 
ATOM      2  C   UNL     1     134.747 139.441 135.740  1.00  0.00    -0.073 C 
ATOM      3  C   UNL     1     135.934 138.782 135.783  1.00  0.00    -0.027 C 
ATOM      4  C   UNL     1     136.040 137.405 135.121  1.00  0.00     0.031 C 
ATOM      5  C   UNL     1     134.661 136.983 134.516  1.00  0.00     0.003 C 
ATOM      6  C   UNL     1     133.574 137.273 135.586  1.00  0.00     0.004 C 
ATOM      7  C   UNL     1     133.577 138.726 135.057  1.00  0.00     0.024 C 
ATOM      8  C   UNL     1     134.022 138.136 133.699  1.00  0.00    -0.022 C 
ATOM      9  C   UNL     1     132.765 137.627 132.928  1.00  0.00     0.008 C 
ATOM     10  C   UNL     1     132.006 136.512 133.695  1.00  0.00     0.005 C 
ATOM     11  C   UNL     1     132.213 136.599 135.240  1.00  0.00    -0.005 C 
ATOM     12  C   UNL     1     134.922 138.996 132.782  1.00  0.00     0.012 C 
ENDROOT
BRANCH  11  13
ATOM     13  C   UNL     1     132.013 135.249 135.992  1.00  0.00    -0.014 C 
ATOM     14  C   UNL     1     132.741 135.167 137.345  1.00  0.00     0.007 C 
ATOM     15  C   UNL     1     132.389 134.049 135.110  1.00  0.00     0.007 C 
ENDBRANCH  11  13
TORSDOF 1
ENDMDL
MODEL 6
REMARK VINA RESULT:    -4.979      1.799      2.627
REMARK INTER + INTRA:          -5.533
REMARK INTER:                  -5.126
REMARK INTRA:                  -0.407
REMARK UNBOUND:                -0.264
REMARK SMILES CC1=CC[C@H]2[C@H]3[C@@H]1[C@]2(C)CC[C@H]3C(C)C
REMARK SMILES IDX 1 1 2 2 3 3 4 4 5 5 6 6 7 7 8 8 10 9 11 10 12 11 9 12 13 13
REMARK SMILES IDX 14 14 15 15
REMARK H PARENT
REMARK Flexibility Score: inf
ROOT
ATOM      1  C   UNL     1     137.993 131.857 136.392  1.00  0.00     0.039 C 
ATOM      2  C   UNL     1     137.849 133.220 135.785  1.00  0.00    -0.073 C 
ATOM      3  C   UNL     1     136.674 133.900 135.851  1.00  0.00    -0.027 C 
ATOM      4  C   UNL     1     136.579 135.278 135.190  1.00  0.00     0.031 C 
ATOM      5  C   UNL     1     137.953 135.675 134.558  1.00  0.00     0.003 C 
ATOM      6  C   UNL     1     139.056 135.367 135.605  1.00  0.00     0.004 C 
ATOM      7  C   UNL     1     139.017 133.914 135.078  1.00  0.00     0.024 C 
ATOM      8  C   UNL     1     138.555 134.511 133.729  1.00  0.00    -0.022 C 
ATOM      9  C   UNL     1     139.805 134.998 132.932  1.00  0.00     0.008 C 
ATOM     10  C   UNL     1     140.599 136.100 133.683  1.00  0.00     0.005 C 
ATOM     11  C   UNL     1     140.421 136.017 135.232  1.00  0.00    -0.005 C 
ATOM     12  C   UNL     1     137.623 133.667 132.830  1.00  0.00     0.012 C 
ENDROOT
BRANCH  11  13
ATOM     13  C   UNL     1     140.660 137.363 135.979  1.00  0.00    -0.014 C 
ATOM     14  C   UNL     1     140.013 137.435 137.372  1.00  0.00     0.007 C 
ATOM     15  C   UNL     1     140.228 138.567 135.128  1.00  0.00     0.007 C 
ENDBRANCH  11  13
TORSDOF 1
ENDMDL
MODEL 7
REMARK VINA RESULT:    -4.976      3.359      5.870
REMARK INTER + INTRA:          -5.531
REMARK INTER:                  -5.118
REMARK INTRA:                  -0.413
REMARK UNBOUND:                -0.264
REMARK SMILES CC1=CC[C@H]2[C@H]3[C@@H]1[C@]2(C)CC[C@H]3C(C)C
REMARK SMILES IDX 1 1 2 2 3 3 4 4 5 5 6 6 7 7 8 8 10 9 11 10 12 11 9 12 13 13
REMARK SMILES IDX 14 14 15 15
REMARK H PARENT
REMARK Flexibility Score: inf
ROOT
ATOM      1  C   UNL     1     140.862 137.890 136.382  1.00  0.00     0.039 C 
ATOM      2  C   UNL     1     139.505 137.769 135.756  1.00  0.00    -0.073 C 
ATOM      3  C   UNL     1     138.821 136.596 135.777  1.00  0.00    -0.027 C 
ATOM      4  C   UNL     1     137.449 136.526 135.099  1.00  0.00     0.031 C 
ATOM      5  C   UNL     1     137.063 137.921 134.508  1.00  0.00     0.003 C 
ATOM      6  C   UNL     1     137.363 138.988 135.594  1.00  0.00     0.004 C 
ATOM      7  C   UNL     1     138.821 138.962 135.081  1.00  0.00     0.024 C 
ATOM      8  C   UNL     1     138.237 138.547 133.711  1.00  0.00    -0.022 C 
ATOM      9  C   UNL     1     137.762 139.824 132.951  1.00  0.00     0.008 C 
ATOM     10  C   UNL     1     136.655 140.596 133.716  1.00  0.00     0.005 C 
ATOM     11  C   UNL     1     136.721 140.368 135.259  1.00  0.00    -0.005 C 
ATOM     12  C   UNL     1     139.088 137.641 132.791  1.00  0.00     0.012 C 
ENDROOT
BRANCH  11  13
ATOM     13  C   UNL     1     135.368 140.586 136.000  1.00  0.00    -0.014 C 
ATOM     14  C   UNL     1     135.262 139.855 137.349  1.00  0.00     0.007 C 
ATOM     15  C   UNL     1     134.170 140.232 135.106  1.00  0.00     0.007 C 
ENDBRANCH  11  13
TORSDOF 1
ENDMDL
MODEL 8
REMARK VINA RESULT:    -4.974      2.971      5.142
REMARK INTER + INTRA:          -5.528
REMARK INTER:                  -5.127
REMARK INTRA:                  -0.401
REMARK UNBOUND:                -0.264
REMARK SMILES CC1=CC[C@H]2[C@H]3[C@@H]1[C@]2(C)CC[C@H]3C(C)C
REMARK SMILES IDX 1 1 2 2 3 3 4 4 5 5 6 6 7 7 8 8 10 9 11 10 12 11 9 12 13 13
REMARK SMILES IDX 14 14 15 15
REMARK H PARENT
REMARK Flexibility Score: inf
ROOT
ATOM      1  C   UNL     1     131.872 134.510 136.373  1.00  0.00     0.039 C 
ATOM      2  C   UNL     1     133.222 134.673 135.743  1.00  0.00    -0.073 C 
ATOM      3  C   UNL     1     133.871 135.867 135.765  1.00  0.00    -0.027 C 
ATOM      4  C   UNL     1     135.237 135.980 135.082  1.00  0.00     0.031 C 
ATOM      5  C   UNL     1     135.663 134.599 134.484  1.00  0.00     0.003 C 
ATOM      6  C   UNL     1     135.399 133.520 135.568  1.00  0.00     0.004 C 
ATOM      7  C   UNL     1     133.939 133.504 135.060  1.00  0.00     0.024 C 
ATOM      8  C   UNL     1     134.505 133.941 133.690  1.00  0.00    -0.022 C 
ATOM      9  C   UNL     1     135.015 132.682 132.923  1.00  0.00     0.008 C 
ATOM     10  C   UNL     1     136.148 131.941 133.681  1.00  0.00     0.005 C 
ATOM     11  C   UNL     1     136.081 132.161 135.225  1.00  0.00    -0.005 C 
ATOM     12  C   UNL     1     133.624 134.824 132.777  1.00  0.00     0.012 C 
ENDROOT
BRANCH  11  13
ATOM     13  C   UNL     1     137.443 131.981 135.960  1.00  0.00    -0.014 C 
ATOM     14  C   UNL     1     137.502 132.638 137.349  1.00  0.00     0.007 C 
ATOM     15  C   UNL     1     138.620 132.457 135.094  1.00  0.00     0.007 C 
ENDBRANCH  11  13
TORSDOF 1
ENDMDL
MODEL 9
REMARK VINA RESULT:    -4.949      2.252      4.923
REMARK INTER + INTRA:          -5.502
REMARK INTER:                  -5.206
REMARK INTRA:                  -0.296
REMARK UNBOUND:                -0.264
REMARK SMILES CC1=CC[C@H]2[C@H]3[C@@H]1[C@]2(C)CC[C@H]3C(C)C
REMARK SMILES IDX 1 1 2 2 3 3 4 4 5 5 6 6 7 7 8 8 10 9 11 10 12 11 9 12 13 13
REMARK SMILES IDX 14 14 15 15
REMARK H PARENT
REMARK Flexibility Score: inf
ROOT
ATOM      1  C   UNL     1     139.295 135.324 135.973  1.00  0.00     0.039 C 
ATOM      2  C   UNL     1     138.342 134.172 135.862  1.00  0.00    -0.073 C 
ATOM      3  C   UNL     1     138.634 132.961 136.404  1.00  0.00    -0.027 C 
ATOM      4  C   UNL     1     137.633 131.814 136.236  1.00  0.00     0.031 C 
ATOM      5  C   UNL     1     136.371 132.303 135.453  1.00  0.00     0.003 C 
ATOM      6  C   UNL     1     135.935 133.659 136.069  1.00  0.00     0.004 C 
ATOM      7  C   UNL     1     136.994 134.309 135.148  1.00  0.00     0.024 C 
ATOM      8  C   UNL     1     136.763 133.116 134.193  1.00  0.00    -0.022 C 
ATOM      9  C   UNL     1     135.506 133.402 133.314  1.00  0.00     0.008 C 
ATOM     10  C   UNL     1     134.216 133.579 134.159  1.00  0.00     0.005 C 
ATOM     11  C   UNL     1     134.511 134.088 135.605  1.00  0.00    -0.005 C 
ATOM     12  C   UNL     1     137.945 132.630 133.323  1.00  0.00     0.012 C 
ENDROOT
BRANCH  11  13
ATOM     13  C   UNL     1     133.414 133.726 136.650  1.00  0.00    -0.014 C 
ATOM     14  C   UNL     1     132.142 134.585 136.551  1.00  0.00     0.007 C 
ATOM     15  C   UNL     1     133.966 133.753 138.083  1.00  0.00     0.007 C 
ENDBRANCH  11  13
TORSDOF 1
ENDMDL
