MODEL 1
REMARK VINA RESULT:    -0.156      0.000      0.000
REMARK INTER + INTRA:          -0.186
REMARK INTER:                  -0.175
REMARK INTRA:                  -0.012
REMARK UNBOUND:                -0.012
REMARK SMILES CCCC(=O)[O-]
REMARK SMILES IDX 3 1 4 2 5 3 6 4 2 5 1 6
REMARK H PARENT
REMARK Flexibility Score: inf
ROOT
ATOM      1  C   UNL     1       5.988   6.222  -2.664  1.00  0.00     0.052 C 
ENDROOT
BRANCH   1   2
ATOM      2  C   UNL     1       5.206   7.474  -2.423  1.00  0.00     0.041 C 
ATOM      3  O   UNL     1       3.991   7.536  -2.748  1.00  0.00    -0.550 OA
ATOM      4  O   UNL     1       5.831   8.591  -1.882  1.00  0.00    -0.550 OA
ENDBRANCH   1   2
BRANCH   1   5
ATOM      5  C   UNL     1       5.280   5.341  -3.698  1.00  0.00     0.003 C 
ATOM      6  C   UNL     1       6.256   4.363  -4.347  1.00  0.00     0.004 C 
ENDBRANCH   1   5
TORSDOF 2
ENDMDL
MODEL 2
REMARK VINA RESULT:     0.473      2.120      3.340
REMARK INTER + INTRA:           0.516
REMARK INTER:                   0.525
REMARK INTRA:                  -0.008
REMARK UNBOUND:                -0.012
REMARK SMILES CCCC(=O)[O-]
REMARK SMILES IDX 3 1 4 2 5 3 6 4 2 5 1 6
REMARK H PARENT
REMARK Flexibility Score: inf
ROOT
ATOM      1  C   UNL     1       5.919   6.475  -2.697  1.00  0.00     0.052 C 
ENDROOT
BRANCH   1   2
ATOM      2  C   UNL     1       5.237   5.476  -3.577  1.00  0.00     0.041 C 
ATOM      3  O   UNL     1       4.080   5.067  -3.295  1.00  0.00    -0.550 OA
ATOM      4  O   UNL     1       5.900   4.958  -4.683  1.00  0.00    -0.550 OA
ENDBRANCH   1   2
BRANCH   1   5
ATOM      5  C   UNL     1       4.928   7.550  -2.241  1.00  0.00     0.003 C 
ATOM      6  C   UNL     1       5.654   8.731  -1.603  1.00  0.00     0.004 C 
ENDBRANCH   1   5
TORSDOF 2
ENDMDL
MODEL 3
REMARK VINA RESULT:     0.850      5.771      6.501
REMARK INTER + INTRA:           0.938
REMARK INTER:                   0.951
REMARK INTRA:                  -0.013
REMARK UNBOUND:                -0.012
REMARK SMILES CCCC(=O)[O-]
REMARK SMILES IDX 3 1 4 2 5 3 6 4 2 5 1 6
REMARK H PARENT
REMARK Flexibility Score: inf
ROOT
ATOM      1  C   UNL     1       0.339   8.748  -6.284  1.00  0.00     0.052 C 
ENDROOT
BRANCH   1   2
ATOM      2  C   UNL     1       1.203   8.463  -7.471  1.00  0.00     0.041 C 
ATOM      3  O   UNL     1       0.719   7.897  -8.487  1.00  0.00    -0.550 OA
ATOM      4  O   UNL     1       2.556   8.777  -7.438  1.00  0.00    -0.550 OA
ENDBRANCH   1   2
BRANCH   1   5
ATOM      5  C   UNL     1       1.144   8.599  -4.989  1.00  0.00     0.003 C 
ATOM      6  C   UNL     1       0.434   7.674  -4.004  1.00  0.00     0.004 C 
ENDBRANCH   1   5
TORSDOF 2
ENDMDL
MODEL 4
REMARK VINA RESULT:     0.874      5.695      6.552
REMARK INTER + INTRA:           0.965
REMARK INTER:                   0.985
REMARK INTRA:                  -0.020
REMARK UNBOUND:                -0.012
REMARK SMILES CCCC(=O)[O-]
REMARK SMILES IDX 3 1 4 2 5 3 6 4 2 5 1 6
REMARK H PARENT
REMARK Flexibility Score: inf
ROOT
ATOM      1  C   UNL     1       0.365   8.789  -6.159  1.00  0.00     0.052 C 
ENDROOT
BRANCH   1   2
ATOM      2  C   UNL     1       1.283   8.469  -7.295  1.00  0.00     0.041 C 
ATOM      3  O   UNL     1       2.516   8.709  -7.202  1.00  0.00    -0.550 OA
ATOM      4  O   UNL     1       0.770   7.951  -8.478  1.00  0.00    -0.550 OA
ENDBRANCH   1   2
BRANCH   1   5
ATOM      5  C   UNL     1       1.080   8.581  -4.820  1.00  0.00     0.003 C 
ATOM      6  C   UNL     1       0.374   7.521  -3.979  1.00  0.00     0.004 C 
ENDBRANCH   1   5
TORSDOF 2
ENDMDL
MODEL 5
REMARK VINA RESULT:     1.308      5.507      6.038
REMARK INTER + INTRA:           1.449
REMARK INTER:                   1.474
REMARK INTRA:                  -0.025
REMARK UNBOUND:                -0.012
REMARK SMILES CCCC(=O)[O-]
REMARK SMILES IDX 3 1 4 2 5 3 6 4 2 5 1 6
REMARK H PARENT
REMARK Flexibility Score: inf
ROOT
ATOM      1  C   UNL     1       0.408   9.128  -5.742  1.00  0.00     0.052 C 
ENDROOT
BRANCH   1   2
ATOM      2  C   UNL     1       0.493   8.483  -4.395  1.00  0.00     0.041 C 
ATOM      3  O   UNL     1       1.254   7.497  -4.211  1.00  0.00    -0.550 OA
ATOM      4  O   UNL     1      -0.304   8.943  -3.354  1.00  0.00    -0.550 OA
ENDBRANCH   1   2
BRANCH   1   5
ATOM      5  C   UNL     1       1.395   8.471  -6.712  1.00  0.00     0.003 C 
ATOM      6  C   UNL     1       0.741   8.206  -8.066  1.00  0.00     0.004 C 
ENDBRANCH   1   5
TORSDOF 2
ENDMDL
MODEL 6
REMARK VINA RESULT:     1.962     10.150     10.612
REMARK INTER + INTRA:           2.180
REMARK INTER:                   2.191
REMARK INTRA:                  -0.011
REMARK UNBOUND:                -0.012
REMARK SMILES CCCC(=O)[O-]
REMARK SMILES IDX 3 1 4 2 5 3 6 4 2 5 1 6
REMARK H PARENT
REMARK Flexibility Score: inf
ROOT
ATOM      1  C   UNL     1       1.758  16.230  -2.938  1.00  0.00     0.052 C 
ENDROOT
BRANCH   1   2
ATOM      2  C   UNL     1       2.031  15.939  -4.379  1.00  0.00     0.041 C 
ATOM      3  O   UNL     1       3.214  15.923  -4.809  1.00  0.00    -0.550 OA
ATOM      4  O   UNL     1       0.975  15.735  -5.259  1.00  0.00    -0.550 OA
ENDBRANCH   1   2
BRANCH   1   5
ATOM      5  C   UNL     1       0.302  15.902  -2.593  1.00  0.00     0.003 C 
ATOM      6  C   UNL     1       0.151  15.568  -1.111  1.00  0.00     0.004 C 
ENDBRANCH   1   5
TORSDOF 2
ENDMDL
