MODEL 1
REMARK VINA RESULT:    -4.141      0.000      0.000
REMARK INTER + INTRA:          -9.222
REMARK INTER:                  -7.773
REMARK INTRA:                  -1.449
REMARK UNBOUND:                -1.449
REMARK SMILES O=C([O-])CCCCCCCCCCCCCCC(=O)[O-]
REMARK SMILES IDX 10 1 9 2 8 3 7 4 6 5 5 6 4 7 2 8 1 9 3 10 11 11 12 12 13 13
REMARK SMILES IDX 14 14 15 15 16 16 17 17 18 18 19 19 20 20
REMARK H PARENT
REMARK Flexibility Score: inf
ROOT
ATOM      1  C   UNL     1       9.659  63.341   8.660  1.00  0.00     0.000 C 
ENDROOT
BRANCH   1   2
ATOM      2  C   UNL     1      11.163  63.062   8.811  1.00  0.00     0.000 C 
BRANCH   2   3
ATOM      3  C   UNL     1      11.687  62.053   7.772  1.00  0.00     0.000 C 
BRANCH   3   4
ATOM      4  C   UNL     1      12.667  62.688   6.772  1.00  0.00     0.000 C 
BRANCH   4   5
ATOM      5  C   UNL     1      13.420  63.890   7.367  1.00  0.00     0.000 C 
BRANCH   5   6
ATOM      6  C   UNL     1      13.329  65.146   6.480  1.00  0.00     0.006 C 
BRANCH   6   7
ATOM      7  C   UNL     1      11.949  65.376   5.842  1.00  0.00     0.053 C 
BRANCH   7   8
ATOM      8  C   UNL     1      12.049  65.674   4.378  1.00  0.00     0.041 C 
ATOM      9  O   UNL     1      12.258  64.744   3.555  1.00  0.00    -0.550 OA
ATOM     10  O   UNL     1      11.944  66.983   3.925  1.00  0.00    -0.550 OA
ENDBRANCH   7   8
ENDBRANCH   6   7
ENDBRANCH   5   6
ENDBRANCH   4   5
ENDBRANCH   3   4
ENDBRANCH   2   3
ENDBRANCH   1   2
BRANCH   1  11
ATOM     11  C   UNL     1       9.335  64.845   8.681  1.00  0.00     0.000 C 
BRANCH  11  12
ATOM     12  C   UNL     1       7.826  65.130   8.807  1.00  0.00     0.000 C 
BRANCH  12  13
ATOM     13  C   UNL     1       6.914  63.899   8.651  1.00  0.00     0.000 C 
BRANCH  13  14
ATOM     14  C   UNL     1       5.403  64.203   8.632  1.00  0.00     0.000 C 
BRANCH  14  15
ATOM     15  C   UNL     1       5.044  65.605   9.168  1.00  0.00     0.000 C 
BRANCH  15  16
ATOM     16  C   UNL     1       4.347  66.476   8.107  1.00  0.00     0.006 C 
BRANCH  16  17
ATOM     17  C   UNL     1       4.823  66.152   6.685  1.00  0.00     0.053 C 
BRANCH  17  18
ATOM     18  C   UNL     1       5.720  67.221   6.141  1.00  0.00     0.041 C 
ATOM     19  O   UNL     1       6.570  67.776   6.885  1.00  0.00    -0.550 OA
ATOM     20  O   UNL     1       5.637  67.582   4.801  1.00  0.00    -0.550 OA
ENDBRANCH  17  18
ENDBRANCH  16  17
ENDBRANCH  15  16
ENDBRANCH  14  15
ENDBRANCH  13  14
ENDBRANCH  12  13
ENDBRANCH  11  12
ENDBRANCH   1  11
TORSDOF 15
ENDMDL
MODEL 2
REMARK VINA RESULT:    -4.102      1.785      2.804
REMARK INTER + INTRA:          -9.148
REMARK INTER:                  -6.977
REMARK INTRA:                  -2.171
REMARK UNBOUND:                -1.449
REMARK SMILES O=C([O-])CCCCCCCCCCCCCCC(=O)[O-]
REMARK SMILES IDX 10 1 9 2 8 3 7 4 6 5 5 6 4 7 2 8 1 9 3 10 11 11 12 12 13 13
REMARK SMILES IDX 14 14 15 15 16 16 17 17 18 18 19 19 20 20
REMARK H PARENT
REMARK Flexibility Score: inf
ROOT
ATOM      1  C   UNL     1      11.411  62.874   8.814  1.00  0.00     0.000 C 
ENDROOT
BRANCH   1   2
ATOM      2  C   UNL     1      11.771  62.056   7.564  1.00  0.00     0.000 C 
BRANCH   2   3
ATOM      3  C   UNL     1      12.826  62.750   6.682  1.00  0.00     0.000 C 
BRANCH   3   4
ATOM      4  C   UNL     1      13.366  64.044   7.311  1.00  0.00     0.000 C 
BRANCH   4   5
ATOM      5  C   UNL     1      13.153  65.271   6.408  1.00  0.00     0.000 C 
BRANCH   5   6
ATOM      6  C   UNL     1      12.345  64.943   5.139  1.00  0.00     0.006 C 
BRANCH   6   7
ATOM      7  C   UNL     1      11.204  65.928   4.839  1.00  0.00     0.053 C 
BRANCH   7   8
ATOM      8  C   UNL     1      10.875  65.982   3.379  1.00  0.00     0.041 C 
ATOM      9  O   UNL     1       9.703  65.750   2.984  1.00  0.00    -0.550 OA
ATOM     10  O   UNL     1      11.873  66.255   2.451  1.00  0.00    -0.550 OA
ENDBRANCH   7   8
ENDBRANCH   6   7
ENDBRANCH   5   6
ENDBRANCH   4   5
ENDBRANCH   3   4
ENDBRANCH   2   3
ENDBRANCH   1   2
BRANCH   1  11
ATOM     11  C   UNL     1       9.932  63.294   8.837  1.00  0.00     0.000 C 
BRANCH  11  12
ATOM     12  C   UNL     1       9.665  64.592   8.051  1.00  0.00     0.000 C 
BRANCH  12  13
ATOM     13  C   UNL     1      10.255  65.868   8.680  1.00  0.00     0.000 C 
BRANCH  13  14
ATOM     14  C   UNL     1       9.549  67.179   8.283  1.00  0.00     0.000 C 
BRANCH  14  15
ATOM     15  C   UNL     1       8.126  66.973   7.720  1.00  0.00     0.000 C 
BRANCH  15  16
ATOM     16  C   UNL     1       7.038  67.183   8.788  1.00  0.00     0.006 C 
BRANCH  16  17
ATOM     17  C   UNL     1       6.636  65.870   9.473  1.00  0.00     0.053 C 
BRANCH  17  18
ATOM     18  C   UNL     1       5.879  64.968   8.546  1.00  0.00     0.041 C 
ATOM     19  O   UNL     1       6.146  63.739   8.498  1.00  0.00    -0.550 OA
ATOM     20  O   UNL     1       4.855  65.482   7.759  1.00  0.00    -0.550 OA
ENDBRANCH  17  18
ENDBRANCH  16  17
ENDBRANCH  15  16
ENDBRANCH  14  15
ENDBRANCH  13  14
ENDBRANCH  12  13
ENDBRANCH  11  12
ENDBRANCH   1  11
TORSDOF 15
ENDMDL
MODEL 3
REMARK VINA RESULT:    -4.100      2.156      6.578
REMARK INTER + INTRA:          -9.145
REMARK INTER:                  -7.496
REMARK INTRA:                  -1.649
REMARK UNBOUND:                -1.449
REMARK SMILES O=C([O-])CCCCCCCCCCCCCCC(=O)[O-]
REMARK SMILES IDX 10 1 9 2 8 3 7 4 6 5 5 6 4 7 2 8 1 9 3 10 11 11 12 12 13 13
REMARK SMILES IDX 14 14 15 15 16 16 17 17 18 18 19 19 20 20
REMARK H PARENT
REMARK Flexibility Score: inf
ROOT
ATOM      1  C   UNL     1      11.287  62.157   8.031  1.00  0.00     0.000 C 
ENDROOT
BRANCH   1   2
ATOM      2  C   UNL     1      10.900  63.322   8.955  1.00  0.00     0.000 C 
BRANCH   2   3
ATOM      3  C   UNL     1       9.782  64.203   8.365  1.00  0.00     0.000 C 
BRANCH   3   4
ATOM      4  C   UNL     1       9.942  65.687   8.731  1.00  0.00     0.000 C 
BRANCH   4   5
ATOM      5  C   UNL     1       8.640  66.484   8.541  1.00  0.00     0.000 C 
BRANCH   5   6
ATOM      6  C   UNL     1       7.450  65.868   9.299  1.00  0.00     0.006 C 
BRANCH   6   7
ATOM      7  C   UNL     1       6.237  65.535   8.414  1.00  0.00     0.053 C 
BRANCH   7   8
ATOM      8  C   UNL     1       5.745  64.138   8.636  1.00  0.00     0.041 C 
ATOM      9  O   UNL     1       6.479  63.156   8.352  1.00  0.00    -0.550 OA
ATOM     10  O   UNL     1       4.462  63.921   9.123  1.00  0.00    -0.550 OA
ENDBRANCH   7   8
ENDBRANCH   6   7
ENDBRANCH   5   6
ENDBRANCH   4   5
ENDBRANCH   3   4
ENDBRANCH   2   3
ENDBRANCH   1   2
BRANCH   1  11
ATOM     11  C   UNL     1      12.574  62.439   7.236  1.00  0.00     0.000 C 
BRANCH  11  12
ATOM     12  C   UNL     1      13.364  63.644   7.782  1.00  0.00     0.000 C 
BRANCH  12  13
ATOM     13  C   UNL     1      13.919  64.600   6.710  1.00  0.00     0.000 C 
BRANCH  13  14
ATOM     14  C   UNL     1      13.091  65.879   6.483  1.00  0.00     0.000 C 
BRANCH  14  15
ATOM     15  C   UNL     1      11.853  65.667   5.587  1.00  0.00     0.000 C 
BRANCH  15  16
ATOM     16  C   UNL     1      12.216  65.060   4.220  1.00  0.00     0.006 C 
BRANCH  16  17
ATOM     17  C   UNL     1      11.169  65.382   3.145  1.00  0.00     0.053 C 
BRANCH  17  18
ATOM     18  C   UNL     1      11.546  66.591   2.344  1.00  0.00     0.041 C 
ATOM     19  O   UNL     1      12.754  66.932   2.241  1.00  0.00    -0.550 OA
ATOM     20  O   UNL     1      10.565  67.321   1.684  1.00  0.00    -0.550 OA
ENDBRANCH  17  18
ENDBRANCH  16  17
ENDBRANCH  15  16
ENDBRANCH  14  15
ENDBRANCH  13  14
ENDBRANCH  12  13
ENDBRANCH  11  12
ENDBRANCH   1  11
TORSDOF 15
ENDMDL
MODEL 4
REMARK VINA RESULT:    -4.083      1.395      6.923
REMARK INTER + INTRA:          -9.112
REMARK INTER:                  -7.601
REMARK INTRA:                  -1.511
REMARK UNBOUND:                -1.449
REMARK SMILES O=C([O-])CCCCCCCCCCCCCCC(=O)[O-]
REMARK SMILES IDX 10 1 9 2 8 3 7 4 6 5 5 6 4 7 2 8 1 9 3 10 11 11 12 12 13 13
REMARK SMILES IDX 14 14 15 15 16 16 17 17 18 18 19 19 20 20
REMARK H PARENT
REMARK Flexibility Score: inf
ROOT
ATOM      1  C   UNL     1      10.909  63.126   9.002  1.00  0.00     0.000 C 
ENDROOT
BRANCH   1   2
ATOM      2  C   UNL     1       9.441  63.447   8.676  1.00  0.00     0.000 C 
BRANCH   2   3
ATOM      3  C   UNL     1       9.148  64.958   8.680  1.00  0.00     0.000 C 
BRANCH   3   4
ATOM      4  C   UNL     1       7.666  65.274   8.936  1.00  0.00     0.000 C 
BRANCH   4   5
ATOM      5  C   UNL     1       6.760  64.045   8.749  1.00  0.00     0.000 C 
BRANCH   5   6
ATOM      6  C   UNL     1       5.308  64.424   8.402  1.00  0.00     0.006 C 
BRANCH   6   7
ATOM      7  C   UNL     1       5.164  65.740   7.620  1.00  0.00     0.053 C 
BRANCH   7   8
ATOM      8  C   UNL     1       4.260  66.711   8.315  1.00  0.00     0.041 C 
ATOM      9  O   UNL     1       4.340  66.870   9.562  1.00  0.00    -0.550 OA
ATOM     10  O   UNL     1       3.307  67.416   7.591  1.00  0.00    -0.550 OA
ENDBRANCH   7   8
ENDBRANCH   6   7
ENDBRANCH   5   6
ENDBRANCH   4   5
ENDBRANCH   3   4
ENDBRANCH   2   3
ENDBRANCH   1   2
BRANCH   1  11
ATOM     11  C   UNL     1      11.503  62.065   8.060  1.00  0.00     0.000 C 
BRANCH  11  12
ATOM     12  C   UNL     1      12.576  62.637   7.114  1.00  0.00     0.000 C 
BRANCH  12  13
ATOM     13  C   UNL     1      13.377  63.825   7.679  1.00  0.00     0.000 C 
BRANCH  13  14
ATOM     14  C   UNL     1      13.474  65.050   6.749  1.00  0.00     0.000 C 
BRANCH  14  15
ATOM     15  C   UNL     1      12.292  66.032   6.890  1.00  0.00     0.000 C 
BRANCH  15  16
ATOM     16  C   UNL     1      11.255  65.866   5.765  1.00  0.00     0.006 C 
BRANCH  16  17
ATOM     17  C   UNL     1      11.572  66.746   4.549  1.00  0.00     0.053 C 
BRANCH  17  18
ATOM     18  C   UNL     1      11.789  65.930   3.312  1.00  0.00     0.041 C 
ATOM     19  O   UNL     1      11.584  66.431   2.176  1.00  0.00    -0.550 OA
ATOM     20  O   UNL     1      12.251  64.623   3.414  1.00  0.00    -0.550 OA
ENDBRANCH  17  18
ENDBRANCH  16  17
ENDBRANCH  15  16
ENDBRANCH  14  15
ENDBRANCH  13  14
ENDBRANCH  12  13
ENDBRANCH  11  12
ENDBRANCH   1  11
TORSDOF 15
ENDMDL
MODEL 5
REMARK VINA RESULT:    -4.056      1.940      5.965
REMARK INTER + INTRA:          -9.062
REMARK INTER:                  -7.350
REMARK INTRA:                  -1.712
REMARK UNBOUND:                -1.449
REMARK SMILES O=C([O-])CCCCCCCCCCCCCCC(=O)[O-]
REMARK SMILES IDX 10 1 9 2 8 3 7 4 6 5 5 6 4 7 2 8 1 9 3 10 11 11 12 12 13 13
REMARK SMILES IDX 14 14 15 15 16 16 17 17 18 18 19 19 20 20
REMARK H PARENT
REMARK Flexibility Score: inf
ROOT
ATOM      1  C   UNL     1      12.737  62.634   7.222  1.00  0.00     0.000 C 
ENDROOT
BRANCH   1   2
ATOM      2  C   UNL     1      11.523  62.124   8.015  1.00  0.00     0.000 C 
BRANCH   2   3
ATOM      3  C   UNL     1      10.962  63.177   8.988  1.00  0.00     0.000 C 
BRANCH   3   4
ATOM      4  C   UNL     1       9.648  63.802   8.492  1.00  0.00     0.000 C 
BRANCH   4   5
ATOM      5  C   UNL     1       9.589  65.320   8.735  1.00  0.00     0.000 C 
BRANCH   5   6
ATOM      6  C   UNL     1       8.225  65.929   8.360  1.00  0.00     0.006 C 
BRANCH   6   7
ATOM      7  C   UNL     1       7.068  65.515   9.283  1.00  0.00     0.053 C 
BRANCH   7   8
ATOM      8  C   UNL     1       5.891  64.997   8.514  1.00  0.00     0.041 C 
ATOM      9  O   UNL     1       5.735  63.758   8.354  1.00  0.00    -0.550 OA
ATOM     10  O   UNL     1       4.987  65.885   7.946  1.00  0.00    -0.550 OA
ENDBRANCH   7   8
ENDBRANCH   6   7
ENDBRANCH   5   6
ENDBRANCH   4   5
ENDBRANCH   3   4
ENDBRANCH   2   3
ENDBRANCH   1   2
BRANCH   1  11
ATOM     11  C   UNL     1      13.445  63.808   7.920  1.00  0.00     0.000 C 
BRANCH  11  12
ATOM     12  C   UNL     1      13.830  64.939   6.948  1.00  0.00     0.000 C 
BRANCH  12  13
ATOM     13  C   UNL     1      12.914  66.177   6.992  1.00  0.00     0.000 C 
BRANCH  13  14
ATOM     14  C   UNL     1      11.825  66.223   5.903  1.00  0.00     0.000 C 
BRANCH  14  15
ATOM     15  C   UNL     1      12.053  65.219   4.753  1.00  0.00     0.000 C 
BRANCH  15  16
ATOM     16  C   UNL     1      11.775  65.839   3.371  1.00  0.00     0.006 C 
BRANCH  16  17
ATOM     17  C   UNL     1      10.318  65.642   2.930  1.00  0.00     0.053 C 
BRANCH  17  18
ATOM     18  C   UNL     1       9.548  66.927   2.968  1.00  0.00     0.041 C 
ATOM     19  O   UNL     1       8.905  67.251   4.000  1.00  0.00    -0.550 OA
ATOM     20  O   UNL     1       9.567  67.781   1.872  1.00  0.00    -0.550 OA
ENDBRANCH  17  18
ENDBRANCH  16  17
ENDBRANCH  15  16
ENDBRANCH  14  15
ENDBRANCH  13  14
ENDBRANCH  12  13
ENDBRANCH  11  12
ENDBRANCH   1  11
TORSDOF 15
ENDMDL
MODEL 6
REMARK VINA RESULT:    -4.048      3.762      5.327
REMARK INTER + INTRA:          -9.048
REMARK INTER:                  -7.023
REMARK INTRA:                  -2.025
REMARK UNBOUND:                -1.449
REMARK SMILES O=C([O-])CCCCCCCCCCCCCCC(=O)[O-]
REMARK SMILES IDX 10 1 9 2 8 3 7 4 6 5 5 6 4 7 2 8 1 9 3 10 11 11 12 12 13 13
REMARK SMILES IDX 14 14 15 15 16 16 17 17 18 18 19 19 20 20
REMARK H PARENT
REMARK Flexibility Score: inf
ROOT
ATOM      1  C   UNL     1      13.414  63.638   7.605  1.00  0.00     0.000 C 
ENDROOT
BRANCH   1   2
ATOM      2  C   UNL     1      13.627  64.870   6.713  1.00  0.00     0.000 C 
BRANCH   2   3
ATOM      3  C   UNL     1      12.582  64.978   5.587  1.00  0.00     0.000 C 
BRANCH   3   4
ATOM      4  C   UNL     1      11.840  66.324   5.592  1.00  0.00     0.000 C 
BRANCH   4   5
ATOM      5  C   UNL     1      10.647  66.344   4.621  1.00  0.00     0.000 C 
BRANCH   5   6
ATOM      6  C   UNL     1      11.067  66.102   3.159  1.00  0.00     0.006 C 
BRANCH   6   7
ATOM      7  C   UNL     1      11.812  67.279   2.509  1.00  0.00     0.053 C 
BRANCH   7   8
ATOM      8  C   UNL     1      12.334  66.932   1.148  1.00  0.00     0.041 C 
ATOM      9  O   UNL     1      11.683  67.253   0.119  1.00  0.00    -0.550 OA
ATOM     10  O   UNL     1      13.523  66.226   1.018  1.00  0.00    -0.550 OA
ENDBRANCH   7   8
ENDBRANCH   6   7
ENDBRANCH   5   6
ENDBRANCH   4   5
ENDBRANCH   3   4
ENDBRANCH   2   3
ENDBRANCH   1   2
BRANCH   1  11
ATOM     11  C   UNL     1      12.630  62.523   6.892  1.00  0.00     0.000 C 
BRANCH  11  12
ATOM     12  C   UNL     1      11.524  61.910   7.772  1.00  0.00     0.000 C 
BRANCH  12  13
ATOM     13  C   UNL     1      11.053  62.798   8.940  1.00  0.00     0.000 C 
BRANCH  13  14
ATOM     14  C   UNL     1       9.707  63.513   8.715  1.00  0.00     0.000 C 
BRANCH  14  15
ATOM     15  C   UNL     1       9.851  64.973   8.237  1.00  0.00     0.000 C 
BRANCH  15  16
ATOM     16  C   UNL     1      10.112  65.947   9.399  1.00  0.00     0.006 C 
BRANCH  16  17
ATOM     17  C   UNL     1      11.545  66.495   9.385  1.00  0.00     0.053 C 
BRANCH  17  18
ATOM     18  C   UNL     1      12.379  65.902  10.480  1.00  0.00     0.041 C 
ATOM     19  O   UNL     1      13.626  65.796  10.342  1.00  0.00    -0.550 OA
ATOM     20  O   UNL     1      11.780  65.495  11.666  1.00  0.00    -0.550 OA
ENDBRANCH  17  18
ENDBRANCH  16  17
ENDBRANCH  15  16
ENDBRANCH  14  15
ENDBRANCH  13  14
ENDBRANCH  12  13
ENDBRANCH  11  12
ENDBRANCH   1  11
TORSDOF 15
ENDMDL
MODEL 7
REMARK VINA RESULT:    -3.951      1.872      3.524
REMARK INTER + INTRA:          -8.866
REMARK INTER:                  -7.526
REMARK INTRA:                  -1.340
REMARK UNBOUND:                -1.449
REMARK SMILES O=C([O-])CCCCCCCCCCCCCCC(=O)[O-]
REMARK SMILES IDX 10 1 9 2 8 3 7 4 6 5 5 6 4 7 2 8 1 9 3 10 11 11 12 12 13 13
REMARK SMILES IDX 14 14 15 15 16 16 17 17 18 18 19 19 20 20
REMARK H PARENT
REMARK Flexibility Score: inf
ROOT
ATOM      1  C   UNL     1      12.991  62.676   7.007  1.00  0.00     0.000 C 
ENDROOT
BRANCH   1   2
ATOM      2  C   UNL     1      13.504  63.919   7.750  1.00  0.00     0.000 C 
BRANCH   2   3
ATOM      3  C   UNL     1      13.898  65.062   6.796  1.00  0.00     0.000 C 
BRANCH   3   4
ATOM      4  C   UNL     1      12.692  65.902   6.346  1.00  0.00     0.000 C 
BRANCH   4   5
ATOM      5  C   UNL     1      12.105  65.421   5.008  1.00  0.00     0.000 C 
BRANCH   5   6
ATOM      6  C   UNL     1      10.818  66.171   4.620  1.00  0.00     0.006 C 
BRANCH   6   7
ATOM      7  C   UNL     1      10.287  65.838   3.216  1.00  0.00     0.053 C 
BRANCH   7   8
ATOM      8  C   UNL     1      10.145  67.061   2.362  1.00  0.00     0.041 C 
ATOM      9  O   UNL     1       9.181  67.851   2.543  1.00  0.00    -0.550 OA
ATOM     10  O   UNL     1      11.058  67.311   1.346  1.00  0.00    -0.550 OA
ENDBRANCH   7   8
ENDBRANCH   6   7
ENDBRANCH   5   6
ENDBRANCH   4   5
ENDBRANCH   3   4
ENDBRANCH   2   3
ENDBRANCH   1   2
BRANCH   1  11
ATOM     11  C   UNL     1      11.717  62.093   7.643  1.00  0.00     0.000 C 
BRANCH  11  12
ATOM     12  C   UNL     1      11.236  62.897   8.866  1.00  0.00     0.000 C 
BRANCH  12  13
ATOM     13  C   UNL     1       9.812  63.474   8.748  1.00  0.00     0.000 C 
BRANCH  13  14
ATOM     14  C   UNL     1       9.730  64.895   8.160  1.00  0.00     0.000 C 
BRANCH  14  15
ATOM     15  C   UNL     1       8.922  65.882   9.029  1.00  0.00     0.000 C 
BRANCH  15  16
ATOM     16  C   UNL     1       7.593  66.293   8.368  1.00  0.00     0.006 C 
BRANCH  16  17
ATOM     17  C   UNL     1       6.376  65.857   9.194  1.00  0.00     0.053 C 
BRANCH  17  18
ATOM     18  C   UNL     1       5.381  65.105   8.364  1.00  0.00     0.041 C 
ATOM     19  O   UNL     1       5.118  63.901   8.624  1.00  0.00    -0.550 OA
ATOM     20  O   UNL     1       4.719  65.745   7.323  1.00  0.00    -0.550 OA
ENDBRANCH  17  18
ENDBRANCH  16  17
ENDBRANCH  15  16
ENDBRANCH  14  15
ENDBRANCH  13  14
ENDBRANCH  12  13
ENDBRANCH  11  12
ENDBRANCH   1  11
TORSDOF 15
ENDMDL
MODEL 8
REMARK VINA RESULT:    -3.925      1.985      3.527
REMARK INTER + INTRA:          -8.816
REMARK INTER:                  -7.221
REMARK INTRA:                  -1.594
REMARK UNBOUND:                -1.449
REMARK SMILES O=C([O-])CCCCCCCCCCCCCCC(=O)[O-]
REMARK SMILES IDX 10 1 9 2 8 3 7 4 6 5 5 6 4 7 2 8 1 9 3 10 11 11 12 12 13 13
REMARK SMILES IDX 14 14 15 15 16 16 17 17 18 18 19 19 20 20
REMARK H PARENT
REMARK Flexibility Score: inf
ROOT
ATOM      1  C   UNL     1      12.652  62.584   7.192  1.00  0.00     0.000 C 
ENDROOT
BRANCH   1   2
ATOM      2  C   UNL     1      13.221  63.910   7.722  1.00  0.00     0.000 C 
BRANCH   2   3
ATOM      3  C   UNL     1      13.382  64.971   6.618  1.00  0.00     0.000 C 
BRANCH   3   4
ATOM      4  C   UNL     1      12.593  64.627   5.344  1.00  0.00     0.000 C 
BRANCH   4   5
ATOM      5  C   UNL     1      11.779  65.820   4.814  1.00  0.00     0.000 C 
BRANCH   5   6
ATOM      6  C   UNL     1      10.822  66.403   5.870  1.00  0.00     0.006 C 
BRANCH   6   7
ATOM      7  C   UNL     1       9.593  67.120   5.288  1.00  0.00     0.053 C 
BRANCH   7   8
ATOM      8  C   UNL     1       8.801  67.829   6.344  1.00  0.00     0.041 C 
ATOM      9  O   UNL     1       7.580  68.073   6.162  1.00  0.00    -0.550 OA
ATOM     10  O   UNL     1       9.421  68.249   7.514  1.00  0.00    -0.550 OA
ENDBRANCH   7   8
ENDBRANCH   6   7
ENDBRANCH   5   6
ENDBRANCH   4   5
ENDBRANCH   3   4
ENDBRANCH   2   3
ENDBRANCH   1   2
BRANCH   1  11
ATOM     11  C   UNL     1      11.469  62.074   8.031  1.00  0.00     0.000 C 
BRANCH  11  12
ATOM     12  C   UNL     1      10.818  63.179   8.885  1.00  0.00     0.000 C 
BRANCH  12  13
ATOM     13  C   UNL     1       9.349  63.487   8.543  1.00  0.00     0.000 C 
BRANCH  13  14
ATOM     14  C   UNL     1       8.948  64.970   8.661  1.00  0.00     0.000 C 
BRANCH  14  15
ATOM     15  C   UNL     1       7.459  65.186   9.006  1.00  0.00     0.000 C 
BRANCH  15  16
ATOM     16  C   UNL     1       6.571  64.025   8.524  1.00  0.00     0.006 C 
BRANCH  16  17
ATOM     17  C   UNL     1       5.076  64.333   8.682  1.00  0.00     0.053 C 
BRANCH  17  18
ATOM     18  C   UNL     1       4.715  65.660   8.087  1.00  0.00     0.041 C 
ATOM     19  O   UNL     1       4.866  65.865   6.854  1.00  0.00    -0.550 OA
ATOM     20  O   UNL     1       4.181  66.660   8.891  1.00  0.00    -0.550 OA
ENDBRANCH  17  18
ENDBRANCH  16  17
ENDBRANCH  15  16
ENDBRANCH  14  15
ENDBRANCH  13  14
ENDBRANCH  12  13
ENDBRANCH  11  12
ENDBRANCH   1  11
TORSDOF 15
ENDMDL
MODEL 9
REMARK VINA RESULT:    -3.913      3.121      5.071
REMARK INTER + INTRA:          -8.794
REMARK INTER:                  -6.595
REMARK INTRA:                  -2.199
REMARK UNBOUND:                -1.449
REMARK SMILES O=C([O-])CCCCCCCCCCCCCCC(=O)[O-]
REMARK SMILES IDX 10 1 9 2 8 3 7 4 6 5 5 6 4 7 2 8 1 9 3 10 11 11 12 12 13 13
REMARK SMILES IDX 14 14 15 15 16 16 17 17 18 18 19 19 20 20
REMARK H PARENT
REMARK Flexibility Score: inf
ROOT
ATOM      1  C   UNL     1      12.940  62.696   6.893  1.00  0.00     0.000 C 
ENDROOT
BRANCH   1   2
ATOM      2  C   UNL     1      13.437  64.007   7.521  1.00  0.00     0.000 C 
BRANCH   2   3
ATOM      3  C   UNL     1      13.421  65.185   6.529  1.00  0.00     0.000 C 
BRANCH   3   4
ATOM      4  C   UNL     1      12.522  64.922   5.310  1.00  0.00     0.000 C 
BRANCH   4   5
ATOM      5  C   UNL     1      12.060  66.221   4.627  1.00  0.00     0.000 C 
BRANCH   5   6
ATOM      6  C   UNL     1      10.556  66.216   4.297  1.00  0.00     0.006 C 
BRANCH   6   7
ATOM      7  C   UNL     1      10.234  66.269   2.795  1.00  0.00     0.053 C 
BRANCH   7   8
ATOM      8  C   UNL     1       9.815  67.638   2.356  1.00  0.00     0.041 C 
ATOM      9  O   UNL     1       9.918  67.975   1.147  1.00  0.00    -0.550 OA
ATOM     10  O   UNL     1       9.344  68.554   3.289  1.00  0.00    -0.550 OA
ENDBRANCH   7   8
ENDBRANCH   6   7
ENDBRANCH   5   6
ENDBRANCH   4   5
ENDBRANCH   3   4
ENDBRANCH   2   3
ENDBRANCH   1   2
BRANCH   1  11
ATOM     11  C   UNL     1      11.786  62.062   7.687  1.00  0.00     0.000 C 
BRANCH  11  12
ATOM     12  C   UNL     1      11.185  63.017   8.737  1.00  0.00     0.000 C 
BRANCH  12  13
ATOM     13  C   UNL     1       9.744  63.477   8.451  1.00  0.00     0.000 C 
BRANCH  13  14
ATOM     14  C   UNL     1       9.439  64.941   8.824  1.00  0.00     0.000 C 
BRANCH  14  15
ATOM     15  C   UNL     1       9.873  65.960   7.749  1.00  0.00     0.000 C 
BRANCH  15  16
ATOM     16  C   UNL     1      10.803  67.048   8.315  1.00  0.00     0.006 C 
BRANCH  16  17
ATOM     17  C   UNL     1      11.137  66.814   9.795  1.00  0.00     0.053 C 
BRANCH  17  18
ATOM     18  C   UNL     1      12.600  66.567  10.002  1.00  0.00     0.041 C 
ATOM     19  O   UNL     1      13.454  67.311   9.453  1.00  0.00    -0.550 OA
ATOM     20  O   UNL     1      13.020  65.533  10.830  1.00  0.00    -0.550 OA
ENDBRANCH  17  18
ENDBRANCH  16  17
ENDBRANCH  15  16
ENDBRANCH  14  15
ENDBRANCH  13  14
ENDBRANCH  12  13
ENDBRANCH  11  12
ENDBRANCH   1  11
TORSDOF 15
ENDMDL
