MODEL 1
REMARK VINA RESULT:    -4.050      0.000      0.000
REMARK INTER + INTRA:          -6.053
REMARK INTER:                  -5.825
REMARK INTRA:                  -0.227
REMARK UNBOUND:                -0.227
REMARK SMILES CCCCCCCCCO
REMARK SMILES IDX 6 1 5 2 4 3 3 4 2 5 1 6 7 7 8 8 9 9 10 10
REMARK H PARENT 10 11
REMARK Flexibility Score: inf
ROOT
ATOM      1  C   UNL     1       2.900  -2.241 -21.819  1.00  0.00     0.000 C 
ENDROOT
BRANCH   1   2
ATOM      2  C   UNL     1       1.577  -1.515 -22.106  1.00  0.00     0.000 C 
BRANCH   2   3
ATOM      3  C   UNL     1       1.829  -0.160 -22.778  1.00  0.00    -0.000 C 
BRANCH   3   4
ATOM      4  C   UNL     1       2.961  -0.258 -23.808  1.00  0.00    -0.000 C 
BRANCH   4   5
ATOM      5  C   UNL     1       2.923   0.927 -24.781  1.00  0.00    -0.003 C 
ATOM      6  C   UNL     1       4.192   1.768 -24.675  1.00  0.00     0.004 C 
ENDBRANCH   4   5
ENDBRANCH   3   4
ENDBRANCH   2   3
ENDBRANCH   1   2
BRANCH   1   7
ATOM      7  C   UNL     1       2.899  -3.695 -22.315  1.00  0.00     0.002 C 
BRANCH   7   8
ATOM      8  C   UNL     1       4.066  -4.516 -21.745  1.00  0.00     0.028 C 
BRANCH   8   9
ATOM      9  C   UNL     1       4.414  -5.712 -22.636  1.00  0.00     0.156 C 
BRANCH   9  10
ATOM     10  O   UNL     1       3.657  -6.838 -22.274  1.00  0.00    -0.396 OA
ATOM     11  H   UNL     1       3.857  -7.026 -21.321  1.00  0.00     0.210 HD
ENDBRANCH   9  10
ENDBRANCH   8   9
ENDBRANCH   7   8
ENDBRANCH   1   7
TORSDOF 8
ENDMDL
MODEL 2
REMARK VINA RESULT:    -3.997      2.780      5.768
REMARK INTER + INTRA:          -5.976
REMARK INTER:                  -5.657
REMARK INTRA:                  -0.320
REMARK UNBOUND:                -0.227
REMARK SMILES CCCCCCCCCO
REMARK SMILES IDX 6 1 5 2 4 3 3 4 2 5 1 6 7 7 8 8 9 9 10 10
REMARK H PARENT 10 11
REMARK Flexibility Score: inf
ROOT
ATOM      1  C   UNL     1       3.016  -3.259 -22.723  1.00  0.00     0.000 C 
ENDROOT
BRANCH   1   2
ATOM      2  C   UNL     1       3.733  -4.209 -21.752  1.00  0.00     0.000 C 
BRANCH   2   3
ATOM      3  C   UNL     1       4.316  -5.418 -22.495  1.00  0.00    -0.000 C 
BRANCH   3   4
ATOM      4  C   UNL     1       4.444  -5.131 -23.996  1.00  0.00    -0.000 C 
BRANCH   4   5
ATOM      5  C   UNL     1       4.276  -6.416 -24.816  1.00  0.00    -0.003 C 
ATOM      6  C   UNL     1       3.608  -7.513 -23.992  1.00  0.00     0.004 C 
ENDBRANCH   4   5
ENDBRANCH   3   4
ENDBRANCH   2   3
ENDBRANCH   1   2
BRANCH   1   7
ATOM      7  C   UNL     1       2.208  -2.170 -22.001  1.00  0.00     0.002 C 
BRANCH   7   8
ATOM      8  C   UNL     1       2.232  -0.825 -22.743  1.00  0.00     0.028 C 
BRANCH   8   9
ATOM      9  C   UNL     1       1.007   0.033 -22.412  1.00  0.00     0.156 C 
BRANCH   9  10
ATOM     10  O   UNL     1      -0.013  -0.753 -21.852  1.00  0.00    -0.396 OA
ATOM     11  H   UNL     1       0.278  -1.699 -21.926  1.00  0.00     0.210 HD
ENDBRANCH   9  10
ENDBRANCH   8   9
ENDBRANCH   7   8
ENDBRANCH   1   7
TORSDOF 8
ENDMDL
MODEL 3
REMARK VINA RESULT:    -3.863      5.429      7.789
REMARK INTER + INTRA:          -5.784
REMARK INTER:                  -5.544
REMARK INTRA:                  -0.241
REMARK UNBOUND:                -0.227
REMARK SMILES CCCCCCCCCO
REMARK SMILES IDX 6 1 5 2 4 3 3 4 2 5 1 6 7 7 8 8 9 9 10 10
REMARK H PARENT 10 11
REMARK Flexibility Score: inf
ROOT
ATOM      1  C   UNL     1      -1.033   1.973 -24.393  1.00  0.00     0.000 C 
ENDROOT
BRANCH   1   2
ATOM      2  C   UNL     1       0.220   1.124 -24.128  1.00  0.00     0.000 C 
BRANCH   2   3
ATOM      3  C   UNL     1       0.128   0.420 -22.768  1.00  0.00    -0.000 C 
BRANCH   3   4
ATOM      4  C   UNL     1       1.478  -0.192 -22.373  1.00  0.00    -0.000 C 
BRANCH   4   5
ATOM      5  C   UNL     1       1.288  -1.572 -21.731  1.00  0.00    -0.003 C 
ATOM      6  C   UNL     1       2.403  -2.529 -22.142  1.00  0.00     0.004 C 
ENDBRANCH   4   5
ENDBRANCH   3   4
ENDBRANCH   2   3
ENDBRANCH   1   2
BRANCH   1   7
ATOM      7  C   UNL     1      -1.698   2.468 -23.099  1.00  0.00     0.002 C 
BRANCH   7   8
ATOM      8  C   UNL     1      -2.226   3.906 -23.218  1.00  0.00     0.028 C 
BRANCH   8   9
ATOM      9  C   UNL     1      -1.203   4.839 -23.872  1.00  0.00     0.156 C 
BRANCH   9  10
ATOM     10  O   UNL     1      -0.878   5.901 -23.013  1.00  0.00    -0.396 OA
ATOM     11  H   UNL     1      -1.129   5.617 -22.096  1.00  0.00     0.210 HD
ENDBRANCH   9  10
ENDBRANCH   8   9
ENDBRANCH   7   8
ENDBRANCH   1   7
TORSDOF 8
ENDMDL
MODEL 4
REMARK VINA RESULT:    -3.855      1.848      2.396
REMARK INTER + INTRA:          -5.773
REMARK INTER:                  -5.671
REMARK INTRA:                  -0.101
REMARK UNBOUND:                -0.227
REMARK SMILES CCCCCCCCCO
REMARK SMILES IDX 6 1 5 2 4 3 3 4 2 5 1 6 7 7 8 8 9 9 10 10
REMARK H PARENT 10 11
REMARK Flexibility Score: inf
ROOT
ATOM      1  C   UNL     1       2.476  -2.973 -22.115  1.00  0.00     0.000 C 
ENDROOT
BRANCH   1   2
ATOM      2  C   UNL     1       2.427  -1.462 -22.388  1.00  0.00     0.000 C 
BRANCH   2   3
ATOM      3  C   UNL     1       1.060  -0.879 -22.008  1.00  0.00    -0.000 C 
BRANCH   3   4
ATOM      4  C   UNL     1       0.729   0.350 -22.863  1.00  0.00    -0.000 C 
BRANCH   4   5
ATOM      5  C   UNL     1      -0.785   0.589 -22.918  1.00  0.00    -0.003 C 
ATOM      6  C   UNL     1      -1.133   1.693 -23.912  1.00  0.00     0.004 C 
ENDBRANCH   4   5
ENDBRANCH   3   4
ENDBRANCH   2   3
ENDBRANCH   1   2
BRANCH   1   7
ATOM      7  C   UNL     1       3.894  -3.552 -22.237  1.00  0.00     0.002 C 
BRANCH   7   8
ATOM      8  C   UNL     1       3.998  -4.982 -21.682  1.00  0.00     0.028 C 
BRANCH   8   9
ATOM      9  C   UNL     1       4.301  -6.002 -22.784  1.00  0.00     0.156 C 
BRANCH   9  10
ATOM     10  O   UNL     1       3.551  -7.174 -22.596  1.00  0.00    -0.396 OA
ATOM     11  H   UNL     1       2.623  -6.892 -22.387  1.00  0.00     0.210 HD
ENDBRANCH   9  10
ENDBRANCH   8   9
ENDBRANCH   7   8
ENDBRANCH   1   7
TORSDOF 8
ENDMDL
MODEL 5
REMARK VINA RESULT:    -3.823      2.873      5.884
REMARK INTER + INTRA:          -5.727
REMARK INTER:                  -5.512
REMARK INTRA:                  -0.215
REMARK UNBOUND:                -0.227
REMARK SMILES CCCCCCCCCO
REMARK SMILES IDX 6 1 5 2 4 3 3 4 2 5 1 6 7 7 8 8 9 9 10 10
REMARK H PARENT 10 11
REMARK Flexibility Score: inf
ROOT
ATOM      1  C   UNL     1       2.029  -2.517 -22.143  1.00  0.00     0.000 C 
ENDROOT
BRANCH   1   2
ATOM      2  C   UNL     1       3.208  -3.300 -22.740  1.00  0.00     0.000 C 
BRANCH   2   3
ATOM      3  C   UNL     1       3.720  -4.358 -21.754  1.00  0.00    -0.000 C 
BRANCH   3   4
ATOM      4  C   UNL     1       4.498  -5.460 -22.484  1.00  0.00    -0.000 C 
BRANCH   4   5
ATOM      5  C   UNL     1       3.565  -6.601 -22.910  1.00  0.00    -0.003 C 
ATOM      6  C   UNL     1       3.950  -7.144 -24.282  1.00  0.00     0.004 C 
ENDBRANCH   4   5
ENDBRANCH   3   4
ENDBRANCH   2   3
ENDBRANCH   1   2
BRANCH   1   7
ATOM      7  C   UNL     1       2.374  -1.045 -21.867  1.00  0.00     0.002 C 
BRANCH   7   8
ATOM      8  C   UNL     1       1.847  -0.100 -22.958  1.00  0.00     0.028 C 
BRANCH   8   9
ATOM      9  C   UNL     1       2.896   0.161 -24.043  1.00  0.00     0.156 C 
BRANCH   9  10
ATOM     10  O   UNL     1       3.259   1.517 -24.068  1.00  0.00    -0.396 OA
ATOM     11  H   UNL     1       2.421   2.038 -24.163  1.00  0.00     0.210 HD
ENDBRANCH   9  10
ENDBRANCH   8   9
ENDBRANCH   7   8
ENDBRANCH   1   7
TORSDOF 8
ENDMDL
MODEL 6
REMARK VINA RESULT:    -3.823      8.819     10.385
REMARK INTER + INTRA:          -5.727
REMARK INTER:                  -5.352
REMARK INTRA:                  -0.375
REMARK UNBOUND:                -0.227
REMARK SMILES CCCCCCCCCO
REMARK SMILES IDX 6 1 5 2 4 3 3 4 2 5 1 6 7 7 8 8 9 9 10 10
REMARK H PARENT 10 11
REMARK Flexibility Score: inf
ROOT
ATOM      1  C   UNL     1      -2.706   3.699 -23.017  1.00  0.00     0.000 C 
ENDROOT
BRANCH   1   2
ATOM      2  C   UNL     1      -4.081   4.075 -23.589  1.00  0.00     0.000 C 
BRANCH   2   3
ATOM      3  C   UNL     1      -5.139   4.136 -22.480  1.00  0.00    -0.000 C 
BRANCH   3   4
ATOM      4  C   UNL     1      -5.971   2.849 -22.442  1.00  0.00    -0.000 C 
BRANCH   4   5
ATOM      5  C   UNL     1      -5.529   1.943 -21.287  1.00  0.00    -0.003 C 
ATOM      6  C   UNL     1      -4.844   2.747 -20.186  1.00  0.00     0.004 C 
ENDBRANCH   4   5
ENDBRANCH   3   4
ENDBRANCH   2   3
ENDBRANCH   1   2
BRANCH   1   7
ATOM      7  C   UNL     1      -1.547   4.099 -23.945  1.00  0.00     0.002 C 
BRANCH   7   8
ATOM      8  C   UNL     1      -1.670   5.543 -24.456  1.00  0.00     0.028 C 
BRANCH   8   9
ATOM      9  C   UNL     1      -0.494   6.412 -24.001  1.00  0.00     0.156 C 
BRANCH   9  10
ATOM     10  O   UNL     1      -0.591   6.700 -22.630  1.00  0.00    -0.396 OA
ATOM     11  H   UNL     1      -0.717   7.681 -22.549  1.00  0.00     0.210 HD
ENDBRANCH   9  10
ENDBRANCH   8   9
ENDBRANCH   7   8
ENDBRANCH   1   7
TORSDOF 8
ENDMDL
MODEL 7
REMARK VINA RESULT:    -3.820      9.085     10.643
REMARK INTER + INTRA:          -5.723
REMARK INTER:                  -5.404
REMARK INTRA:                  -0.319
REMARK UNBOUND:                -0.227
REMARK SMILES CCCCCCCCCO
REMARK SMILES IDX 6 1 5 2 4 3 3 4 2 5 1 6 7 7 8 8 9 9 10 10
REMARK H PARENT 10 11
REMARK Flexibility Score: inf
ROOT
ATOM      1  C   UNL     1      -3.919   4.093 -23.600  1.00  0.00     0.000 C 
ENDROOT
BRANCH   1   2
ATOM      2  C   UNL     1      -3.453   3.310 -22.363  1.00  0.00     0.000 C 
BRANCH   2   3
ATOM      3  C   UNL     1      -4.629   2.584 -21.698  1.00  0.00    -0.000 C 
BRANCH   3   4
ATOM      4  C   UNL     1      -5.968   3.183 -22.142  1.00  0.00    -0.000 C 
BRANCH   4   5
ATOM      5  C   UNL     1      -6.968   2.080 -22.512  1.00  0.00    -0.003 C 
ATOM      6  C   UNL     1      -8.142   2.645 -23.307  1.00  0.00     0.004 C 
ENDBRANCH   4   5
ENDBRANCH   3   4
ENDBRANCH   2   3
ENDBRANCH   1   2
BRANCH   1   7
ATOM      7  C   UNL     1      -2.749   4.678 -24.407  1.00  0.00     0.002 C 
BRANCH   7   8
ATOM      8  C   UNL     1      -1.430   4.681 -23.619  1.00  0.00     0.028 C 
BRANCH   8   9
ATOM      9  C   UNL     1      -0.647   5.983 -23.820  1.00  0.00     0.156 C 
BRANCH   9  10
ATOM     10  O   UNL     1      -0.600   6.723 -22.628  1.00  0.00    -0.396 OA
ATOM     11  H   UNL     1       0.029   6.252 -22.021  1.00  0.00     0.210 HD
ENDBRANCH   9  10
ENDBRANCH   8   9
ENDBRANCH   7   8
ENDBRANCH   1   7
TORSDOF 8
ENDMDL
MODEL 8
REMARK VINA RESULT:    -3.817      5.302      7.602
REMARK INTER + INTRA:          -5.718
REMARK INTER:                  -5.511
REMARK INTRA:                  -0.207
REMARK UNBOUND:                -0.227
REMARK SMILES CCCCCCCCCO
REMARK SMILES IDX 6 1 5 2 4 3 3 4 2 5 1 6 7 7 8 8 9 9 10 10
REMARK H PARENT 10 11
REMARK Flexibility Score: inf
ROOT
ATOM      1  C   UNL     1      -1.306   1.761 -23.693  1.00  0.00     0.000 C 
ENDROOT
BRANCH   1   2
ATOM      2  C   UNL     1      -0.612   0.736 -22.784  1.00  0.00     0.000 C 
BRANCH   2   3
ATOM      3  C   UNL     1       0.813   0.445 -23.273  1.00  0.00    -0.000 C 
BRANCH   3   4
ATOM      4  C   UNL     1       1.682  -0.110 -22.138  1.00  0.00    -0.000 C 
BRANCH   4   5
ATOM      5  C   UNL     1       1.329  -1.572 -21.841  1.00  0.00    -0.003 C 
ATOM      6  C   UNL     1       2.457  -2.508 -22.262  1.00  0.00     0.004 C 
ENDBRANCH   4   5
ENDBRANCH   3   4
ENDBRANCH   2   3
ENDBRANCH   1   2
BRANCH   1   7
ATOM      7  C   UNL     1      -1.619   3.080 -22.968  1.00  0.00     0.002 C 
BRANCH   7   8
ATOM      8  C   UNL     1      -3.111   3.442 -23.017  1.00  0.00     0.028 C 
BRANCH   8   9
ATOM      9  C   UNL     1      -3.910   2.727 -21.923  1.00  0.00     0.156 C 
BRANCH   9  10
ATOM     10  O   UNL     1      -3.553   3.207 -20.653  1.00  0.00    -0.396 OA
ATOM     11  H   UNL     1      -2.796   3.835 -20.784  1.00  0.00     0.210 HD
ENDBRANCH   9  10
ENDBRANCH   8   9
ENDBRANCH   7   8
ENDBRANCH   1   7
TORSDOF 8
ENDMDL
MODEL 9
REMARK VINA RESULT:    -3.795     10.457     12.084
REMARK INTER + INTRA:          -5.686
REMARK INTER:                  -5.110
REMARK INTRA:                  -0.576
REMARK UNBOUND:                -0.227
REMARK SMILES CCCCCCCCCO
REMARK SMILES IDX 6 1 5 2 4 3 3 4 2 5 1 6 7 7 8 8 9 9 10 10
REMARK H PARENT 10 11
REMARK Flexibility Score: inf
ROOT
ATOM      1  C   UNL     1      -7.684   2.220 -23.039  1.00  0.00     0.000 C 
ENDROOT
BRANCH   1   2
ATOM      2  C   UNL     1      -7.309   3.360 -23.999  1.00  0.00     0.000 C 
BRANCH   2   3
ATOM      3  C   UNL     1      -8.325   4.506 -23.914  1.00  0.00    -0.000 C 
BRANCH   3   4
ATOM      4  C   UNL     1      -8.980   4.559 -22.528  1.00  0.00    -0.000 C 
BRANCH   4   5
ATOM      5  C   UNL     1      -8.727   5.912 -21.852  1.00  0.00    -0.003 C 
ATOM      6  C   UNL     1      -7.299   6.391 -22.095  1.00  0.00     0.004 C 
ENDBRANCH   4   5
ENDBRANCH   3   4
ENDBRANCH   2   3
ENDBRANCH   1   2
BRANCH   1   7
ATOM      7  C   UNL     1      -6.551   1.872 -22.061  1.00  0.00     0.002 C 
BRANCH   7   8
ATOM      8  C   UNL     1      -5.460   2.952 -22.011  1.00  0.00     0.028 C 
BRANCH   8   9
ATOM      9  C   UNL     1      -5.031   3.266 -20.574  1.00  0.00     0.156 C 
BRANCH   9  10
ATOM     10  O   UNL     1      -3.638   3.166 -20.438  1.00  0.00    -0.396 OA
ATOM     11  H   UNL     1      -3.381   3.739 -19.670  1.00  0.00     0.210 HD
ENDBRANCH   9  10
ENDBRANCH   8   9
ENDBRANCH   7   8
ENDBRANCH   1   7
TORSDOF 8
ENDMDL
