MODEL 1
REMARK VINA RESULT:    -0.355      0.000      0.000
REMARK INTER + INTRA:          -0.415
REMARK INTER:                  -0.386
REMARK INTRA:                  -0.029
REMARK UNBOUND:                -0.029
REMARK SMILES O=C([O-])c1ccc(O)cc1
REMARK SMILES IDX 4 1 5 2 10 3 6 4 9 5 7 6 2 7 1 8 3 9 8 10
REMARK H PARENT 8 11
REMARK Flexibility Score: inf
ROOT
ATOM      1  C   UNL     1     -37.028   6.824 -54.024  1.00  0.00    -0.003 A 
ATOM      2  C   UNL     1     -37.882   6.652 -55.128  1.00  0.00     0.014 A 
ATOM      3  C   UNL     1     -37.561   6.722 -52.726  1.00  0.00     0.014 A 
ATOM      4  C   UNL     1     -39.241   6.382 -54.935  1.00  0.00     0.047 A 
ATOM      5  C   UNL     1     -38.920   6.452 -52.538  1.00  0.00     0.047 A 
ATOM      6  C   UNL     1     -39.764   6.282 -53.643  1.00  0.00     0.115 A 
ENDROOT
BRANCH   1   7
ATOM      7  C   UNL     1     -35.590   7.109 -54.229  1.00  0.00     0.071 C 
ATOM      8  O   UNL     1     -35.224   8.111 -54.897  1.00  0.00    -0.545 OA
ATOM      9  O   UNL     1     -34.623   6.270 -53.687  1.00  0.00    -0.545 OA
ENDBRANCH   1   7
BRANCH   6  10
ATOM     10  O   UNL     1     -41.119   6.012 -53.468  1.00  0.00    -0.508 OA
ATOM     11  H   UNL     1     -41.751   5.945 -54.258  1.00  0.00     0.293 HD
ENDBRANCH   6  10
TORSDOF 2
ENDMDL
MODEL 2
REMARK VINA RESULT:    -0.321     21.717     22.885
REMARK INTER + INTRA:          -0.379
REMARK INTER:                  -0.344
REMARK INTRA:                  -0.035
REMARK UNBOUND:                -0.029
REMARK SMILES O=C([O-])c1ccc(O)cc1
REMARK SMILES IDX 4 1 5 2 10 3 6 4 9 5 7 6 2 7 1 8 3 9 8 10
REMARK H PARENT 8 11
REMARK Flexibility Score: inf
ROOT
ATOM      1  C   UNL     1     -23.223 -11.388 -51.960  1.00  0.00    -0.003 A 
ATOM      2  C   UNL     1     -24.205 -10.649 -51.275  1.00  0.00     0.014 A 
ATOM      3  C   UNL     1     -23.596 -12.125 -53.099  1.00  0.00     0.014 A 
ATOM      4  C   UNL     1     -25.530 -10.649 -51.722  1.00  0.00     0.047 A 
ATOM      5  C   UNL     1     -24.922 -12.122 -53.542  1.00  0.00     0.047 A 
ATOM      6  C   UNL     1     -25.893 -11.384 -52.854  1.00  0.00     0.115 A 
ENDROOT
BRANCH   1   7
ATOM      7  C   UNL     1     -21.822 -11.387 -51.487  1.00  0.00     0.071 C 
ATOM      8  O   UNL     1     -20.890 -11.772 -52.241  1.00  0.00    -0.545 OA
ATOM      9  O   UNL     1     -21.514 -10.960 -50.199  1.00  0.00    -0.545 OA
ENDBRANCH   1   7
BRANCH   6  10
ATOM     10  O   UNL     1     -27.217 -11.372 -53.287  1.00  0.00    -0.508 OA
ATOM     11  H   UNL     1     -27.630 -12.177 -53.744  1.00  0.00     0.293 HD
ENDBRANCH   6  10
TORSDOF 2
ENDMDL
MODEL 3
REMARK VINA RESULT:     0.477      1.581      4.553
REMARK INTER + INTRA:           0.490
REMARK INTER:                   0.517
REMARK INTRA:                  -0.028
REMARK UNBOUND:                -0.029
REMARK SMILES O=C([O-])c1ccc(O)cc1
REMARK SMILES IDX 4 1 5 2 10 3 6 4 9 5 7 6 2 7 1 8 3 9 8 10
REMARK H PARENT 8 11
REMARK Flexibility Score: inf
ROOT
ATOM      1  C   UNL     1     -37.161   6.906 -53.626  1.00  0.00    -0.003 A 
ATOM      2  C   UNL     1     -36.115   6.147 -53.072  1.00  0.00     0.014 A 
ATOM      3  C   UNL     1     -36.871   7.812 -54.663  1.00  0.00     0.014 A 
ATOM      4  C   UNL     1     -34.807   6.292 -53.546  1.00  0.00     0.047 A 
ATOM      5  C   UNL     1     -35.562   7.955 -55.134  1.00  0.00     0.047 A 
ATOM      6  C   UNL     1     -34.526   7.194 -54.575  1.00  0.00     0.115 A 
ENDROOT
BRANCH   1   7
ATOM      7  C   UNL     1     -38.544   6.751 -53.125  1.00  0.00     0.071 C 
ATOM      8  O   UNL     1     -38.874   7.212 -52.000  1.00  0.00    -0.545 OA
ATOM      9  O   UNL     1     -39.500   6.091 -53.889  1.00  0.00    -0.545 OA
ENDBRANCH   1   7
BRANCH   6  10
ATOM     10  O   UNL     1     -33.218   7.327 -55.036  1.00  0.00    -0.508 OA
ATOM     11  H   UNL     1     -32.613   8.067 -54.702  1.00  0.00     0.293 HD
ENDBRANCH   6  10
TORSDOF 2
ENDMDL
MODEL 4
REMARK VINA RESULT:     0.935     13.251     15.326
REMARK INTER + INTRA:           0.988
REMARK INTER:                   1.015
REMARK INTRA:                  -0.027
REMARK UNBOUND:                -0.029
REMARK SMILES O=C([O-])c1ccc(O)cc1
REMARK SMILES IDX 4 1 5 2 10 3 6 4 9 5 7 6 2 7 1 8 3 9 8 10
REMARK H PARENT 8 11
REMARK Flexibility Score: inf
ROOT
ATOM      1  C   UNL     1     -22.514   5.589 -58.007  1.00  0.00    -0.003 A 
ATOM      2  C   UNL     1     -23.831   5.096 -57.984  1.00  0.00     0.014 A 
ATOM      3  C   UNL     1     -22.258   6.877 -57.504  1.00  0.00     0.014 A 
ATOM      4  C   UNL     1     -24.870   5.879 -57.470  1.00  0.00     0.047 A 
ATOM      5  C   UNL     1     -23.300   7.657 -56.991  1.00  0.00     0.047 A 
ATOM      6  C   UNL     1     -24.609   7.159 -56.973  1.00  0.00     0.115 A 
ENDROOT
BRANCH   1   7
ATOM      7  C   UNL     1     -21.415   4.759 -58.550  1.00  0.00     0.071 C 
ATOM      8  O   UNL     1     -20.875   3.868 -57.843  1.00  0.00    -0.545 OA
ATOM      9  O   UNL     1     -20.963   4.954 -59.850  1.00  0.00    -0.545 OA
ENDBRANCH   1   7
BRANCH   6  10
ATOM     10  O   UNL     1     -25.655   7.926 -56.464  1.00  0.00    -0.508 OA
ATOM     11  H   UNL     1     -25.630   8.938 -56.492  1.00  0.00     0.293 HD
ENDBRANCH   6  10
TORSDOF 2
ENDMDL
MODEL 5
REMARK VINA RESULT:     1.287     12.226     14.435
REMARK INTER + INTRA:           1.371
REMARK INTER:                   1.407
REMARK INTRA:                  -0.036
REMARK UNBOUND:                -0.029
REMARK SMILES O=C([O-])c1ccc(O)cc1
REMARK SMILES IDX 4 1 5 2 10 3 6 4 9 5 7 6 2 7 1 8 3 9 8 10
REMARK H PARENT 8 11
REMARK Flexibility Score: inf
ROOT
ATOM      1  C   UNL     1     -23.126   6.134 -57.621  1.00  0.00    -0.003 A 
ATOM      2  C   UNL     1     -23.631   7.219 -56.882  1.00  0.00     0.014 A 
ATOM      3  C   UNL     1     -24.005   5.107 -58.012  1.00  0.00     0.014 A 
ATOM      4  C   UNL     1     -24.986   7.275 -56.543  1.00  0.00     0.047 A 
ATOM      5  C   UNL     1     -25.360   5.166 -57.670  1.00  0.00     0.047 A 
ATOM      6  C   UNL     1     -25.854   6.251 -56.934  1.00  0.00     0.115 A 
ENDROOT
BRANCH   1   7
ATOM      7  C   UNL     1     -21.692   6.077 -57.980  1.00  0.00     0.071 C 
ATOM      8  O   UNL     1     -20.875   6.900 -57.489  1.00  0.00    -0.545 OA
ATOM      9  O   UNL     1     -21.227   5.112 -58.867  1.00  0.00    -0.545 OA
ENDBRANCH   1   7
BRANCH   6  10
ATOM     10  O   UNL     1     -27.202   6.321 -56.589  1.00  0.00    -0.508 OA
ATOM     11  H   UNL     1     -27.495   6.614 -55.664  1.00  0.00     0.293 HD
ENDBRANCH   6  10
TORSDOF 2
ENDMDL
MODEL 6
REMARK VINA RESULT:     1.590     23.145     24.195
REMARK INTER + INTRA:           1.701
REMARK INTER:                   1.734
REMARK INTRA:                  -0.033
REMARK UNBOUND:                -0.029
REMARK SMILES O=C([O-])c1ccc(O)cc1
REMARK SMILES IDX 4 1 5 2 10 3 6 4 9 5 7 6 2 7 1 8 3 9 8 10
REMARK H PARENT 8 11
REMARK Flexibility Score: inf
ROOT
ATOM      1  C   UNL     1     -21.998 -11.146 -50.836  1.00  0.00    -0.003 A 
ATOM      2  C   UNL     1     -23.124 -10.827 -51.616  1.00  0.00     0.014 A 
ATOM      3  C   UNL     1     -20.909 -11.797 -51.443  1.00  0.00     0.014 A 
ATOM      4  C   UNL     1     -23.158 -11.153 -52.976  1.00  0.00     0.047 A 
ATOM      5  C   UNL     1     -20.947 -12.123 -52.802  1.00  0.00     0.047 A 
ATOM      6  C   UNL     1     -22.072 -11.802 -53.572  1.00  0.00     0.115 A 
ENDROOT
BRANCH   1   7
ATOM      7  C   UNL     1     -21.964 -10.798 -49.398  1.00  0.00     0.071 C 
ATOM      8  O   UNL     1     -20.875 -10.510 -48.834  1.00  0.00    -0.545 OA
ATOM      9  O   UNL     1     -23.135 -10.786 -48.648  1.00  0.00    -0.545 OA
ENDBRANCH   1   7
BRANCH   6  10
ATOM     10  O   UNL     1     -22.121 -12.120 -54.928  1.00  0.00    -0.508 OA
ATOM     11  H   UNL     1     -22.800 -11.693 -55.546  1.00  0.00     0.293 HD
ENDBRANCH   6  10
TORSDOF 2
ENDMDL
MODEL 7
REMARK VINA RESULT:     1.733     20.483     21.457
REMARK INTER + INTRA:           1.856
REMARK INTER:                   1.891
REMARK INTRA:                  -0.035
REMARK UNBOUND:                -0.029
REMARK SMILES O=C([O-])c1ccc(O)cc1
REMARK SMILES IDX 4 1 5 2 10 3 6 4 9 5 7 6 2 7 1 8 3 9 8 10
REMARK H PARENT 8 11
REMARK Flexibility Score: inf
ROOT
ATOM      1  C   UNL     1     -25.268 -11.262 -52.652  1.00  0.00    -0.003 A 
ATOM      2  C   UNL     1     -25.896 -12.125 -53.568  1.00  0.00     0.014 A 
ATOM      3  C   UNL     1     -26.020 -10.232 -52.058  1.00  0.00     0.014 A 
ATOM      4  C   UNL     1     -27.249 -11.959 -53.882  1.00  0.00     0.047 A 
ATOM      5  C   UNL     1     -27.372 -10.069 -52.376  1.00  0.00     0.047 A 
ATOM      6  C   UNL     1     -27.990 -10.932 -53.289  1.00  0.00     0.115 A 
ENDROOT
BRANCH   1   7
ATOM      7  C   UNL     1     -23.837 -11.440 -52.319  1.00  0.00     0.071 C 
ATOM      8  O   UNL     1     -23.069 -12.059 -53.101  1.00  0.00    -0.545 OA
ATOM      9  O   UNL     1     -23.321 -10.925 -51.135  1.00  0.00    -0.545 OA
ENDBRANCH   1   7
BRANCH   6  10
ATOM     10  O   UNL     1     -29.337 -10.781 -53.613  1.00  0.00    -0.508 OA
ATOM     11  H   UNL     1     -30.067 -11.182 -53.037  1.00  0.00     0.293 HD
ENDBRANCH   6  10
TORSDOF 2
ENDMDL
