MODEL 1
REMARK VINA RESULT:    -4.722      0.000      0.000
REMARK INTER + INTRA:          -5.540
REMARK INTER:                  -5.274
REMARK INTRA:                  -0.265
REMARK UNBOUND:                -0.265
REMARK SMILES CC(=O)c1ccc(O)cc1O
REMARK SMILES IDX 4 1 10 2 9 3 7 4 6 5 5 6 2 7 1 8 3 9 11 10 8 12
REMARK H PARENT 11 11 8 13
REMARK Flexibility Score: inf
ROOT
ATOM      1  C   UNL     1      79.330  16.132   3.357  1.00  0.00     0.059 A 
ATOM      2  C   UNL     1      78.102  16.039   2.659  1.00  0.00     0.130 A 
ATOM      3  C   UNL     1      77.808  16.947   1.630  1.00  0.00     0.093 A 
ATOM      4  C   UNL     1      78.723  17.947   1.282  1.00  0.00     0.119 A 
ATOM      5  C   UNL     1      79.936  18.042   1.963  1.00  0.00     0.047 A 
ATOM      6  C   UNL     1      80.240  17.146   2.990  1.00  0.00     0.019 A 
ENDROOT
BRANCH   1   7
ATOM      7  C   UNL     1      79.665  15.186   4.461  1.00  0.00     0.163 C 
ATOM      8  C   UNL     1      80.774  14.184   4.332  1.00  0.00     0.093 C 
ATOM      9  O   UNL     1      79.031  15.234   5.549  1.00  0.00    -0.294 OA
ENDBRANCH   1   7
BRANCH   2  10
ATOM     10  O   UNL     1      77.178  15.043   2.973  1.00  0.00    -0.507 OA
ATOM     11  H   UNL     1      77.417  14.264   3.578  1.00  0.00     0.293 HD
ENDBRANCH   2  10
BRANCH   4  12
ATOM     12  O   UNL     1      78.434  18.850   0.261  1.00  0.00    -0.508 OA
ATOM     13  H   UNL     1      77.483  19.132   0.056  1.00  0.00     0.293 HD
ENDBRANCH   4  12
TORSDOF 3
ENDMDL
MODEL 2
REMARK VINA RESULT:    -4.322      1.878      4.259
REMARK INTER + INTRA:          -5.092
REMARK INTER:                  -4.795
REMARK INTRA:                  -0.297
REMARK UNBOUND:                -0.265
REMARK SMILES CC(=O)c1ccc(O)cc1O
REMARK SMILES IDX 4 1 10 2 9 3 7 4 6 5 5 6 2 7 1 8 3 9 11 10 8 12
REMARK H PARENT 11 11 8 13
REMARK Flexibility Score: inf
ROOT
ATOM      1  C   UNL     1      79.383  15.111   2.366  1.00  0.00     0.059 A 
ATOM      2  C   UNL     1      78.600  15.673   3.403  1.00  0.00     0.130 A 
ATOM      3  C   UNL     1      78.906  15.395   4.744  1.00  0.00     0.093 A 
ATOM      4  C   UNL     1      79.985  14.565   5.070  1.00  0.00     0.119 A 
ATOM      5  C   UNL     1      80.762  14.011   4.053  1.00  0.00     0.047 A 
ATOM      6  C   UNL     1      80.467  14.278   2.715  1.00  0.00     0.019 A 
ENDROOT
BRANCH   1   7
ATOM      7  C   UNL     1      79.076  15.382   0.932  1.00  0.00     0.163 C 
ATOM      8  C   UNL     1      79.102  14.294  -0.101  1.00  0.00     0.093 C 
ATOM      9  O   UNL     1      78.756  16.543   0.562  1.00  0.00    -0.294 OA
ENDBRANCH   1   7
BRANCH   2  10
ATOM     10  O   UNL     1      77.529  16.516   3.109  1.00  0.00    -0.507 OA
ATOM     11  H   UNL     1      76.922  16.881   3.835  1.00  0.00     0.293 HD
ENDBRANCH   2  10
BRANCH   4  12
ATOM     12  O   UNL     1      80.291  14.287   6.400  1.00  0.00    -0.508 OA
ATOM     13  H   UNL     1      80.404  13.337   6.730  1.00  0.00     0.293 HD
ENDBRANCH   4  12
TORSDOF 3
ENDMDL
MODEL 3
REMARK VINA RESULT:    -4.307     18.723     20.029
REMARK INTER + INTRA:          -5.076
REMARK INTER:                  -4.771
REMARK INTRA:                  -0.305
REMARK UNBOUND:                -0.265
REMARK SMILES CC(=O)c1ccc(O)cc1O
REMARK SMILES IDX 4 1 10 2 9 3 7 4 6 5 5 6 2 7 1 8 3 9 11 10 8 12
REMARK H PARENT 11 11 8 13
REMARK Flexibility Score: inf
ROOT
ATOM      1  C   UNL     1      90.406  26.913  14.997  1.00  0.00     0.059 A 
ATOM      2  C   UNL     1      90.411  26.919  16.412  1.00  0.00     0.130 A 
ATOM      3  C   UNL     1      89.290  26.460  17.121  1.00  0.00     0.093 A 
ATOM      4  C   UNL     1      88.163  25.988  16.439  1.00  0.00     0.119 A 
ATOM      5  C   UNL     1      88.153  25.975  15.045  1.00  0.00     0.047 A 
ATOM      6  C   UNL     1      89.261  26.432  14.328  1.00  0.00     0.019 A 
ENDROOT
BRANCH   1   7
ATOM      7  C   UNL     1      91.579  27.404  14.217  1.00  0.00     0.163 C 
ATOM      8  C   UNL     1      92.122  26.643  13.044  1.00  0.00     0.093 C 
ATOM      9  O   UNL     1      92.125  28.499  14.518  1.00  0.00    -0.294 OA
ENDBRANCH   1   7
BRANCH   2  10
ATOM     10  O   UNL     1      91.526  27.369  17.118  1.00  0.00    -0.507 OA
ATOM     11  H   UNL     1      92.182  26.725  17.547  1.00  0.00     0.293 HD
ENDBRANCH   2  10
BRANCH   4  12
ATOM     12  O   UNL     1      87.049  25.531  17.140  1.00  0.00    -0.508 OA
ATOM     13  H   UNL     1      86.967  24.565  17.432  1.00  0.00     0.293 HD
ENDBRANCH   4  12
TORSDOF 3
ENDMDL
MODEL 4
REMARK VINA RESULT:    -4.194      1.287      1.917
REMARK INTER + INTRA:          -4.949
REMARK INTER:                  -4.648
REMARK INTRA:                  -0.301
REMARK UNBOUND:                -0.265
REMARK SMILES CC(=O)c1ccc(O)cc1O
REMARK SMILES IDX 4 1 10 2 9 3 7 4 6 5 5 6 2 7 1 8 3 9 11 10 8 12
REMARK H PARENT 11 11 8 13
REMARK Flexibility Score: inf
ROOT
ATOM      1  C   UNL     1      79.712  15.808   3.018  1.00  0.00     0.059 A 
ATOM      2  C   UNL     1      79.753  17.199   3.273  1.00  0.00     0.130 A 
ATOM      3  C   UNL     1      79.385  18.109   2.269  1.00  0.00     0.093 A 
ATOM      4  C   UNL     1      78.972  17.652   1.013  1.00  0.00     0.119 A 
ATOM      5  C   UNL     1      78.927  16.282   0.757  1.00  0.00     0.047 A 
ATOM      6  C   UNL     1      79.292  15.367   1.746  1.00  0.00     0.019 A 
ENDROOT
BRANCH   1   7
ATOM      7  C   UNL     1      80.106  14.818   4.063  1.00  0.00     0.163 C 
ATOM      8  C   UNL     1      81.256  13.876   3.864  1.00  0.00     0.093 C 
ATOM      9  O   UNL     1      79.487  14.777   5.160  1.00  0.00    -0.294 OA
ENDBRANCH   1   7
BRANCH   2  10
ATOM     10  O   UNL     1      80.145  17.683   4.521  1.00  0.00    -0.507 OA
ATOM     11  H   UNL     1      81.084  18.026   4.690  1.00  0.00     0.293 HD
ENDBRANCH   2  10
BRANCH   4  12
ATOM     12  O   UNL     1      78.606  18.552   0.015  1.00  0.00    -0.508 OA
ATOM     13  H   UNL     1      78.869  18.406  -0.952  1.00  0.00     0.293 HD
ENDBRANCH   4  12
TORSDOF 3
ENDMDL
MODEL 5
REMARK VINA RESULT:    -4.133      1.631      4.489
REMARK INTER + INTRA:          -4.882
REMARK INTER:                  -4.591
REMARK INTRA:                  -0.290
REMARK UNBOUND:                -0.265
REMARK SMILES CC(=O)c1ccc(O)cc1O
REMARK SMILES IDX 4 1 10 2 9 3 7 4 6 5 5 6 2 7 1 8 3 9 11 10 8 12
REMARK H PARENT 11 11 8 13
REMARK Flexibility Score: inf
ROOT
ATOM      1  C   UNL     1      79.184  16.985   2.723  1.00  0.00     0.059 A 
ATOM      2  C   UNL     1      79.743  17.170   4.009  1.00  0.00     0.130 A 
ATOM      3  C   UNL     1      79.566  16.192   5.001  1.00  0.00     0.093 A 
ATOM      4  C   UNL     1      78.842  15.027   4.727  1.00  0.00     0.119 A 
ATOM      5  C   UNL     1      78.291  14.837   3.461  1.00  0.00     0.047 A 
ATOM      6  C   UNL     1      78.458  15.803   2.466  1.00  0.00     0.019 A 
ENDROOT
BRANCH   1   7
ATOM      7  C   UNL     1      79.348  18.012   1.653  1.00  0.00     0.163 C 
ATOM      8  C   UNL     1      78.228  18.367   0.721  1.00  0.00     0.093 C 
ATOM      9  O   UNL     1      80.440  18.629   1.531  1.00  0.00    -0.294 OA
ENDBRANCH   1   7
BRANCH   2  10
ATOM     10  O   UNL     1      80.484  18.315   4.306  1.00  0.00    -0.507 OA
ATOM     11  H   UNL     1      80.690  19.014   3.601  1.00  0.00     0.293 HD
ENDBRANCH   2  10
BRANCH   4  12
ATOM     12  O   UNL     1      78.665  14.054   5.708  1.00  0.00    -0.508 OA
ATOM     13  H   UNL     1      79.433  13.743   6.291  1.00  0.00     0.293 HD
ENDBRANCH   4  12
TORSDOF 3
ENDMDL
MODEL 6
REMARK VINA RESULT:    -4.111      1.887      3.062
REMARK INTER + INTRA:          -4.856
REMARK INTER:                  -4.580
REMARK INTRA:                  -0.277
REMARK UNBOUND:                -0.265
REMARK SMILES CC(=O)c1ccc(O)cc1O
REMARK SMILES IDX 4 1 10 2 9 3 7 4 6 5 5 6 2 7 1 8 3 9 11 10 8 12
REMARK H PARENT 11 11 8 13
REMARK Flexibility Score: inf
ROOT
ATOM      1  C   UNL     1      78.401  15.711   2.043  1.00  0.00     0.059 A 
ATOM      2  C   UNL     1      78.776  15.691   3.407  1.00  0.00     0.130 A 
ATOM      3  C   UNL     1      79.604  16.701   3.923  1.00  0.00     0.093 A 
ATOM      4  C   UNL     1      80.062  17.734   3.099  1.00  0.00     0.119 A 
ATOM      5  C   UNL     1      79.694  17.761   1.755  1.00  0.00     0.047 A 
ATOM      6  C   UNL     1      78.872  16.762   1.228  1.00  0.00     0.019 A 
ENDROOT
BRANCH   1   7
ATOM      7  C   UNL     1      77.530  14.647   1.465  1.00  0.00     0.163 C 
ATOM      8  C   UNL     1      77.708  14.158   0.058  1.00  0.00     0.093 C 
ATOM      9  O   UNL     1      76.634  14.111   2.171  1.00  0.00    -0.294 OA
ENDBRANCH   1   7
BRANCH   2  10
ATOM     10  O   UNL     1      78.322  14.683   4.257  1.00  0.00    -0.507 OA
ATOM     11  H   UNL     1      77.745  14.885   5.066  1.00  0.00     0.293 HD
ENDBRANCH   2  10
BRANCH   4  12
ATOM     12  O   UNL     1      80.884  18.738   3.608  1.00  0.00    -0.508 OA
ATOM     13  H   UNL     1      81.449  19.318   3.001  1.00  0.00     0.293 HD
ENDBRANCH   4  12
TORSDOF 3
ENDMDL
MODEL 7
REMARK VINA RESULT:    -4.051     19.032     20.066
REMARK INTER + INTRA:          -4.790
REMARK INTER:                  -4.485
REMARK INTRA:                  -0.305
REMARK UNBOUND:                -0.265
REMARK SMILES CC(=O)c1ccc(O)cc1O
REMARK SMILES IDX 4 1 10 2 9 3 7 4 6 5 5 6 2 7 1 8 3 9 11 10 8 12
REMARK H PARENT 11 11 8 13
REMARK Flexibility Score: inf
ROOT
ATOM      1  C   UNL     1      89.585  26.830  15.955  1.00  0.00     0.059 A 
ATOM      2  C   UNL     1      90.979  26.999  16.134  1.00  0.00     0.130 A 
ATOM      3  C   UNL     1      91.815  27.170  15.019  1.00  0.00     0.093 A 
ATOM      4  C   UNL     1      91.281  27.181  13.726  1.00  0.00     0.119 A 
ATOM      5  C   UNL     1      89.908  27.019  13.544  1.00  0.00     0.047 A 
ATOM      6  C   UNL     1      89.066  26.845  14.643  1.00  0.00     0.019 A 
ENDROOT
BRANCH   1   7
ATOM      7  C   UNL     1      88.674  26.637  17.121  1.00  0.00     0.163 C 
ATOM      8  C   UNL     1      87.653  25.539  17.151  1.00  0.00     0.093 C 
ATOM      9  O   UNL     1      88.769  27.388  18.129  1.00  0.00    -0.294 OA
ENDBRANCH   1   7
BRANCH   2  10
ATOM     10  O   UNL     1      91.537  27.009  17.412  1.00  0.00    -0.507 OA
ATOM     11  H   UNL     1      91.904  27.858  17.828  1.00  0.00     0.293 HD
ENDBRANCH   2  10
BRANCH   4  12
ATOM     12  O   UNL     1      92.108  27.351  12.618  1.00  0.00    -0.508 OA
ATOM     13  H   UNL     1      92.711  26.607  12.287  1.00  0.00     0.293 HD
ENDBRANCH   4  12
TORSDOF 3
ENDMDL
MODEL 8
REMARK VINA RESULT:    -4.043      1.969      3.959
REMARK INTER + INTRA:          -4.781
REMARK INTER:                  -4.474
REMARK INTRA:                  -0.307
REMARK UNBOUND:                -0.265
REMARK SMILES CC(=O)c1ccc(O)cc1O
REMARK SMILES IDX 4 1 10 2 9 3 7 4 6 5 5 6 2 7 1 8 3 9 11 10 8 12
REMARK H PARENT 11 11 8 13
REMARK Flexibility Score: inf
ROOT
ATOM      1  C   UNL     1      79.246  15.678   2.418  1.00  0.00     0.059 A 
ATOM      2  C   UNL     1      79.670  16.995   2.717  1.00  0.00     0.130 A 
ATOM      3  C   UNL     1      79.719  17.432   4.050  1.00  0.00     0.093 A 
ATOM      4  C   UNL     1      79.355  16.574   5.093  1.00  0.00     0.119 A 
ATOM      5  C   UNL     1      78.941  15.274   4.806  1.00  0.00     0.047 A 
ATOM      6  C   UNL     1      78.885  14.827   3.484  1.00  0.00     0.019 A 
ENDROOT
BRANCH   1   7
ATOM      7  C   UNL     1      79.176  15.189   1.011  1.00  0.00     0.163 C 
ATOM      8  C   UNL     1      79.773  13.875   0.601  1.00  0.00     0.093 C 
ATOM      9  O   UNL     1      78.578  15.869   0.134  1.00  0.00    -0.294 OA
ENDBRANCH   1   7
BRANCH   2  10
ATOM     10  O   UNL     1      80.053  17.868   1.699  1.00  0.00    -0.507 OA
ATOM     11  H   UNL     1      80.709  17.590   0.977  1.00  0.00     0.293 HD
ENDBRANCH   2  10
BRANCH   4  12
ATOM     12  O   UNL     1      79.403  17.005   6.417  1.00  0.00    -0.508 OA
ATOM     13  H   UNL     1      78.958  16.481   7.161  1.00  0.00     0.293 HD
ENDBRANCH   4  12
TORSDOF 3
ENDMDL
MODEL 9
REMARK VINA RESULT:    -3.878      1.773      4.397
REMARK INTER + INTRA:          -4.597
REMARK INTER:                  -4.331
REMARK INTRA:                  -0.265
REMARK UNBOUND:                -0.265
REMARK SMILES CC(=O)c1ccc(O)cc1O
REMARK SMILES IDX 4 1 10 2 9 3 7 4 6 5 5 6 2 7 1 8 3 9 11 10 8 12
REMARK H PARENT 11 11 8 13
REMARK Flexibility Score: inf
ROOT
ATOM      1  C   UNL     1      79.196  15.828   2.465  1.00  0.00     0.059 A 
ATOM      2  C   UNL     1      79.901  14.601   2.470  1.00  0.00     0.130 A 
ATOM      3  C   UNL     1      80.328  14.041   3.684  1.00  0.00     0.093 A 
ATOM      4  C   UNL     1      80.058  14.684   4.897  1.00  0.00     0.119 A 
ATOM      5  C   UNL     1      79.361  15.891   4.899  1.00  0.00     0.047 A 
ATOM      6  C   UNL     1      78.933  16.460   3.699  1.00  0.00     0.019 A 
ENDROOT
BRANCH   1   7
ATOM      7  C   UNL     1      78.738  16.452   1.190  1.00  0.00     0.163 C 
ATOM      8  C   UNL     1      78.633  17.940   1.032  1.00  0.00     0.093 C 
ATOM      9  O   UNL     1      78.456  15.728   0.197  1.00  0.00    -0.294 OA
ENDBRANCH   1   7
BRANCH   2  10
ATOM     10  O   UNL     1      80.170  13.930   1.278  1.00  0.00    -0.507 OA
ATOM     11  H   UNL     1      81.028  14.086   0.759  1.00  0.00     0.293 HD
ENDBRANCH   2  10
BRANCH   4  12
ATOM     12  O   UNL     1      80.480  14.130   6.104  1.00  0.00    -0.508 OA
ATOM     13  H   UNL     1      81.320  13.567   6.164  1.00  0.00     0.293 HD
ENDBRANCH   4  12
TORSDOF 3
ENDMDL
