MODEL 1
REMARK VINA RESULT:    -4.515      0.000      0.000
REMARK INTER + INTRA:          -5.516
REMARK INTER:                  -6.362
REMARK INTRA:                   0.846
REMARK UNBOUND:                 0.846
REMARK SMILES CC1=CCC(=C(C)C)C(=O)CC(C)=CCC1
REMARK SMILES IDX 12 1 14 2 13 3 15 4 16 5 2 6 1 7 3 8 11 10 9 11 10 12 5 13
REMARK SMILES IDX 6 14 7 15 8 16 4 17
REMARK H PARENT
REMARK Flexibility Score: 60.00
ROOT
ATOM      1  C   UNL     1      45.829 -39.739  28.659  1.00  0.00    -0.070 C 
ATOM      2  C   UNL     1      45.480 -40.787  27.877  1.00  0.00    -0.027 C 
ATOM      3  C   UNL     1      46.497 -38.556  28.006  1.00  0.00     0.039 C 
ENDROOT
BRANCH   2   4
ATOM      4  C   UNL     1      44.941 -42.101  28.381  1.00  0.00     0.032 C 
BRANCH   4   5
ATOM      5  C   UNL     1      46.091 -42.968  28.905  1.00  0.00     0.034 C 
BRANCH   5   6
ATOM      6  C   UNL     1      46.151 -42.999  30.418  1.00  0.00    -0.077 C 
ATOM      7  C   UNL     1      45.049 -43.701  31.171  1.00  0.00     0.039 C 
ATOM      8  C   UNL     1      47.183 -42.492  31.138  1.00  0.00    -0.023 CG0
ATOM      9  G   UNL     1      48.368 -41.698  30.621  1.00  0.00     0.000 G0
ENDBRANCH   5   6
ENDBRANCH   4   5
ENDBRANCH   2   4
BRANCH   1  10
ATOM     10  C   UNL     1      45.562 -39.688  30.151  1.00  0.00     0.111 C 
BRANCH  10  11
ATOM     11  C   UNL     1      46.842 -39.617  30.949  1.00  0.00     0.163 C 
ATOM     12  O   UNL     1      46.783 -39.058  32.078  1.00  0.00    -0.294 OA
BRANCH  11  13
ATOM     13  C   UNL     1      48.150 -40.186  30.483  1.00  0.00    -0.002 C 
ATOM     14  C   UNL     1      49.175 -39.359  30.111  1.00  0.00    -0.069 C 
ATOM     15  C   UNL     1      50.573 -39.879  29.861  1.00  0.00     0.039 C 
ATOM     16  C   UNL     1      48.954 -37.881  29.881  1.00  0.00     0.039 C 
BRANCH  13  17
ATOM     17  C   UNL     1      48.357 -41.691  30.613  1.00  0.00     0.066 CG0
ATOM     18  G   UNL     1      47.178 -42.493  31.132  1.00  0.00     0.000 G0
ENDBRANCH  13  17
ENDBRANCH  11  13
ENDBRANCH  10  11
ENDBRANCH   1  10
TORSDOF 0
ENDMDL
MODEL 2
REMARK VINA RESULT:    -4.182      1.842      4.787
REMARK INTER + INTRA:          -5.047
REMARK INTER:                  -5.538
REMARK INTRA:                   0.491
REMARK UNBOUND:                 0.846
REMARK SMILES CC1=CCC(=C(C)C)C(=O)CC(C)=CCC1
REMARK SMILES IDX 12 1 14 2 13 3 15 4 16 5 2 6 1 7 3 8 11 10 9 11 10 12 5 13
REMARK SMILES IDX 6 14 7 15 8 16 4 17
REMARK H PARENT
REMARK Flexibility Score: 60.00
ROOT
ATOM      1  C   UNL     1      48.139 -42.023  31.361  1.00  0.00    -0.070 C 
ATOM      2  C   UNL     1      49.226 -41.227  31.487  1.00  0.00    -0.027 C 
ATOM      3  C   UNL     1      48.276 -43.292  30.560  1.00  0.00     0.039 C 
ENDROOT
BRANCH   2   4
ATOM      4  C   UNL     1      49.228 -39.861  32.125  1.00  0.00     0.032 C 
BRANCH   4   5
ATOM      5  C   UNL     1      48.116 -39.001  31.513  1.00  0.00     0.034 C 
BRANCH   5   6
ATOM      6  C   UNL     1      48.260 -38.849  30.013  1.00  0.00    -0.077 C 
ATOM      7  C   UNL     1      49.558 -38.317  29.460  1.00  0.00     0.039 C 
ATOM      8  C   UNL     1      47.308 -39.233  29.126  1.00  0.00    -0.023 CG0
ATOM      9  G   UNL     1      45.910 -39.739  29.433  1.00  0.00     0.000 G0
ENDBRANCH   5   6
ENDBRANCH   4   5
ENDBRANCH   2   4
BRANCH   1  10
ATOM     10  C   UNL     1      46.800 -41.713  32.002  1.00  0.00     0.111 C 
BRANCH  10  11
ATOM     11  C   UNL     1      45.668 -41.789  31.006  1.00  0.00     0.163 C 
ATOM     12  O   UNL     1      44.595 -42.324  31.397  1.00  0.00    -0.294 OA
BRANCH  11  13
ATOM     13  C   UNL     1      45.748 -41.250  29.607  1.00  0.00    -0.002 C 
ATOM     14  C   UNL     1      45.519 -42.066  28.534  1.00  0.00    -0.069 C 
ATOM     15  C   UNL     1      45.361 -41.521  27.132  1.00  0.00     0.039 C 
ATOM     16  C   UNL     1      45.461 -43.570  28.682  1.00  0.00     0.039 C 
BRANCH  13  17
ATOM     17  C   UNL     1      45.909 -39.744  29.434  1.00  0.00     0.066 CG0
ATOM     18  G   UNL     1      47.307 -39.245  29.122  1.00  0.00     0.000 G0
ENDBRANCH  13  17
ENDBRANCH  11  13
ENDBRANCH  10  11
ENDBRANCH   1  10
TORSDOF 0
ENDMDL
MODEL 3
REMARK VINA RESULT:    -4.176      1.635      2.383
REMARK INTER + INTRA:          -5.039
REMARK INTER:                  -6.129
REMARK INTRA:                   1.089
REMARK UNBOUND:                 0.846
REMARK SMILES CC1=CCC(=C(C)C)C(=O)CC(C)=CCC1
REMARK SMILES IDX 12 1 14 2 13 3 15 4 16 5 2 6 1 7 3 8 11 10 9 11 10 12 5 13
REMARK SMILES IDX 6 14 7 15 8 16 4 17
REMARK H PARENT
REMARK Flexibility Score: 60.00
ROOT
ATOM      1  C   UNL     1      46.422 -39.575  30.173  1.00  0.00    -0.070 C 
ATOM      2  C   UNL     1      45.448 -40.387  30.647  1.00  0.00    -0.027 C 
ATOM      3  C   UNL     1      46.215 -38.927  28.829  1.00  0.00     0.039 C 
ENDROOT
BRANCH   2   4
ATOM      4  C   UNL     1      45.552 -41.226  31.895  1.00  0.00     0.032 C 
BRANCH   4   5
ATOM      5  C   UNL     1      45.390 -42.708  31.540  1.00  0.00     0.034 C 
BRANCH   5   6
ATOM      6  C   UNL     1      46.226 -43.113  30.343  1.00  0.00    -0.077 C 
ATOM      7  C   UNL     1      45.535 -43.733  29.155  1.00  0.00     0.039 C 
ATOM      8  C   UNL     1      47.560 -42.882  30.248  1.00  0.00    -0.023 CG0
ATOM      9  G   UNL     1      48.480 -42.330  31.321  1.00  0.00     0.000 G0
ENDBRANCH   5   6
ENDBRANCH   4   5
ENDBRANCH   2   4
BRANCH   1  10
ATOM     10  C   UNL     1      47.696 -39.271  30.936  1.00  0.00     0.111 C 
BRANCH  10  11
ATOM     11  C   UNL     1      48.895 -39.959  30.327  1.00  0.00     0.163 C 
ATOM     12  O   UNL     1      49.440 -39.394  29.340  1.00  0.00    -0.294 OA
BRANCH  11  13
ATOM     13  C   UNL     1      49.470 -41.246  30.842  1.00  0.00    -0.002 C 
ATOM     14  C   UNL     1      50.817 -41.376  31.041  1.00  0.00    -0.069 C 
ATOM     15  C   UNL     1      51.409 -42.561  31.771  1.00  0.00     0.039 C 
ATOM     16  C   UNL     1      51.797 -40.362  30.496  1.00  0.00     0.039 C 
BRANCH  13  17
ATOM     17  C   UNL     1      48.496 -42.325  31.304  1.00  0.00     0.066 CG0
ATOM     18  G   UNL     1      47.565 -42.893  30.248  1.00  0.00     0.000 G0
ENDBRANCH  13  17
ENDBRANCH  11  13
ENDBRANCH  10  11
ENDBRANCH   1  10
TORSDOF 0
ENDMDL
MODEL 4
REMARK VINA RESULT:    -3.979      1.466      2.039
REMARK INTER + INTRA:          -4.761
REMARK INTER:                  -5.231
REMARK INTRA:                   0.470
REMARK UNBOUND:                 0.846
REMARK SMILES CC1=CCC(=C(C)C)C(=O)CC(C)=CCC1
REMARK SMILES IDX 12 1 14 2 13 3 15 4 16 5 2 6 1 7 3 8 11 10 9 11 10 12 5 13
REMARK SMILES IDX 6 14 7 15 8 16 4 17
REMARK H PARENT
REMARK Flexibility Score: 60.00
ROOT
ATOM      1  C   UNL     1      46.063 -40.045  28.502  1.00  0.00    -0.070 C 
ATOM      2  C   UNL     1      45.385 -41.112  28.020  1.00  0.00    -0.027 C 
ATOM      3  C   UNL     1      45.369 -38.707  28.511  1.00  0.00     0.039 C 
ENDROOT
BRANCH   2   4
ATOM      4  C   UNL     1      45.972 -42.483  27.803  1.00  0.00     0.032 C 
BRANCH   4   5
ATOM      5  C   UNL     1      45.021 -43.549  28.360  1.00  0.00     0.034 C 
BRANCH   5   6
ATOM      6  C   UNL     1      44.957 -43.534  29.874  1.00  0.00    -0.077 C 
ATOM      7  C   UNL     1      43.605 -43.590  30.541  1.00  0.00     0.039 C 
ATOM      8  C   UNL     1      46.055 -43.547  30.671  1.00  0.00    -0.023 CG0
ATOM      9  G   UNL     1      47.507 -43.439  30.245  1.00  0.00     0.000 G0
ENDBRANCH   5   6
ENDBRANCH   4   5
ENDBRANCH   2   4
BRANCH   1  10
ATOM     10  C   UNL     1      47.474 -40.132  29.051  1.00  0.00     0.111 C 
BRANCH  10  11
ATOM     11  C   UNL     1      47.516 -40.837  30.386  1.00  0.00     0.163 C 
ATOM     12  O   UNL     1      46.883 -40.303  31.337  1.00  0.00    -0.294 OA
BRANCH  11  13
ATOM     13  C   UNL     1      48.243 -42.128  30.626  1.00  0.00    -0.002 C 
ATOM     14  C   UNL     1      49.431 -42.141  31.303  1.00  0.00    -0.069 C 
ATOM     15  C   UNL     1      50.076 -43.429  31.767  1.00  0.00     0.039 C 
ATOM     16  C   UNL     1      50.195 -40.867  31.583  1.00  0.00     0.039 C 
BRANCH  13  17
ATOM     17  C   UNL     1      47.531 -43.425  30.257  1.00  0.00     0.066 CG0
ATOM     18  G   UNL     1      46.072 -43.533  30.660  1.00  0.00     0.000 G0
ENDBRANCH  13  17
ENDBRANCH  11  13
ENDBRANCH  10  11
ENDBRANCH   1  10
TORSDOF 0
ENDMDL
MODEL 5
REMARK VINA RESULT:    -3.913      1.903      4.318
REMARK INTER + INTRA:          -4.669
REMARK INTER:                  -5.768
REMARK INTRA:                   1.100
REMARK UNBOUND:                 0.846
REMARK SMILES CC1=CCC(=C(C)C)C(=O)CC(C)=CCC1
REMARK SMILES IDX 12 1 14 2 13 3 15 4 16 5 2 6 1 7 3 8 11 10 9 11 10 12 5 13
REMARK SMILES IDX 6 14 7 15 8 16 4 17
REMARK H PARENT
REMARK Flexibility Score: 60.00
ROOT
ATOM      1  C   UNL     1      46.714 -39.254  28.709  1.00  0.00    -0.070 C 
ATOM      2  C   UNL     1      47.517 -38.345  29.309  1.00  0.00    -0.027 C 
ATOM      3  C   UNL     1      45.404 -38.777  28.136  1.00  0.00     0.039 C 
ENDROOT
BRANCH   2   4
ATOM      4  C   UNL     1      48.783 -38.672  30.058  1.00  0.00     0.032 C 
BRANCH   4   5
ATOM      5  C   UNL     1      48.447 -39.061  31.502  1.00  0.00     0.034 C 
BRANCH   5   6
ATOM      6  C   UNL     1      48.588 -40.549  31.750  1.00  0.00    -0.077 C 
ATOM      7  C   UNL     1      49.954 -41.103  32.069  1.00  0.00     0.039 C 
ATOM      8  C   UNL     1      47.538 -41.408  31.772  1.00  0.00    -0.023 CG0
ATOM      9  G   UNL     1      46.090 -41.106  31.430  1.00  0.00     0.000 G0
ENDBRANCH   5   6
ENDBRANCH   4   5
ENDBRANCH   2   4
BRANCH   1  10
ATOM     10  C   UNL     1      47.074 -40.720  28.567  1.00  0.00     0.111 C 
BRANCH  10  11
ATOM     11  C   UNL     1      45.909 -41.621  28.899  1.00  0.00     0.163 C 
ATOM     12  O   UNL     1      45.292 -42.142  27.931  1.00  0.00    -0.294 OA
BRANCH  11  13
ATOM     13  C   UNL     1      45.472 -41.939  30.300  1.00  0.00    -0.002 C 
ATOM     14  C   UNL     1      44.687 -43.030  30.553  1.00  0.00    -0.069 C 
ATOM     15  C   UNL     1      44.419 -43.516  31.960  1.00  0.00     0.039 C 
ATOM     16  C   UNL     1      44.000 -43.785  29.437  1.00  0.00     0.039 C 
BRANCH  13  17
ATOM     17  C   UNL     1      46.077 -41.121  31.436  1.00  0.00     0.066 CG0
ATOM     18  G   UNL     1      47.529 -41.405  31.775  1.00  0.00     0.000 G0
ENDBRANCH  13  17
ENDBRANCH  11  13
ENDBRANCH  10  11
ENDBRANCH   1  10
TORSDOF 0
ENDMDL
MODEL 6
REMARK VINA RESULT:    -3.832      1.380      4.034
REMARK INTER + INTRA:          -4.554
REMARK INTER:                  -5.808
REMARK INTRA:                   1.254
REMARK UNBOUND:                 0.846
REMARK SMILES CC1=CCC(=C(C)C)C(=O)CC(C)=CCC1
REMARK SMILES IDX 12 1 14 2 13 3 15 4 16 5 2 6 1 7 3 8 11 10 9 11 10 12 5 13
REMARK SMILES IDX 6 14 7 15 8 16 4 17
REMARK H PARENT
REMARK Flexibility Score: 60.00
ROOT
ATOM      1  C   UNL     1      46.992 -39.219  29.770  1.00  0.00    -0.070 C 
ATOM      2  C   UNL     1      48.189 -38.966  29.192  1.00  0.00    -0.027 C 
ATOM      3  C   UNL     1      45.756 -39.125  28.913  1.00  0.00     0.039 C 
ENDROOT
BRANCH   2   4
ATOM      4  C   UNL     1      49.502 -38.872  29.928  1.00  0.00     0.032 C 
BRANCH   4   5
ATOM      5  C   UNL     1      50.281 -40.183  29.769  1.00  0.00     0.034 C 
BRANCH   5   6
ATOM      6  C   UNL     1      50.172 -41.074  30.990  1.00  0.00    -0.077 C 
ATOM      7  C   UNL     1      51.215 -40.948  32.072  1.00  0.00     0.039 C 
ATOM      8  C   UNL     1      49.144 -41.933  31.201  1.00  0.00    -0.023 CG0
ATOM      9  G   UNL     1      48.015 -42.276  30.246  1.00  0.00     0.000 G0
ENDBRANCH   5   6
ENDBRANCH   4   5
ENDBRANCH   2   4
BRANCH   1  10
ATOM     10  C   UNL     1      46.836 -39.612  31.226  1.00  0.00     0.111 C 
BRANCH  10  11
ATOM     11  C   UNL     1      46.098 -40.920  31.380  1.00  0.00     0.163 C 
ATOM     12  O   UNL     1      44.995 -40.888  31.991  1.00  0.00    -0.294 OA
BRANCH  11  13
ATOM     13  C   UNL     1      46.593 -42.228  30.834  1.00  0.00    -0.002 C 
ATOM     14  C   UNL     1      45.748 -43.297  30.718  1.00  0.00    -0.069 C 
ATOM     15  C   UNL     1      46.139 -44.550  29.965  1.00  0.00     0.039 C 
ATOM     16  C   UNL     1      44.389 -43.307  31.381  1.00  0.00     0.039 C 
BRANCH  13  17
ATOM     17  C   UNL     1      48.001 -42.268  30.250  1.00  0.00     0.066 CG0
ATOM     18  G   UNL     1      49.137 -41.947  31.204  1.00  0.00     0.000 G0
ENDBRANCH  13  17
ENDBRANCH  11  13
ENDBRANCH  10  11
ENDBRANCH   1  10
TORSDOF 0
ENDMDL
MODEL 7
REMARK VINA RESULT:    -3.779     12.714     14.818
REMARK INTER + INTRA:          -4.480
REMARK INTER:                  -4.865
REMARK INTRA:                   0.385
REMARK UNBOUND:                 0.846
REMARK SMILES CC1=CCC(=C(C)C)C(=O)CC(C)=CCC1
REMARK SMILES IDX 12 1 14 2 13 3 15 4 16 5 2 6 1 7 3 8 11 10 9 11 10 12 5 13
REMARK SMILES IDX 6 14 7 15 8 16 4 17
REMARK H PARENT
REMARK Flexibility Score: 60.00
ROOT
ATOM      1  C   UNL     1      51.761 -32.538  20.962  1.00  0.00    -0.070 C 
ATOM      2  C   UNL     1      51.578 -32.617  19.624  1.00  0.00    -0.027 C 
ATOM      3  C   UNL     1      51.027 -33.521  21.838  1.00  0.00     0.039 C 
ENDROOT
BRANCH   2   4
ATOM      4  C   UNL     1      52.115 -31.630  18.619  1.00  0.00     0.032 C 
BRANCH   4   5
ATOM      5  C   UNL     1      52.904 -32.371  17.533  1.00  0.00     0.034 C 
BRANCH   5   6
ATOM      6  C   UNL     1      54.402 -32.197  17.685  1.00  0.00    -0.077 C 
ATOM      7  C   UNL     1      55.125 -31.286  16.725  1.00  0.00     0.039 C 
ATOM      8  C   UNL     1      55.124 -32.761  18.685  1.00  0.00    -0.023 CG0
ATOM      9  G   UNL     1      54.641 -33.751  19.729  1.00  0.00     0.000 G0
ENDBRANCH   5   6
ENDBRANCH   4   5
ENDBRANCH   2   4
BRANCH   1  10
ATOM     10  C   UNL     1      52.681 -31.528  21.620  1.00  0.00     0.111 C 
BRANCH  10  11
ATOM     11  C   UNL     1      54.135 -31.896  21.450  1.00  0.00     0.163 C 
ATOM     12  O   UNL     1      54.979 -30.966  21.563  1.00  0.00    -0.294 OA
BRANCH  11  13
ATOM     13  C   UNL     1      54.618 -33.291  21.180  1.00  0.00    -0.002 C 
ATOM     14  C   UNL     1      54.864 -34.154  22.212  1.00  0.00    -0.069 C 
ATOM     15  C   UNL     1      55.125 -35.626  21.982  1.00  0.00     0.039 C 
ATOM     16  C   UNL     1      54.940 -33.673  23.643  1.00  0.00     0.039 C 
BRANCH  13  17
ATOM     17  C   UNL     1      54.646 -33.766  19.731  1.00  0.00     0.066 CG0
ATOM     18  G   UNL     1      55.109 -32.755  18.698  1.00  0.00     0.000 G0
ENDBRANCH  13  17
ENDBRANCH  11  13
ENDBRANCH  10  11
ENDBRANCH   1  10
TORSDOF 0
ENDMDL
MODEL 8
REMARK VINA RESULT:    -3.643      1.891      3.688
REMARK INTER + INTRA:          -4.288
REMARK INTER:                  -6.709
REMARK INTRA:                   2.421
REMARK UNBOUND:                 0.846
REMARK SMILES CC1=CCC(=C(C)C)C(=O)CC(C)=CCC1
REMARK SMILES IDX 12 1 14 2 13 3 15 4 16 5 2 6 1 7 3 8 11 10 9 11 10 12 5 13
REMARK SMILES IDX 6 14 7 15 8 16 4 17
REMARK H PARENT
REMARK Flexibility Score: 60.00
ROOT
ATOM      1  C   UNL     1      44.974 -43.195  28.747  1.00  0.00    -0.070 C 
ATOM      2  C   UNL     1      44.978 -42.368  27.676  1.00  0.00    -0.027 C 
ATOM      3  C   UNL     1      43.727 -43.996  29.021  1.00  0.00     0.039 C 
ENDROOT
BRANCH   2   4
ATOM      4  C   UNL     1      46.078 -41.393  27.341  1.00  0.00     0.032 C 
BRANCH   4   5
ATOM      5  C   UNL     1      46.685 -40.832  28.632  1.00  0.00     0.034 C 
BRANCH   5   6
ATOM      6  C   UNL     1      46.039 -39.529  29.058  1.00  0.00    -0.077 C 
ATOM      7  C   UNL     1      45.745 -38.489  28.007  1.00  0.00     0.039 C 
ATOM      8  C   UNL     1      45.640 -39.271  30.330  1.00  0.00    -0.023 CG0
ATOM      9  G   UNL     1      45.873 -40.126  31.562  1.00  0.00     0.000 G0
ENDBRANCH   5   6
ENDBRANCH   4   5
ENDBRANCH   2   4
BRANCH   1  10
ATOM     10  C   UNL     1      46.164 -43.370  29.670  1.00  0.00     0.111 C 
BRANCH  10  11
ATOM     11  C   UNL     1      45.967 -42.656  30.986  1.00  0.00     0.163 C 
ATOM     12  O   UNL     1      45.146 -43.166  31.797  1.00  0.00    -0.294 OA
BRANCH  11  13
ATOM     13  C   UNL     1      46.700 -41.407  31.377  1.00  0.00    -0.002 C 
ATOM     14  C   UNL     1      48.068 -41.380  31.396  1.00  0.00    -0.069 C 
ATOM     15  C   UNL     1      48.842 -40.091  31.556  1.00  0.00     0.039 C 
ATOM     16  C   UNL     1      48.884 -42.650  31.309  1.00  0.00     0.039 C 
BRANCH  13  17
ATOM     17  C   UNL     1      45.883 -40.134  31.570  1.00  0.00     0.066 CG0
ATOM     18  G   UNL     1      45.654 -39.284  30.334  1.00  0.00     0.000 G0
ENDBRANCH  13  17
ENDBRANCH  11  13
ENDBRANCH  10  11
ENDBRANCH   1  10
TORSDOF 0
ENDMDL
MODEL 9
REMARK VINA RESULT:    -3.417      1.952      4.847
REMARK INTER + INTRA:          -3.970
REMARK INTER:                  -5.477
REMARK INTRA:                   1.507
REMARK UNBOUND:                 0.846
REMARK SMILES CC1=CCC(=C(C)C)C(=O)CC(C)=CCC1
REMARK SMILES IDX 12 1 14 2 13 3 15 4 16 5 2 6 1 7 3 8 11 10 9 11 10 12 5 13
REMARK SMILES IDX 6 14 7 15 8 16 4 17
REMARK H PARENT
REMARK Flexibility Score: 60.00
ROOT
ATOM      1  C   UNL     1      49.962 -40.926  31.278  1.00  0.00    -0.070 C 
ATOM      2  C   UNL     1      50.210 -40.157  30.193  1.00  0.00    -0.027 C 
ATOM      3  C   UNL     1      51.135 -41.402  32.095  1.00  0.00     0.039 C 
ENDROOT
BRANCH   2   4
ATOM      4  C   UNL     1      49.175 -39.719  29.188  1.00  0.00     0.032 C 
BRANCH   4   5
ATOM      5  C   UNL     1      47.991 -39.069  29.913  1.00  0.00     0.034 C 
BRANCH   5   6
ATOM      6  C   UNL     1      46.694 -39.202  29.140  1.00  0.00    -0.077 C 
ATOM      7  C   UNL     1      46.453 -38.284  27.968  1.00  0.00     0.039 C 
ATOM      8  C   UNL     1      45.762 -40.154  29.398  1.00  0.00    -0.023 CG0
ATOM      9  G   UNL     1      45.750 -41.147  30.546  1.00  0.00     0.000 G0
ENDBRANCH   5   6
ENDBRANCH   4   5
ENDBRANCH   2   4
BRANCH   1  10
ATOM     10  C   UNL     1      48.565 -41.313  31.723  1.00  0.00     0.111 C 
BRANCH  10  11
ATOM     11  C   UNL     1      47.989 -42.420  30.872  1.00  0.00     0.163 C 
ATOM     12  O   UNL     1      48.739 -43.403  30.625  1.00  0.00    -0.294 OA
BRANCH  11  13
ATOM     13  C   UNL     1      46.588 -42.416  30.333  1.00  0.00    -0.002 C 
ATOM     14  C   UNL     1      46.035 -43.560  29.826  1.00  0.00    -0.069 C 
ATOM     15  C   UNL     1      44.564 -43.659  29.491  1.00  0.00     0.039 C 
ATOM     16  C   UNL     1      46.878 -44.779  29.525  1.00  0.00     0.039 C 
BRANCH  13  17
ATOM     17  C   UNL     1      45.751 -41.158  30.537  1.00  0.00     0.066 CG0
ATOM     18  G   UNL     1      45.750 -40.155  29.398  1.00  0.00     0.000 G0
ENDBRANCH  13  17
ENDBRANCH  11  13
ENDBRANCH  10  11
ENDBRANCH   1  10
TORSDOF 0
ENDMDL
