MODEL 1
REMARK VINA RESULT:    -4.353      0.000      0.000
REMARK INTER + INTRA:          -4.480
REMARK INTER:                  -4.480
REMARK INTRA:                   0.000
REMARK UNBOUND:                 0.000
REMARK SMILES Cc1ccccc1O
REMARK SMILES IDX 1 1 2 2 3 3 4 4 5 5 6 6 7 7 8 8
REMARK H PARENT 8 9
REMARK Flexibility Score: inf
ROOT
ATOM      1  C   UNL     1     -31.437 -18.923 -30.124  1.00  0.00     0.048 C 
ATOM      2  C   UNL     1     -30.324 -18.906 -31.133  1.00  0.00    -0.009 A 
ATOM      3  C   UNL     1     -30.613 -18.901 -32.508  1.00  0.00     0.007 A 
ATOM      4  C   UNL     1     -29.577 -18.885 -33.446  1.00  0.00     0.001 A 
ATOM      5  C   UNL     1     -28.248 -18.875 -33.021  1.00  0.00     0.004 A 
ATOM      6  C   UNL     1     -27.949 -18.880 -31.656  1.00  0.00     0.046 A 
ATOM      7  C   UNL     1     -28.982 -18.896 -30.707  1.00  0.00     0.118 A 
ENDROOT
BRANCH   7   8
ATOM      8  O   UNL     1     -28.680 -18.902 -29.346  1.00  0.00    -0.508 OA
ATOM      9  H   UNL     1     -29.384 -18.702 -28.645  1.00  0.00     0.293 HD
ENDBRANCH   7   8
TORSDOF 1
ENDMDL
MODEL 2
REMARK VINA RESULT:    -4.302      2.179      2.999
REMARK INTER + INTRA:          -4.428
REMARK INTER:                  -4.428
REMARK INTRA:                   0.000
REMARK UNBOUND:                 0.000
REMARK SMILES Cc1ccccc1O
REMARK SMILES IDX 1 1 2 2 3 3 4 4 5 5 6 6 7 7 8 8
REMARK H PARENT 8 9
REMARK Flexibility Score: inf
ROOT
ATOM      1  C   UNL     1     -31.181 -21.126 -33.497  1.00  0.00     0.048 C 
ATOM      2  C   UNL     1     -30.381 -20.342 -32.496  1.00  0.00    -0.009 A 
ATOM      3  C   UNL     1     -30.752 -20.336 -31.140  1.00  0.00     0.007 A 
ATOM      4  C   UNL     1     -30.009 -19.606 -30.209  1.00  0.00     0.001 A 
ATOM      5  C   UNL     1     -28.892 -18.877 -30.621  1.00  0.00     0.004 A 
ATOM      6  C   UNL     1     -28.515 -18.875 -31.966  1.00  0.00     0.046 A 
ATOM      7  C   UNL     1     -29.254 -19.604 -32.909  1.00  0.00     0.118 A 
ENDROOT
BRANCH   7   8
ATOM      8  O   UNL     1     -28.875 -19.600 -34.251  1.00  0.00    -0.508 OA
ATOM      9  H   UNL     1     -29.511 -19.302 -34.981  1.00  0.00     0.293 HD
ENDBRANCH   7   8
TORSDOF 1
ENDMDL
MODEL 3
REMARK VINA RESULT:    -4.060      0.837      2.685
REMARK INTER + INTRA:          -4.178
REMARK INTER:                  -4.178
REMARK INTRA:                   0.000
REMARK UNBOUND:                 0.000
REMARK SMILES Cc1ccccc1O
REMARK SMILES IDX 1 1 2 2 3 3 4 4 5 5 6 6 7 7 8 8
REMARK H PARENT 8 9
REMARK Flexibility Score: inf
ROOT
ATOM      1  C   UNL     1     -28.127 -19.053 -32.348  1.00  0.00     0.048 C 
ATOM      2  C   UNL     1     -29.543 -19.026 -31.847  1.00  0.00    -0.009 A 
ATOM      3  C   UNL     1     -30.617 -19.060 -32.753  1.00  0.00     0.007 A 
ATOM      4  C   UNL     1     -31.934 -19.034 -32.287  1.00  0.00     0.001 A 
ATOM      5  C   UNL     1     -32.191 -18.974 -30.916  1.00  0.00     0.004 A 
ATOM      6  C   UNL     1     -31.131 -18.940 -30.006  1.00  0.00     0.046 A 
ATOM      7  C   UNL     1     -29.805 -18.965 -30.464  1.00  0.00     0.118 A 
ENDROOT
BRANCH   7   8
ATOM      8  O   UNL     1     -28.750 -18.931 -29.553  1.00  0.00    -0.508 OA
ATOM      9  H   UNL     1     -28.661 -18.185 -28.872  1.00  0.00     0.293 HD
ENDBRANCH   7   8
TORSDOF 1
ENDMDL
MODEL 4
REMARK VINA RESULT:    -3.839      2.216      3.614
REMARK INTER + INTRA:          -3.951
REMARK INTER:                  -3.951
REMARK INTRA:                   0.000
REMARK UNBOUND:                 0.000
REMARK SMILES Cc1ccccc1O
REMARK SMILES IDX 1 1 2 2 3 3 4 4 5 5 6 6 7 7 8 8
REMARK H PARENT 8 9
REMARK Flexibility Score: inf
ROOT
ATOM      1  C   UNL     1     -27.736 -18.875 -33.029  1.00  0.00     0.048 C 
ATOM      2  C   UNL     1     -28.907 -19.404 -32.250  1.00  0.00    -0.009 A 
ATOM      3  C   UNL     1     -29.106 -19.011 -30.915  1.00  0.00     0.007 A 
ATOM      4  C   UNL     1     -30.194 -19.503 -30.190  1.00  0.00     0.001 A 
ATOM      5  C   UNL     1     -31.091 -20.390 -30.789  1.00  0.00     0.004 A 
ATOM      6  C   UNL     1     -30.902 -20.787 -32.115  1.00  0.00     0.046 A 
ATOM      7  C   UNL     1     -29.813 -20.299 -32.851  1.00  0.00     0.118 A 
ENDROOT
BRANCH   7   8
ATOM      8  O   UNL     1     -29.628 -20.698 -34.174  1.00  0.00    -0.508 OA
ATOM      9  H   UNL     1     -28.740 -20.573 -34.647  1.00  0.00     0.293 HD
ENDBRANCH   7   8
TORSDOF 1
ENDMDL
MODEL 5
REMARK VINA RESULT:    -3.808     22.480     23.399
REMARK INTER + INTRA:          -3.919
REMARK INTER:                  -3.919
REMARK INTRA:                   0.000
REMARK UNBOUND:                 0.000
REMARK SMILES Cc1ccccc1O
REMARK SMILES IDX 1 1 2 2 3 3 4 4 5 5 6 6 7 7 8 8
REMARK H PARENT 8 9
REMARK Flexibility Score: inf
ROOT
ATOM      1  C   UNL     1     -16.180 -35.941 -39.125  1.00  0.00     0.048 C 
ATOM      2  C   UNL     1     -17.316 -36.880 -38.830  1.00  0.00    -0.009 A 
ATOM      3  C   UNL     1     -18.630 -36.394 -38.726  1.00  0.00     0.007 A 
ATOM      4  C   UNL     1     -19.685 -37.267 -38.451  1.00  0.00     0.001 A 
ATOM      5  C   UNL     1     -19.439 -38.631 -38.278  1.00  0.00     0.004 A 
ATOM      6  C   UNL     1     -18.136 -39.125 -38.379  1.00  0.00     0.046 A 
ATOM      7  C   UNL     1     -17.070 -38.256 -38.654  1.00  0.00     0.118 A 
ENDROOT
BRANCH   7   8
ATOM      8  O   UNL     1     -15.771 -38.753 -38.754  1.00  0.00    -0.508 OA
ATOM      9  H   UNL     1     -15.211 -38.945 -37.931  1.00  0.00     0.293 HD
ENDBRANCH   7   8
TORSDOF 1
ENDMDL
MODEL 6
REMARK VINA RESULT:    -3.774      1.780      2.458
REMARK INTER + INTRA:          -3.885
REMARK INTER:                  -3.885
REMARK INTRA:                   0.000
REMARK UNBOUND:                 0.000
REMARK SMILES Cc1ccccc1O
REMARK SMILES IDX 1 1 2 2 3 3 4 4 5 5 6 6 7 7 8 8
REMARK H PARENT 8 9
REMARK Flexibility Score: inf
ROOT
ATOM      1  C   UNL     1     -31.800 -19.303 -30.243  1.00  0.00     0.048 C 
ATOM      2  C   UNL     1     -30.521 -19.156 -31.017  1.00  0.00    -0.009 A 
ATOM      3  C   UNL     1     -29.296 -19.015 -30.342  1.00  0.00     0.007 A 
ATOM      4  C   UNL     1     -28.106 -18.878 -31.061  1.00  0.00     0.001 A 
ATOM      5  C   UNL     1     -28.128 -18.879 -32.457  1.00  0.00     0.004 A 
ATOM      6  C   UNL     1     -29.340 -19.019 -33.139  1.00  0.00     0.046 A 
ATOM      7  C   UNL     1     -30.540 -19.157 -32.425  1.00  0.00     0.118 A 
ENDROOT
BRANCH   7   8
ATOM      8  O   UNL     1     -31.747 -19.296 -33.109  1.00  0.00    -0.508 OA
ATOM      9  H   UNL     1     -32.330 -20.117 -32.995  1.00  0.00     0.293 HD
ENDBRANCH   7   8
TORSDOF 1
ENDMDL
MODEL 7
REMARK VINA RESULT:    -3.753      2.346      2.495
REMARK INTER + INTRA:          -3.863
REMARK INTER:                  -3.863
REMARK INTRA:                   0.000
REMARK UNBOUND:                 0.000
REMARK SMILES Cc1ccccc1O
REMARK SMILES IDX 1 1 2 2 3 3 4 4 5 5 6 6 7 7 8 8
REMARK H PARENT 8 9
REMARK Flexibility Score: inf
ROOT
ATOM      1  C   UNL     1     -32.566 -19.225 -29.007  1.00  0.00     0.048 C 
ATOM      2  C   UNL     1     -31.904 -19.587 -30.307  1.00  0.00    -0.009 A 
ATOM      3  C   UNL     1     -32.209 -18.877 -31.480  1.00  0.00     0.007 A 
ATOM      4  C   UNL     1     -31.593 -19.214 -32.689  1.00  0.00     0.001 A 
ATOM      5  C   UNL     1     -30.671 -20.260 -32.737  1.00  0.00     0.004 A 
ATOM      6  C   UNL     1     -30.360 -20.973 -31.576  1.00  0.00     0.046 A 
ATOM      7  C   UNL     1     -30.973 -20.643 -30.358  1.00  0.00     0.118 A 
ENDROOT
BRANCH   7   8
ATOM      8  O   UNL     1     -30.660 -21.357 -29.202  1.00  0.00    -0.508 OA
ATOM      9  H   UNL     1     -30.318 -20.893 -28.368  1.00  0.00     0.293 HD
ENDBRANCH   7   8
TORSDOF 1
ENDMDL
MODEL 8
REMARK VINA RESULT:    -3.543      6.838      7.508
REMARK INTER + INTRA:          -3.646
REMARK INTER:                  -3.646
REMARK INTRA:                   0.000
REMARK UNBOUND:                 0.000
REMARK SMILES Cc1ccccc1O
REMARK SMILES IDX 1 1 2 2 3 3 4 4 5 5 6 6 7 7 8 8
REMARK H PARENT 8 9
REMARK Flexibility Score: inf
ROOT
ATOM      1  C   UNL     1     -34.125 -20.682 -35.993  1.00  0.00     0.048 C 
ATOM      2  C   UNL     1     -33.365 -21.681 -36.819  1.00  0.00    -0.009 A 
ATOM      3  C   UNL     1     -33.201 -21.481 -38.200  1.00  0.00     0.007 A 
ATOM      4  C   UNL     1     -32.494 -22.410 -38.968  1.00  0.00     0.001 A 
ATOM      5  C   UNL     1     -31.948 -23.545 -38.366  1.00  0.00     0.004 A 
ATOM      6  C   UNL     1     -32.105 -23.754 -36.994  1.00  0.00     0.046 A 
ATOM      7  C   UNL     1     -32.813 -22.827 -36.214  1.00  0.00     0.118 A 
ENDROOT
BRANCH   7   8
ATOM      8  O   UNL     1     -32.968 -23.039 -34.845  1.00  0.00    -0.508 OA
ATOM      9  H   UNL     1     -33.850 -23.349 -34.453  1.00  0.00     0.293 HD
ENDBRANCH   7   8
TORSDOF 1
ENDMDL
