MODEL 1
REMARK VINA RESULT:    -4.009      0.000      0.000
REMARK INTER + INTRA:          -4.671
REMARK INTER:                  -4.594
REMARK INTRA:                  -0.077
REMARK UNBOUND:                -0.077
REMARK SMILES COc1cc(C(=O)[O-])ccc1O
REMARK SMILES IDX 5 1 9 2 4 3 10 4 3 5 11 6 6 7 7 8 8 9 2 10 1 11 12 12
REMARK H PARENT 12 13
REMARK Flexibility Score: inf
ROOT
ATOM      1  C   UNL     1     -34.544  -3.645  14.203  1.00  0.00     0.001 A 
ATOM      2  C   UNL     1     -33.212  -3.952  13.882  1.00  0.00     0.014 A 
ATOM      3  C   UNL     1     -35.569  -4.494  13.746  1.00  0.00     0.060 A 
ATOM      4  C   UNL     1     -32.910  -5.081  13.121  1.00  0.00     0.051 A 
ATOM      5  C   UNL     1     -35.270  -5.636  12.977  1.00  0.00     0.161 A 
ATOM      6  C   UNL     1     -33.928  -5.924  12.667  1.00  0.00     0.157 A 
ENDROOT
BRANCH   1   7
ATOM      7  C   UNL     1     -34.859  -2.445  15.010  1.00  0.00     0.072 C 
ATOM      8  O   UNL     1     -35.775  -1.657  14.656  1.00  0.00    -0.545 OA
ATOM      9  O   UNL     1     -34.147  -2.171  16.172  1.00  0.00    -0.545 OA
ENDBRANCH   1   7
BRANCH   5  10
ATOM     10  O   UNL     1     -36.271  -6.501  12.507  1.00  0.00    -0.493 OA
ATOM     11  C   UNL     1     -37.618  -6.506  12.971  1.00  0.00     0.278 C 
ENDBRANCH   5  10
BRANCH   6  12
ATOM     12  O   UNL     1     -33.587  -7.044  11.909  1.00  0.00    -0.504 OA
ATOM     13  H   UNL     1     -32.998  -6.981  11.088  1.00  0.00     0.293 HD
ENDBRANCH   6  12
TORSDOF 3
ENDMDL
MODEL 2
REMARK VINA RESULT:    -3.888      1.344      4.266
REMARK INTER + INTRA:          -4.533
REMARK INTER:                  -4.454
REMARK INTRA:                  -0.079
REMARK UNBOUND:                -0.077
REMARK SMILES COc1cc(C(=O)[O-])ccc1O
REMARK SMILES IDX 5 1 9 2 4 3 10 4 3 5 11 6 6 7 7 8 8 9 2 10 1 11 12 12
REMARK H PARENT 12 13
REMARK Flexibility Score: inf
ROOT
ATOM      1  C   UNL     1     -35.035  -5.116  13.762  1.00  0.00     0.001 A 
ATOM      2  C   UNL     1     -33.816  -5.162  13.069  1.00  0.00     0.014 A 
ATOM      3  C   UNL     1     -35.247  -4.093  14.705  1.00  0.00     0.060 A 
ATOM      4  C   UNL     1     -32.828  -4.207  13.311  1.00  0.00     0.051 A 
ATOM      5  C   UNL     1     -34.253  -3.125  14.954  1.00  0.00     0.161 A 
ATOM      6  C   UNL     1     -33.038  -3.191  14.248  1.00  0.00     0.157 A 
ENDROOT
BRANCH   1   7
ATOM      7  C   UNL     1     -36.080  -6.131  13.500  1.00  0.00     0.072 C 
ATOM      8  O   UNL     1     -36.534  -6.839  14.438  1.00  0.00    -0.545 OA
ATOM      9  O   UNL     1     -36.574  -6.318  12.215  1.00  0.00    -0.545 OA
ENDBRANCH   1   7
BRANCH   5  10
ATOM     10  O   UNL     1     -34.436  -2.094  15.889  1.00  0.00    -0.493 OA
ATOM     11  C   UNL     1     -35.669  -1.419  16.118  1.00  0.00     0.278 C 
ENDBRANCH   5  10
BRANCH   6  12
ATOM     12  O   UNL     1     -32.027  -2.254  14.463  1.00  0.00    -0.504 OA
ATOM     13  H   UNL     1     -31.400  -2.310  15.256  1.00  0.00     0.293 HD
ENDBRANCH   6  12
TORSDOF 3
ENDMDL
MODEL 3
REMARK VINA RESULT:    -3.838      1.510      4.231
REMARK INTER + INTRA:          -4.476
REMARK INTER:                  -4.376
REMARK INTRA:                  -0.099
REMARK UNBOUND:                -0.077
REMARK SMILES COc1cc(C(=O)[O-])ccc1O
REMARK SMILES IDX 5 1 9 2 4 3 10 4 3 5 11 6 6 7 7 8 8 9 2 10 1 11 12 12
REMARK H PARENT 12 13
REMARK Flexibility Score: inf
ROOT
ATOM      1  C   UNL     1     -34.647  -4.997  12.852  1.00  0.00     0.001 A 
ATOM      2  C   UNL     1     -33.695  -4.304  13.617  1.00  0.00     0.014 A 
ATOM      3  C   UNL     1     -35.965  -4.507  12.797  1.00  0.00     0.060 A 
ATOM      4  C   UNL     1     -34.051  -3.148  14.312  1.00  0.00     0.051 A 
ATOM      5  C   UNL     1     -36.331  -3.340  13.497  1.00  0.00     0.161 A 
ATOM      6  C   UNL     1     -35.360  -2.662  14.257  1.00  0.00     0.157 A 
ENDROOT
BRANCH   1   7
ATOM      7  C   UNL     1     -34.264  -6.223  12.117  1.00  0.00     0.072 C 
ATOM      8  O   UNL     1     -33.276  -6.910  12.488  1.00  0.00    -0.545 OA
ATOM      9  O   UNL     1     -34.990  -6.634  11.005  1.00  0.00    -0.545 OA
ENDBRANCH   1   7
BRANCH   5  10
ATOM     10  O   UNL     1     -37.638  -2.829  13.460  1.00  0.00    -0.493 OA
ATOM     11  C   UNL     1     -38.770  -3.457  14.053  1.00  0.00     0.278 C 
ENDBRANCH   5  10
BRANCH   6  12
ATOM     12  O   UNL     1     -35.679  -1.503  14.965  1.00  0.00    -0.504 OA
ATOM     13  H   UNL     1     -35.920  -0.637  14.500  1.00  0.00     0.293 HD
ENDBRANCH   6  12
TORSDOF 3
ENDMDL
MODEL 4
REMARK VINA RESULT:    -3.801      3.451      5.026
REMARK INTER + INTRA:          -4.434
REMARK INTER:                  -4.351
REMARK INTRA:                  -0.083
REMARK UNBOUND:                -0.077
REMARK SMILES COc1cc(C(=O)[O-])ccc1O
REMARK SMILES IDX 5 1 9 2 4 3 10 4 3 5 11 6 6 7 7 8 8 9 2 10 1 11 12 12
REMARK H PARENT 12 13
REMARK Flexibility Score: inf
ROOT
ATOM      1  C   UNL     1     -38.140  -3.755  16.118  1.00  0.00     0.001 A 
ATOM      2  C   UNL     1     -39.124  -3.897  15.127  1.00  0.00     0.014 A 
ATOM      3  C   UNL     1     -36.903  -3.180  15.773  1.00  0.00     0.060 A 
ATOM      4  C   UNL     1     -38.879  -3.474  13.820  1.00  0.00     0.051 A 
ATOM      5  C   UNL     1     -36.649  -2.751  14.455  1.00  0.00     0.161 A 
ATOM      6  C   UNL     1     -37.650  -2.903  13.478  1.00  0.00     0.157 A 
ENDROOT
BRANCH   1   7
ATOM      7  C   UNL     1     -38.405  -4.205  17.502  1.00  0.00     0.072 C 
ATOM      8  O   UNL     1     -37.984  -5.321  17.905  1.00  0.00    -0.545 OA
ATOM      9  O   UNL     1     -39.125  -3.400  18.379  1.00  0.00    -0.545 OA
ENDBRANCH   1   7
BRANCH   5  10
ATOM     10  O   UNL     1     -35.425  -2.174  14.082  1.00  0.00    -0.493 OA
ATOM     11  C   UNL     1     -34.147  -2.745  14.348  1.00  0.00     0.278 C 
ENDBRANCH   5  10
BRANCH   6  12
ATOM     12  O   UNL     1     -37.442  -2.492  12.162  1.00  0.00    -0.504 OA
ATOM     13  H   UNL     1     -36.550  -2.606  11.696  1.00  0.00     0.293 HD
ENDBRANCH   6  12
TORSDOF 3
ENDMDL
MODEL 5
REMARK VINA RESULT:    -3.746      3.404      4.557
REMARK INTER + INTRA:          -4.370
REMARK INTER:                  -4.267
REMARK INTRA:                  -0.103
REMARK UNBOUND:                -0.077
REMARK SMILES COc1cc(C(=O)[O-])ccc1O
REMARK SMILES IDX 5 1 9 2 4 3 10 4 3 5 11 6 6 7 7 8 8 9 2 10 1 11 12 12
REMARK H PARENT 12 13
REMARK Flexibility Score: inf
ROOT
ATOM      1  C   UNL     1     -38.176  -4.618  16.255  1.00  0.00     0.001 A 
ATOM      2  C   UNL     1     -39.113  -3.857  15.539  1.00  0.00     0.014 A 
ATOM      3  C   UNL     1     -37.249  -5.403  15.546  1.00  0.00     0.060 A 
ATOM      4  C   UNL     1     -39.124  -3.879  14.144  1.00  0.00     0.051 A 
ATOM      5  C   UNL     1     -37.255  -5.430  14.137  1.00  0.00     0.161 A 
ATOM      6  C   UNL     1     -38.203  -4.660  13.440  1.00  0.00     0.157 A 
ENDROOT
BRANCH   1   7
ATOM      7  C   UNL     1     -38.169  -4.590  17.735  1.00  0.00     0.072 C 
ATOM      8  O   UNL     1     -37.558  -5.475  18.390  1.00  0.00    -0.545 OA
ATOM      9  O   UNL     1     -38.838  -3.584  18.424  1.00  0.00    -0.545 OA
ENDBRANCH   1   7
BRANCH   5  10
ATOM     10  O   UNL     1     -36.342  -6.204  13.404  1.00  0.00    -0.493 OA
ATOM     11  C   UNL     1     -34.994  -5.830  13.138  1.00  0.00     0.278 C 
ENDBRANCH   5  10
BRANCH   6  12
ATOM     12  O   UNL     1     -38.245  -4.657  12.045  1.00  0.00    -0.504 OA
ATOM     13  H   UNL     1     -39.106  -4.799  11.531  1.00  0.00     0.293 HD
ENDBRANCH   6  12
TORSDOF 3
ENDMDL
MODEL 6
REMARK VINA RESULT:    -3.728      1.766      2.198
REMARK INTER + INTRA:          -4.350
REMARK INTER:                  -4.274
REMARK INTRA:                  -0.075
REMARK UNBOUND:                -0.077
REMARK SMILES COc1cc(C(=O)[O-])ccc1O
REMARK SMILES IDX 5 1 9 2 4 3 10 4 3 5 11 6 6 7 7 8 8 9 2 10 1 11 12 12
REMARK H PARENT 12 13
REMARK Flexibility Score: inf
ROOT
ATOM      1  C   UNL     1     -33.965  -4.122  13.854  1.00  0.00     0.001 A 
ATOM      2  C   UNL     1     -33.449  -5.132  13.027  1.00  0.00     0.014 A 
ATOM      3  C   UNL     1     -35.355  -3.906  13.882  1.00  0.00     0.060 A 
ATOM      4  C   UNL     1     -34.302  -5.910  12.244  1.00  0.00     0.051 A 
ATOM      5  C   UNL     1     -36.222  -4.689  13.093  1.00  0.00     0.161 A 
ATOM      6  C   UNL     1     -35.683  -5.695  12.272  1.00  0.00     0.157 A 
ENDROOT
BRANCH   1   7
ATOM      7  C   UNL     1     -33.055  -3.299  14.682  1.00  0.00     0.072 C 
ATOM      8  O   UNL     1     -32.333  -2.413  14.154  1.00  0.00    -0.545 OA
ATOM      9  O   UNL     1     -32.985  -3.494  16.057  1.00  0.00    -0.545 OA
ENDBRANCH   1   7
BRANCH   5  10
ATOM     10  O   UNL     1     -37.613  -4.496  13.101  1.00  0.00    -0.493 OA
ATOM     11  C   UNL     1     -38.257  -3.261  13.398  1.00  0.00     0.278 C 
ENDBRANCH   5  10
BRANCH   6  12
ATOM     12  O   UNL     1     -36.504  -6.493  11.476  1.00  0.00    -0.504 OA
ATOM     13  H   UNL     1     -36.913  -7.356  11.816  1.00  0.00     0.293 HD
ENDBRANCH   6  12
TORSDOF 3
ENDMDL
MODEL 7
REMARK VINA RESULT:    -3.713      1.277      4.950
REMARK INTER + INTRA:          -4.333
REMARK INTER:                  -4.230
REMARK INTRA:                  -0.102
REMARK UNBOUND:                -0.077
REMARK SMILES COc1cc(C(=O)[O-])ccc1O
REMARK SMILES IDX 5 1 9 2 4 3 10 4 3 5 11 6 6 7 7 8 8 9 2 10 1 11 12 12
REMARK H PARENT 12 13
REMARK Flexibility Score: inf
ROOT
ATOM      1  C   UNL     1     -34.720  -4.965  13.003  1.00  0.00     0.001 A 
ATOM      2  C   UNL     1     -36.014  -4.427  13.080  1.00  0.00     0.014 A 
ATOM      3  C   UNL     1     -33.674  -4.329  13.697  1.00  0.00     0.060 A 
ATOM      4  C   UNL     1     -36.258  -3.277  13.832  1.00  0.00     0.051 A 
ATOM      5  C   UNL     1     -33.914  -3.168  14.459  1.00  0.00     0.161 A 
ATOM      6  C   UNL     1     -35.219  -2.646  14.521  1.00  0.00     0.157 A 
ENDROOT
BRANCH   1   7
ATOM      7  C   UNL     1     -34.466  -6.184  12.203  1.00  0.00     0.072 C 
ATOM      8  O   UNL     1     -33.431  -6.874  12.398  1.00  0.00    -0.545 OA
ATOM      9  O   UNL     1     -35.369  -6.586  11.225  1.00  0.00    -0.545 OA
ENDBRANCH   1   7
BRANCH   5  10
ATOM     10  O   UNL     1     -32.890  -2.514  15.161  1.00  0.00    -0.493 OA
ATOM     11  C   UNL     1     -32.428  -2.889  16.455  1.00  0.00     0.278 C 
ENDBRANCH   5  10
BRANCH   6  12
ATOM     12  O   UNL     1     -35.502  -1.500  15.263  1.00  0.00    -0.504 OA
ATOM     13  H   UNL     1     -36.290  -1.448  15.897  1.00  0.00     0.293 HD
ENDBRANCH   6  12
TORSDOF 3
ENDMDL
MODEL 8
REMARK VINA RESULT:    -3.706      3.095      5.332
REMARK INTER + INTRA:          -4.324
REMARK INTER:                  -4.234
REMARK INTRA:                  -0.090
REMARK UNBOUND:                -0.077
REMARK SMILES COc1cc(C(=O)[O-])ccc1O
REMARK SMILES IDX 5 1 9 2 4 3 10 4 3 5 11 6 6 7 7 8 8 9 2 10 1 11 12 12
REMARK H PARENT 12 13
REMARK Flexibility Score: inf
ROOT
ATOM      1  C   UNL     1     -38.241  -3.102  13.155  1.00  0.00     0.001 A 
ATOM      2  C   UNL     1     -39.061  -3.703  14.123  1.00  0.00     0.014 A 
ATOM      3  C   UNL     1     -36.958  -2.661  13.528  1.00  0.00     0.060 A 
ATOM      4  C   UNL     1     -38.612  -3.859  15.434  1.00  0.00     0.051 A 
ATOM      5  C   UNL     1     -36.498  -2.815  14.851  1.00  0.00     0.161 A 
ATOM      6  C   UNL     1     -37.338  -3.419  15.804  1.00  0.00     0.157 A 
ENDROOT
BRANCH   1   7
ATOM      7  C   UNL     1     -38.723  -2.940  11.766  1.00  0.00     0.072 C 
ATOM      8  O   UNL     1     -39.122  -3.936  11.105  1.00  0.00    -0.545 OA
ATOM      9  O   UNL     1     -38.743  -1.684  11.169  1.00  0.00    -0.545 OA
ENDBRANCH   1   7
BRANCH   5  10
ATOM     10  O   UNL     1     -35.223  -2.384  15.251  1.00  0.00    -0.493 OA
ATOM     11  C   UNL     1     -33.999  -2.846  14.688  1.00  0.00     0.278 C 
ENDBRANCH   5  10
BRANCH   6  12
ATOM     12  O   UNL     1     -36.923  -3.593  17.124  1.00  0.00    -0.504 OA
ATOM     13  H   UNL     1     -36.867  -2.821  17.778  1.00  0.00     0.293 HD
ENDBRANCH   6  12
TORSDOF 3
ENDMDL
MODEL 9
REMARK VINA RESULT:    -3.664      3.834      4.997
REMARK INTER + INTRA:          -4.276
REMARK INTER:                  -4.196
REMARK INTRA:                  -0.081
REMARK UNBOUND:                -0.077
REMARK SMILES COc1cc(C(=O)[O-])ccc1O
REMARK SMILES IDX 5 1 9 2 4 3 10 4 3 5 11 6 6 7 7 8 8 9 2 10 1 11 12 12
REMARK H PARENT 12 13
REMARK Flexibility Score: inf
ROOT
ATOM      1  C   UNL     1     -37.332  -5.515  17.023  1.00  0.00     0.001 A 
ATOM      2  C   UNL     1     -38.422  -4.637  17.129  1.00  0.00     0.014 A 
ATOM      3  C   UNL     1     -36.674  -5.638  15.785  1.00  0.00     0.060 A 
ATOM      4  C   UNL     1     -38.847  -3.899  16.024  1.00  0.00     0.051 A 
ATOM      5  C   UNL     1     -37.098  -4.896  14.665  1.00  0.00     0.161 A 
ATOM      6  C   UNL     1     -38.194  -4.023  14.795  1.00  0.00     0.157 A 
ENDROOT
BRANCH   1   7
ATOM      7  C   UNL     1     -36.886  -6.295  18.198  1.00  0.00     0.072 C 
ATOM      8  O   UNL     1     -37.395  -6.093  19.332  1.00  0.00    -0.545 OA
ATOM      9  O   UNL     1     -35.896  -7.262  18.068  1.00  0.00    -0.545 OA
ENDBRANCH   1   7
BRANCH   5  10
ATOM     10  O   UNL     1     -36.461  -4.999  13.419  1.00  0.00    -0.493 OA
ATOM     11  C   UNL     1     -35.397  -5.901  13.126  1.00  0.00     0.278 C 
ENDBRANCH   5  10
BRANCH   6  12
ATOM     12  O   UNL     1     -38.647  -3.269  13.713  1.00  0.00    -0.504 OA
ATOM     13  H   UNL     1     -38.343  -3.450  12.764  1.00  0.00     0.293 HD
ENDBRANCH   6  12
TORSDOF 3
ENDMDL
