MODEL 1
REMARK VINA RESULT:    -4.308      0.000      0.000
REMARK INTER + INTRA:          -6.042
REMARK INTER:                  -5.820
REMARK INTRA:                  -0.223
REMARK UNBOUND:                -0.223
REMARK SMILES [NH3+]CCCC[C@H]([NH3+])C(=O)[O-]
REMARK SMILES IDX 4 1 3 2 2 3 1 4 5 8 6 9 7 10 8 14 9 15 10 16
REMARK H PARENT 1 5 1 6 1 7 7 11 7 12 7 13
REMARK Flexibility Score: inf
ROOT
ATOM      1  C   UNL     1      68.168  25.608  35.407  1.00  0.00     0.012 C 
ENDROOT
BRANCH   1   2
ATOM      2  C   UNL     1      69.125  24.650  36.134  1.00  0.00     0.061 C 
BRANCH   2   3
ATOM      3  C   UNL     1      68.723  23.176  35.972  1.00  0.00     0.258 C 
BRANCH   3   4
ATOM      4  N   UNL     1      67.438  22.912  36.619  1.00  0.00    -0.358 N 
ATOM      5  H   UNL     1      67.009  22.042  36.227  1.00  0.00     0.344 HD
ATOM      6  H   UNL     1      66.790  23.722  36.477  1.00  0.00     0.344 HD
ATOM      7  H   UNL     1      67.592  22.780  37.645  1.00  0.00     0.344 HD
ENDBRANCH   3   4
ENDBRANCH   2   3
ENDBRANCH   1   2
BRANCH   1   8
ATOM      8  C   UNL     1      67.519  26.631  36.357  1.00  0.00     0.072 C 
BRANCH   8   9
ATOM      9  C   UNL     1      66.200  27.200  35.787  1.00  0.00     0.227 C 
BRANCH   9  10
ATOM     10  N   UNL     1      66.121  28.646  36.022  1.00  0.00    -0.350 N 
ATOM     11  H   UNL     1      65.155  28.988  35.810  1.00  0.00     0.345 HD
ATOM     12  H   UNL     1      66.328  28.854  37.026  1.00  0.00     0.345 HD
ATOM     13  H   UNL     1      66.805  29.157  35.416  1.00  0.00     0.345 HD
ENDBRANCH   9  10
BRANCH   9  14
ATOM     14  C   UNL     1      65.006  26.513  36.400  1.00  0.00     0.099 C 
ATOM     15  O   UNL     1      65.047  25.281  36.653  1.00  0.00    -0.544 OA
ATOM     16  O   UNL     1      63.856  27.236  36.693  1.00  0.00    -0.544 OA
ENDBRANCH   9  14
ENDBRANCH   8   9
ENDBRANCH   1   8
TORSDOF 7
ENDMDL
MODEL 2
REMARK VINA RESULT:    -4.256     13.887     14.797
REMARK INTER + INTRA:          -5.971
REMARK INTER:                  -5.816
REMARK INTRA:                  -0.154
REMARK UNBOUND:                -0.223
REMARK SMILES [NH3+]CCCC[C@H]([NH3+])C(=O)[O-]
REMARK SMILES IDX 4 1 3 2 2 3 1 4 5 8 6 9 7 10 8 14 9 15 10 16
REMARK H PARENT 1 5 1 6 1 7 7 11 7 12 7 13
REMARK Flexibility Score: inf
ROOT
ATOM      1  C   UNL     1      61.491  12.612  31.182  1.00  0.00     0.012 C 
ENDROOT
BRANCH   1   2
ATOM      2  C   UNL     1      61.234  13.481  29.941  1.00  0.00     0.061 C 
BRANCH   2   3
ATOM      3  C   UNL     1      61.319  12.682  28.631  1.00  0.00     0.258 C 
BRANCH   3   4
ATOM      4  N   UNL     1      61.296  13.577  27.474  1.00  0.00    -0.358 N 
ATOM      5  H   UNL     1      62.057  13.318  26.804  1.00  0.00     0.344 HD
ATOM      6  H   UNL     1      61.418  14.569  27.783  1.00  0.00     0.344 HD
ATOM      7  H   UNL     1      60.374  13.486  26.989  1.00  0.00     0.344 HD
ENDBRANCH   3   4
ENDBRANCH   2   3
ENDBRANCH   1   2
BRANCH   1   8
ATOM      8  C   UNL     1      60.757  13.132  32.432  1.00  0.00     0.072 C 
BRANCH   8   9
ATOM      9  C   UNL     1      59.860  14.349  32.117  1.00  0.00     0.227 C 
BRANCH   9  10
ATOM     10  N   UNL     1      60.410  15.564  32.727  1.00  0.00    -0.350 N 
ATOM     11  H   UNL     1      60.128  16.402  32.166  1.00  0.00     0.345 HD
ATOM     12  H   UNL     1      60.032  15.678  33.695  1.00  0.00     0.345 HD
ATOM     13  H   UNL     1      61.454  15.518  32.767  1.00  0.00     0.345 HD
ENDBRANCH   9  10
BRANCH   9  14
ATOM     14  C   UNL     1      58.451  14.121  32.603  1.00  0.00     0.099 C 
ATOM     15  O   UNL     1      57.650  13.431  31.919  1.00  0.00    -0.544 OA
ATOM     16  O   UNL     1      58.029  14.667  33.809  1.00  0.00    -0.544 OA
ENDBRANCH   9  14
ENDBRANCH   8   9
ENDBRANCH   1   8
TORSDOF 7
ENDMDL
MODEL 3
REMARK VINA RESULT:    -4.222     14.567     15.327
REMARK INTER + INTRA:          -5.926
REMARK INTER:                  -5.726
REMARK INTRA:                  -0.200
REMARK UNBOUND:                -0.223
REMARK SMILES [NH3+]CCCC[C@H]([NH3+])C(=O)[O-]
REMARK SMILES IDX 4 1 3 2 2 3 1 4 5 8 6 9 7 10 8 14 9 15 10 16
REMARK H PARENT 1 5 1 6 1 7 7 11 7 12 7 13
REMARK Flexibility Score: inf
ROOT
ATOM      1  C   UNL     1      61.399  13.078  32.086  1.00  0.00     0.012 C 
ENDROOT
BRANCH   1   2
ATOM      2  C   UNL     1      60.148  13.011  32.976  1.00  0.00     0.061 C 
BRANCH   2   3
ATOM      3  C   UNL     1      59.243  14.243  32.819  1.00  0.00     0.258 C 
BRANCH   3   4
ATOM      4  N   UNL     1      59.967  15.467  33.158  1.00  0.00    -0.358 N 
ATOM      5  H   UNL     1      59.333  16.134  33.656  1.00  0.00     0.344 HD
ATOM      6  H   UNL     1      60.342  15.916  32.290  1.00  0.00     0.344 HD
ATOM      7  H   UNL     1      60.767  15.229  33.788  1.00  0.00     0.344 HD
ENDBRANCH   3   4
ENDBRANCH   2   3
ENDBRANCH   1   2
BRANCH   1   8
ATOM      8  C   UNL     1      61.164  12.475  30.688  1.00  0.00     0.072 C 
BRANCH   8   9
ATOM      9  C   UNL     1      61.664  13.406  29.561  1.00  0.00     0.227 C 
BRANCH   9  10
ATOM     10  N   UNL     1      61.131  14.761  29.740  1.00  0.00    -0.350 N 
ATOM     11  H   UNL     1      61.277  15.072  30.729  1.00  0.00     0.345 HD
ATOM     12  H   UNL     1      61.636  15.427  29.112  1.00  0.00     0.345 HD
ATOM     13  H   UNL     1      60.108  14.788  29.522  1.00  0.00     0.345 HD
ENDBRANCH   9  10
BRANCH   9  14
ATOM     14  C   UNL     1      61.270  12.874  28.206  1.00  0.00     0.099 C 
ATOM     15  O   UNL     1      60.533  11.857  28.117  1.00  0.00    -0.544 OA
ATOM     16  O   UNL     1      61.713  13.503  27.050  1.00  0.00    -0.544 OA
ENDBRANCH   9  14
ENDBRANCH   8   9
ENDBRANCH   1   8
TORSDOF 7
ENDMDL
MODEL 4
REMARK VINA RESULT:    -4.191     13.198     13.758
REMARK INTER + INTRA:          -5.883
REMARK INTER:                  -5.739
REMARK INTRA:                  -0.144
REMARK UNBOUND:                -0.223
REMARK SMILES [NH3+]CCCC[C@H]([NH3+])C(=O)[O-]
REMARK SMILES IDX 4 1 3 2 2 3 1 4 5 8 6 9 7 10 8 14 9 15 10 16
REMARK H PARENT 1 5 1 6 1 7 7 11 7 12 7 13
REMARK Flexibility Score: inf
ROOT
ATOM      1  C   UNL     1      59.252  23.975  26.097  1.00  0.00     0.012 C 
ENDROOT
BRANCH   1   2
ATOM      2  C   UNL     1      60.762  23.722  26.239  1.00  0.00     0.061 C 
BRANCH   2   3
ATOM      3  C   UNL     1      61.284  24.034  27.651  1.00  0.00     0.258 C 
BRANCH   3   4
ATOM      4  N   UNL     1      61.758  22.818  28.310  1.00  0.00    -0.358 N 
ATOM      5  H   UNL     1      61.898  22.057  27.606  1.00  0.00     0.344 HD
ATOM      6  H   UNL     1      61.068  22.508  29.034  1.00  0.00     0.344 HD
ATOM      7  H   UNL     1      62.672  23.016  28.779  1.00  0.00     0.344 HD
ENDBRANCH   3   4
ENDBRANCH   2   3
ENDBRANCH   1   2
BRANCH   1   8
ATOM      8  C   UNL     1      58.577  22.995  25.120  1.00  0.00     0.072 C 
BRANCH   8   9
ATOM      9  C   UNL     1      59.565  22.453  24.063  1.00  0.00     0.227 C 
BRANCH   9  10
ATOM     10  N   UNL     1      59.139  22.844  22.715  1.00  0.00    -0.350 N 
ATOM     11  H   UNL     1      59.715  22.340  22.001  1.00  0.00     0.345 HD
ATOM     12  H   UNL     1      58.138  22.583  22.569  1.00  0.00     0.345 HD
ATOM     13  H   UNL     1      59.251  23.875  22.576  1.00  0.00     0.345 HD
ENDBRANCH   9  10
BRANCH   9  14
ATOM     14  C   UNL     1      59.681  20.952  24.151  1.00  0.00     0.099 C 
ATOM     15  O   UNL     1      59.094  20.326  25.072  1.00  0.00    -0.544 OA
ATOM     16  O   UNL     1      60.430  20.251  23.215  1.00  0.00    -0.544 OA
ENDBRANCH   9  14
ENDBRANCH   8   9
ENDBRANCH   1   8
TORSDOF 7
ENDMDL
MODEL 5
REMARK VINA RESULT:    -4.090     14.484     15.493
REMARK INTER + INTRA:          -5.748
REMARK INTER:                  -5.470
REMARK INTRA:                  -0.277
REMARK UNBOUND:                -0.223
REMARK SMILES [NH3+]CCCC[C@H]([NH3+])C(=O)[O-]
REMARK SMILES IDX 4 1 3 2 2 3 1 4 5 8 6 9 7 10 8 14 9 15 10 16
REMARK H PARENT 1 5 1 6 1 7 7 11 7 12 7 13
REMARK Flexibility Score: inf
ROOT
ATOM      1  C   UNL     1      59.776  13.588  33.008  1.00  0.00     0.012 C 
ENDROOT
BRANCH   1   2
ATOM      2  C   UNL     1      58.335  13.165  33.335  1.00  0.00     0.061 C 
BRANCH   2   3
ATOM      3  C   UNL     1      58.191  11.645  33.519  1.00  0.00     0.258 C 
BRANCH   3   4
ATOM      4  N   UNL     1      59.317  10.939  32.909  1.00  0.00    -0.358 N 
ATOM      5  H   UNL     1      60.038  10.715  33.634  1.00  0.00     0.344 HD
ATOM      6  H   UNL     1      59.745  11.525  32.155  1.00  0.00     0.344 HD
ATOM      7  H   UNL     1      58.974  10.046  32.488  1.00  0.00     0.344 HD
ENDBRANCH   3   4
ENDBRANCH   2   3
ENDBRANCH   1   2
BRANCH   1   8
ATOM      8  C   UNL     1      59.872  14.406  31.707  1.00  0.00     0.072 C 
BRANCH   8   9
ATOM      9  C   UNL     1      61.176  14.116  30.931  1.00  0.00     0.227 C 
BRANCH   9  10
ATOM     10  N   UNL     1      61.209  14.881  29.680  1.00  0.00    -0.350 N 
ATOM     11  H   UNL     1      60.232  15.083  29.362  1.00  0.00     0.345 HD
ATOM     12  H   UNL     1      61.698  15.792  29.833  1.00  0.00     0.345 HD
ATOM     13  H   UNL     1      61.706  14.344  28.931  1.00  0.00     0.345 HD
ENDBRANCH   9  10
BRANCH   9  14
ATOM     14  C   UNL     1      61.315  12.644  30.639  1.00  0.00     0.099 C 
ATOM     15  O   UNL     1      60.784  12.151  29.610  1.00  0.00    -0.544 OA
ATOM     16  O   UNL     1      62.032  11.823  31.500  1.00  0.00    -0.544 OA
ENDBRANCH   9  14
ENDBRANCH   8   9
ENDBRANCH   1   8
TORSDOF 7
ENDMDL
MODEL 6
REMARK VINA RESULT:    -4.035     14.115     15.284
REMARK INTER + INTRA:          -5.673
REMARK INTER:                  -5.454
REMARK INTRA:                  -0.218
REMARK UNBOUND:                -0.223
REMARK SMILES [NH3+]CCCC[C@H]([NH3+])C(=O)[O-]
REMARK SMILES IDX 4 1 3 2 2 3 1 4 5 8 6 9 7 10 8 14 9 15 10 16
REMARK H PARENT 1 5 1 6 1 7 7 11 7 12 7 13
REMARK Flexibility Score: inf
ROOT
ATOM      1  C   UNL     1      61.240  11.936  31.975  1.00  0.00     0.012 C 
ENDROOT
BRANCH   1   2
ATOM      2  C   UNL     1      61.284  12.692  30.637  1.00  0.00     0.061 C 
BRANCH   2   3
ATOM      3  C   UNL     1      61.067  14.204  30.804  1.00  0.00     0.258 C 
BRANCH   3   4
ATOM      4  N   UNL     1      61.192  14.893  29.520  1.00  0.00    -0.358 N 
ATOM      5  H   UNL     1      60.299  14.814  28.981  1.00  0.00     0.344 HD
ATOM      6  H   UNL     1      61.978  14.481  28.965  1.00  0.00     0.344 HD
ATOM      7  H   UNL     1      61.395  15.904  29.692  1.00  0.00     0.344 HD
ENDBRANCH   3   4
ENDBRANCH   2   3
ENDBRANCH   1   2
BRANCH   1   8
ATOM      8  C   UNL     1      60.693  12.801  33.126  1.00  0.00     0.072 C 
BRANCH   8   9
ATOM      9  C   UNL     1      59.232  12.445  33.478  1.00  0.00     0.227 C 
BRANCH   9  10
ATOM     10  N   UNL     1      58.839  11.189  32.831  1.00  0.00    -0.350 N 
ATOM     11  H   UNL     1      58.076  11.370  32.137  1.00  0.00     0.345 HD
ATOM     12  H   UNL     1      59.655  10.783  32.319  1.00  0.00     0.345 HD
ATOM     13  H   UNL     1      58.498  10.498  33.539  1.00  0.00     0.345 HD
ENDBRANCH   9  10
BRANCH   9  14
ATOM     14  C   UNL     1      58.293  13.551  33.068  1.00  0.00     0.099 C 
ATOM     15  O   UNL     1      58.247  14.620  33.732  1.00  0.00    -0.544 OA
ATOM     16  O   UNL     1      57.478  13.400  31.953  1.00  0.00    -0.544 OA
ENDBRANCH   9  14
ENDBRANCH   8   9
ENDBRANCH   1   8
TORSDOF 7
ENDMDL
MODEL 7
REMARK VINA RESULT:    -3.990      1.968      2.213
REMARK INTER + INTRA:          -5.612
REMARK INTER:                  -5.525
REMARK INTRA:                  -0.087
REMARK UNBOUND:                -0.223
REMARK SMILES [NH3+]CCCC[C@H]([NH3+])C(=O)[O-]
REMARK SMILES IDX 4 1 3 2 2 3 1 4 5 8 6 9 7 10 8 14 9 15 10 16
REMARK H PARENT 1 5 1 6 1 7 7 11 7 12 7 13
REMARK Flexibility Score: inf
ROOT
ATOM      1  C   UNL     1      67.149  26.019  36.133  1.00  0.00     0.012 C 
ENDROOT
BRANCH   1   2
ATOM      2  C   UNL     1      68.605  25.846  35.670  1.00  0.00     0.061 C 
BRANCH   2   3
ATOM      3  C   UNL     1      69.054  24.376  35.667  1.00  0.00     0.258 C 
BRANCH   3   4
ATOM      4  N   UNL     1      68.176  23.561  36.507  1.00  0.00    -0.358 N 
ATOM      5  H   UNL     1      68.208  22.562  36.199  1.00  0.00     0.344 HD
ATOM      6  H   UNL     1      67.193  23.917  36.452  1.00  0.00     0.344 HD
ATOM      7  H   UNL     1      68.501  23.620  37.499  1.00  0.00     0.344 HD
ENDBRANCH   3   4
ENDBRANCH   2   3
ENDBRANCH   1   2
BRANCH   1   8
ATOM      8  C   UNL     1      66.807  27.481  36.476  1.00  0.00     0.072 C 
BRANCH   8   9
ATOM      9  C   UNL     1      65.285  27.710  36.597  1.00  0.00     0.227 C 
BRANCH   9  10
ATOM     10  N   UNL     1      64.617  27.400  35.328  1.00  0.00    -0.350 N 
ATOM     11  H   UNL     1      64.474  28.278  34.777  1.00  0.00     0.345 HD
ATOM     12  H   UNL     1      65.213  26.753  34.762  1.00  0.00     0.345 HD
ATOM     13  H   UNL     1      63.688  26.950  35.499  1.00  0.00     0.345 HD
ENDBRANCH   9  10
BRANCH   9  14
ATOM     14  C   UNL     1      64.983  29.130  37.003  1.00  0.00     0.099 C 
ATOM     15  O   UNL     1      65.735  29.729  37.816  1.00  0.00    -0.544 OA
ATOM     16  O   UNL     1      63.877  29.789  36.479  1.00  0.00    -0.544 OA
ENDBRANCH   9  14
ENDBRANCH   8   9
ENDBRANCH   1   8
TORSDOF 7
ENDMDL
MODEL 8
REMARK VINA RESULT:    -3.893      2.875      4.968
REMARK INTER + INTRA:          -5.480
REMARK INTER:                  -5.405
REMARK INTRA:                  -0.076
REMARK UNBOUND:                -0.223
REMARK SMILES [NH3+]CCCC[C@H]([NH3+])C(=O)[O-]
REMARK SMILES IDX 4 1 3 2 2 3 1 4 5 8 6 9 7 10 8 14 9 15 10 16
REMARK H PARENT 1 5 1 6 1 7 7 11 7 12 7 13
REMARK Flexibility Score: inf
ROOT
ATOM      1  C   UNL     1      66.311  27.713  36.514  1.00  0.00     0.012 C 
ENDROOT
BRANCH   1   2
ATOM      2  C   UNL     1      64.860  28.127  36.219  1.00  0.00     0.061 C 
BRANCH   2   3
ATOM      3  C   UNL     1      64.580  29.595  36.577  1.00  0.00     0.258 C 
BRANCH   3   4
ATOM      4  N   UNL     1      65.490  30.059  37.623  1.00  0.00    -0.358 N 
ATOM      5  H   UNL     1      64.959  30.254  38.503  1.00  0.00     0.344 HD
ATOM      6  H   UNL     1      65.987  30.926  37.310  1.00  0.00     0.344 HD
ATOM      7  H   UNL     1      66.199  29.315  37.815  1.00  0.00     0.344 HD
ENDBRANCH   3   4
ENDBRANCH   2   3
ENDBRANCH   1   2
BRANCH   1   8
ATOM      8  C   UNL     1      66.733  26.446  35.747  1.00  0.00     0.072 C 
BRANCH   8   9
ATOM      9  C   UNL     1      67.942  25.743  36.402  1.00  0.00     0.227 C 
BRANCH   9  10
ATOM     10  N   UNL     1      69.013  26.708  36.671  1.00  0.00    -0.350 N 
ATOM     11  H   UNL     1      69.836  26.218  37.092  1.00  0.00     0.345 HD
ATOM     12  H   UNL     1      69.322  27.154  35.777  1.00  0.00     0.345 HD
ATOM     13  H   UNL     1      68.685  27.451  37.331  1.00  0.00     0.345 HD
ENDBRANCH   9  10
BRANCH   9  14
ATOM     14  C   UNL     1      68.460  24.630  35.526  1.00  0.00     0.099 C 
ATOM     15  O   UNL     1      68.780  24.863  34.332  1.00  0.00    -0.544 OA
ATOM     16  O   UNL     1      68.591  23.343  36.033  1.00  0.00    -0.544 OA
ENDBRANCH   9  14
ENDBRANCH   8   9
ENDBRANCH   1   8
TORSDOF 7
ENDMDL
