MODEL 1
REMARK VINA RESULT:    -2.887      0.000      0.000
REMARK INTER + INTRA:          -3.258
REMARK INTER:                  -3.224
REMARK INTRA:                  -0.033
REMARK UNBOUND:                -0.033
REMARK SMILES CCCC(=O)[O-]
REMARK SMILES IDX 3 1 4 2 5 3 6 4 2 5 1 6
REMARK H PARENT
REMARK Flexibility Score: inf
ROOT
ATOM      1  C   UNL     1       5.625  -1.406  -6.274  1.00  0.00     0.052 C 
ENDROOT
BRANCH   1   2
ATOM      2  C   UNL     1       6.134  -2.616  -5.559  1.00  0.00     0.041 C 
ATOM      3  O   UNL     1       7.327  -2.661  -5.159  1.00  0.00    -0.550 OA
ATOM      4  O   UNL     1       5.278  -3.677  -5.292  1.00  0.00    -0.550 OA
ENDBRANCH   1   2
BRANCH   1   5
ATOM      5  C   UNL     1       4.746  -0.565  -5.344  1.00  0.00     0.003 C 
ATOM      6  C   UNL     1       5.476   0.696  -4.887  1.00  0.00     0.004 C 
ENDBRANCH   1   5
TORSDOF 2
ENDMDL
MODEL 2
REMARK VINA RESULT:    -2.869      1.876      2.432
REMARK INTER + INTRA:          -3.238
REMARK INTER:                  -3.231
REMARK INTRA:                  -0.007
REMARK UNBOUND:                -0.033
REMARK SMILES CCCC(=O)[O-]
REMARK SMILES IDX 3 1 4 2 5 3 6 4 2 5 1 6
REMARK H PARENT
REMARK Flexibility Score: inf
ROOT
ATOM      1  C   UNL     1       5.791  -3.684  -5.608  1.00  0.00     0.052 C 
ENDROOT
BRANCH   1   2
ATOM      2  C   UNL     1       6.786  -4.753  -5.289  1.00  0.00     0.041 C 
ATOM      3  O   UNL     1       7.276  -4.839  -4.132  1.00  0.00    -0.550 OA
ATOM      4  O   UNL     1       7.138  -5.686  -6.257  1.00  0.00    -0.550 OA
ENDBRANCH   1   2
BRANCH   1   5
ATOM      5  C   UNL     1       6.482  -2.322  -5.709  1.00  0.00     0.003 C 
ATOM      6  C   UNL     1       5.460  -1.188  -5.763  1.00  0.00     0.004 C 
ENDBRANCH   1   5
TORSDOF 2
ENDMDL
MODEL 3
REMARK VINA RESULT:    -2.851      0.156      1.327
REMARK INTER + INTRA:          -3.218
REMARK INTER:                  -3.188
REMARK INTRA:                  -0.030
REMARK UNBOUND:                -0.033
REMARK SMILES CCCC(=O)[O-]
REMARK SMILES IDX 3 1 4 2 5 3 6 4 2 5 1 6
REMARK H PARENT
REMARK Flexibility Score: inf
ROOT
ATOM      1  C   UNL     1       5.639  -1.324  -6.320  1.00  0.00     0.052 C 
ENDROOT
BRANCH   1   2
ATOM      2  C   UNL     1       6.131  -2.574  -5.662  1.00  0.00     0.041 C 
ATOM      3  O   UNL     1       5.387  -3.587  -5.591  1.00  0.00    -0.550 OA
ATOM      4  O   UNL     1       7.429  -2.636  -5.171  1.00  0.00    -0.550 OA
ENDBRANCH   1   2
BRANCH   1   5
ATOM      5  C   UNL     1       4.741  -0.534  -5.364  1.00  0.00     0.003 C 
ATOM      6  C   UNL     1       5.445   0.724  -4.860  1.00  0.00     0.004 C 
ENDBRANCH   1   5
TORSDOF 2
ENDMDL
MODEL 4
REMARK VINA RESULT:    -2.799      2.545      3.523
REMARK INTER + INTRA:          -3.159
REMARK INTER:                  -3.151
REMARK INTRA:                  -0.009
REMARK UNBOUND:                -0.033
REMARK SMILES CCCC(=O)[O-]
REMARK SMILES IDX 3 1 4 2 5 3 6 4 2 5 1 6
REMARK H PARENT
REMARK Flexibility Score: inf
ROOT
ATOM      1  C   UNL     1       6.282  -0.663  -5.633  1.00  0.00     0.052 C 
ENDROOT
BRANCH   1   2
ATOM      2  C   UNL     1       5.192   0.254  -5.177  1.00  0.00     0.041 C 
ATOM      3  O   UNL     1       4.061   0.218  -5.730  1.00  0.00    -0.550 OA
ATOM      4  O   UNL     1       5.410   1.116  -4.110  1.00  0.00    -0.550 OA
ENDBRANCH   1   2
BRANCH   1   5
ATOM      5  C   UNL     1       5.728  -2.067  -5.887  1.00  0.00     0.003 C 
ATOM      6  C   UNL     1       6.732  -3.139  -5.468  1.00  0.00     0.004 C 
ENDBRANCH   1   5
TORSDOF 2
ENDMDL
MODEL 5
REMARK VINA RESULT:    -2.695      2.719      3.318
REMARK INTER + INTRA:          -3.044
REMARK INTER:                  -2.985
REMARK INTRA:                  -0.059
REMARK UNBOUND:                -0.033
REMARK SMILES CCCC(=O)[O-]
REMARK SMILES IDX 3 1 4 2 5 3 6 4 2 5 1 6
REMARK H PARENT
REMARK Flexibility Score: inf
ROOT
ATOM      1  C   UNL     1       4.260   0.836  -6.165  1.00  0.00     0.052 C 
ENDROOT
BRANCH   1   2
ATOM      2  C   UNL     1       5.289   0.451  -5.152  1.00  0.00     0.041 C 
ATOM      3  O   UNL     1       5.403   1.106  -4.082  1.00  0.00    -0.550 OA
ATOM      4  O   UNL     1       6.093  -0.662  -5.365  1.00  0.00    -0.550 OA
ENDBRANCH   1   2
BRANCH   1   5
ATOM      5  C   UNL     1       4.344   2.333  -6.471  1.00  0.00     0.003 C 
ATOM      6  C   UNL     1       5.495   2.638  -7.426  1.00  0.00     0.004 C 
ENDBRANCH   1   5
TORSDOF 2
ENDMDL
MODEL 6
REMARK VINA RESULT:    -2.688      3.444      4.129
REMARK INTER + INTRA:          -3.035
REMARK INTER:                  -2.989
REMARK INTRA:                  -0.046
REMARK UNBOUND:                -0.033
REMARK SMILES CCCC(=O)[O-]
REMARK SMILES IDX 3 1 4 2 5 3 6 4 2 5 1 6
REMARK H PARENT
REMARK Flexibility Score: inf
ROOT
ATOM      1  C   UNL     1       5.290   1.000  -5.056  1.00  0.00     0.052 C 
ENDROOT
BRANCH   1   2
ATOM      2  C   UNL     1       5.108   1.886  -6.246  1.00  0.00     0.041 C 
ATOM      3  O   UNL     1       6.109   2.314  -6.879  1.00  0.00    -0.550 OA
ATOM      4  O   UNL     1       3.829   2.201  -6.688  1.00  0.00    -0.550 OA
ENDBRANCH   1   2
BRANCH   1   5
ATOM      5  C   UNL     1       4.642  -0.365  -5.300  1.00  0.00     0.003 C 
ATOM      6  C   UNL     1       5.643  -1.351  -5.897  1.00  0.00     0.004 C 
ENDBRANCH   1   5
TORSDOF 2
ENDMDL
MODEL 7
REMARK VINA RESULT:    -2.679     11.818     12.658
REMARK INTER + INTRA:          -3.025
REMARK INTER:                  -3.010
REMARK INTRA:                  -0.015
REMARK UNBOUND:                -0.033
REMARK SMILES CCCC(=O)[O-]
REMARK SMILES IDX 3 1 4 2 5 3 6 4 2 5 1 6
REMARK H PARENT
REMARK Flexibility Score: inf
ROOT
ATOM      1  C   UNL     1       0.071  -9.300   3.321  1.00  0.00     0.052 C 
ENDROOT
BRANCH   1   2
ATOM      2  C   UNL     1      -1.057  -8.488   2.770  1.00  0.00     0.041 C 
ATOM      3  O   UNL     1      -2.238  -8.704   3.149  1.00  0.00    -0.550 OA
ATOM      4  O   UNL     1      -0.799  -7.460   1.872  1.00  0.00    -0.550 OA
ENDBRANCH   1   2
BRANCH   1   5
ATOM      5  C   UNL     1       1.365  -9.008   2.555  1.00  0.00     0.003 C 
ATOM      6  C   UNL     1       2.589  -9.215   3.443  1.00  0.00     0.004 C 
ENDBRANCH   1   5
TORSDOF 2
ENDMDL
MODEL 8
REMARK VINA RESULT:    -2.644      2.195      3.300
REMARK INTER + INTRA:          -2.987
REMARK INTER:                  -2.981
REMARK INTRA:                  -0.006
REMARK UNBOUND:                -0.033
REMARK SMILES CCCC(=O)[O-]
REMARK SMILES IDX 3 1 4 2 5 3 6 4 2 5 1 6
REMARK H PARENT
REMARK Flexibility Score: inf
ROOT
ATOM      1  C   UNL     1       6.449  -2.150  -5.741  1.00  0.00     0.052 C 
ENDROOT
BRANCH   1   2
ATOM      2  C   UNL     1       5.434  -1.132  -6.152  1.00  0.00     0.041 C 
ATOM      3  O   UNL     1       5.300  -0.822  -7.365  1.00  0.00    -0.550 OA
ATOM      4  O   UNL     1       4.600  -0.559  -5.199  1.00  0.00    -0.550 OA
ENDBRANCH   1   2
BRANCH   1   5
ATOM      5  C   UNL     1       5.791  -3.520  -5.561  1.00  0.00     0.003 C 
ATOM      6  C   UNL     1       6.716  -4.482  -4.819  1.00  0.00     0.004 C 
ENDBRANCH   1   5
TORSDOF 2
ENDMDL
MODEL 9
REMARK VINA RESULT:    -2.632     10.474     11.376
REMARK INTER + INTRA:          -2.973
REMARK INTER:                  -2.951
REMARK INTRA:                  -0.021
REMARK UNBOUND:                -0.033
REMARK SMILES CCCC(=O)[O-]
REMARK SMILES IDX 3 1 4 2 5 3 6 4 2 5 1 6
REMARK H PARENT
REMARK Flexibility Score: inf
ROOT
ATOM      1  C   UNL     1       5.165   9.362  -1.469  1.00  0.00     0.052 C 
ENDROOT
BRANCH   1   2
ATOM      2  C   UNL     1       5.151   8.570  -0.201  1.00  0.00     0.041 C 
ATOM      3  O   UNL     1       4.289   8.806   0.686  1.00  0.00    -0.550 OA
ATOM      4  O   UNL     1       6.062   7.536  -0.018  1.00  0.00    -0.550 OA
ENDBRANCH   1   2
BRANCH   1   5
ATOM      5  C   UNL     1       5.868   8.581  -2.581  1.00  0.00     0.003 C 
ATOM      6  C   UNL     1       4.952   8.395  -3.789  1.00  0.00     0.004 C 
ENDBRANCH   1   5
TORSDOF 2
ENDMDL
