MODEL 1
REMARK VINA RESULT:    -7.905      0.000      0.000
REMARK INTER + INTRA:         -10.046
REMARK INTER:                  -9.291
REMARK INTRA:                  -0.755
REMARK UNBOUND:                -0.755
REMARK SMILES C=C(C)[C@H]1CC[C@@]2(CO)CC[C@]3(C)[C@@H](CC[C@H]4[C@@]5(C)CC[C@@H](O)C(C)(C)[C@@H]5CC[C@@]43C)[C@H]12
REMARK SMILES IDX 4 1 5 2 6 3 7 4 32 5 14 6 15 7 16 8 17 9 18 10 20 11 21 12
REMARK SMILES IDX 22 13 24 14 27 15 28 16 29 17 30 18 12 19 11 20 10 21 13 22
REMARK SMILES IDX 31 23 25 24 26 25 19 26 2 27 3 28 1 29 8 30 9 31 23 33
REMARK H PARENT 9 32 23 34
REMARK Flexibility Score: inf
ROOT
ATOM      1  C   UNL     1      68.141   1.822  -1.999  1.00  0.00     0.018 C 
ATOM      2  C   UNL     1      68.087   2.286  -3.478  1.00  0.00     0.009 C 
ATOM      3  C   UNL     1      66.604   2.496  -3.825  1.00  0.00     0.010 C 
ATOM      4  C   UNL     1      65.875   2.530  -2.473  1.00  0.00    -0.003 C 
ATOM      5  C   UNL     1      66.668   1.506  -1.654  1.00  0.00     0.008 C 
ATOM      6  C   UNL     1      66.184   1.424  -0.159  1.00  0.00    -0.000 C 
ATOM      7  C   UNL     1      66.922   0.299   0.604  1.00  0.00     0.005 C 
ATOM      8  C   UNL     1      66.471  -1.140   0.243  1.00  0.00     0.005 C 
ATOM      9  C   UNL     1      65.044  -1.221  -0.366  1.00  0.00     0.002 C 
ATOM     10  C   UNL     1      64.497  -2.691  -0.779  1.00  0.00    -0.026 C 
ATOM     11  C   UNL     1      65.561  -3.805  -0.515  1.00  0.00     0.010 C 
ATOM     12  C   UNL     1      65.053  -5.238  -0.763  1.00  0.00     0.033 C 
ATOM     13  C   UNL     1      63.787  -5.568   0.054  1.00  0.00     0.120 C 
ATOM     14  C   UNL     1      62.635  -4.528  -0.165  1.00  0.00    -0.006 C 
ATOM     15  C   UNL     1      63.213  -3.069   0.043  1.00  0.00     0.003 C 
ATOM     16  C   UNL     1      62.133  -1.950   0.094  1.00  0.00     0.005 C 
ATOM     17  C   UNL     1      62.648  -0.522  -0.174  1.00  0.00     0.008 C 
ATOM     18  C   UNL     1      64.080  -0.221   0.363  1.00  0.00    -0.024 C 
ATOM     19  C   UNL     1      64.577   1.327   0.051  1.00  0.00    -0.024 C 
ATOM     20  C   UNL     1      63.782   2.029  -1.150  1.00  0.00     0.008 C 
ATOM     21  C   UNL     1      64.431   1.996  -2.543  1.00  0.00     0.010 C 
ATOM     22  C   UNL     1      64.247   2.242   1.281  1.00  0.00     0.012 C 
ATOM     23  C   UNL     1      64.048  -0.498   1.917  1.00  0.00     0.012 C 
ATOM     24  C   UNL     1      61.967  -4.763  -1.555  1.00  0.00     0.014 C 
ATOM     25  C   UNL     1      61.538  -4.796   0.907  1.00  0.00     0.014 C 
ATOM     26  C   UNL     1      64.215  -2.672  -2.320  1.00  0.00     0.012 C 
ENDROOT
BRANCH   1  27
ATOM     27  C   UNL     1      69.126   0.667  -1.826  1.00  0.00    -0.077 C 
ATOM     28  C   UNL     1      70.277   0.802  -0.860  1.00  0.00     0.039 C 
ATOM     29  C   UNL     1      69.041  -0.458  -2.560  1.00  0.00     0.008 C 
ENDBRANCH   1  27
BRANCH   4  30
ATOM     30  C   UNL     1      65.895   4.002  -1.913  1.00  0.00     0.163 C 
BRANCH  30  31
ATOM     31  O   UNL     1      65.100   4.885  -2.666  1.00  0.00    -0.396 OA
ATOM     32  H   UNL     1      65.709   5.564  -3.059  1.00  0.00     0.210 HD
ENDBRANCH  30  31
ENDBRANCH   4  30
BRANCH  13  33
ATOM     33  O   UNL     1      64.134  -5.635   1.419  1.00  0.00    -0.393 OA
ATOM     34  H   UNL     1      64.662  -4.821   1.626  1.00  0.00     0.210 HD
ENDBRANCH  13  33
TORSDOF 4
ENDMDL
MODEL 2
REMARK VINA RESULT:    -7.506      3.134      5.249
REMARK INTER + INTRA:          -9.578
REMARK INTER:                  -8.796
REMARK INTRA:                  -0.782
REMARK UNBOUND:                -0.755
REMARK SMILES C=C(C)[C@H]1CC[C@@]2(CO)CC[C@]3(C)[C@@H](CC[C@H]4[C@@]5(C)CC[C@@H](O)C(C)(C)[C@@H]5CC[C@@]43C)[C@H]12
REMARK SMILES IDX 4 1 5 2 6 3 7 4 32 5 14 6 15 7 16 8 17 9 18 10 20 11 21 12
REMARK SMILES IDX 22 13 24 14 27 15 28 16 29 17 30 18 12 19 11 20 10 21 13 22
REMARK SMILES IDX 31 23 25 24 26 25 19 26 2 27 3 28 1 29 8 30 9 31 23 33
REMARK H PARENT 9 32 23 34
REMARK Flexibility Score: inf
ROOT
ATOM      1  C   UNL     1      66.981   4.222  -1.893  1.00  0.00     0.018 C 
ATOM      2  C   UNL     1      68.500   3.907  -1.869  1.00  0.00     0.009 C 
ATOM      3  C   UNL     1      68.635   2.381  -1.736  1.00  0.00     0.010 C 
ATOM      4  C   UNL     1      67.244   1.823  -2.073  1.00  0.00    -0.003 C 
ATOM      5  C   UNL     1      66.318   2.889  -1.481  1.00  0.00     0.008 C 
ATOM      6  C   UNL     1      64.801   2.609  -1.789  1.00  0.00    -0.000 C 
ATOM      7  C   UNL     1      63.889   3.635  -1.076  1.00  0.00     0.005 C 
ATOM      8  C   UNL     1      63.749   3.433   0.454  1.00  0.00     0.005 C 
ATOM      9  C   UNL     1      64.059   1.987   0.932  1.00  0.00     0.002 C 
ATOM     10  C   UNL     1      63.944   1.692   2.523  1.00  0.00    -0.026 C 
ATOM     11  C   UNL     1      63.562   2.975   3.329  1.00  0.00     0.010 C 
ATOM     12  C   UNL     1      63.308   2.729   4.829  1.00  0.00     0.033 C 
ATOM     13  C   UNL     1      62.229   1.656   5.079  1.00  0.00     0.120 C 
ATOM     14  C   UNL     1      62.533   0.306   4.342  1.00  0.00    -0.006 C 
ATOM     15  C   UNL     1      62.844   0.611   2.820  1.00  0.00     0.003 C 
ATOM     16  C   UNL     1      62.927  -0.652   1.914  1.00  0.00     0.005 C 
ATOM     17  C   UNL     1      63.669  -0.459   0.577  1.00  0.00     0.008 C 
ATOM     18  C   UNL     1      63.489   0.939  -0.086  1.00  0.00    -0.024 C 
ATOM     19  C   UNL     1      64.302   1.087  -1.520  1.00  0.00    -0.024 C 
ATOM     20  C   UNL     1      65.499   0.036  -1.692  1.00  0.00     0.008 C 
ATOM     21  C   UNL     1      66.916   0.512  -1.332  1.00  0.00     0.010 C 
ATOM     22  C   UNL     1      63.342   0.731  -2.707  1.00  0.00     0.012 C 
ATOM     23  C   UNL     1      61.938   1.144  -0.297  1.00  0.00     0.012 C 
ATOM     24  C   UNL     1      63.667  -0.461   5.089  1.00  0.00     0.014 C 
ATOM     25  C   UNL     1      61.260  -0.585   4.430  1.00  0.00     0.014 C 
ATOM     26  C   UNL     1      65.358   1.233   3.019  1.00  0.00     0.012 C 
ENDROOT
BRANCH   1  27
ATOM     27  C   UNL     1      66.660   5.426  -1.009  1.00  0.00    -0.077 C 
ATOM     28  C   UNL     1      66.090   6.679  -1.627  1.00  0.00     0.039 C 
ATOM     29  C   UNL     1      66.930   5.434   0.309  1.00  0.00     0.008 C 
ENDBRANCH   1  27
BRANCH   4  30
ATOM     30  C   UNL     1      67.133   1.622  -3.631  1.00  0.00     0.163 C 
BRANCH  30  31
ATOM     31  O   UNL     1      68.359   1.277  -4.228  1.00  0.00    -0.396 OA
ATOM     32  H   UNL     1      68.256   1.416  -5.206  1.00  0.00     0.210 HD
ENDBRANCH  30  31
ENDBRANCH   4  30
BRANCH  13  33
ATOM     33  O   UNL     1      60.979   2.167   4.672  1.00  0.00    -0.393 OA
ATOM     34  H   UNL     1      60.777   1.770   3.785  1.00  0.00     0.210 HD
ENDBRANCH  13  33
TORSDOF 4
ENDMDL
MODEL 3
REMARK VINA RESULT:    -7.456      1.096      1.412
REMARK INTER + INTRA:          -9.519
REMARK INTER:                  -8.717
REMARK INTRA:                  -0.802
REMARK UNBOUND:                -0.755
REMARK SMILES C=C(C)[C@H]1CC[C@@]2(CO)CC[C@]3(C)[C@@H](CC[C@H]4[C@@]5(C)CC[C@@H](O)C(C)(C)[C@@H]5CC[C@@]43C)[C@H]12
REMARK SMILES IDX 4 1 5 2 6 3 7 4 32 5 14 6 15 7 16 8 17 9 18 10 20 11 21 12
REMARK SMILES IDX 22 13 24 14 27 15 28 16 29 17 30 18 12 19 11 20 10 21 13 22
REMARK SMILES IDX 31 23 25 24 26 25 19 26 2 27 3 28 1 29 8 30 9 31 23 33
REMARK H PARENT 9 32 23 34
REMARK Flexibility Score: inf
ROOT
ATOM      1  C   UNL     1      67.092   2.826  -0.879  1.00  0.00     0.018 C 
ATOM      2  C   UNL     1      67.010   3.464  -2.291  1.00  0.00     0.009 C 
ATOM      3  C   UNL     1      65.524   3.483  -2.684  1.00  0.00     0.010 C 
ATOM      4  C   UNL     1      64.758   3.228  -1.377  1.00  0.00    -0.003 C 
ATOM      5  C   UNL     1      65.680   2.243  -0.651  1.00  0.00     0.008 C 
ATOM      6  C   UNL     1      65.170   1.894   0.796  1.00  0.00    -0.000 C 
ATOM      7  C   UNL     1      66.055   0.807   1.451  1.00  0.00     0.005 C 
ATOM      8  C   UNL     1      65.853  -0.625   0.894  1.00  0.00     0.005 C 
ATOM      9  C   UNL     1      64.477  -0.848   0.208  1.00  0.00     0.002 C 
ATOM     10  C   UNL     1      64.187  -2.319  -0.410  1.00  0.00    -0.026 C 
ATOM     11  C   UNL     1      65.407  -3.278  -0.231  1.00  0.00     0.010 C 
ATOM     12  C   UNL     1      65.144  -4.729  -0.680  1.00  0.00     0.033 C 
ATOM     13  C   UNL     1      63.924  -5.355   0.026  1.00  0.00     0.120 C 
ATOM     14  C   UNL     1      62.626  -4.487  -0.123  1.00  0.00    -0.006 C 
ATOM     15  C   UNL     1      62.955  -2.996   0.293  1.00  0.00     0.003 C 
ATOM     16  C   UNL     1      61.709  -2.074   0.426  1.00  0.00     0.005 C 
ATOM     17  C   UNL     1      61.995  -0.561   0.362  1.00  0.00     0.008 C 
ATOM     18  C   UNL     1      63.342  -0.113   1.004  1.00  0.00    -0.024 C 
ATOM     19  C   UNL     1      63.593   1.520   0.911  1.00  0.00    -0.024 C 
ATOM     20  C   UNL     1      62.733   2.240  -0.234  1.00  0.00     0.008 C 
ATOM     21  C   UNL     1      63.421   2.489  -1.586  1.00  0.00     0.010 C 
ATOM     22  C   UNL     1      63.083   2.206   2.225  1.00  0.00     0.012 C 
ATOM     23  C   UNL     1      63.308  -0.590   2.508  1.00  0.00     0.012 C 
ATOM     24  C   UNL     1      62.048  -4.642  -1.562  1.00  0.00     0.014 C 
ATOM     25  C   UNL     1      61.554  -5.059   0.851  1.00  0.00     0.014 C 
ATOM     26  C   UNL     1      63.952  -2.144  -1.949  1.00  0.00     0.012 C 
ENDROOT
BRANCH   1  27
ATOM     27  C   UNL     1      68.245   1.826  -0.799  1.00  0.00    -0.077 C 
ATOM     28  C   UNL     1      68.216   0.580  -1.650  1.00  0.00     0.039 C 
ATOM     29  C   UNL     1      69.268   1.986   0.059  1.00  0.00     0.008 C 
ENDBRANCH   1  27
BRANCH   4  30
ATOM     30  C   UNL     1      64.524   4.600  -0.640  1.00  0.00     0.163 C 
BRANCH  30  31
ATOM     31  O   UNL     1      63.663   5.460  -1.346  1.00  0.00    -0.396 OA
ATOM     32  H   UNL     1      63.557   6.282  -0.797  1.00  0.00     0.210 HD
ENDBRANCH  30  31
ENDBRANCH   4  30
BRANCH  13  33
ATOM     33  O   UNL     1      64.235  -5.544   1.388  1.00  0.00    -0.393 OA
ATOM     34  H   UNL     1      63.910  -6.447   1.639  1.00  0.00     0.210 HD
ENDBRANCH  13  33
TORSDOF 4
ENDMDL
MODEL 4
REMARK VINA RESULT:    -7.360      2.462      7.575
REMARK INTER + INTRA:          -9.405
REMARK INTER:                  -8.596
REMARK INTRA:                  -0.809
REMARK UNBOUND:                -0.755
REMARK SMILES C=C(C)[C@H]1CC[C@@]2(CO)CC[C@]3(C)[C@@H](CC[C@H]4[C@@]5(C)CC[C@@H](O)C(C)(C)[C@@H]5CC[C@@]43C)[C@H]12
REMARK SMILES IDX 4 1 5 2 6 3 7 4 32 5 14 6 15 7 16 8 17 9 18 10 20 11 21 12
REMARK SMILES IDX 22 13 24 14 27 15 28 16 29 17 30 18 12 19 11 20 10 21 13 22
REMARK SMILES IDX 31 23 25 24 26 25 19 26 2 27 3 28 1 29 8 30 9 31 23 33
REMARK H PARENT 9 32 23 34
REMARK Flexibility Score: inf
ROOT
ATOM      1  C   UNL     1      63.654  -2.750   1.304  1.00  0.00     0.018 C 
ATOM      2  C   UNL     1      64.940  -3.505   1.730  1.00  0.00     0.009 C 
ATOM      3  C   UNL     1      65.613  -2.656   2.821  1.00  0.00     0.010 C 
ATOM      4  C   UNL     1      64.538  -1.657   3.274  1.00  0.00    -0.003 C 
ATOM      5  C   UNL     1      63.801  -1.361   1.964  1.00  0.00     0.008 C 
ATOM      6  C   UNL     1      62.554  -0.424   2.171  1.00  0.00    -0.000 C 
ATOM      7  C   UNL     1      61.909  -0.048   0.817  1.00  0.00     0.005 C 
ATOM      8  C   UNL     1      62.705   0.981  -0.024  1.00  0.00     0.005 C 
ATOM      9  C   UNL     1      63.676   1.862   0.809  1.00  0.00     0.002 C 
ATOM     10  C   UNL     1      64.555   2.962   0.005  1.00  0.00    -0.026 C 
ATOM     11  C   UNL     1      64.285   2.913  -1.534  1.00  0.00     0.010 C 
ATOM     12  C   UNL     1      64.992   4.022  -2.338  1.00  0.00     0.033 C 
ATOM     13  C   UNL     1      64.646   5.436  -1.826  1.00  0.00     0.120 C 
ATOM     14  C   UNL     1      64.915   5.608  -0.292  1.00  0.00    -0.006 C 
ATOM     15  C   UNL     1      64.222   4.419   0.489  1.00  0.00     0.003 C 
ATOM     16  C   UNL     1      64.200   4.589   2.036  1.00  0.00     0.005 C 
ATOM     17  C   UNL     1      63.977   3.294   2.840  1.00  0.00     0.008 C 
ATOM     18  C   UNL     1      63.019   2.258   2.178  1.00  0.00    -0.024 C 
ATOM     19  C   UNL     1      62.813   0.891   3.088  1.00  0.00    -0.024 C 
ATOM     20  C   UNL     1      63.983   0.645   4.155  1.00  0.00     0.008 C 
ATOM     21  C   UNL     1      65.117  -0.311   3.753  1.00  0.00     0.010 C 
ATOM     22  C   UNL     1      61.537   1.047   3.987  1.00  0.00     0.012 C 
ATOM     23  C   UNL     1      61.642   2.995   1.951  1.00  0.00     0.012 C 
ATOM     24  C   UNL     1      66.448   5.739  -0.035  1.00  0.00     0.014 C 
ATOM     25  C   UNL     1      64.272   6.953   0.159  1.00  0.00     0.014 C 
ATOM     26  C   UNL     1      66.066   2.609   0.224  1.00  0.00     0.012 C 
ENDROOT
BRANCH   1  27
ATOM     27  C   UNL     1      63.499  -2.750  -0.216  1.00  0.00    -0.077 C 
ATOM     28  C   UNL     1      64.505  -2.020  -1.072  1.00  0.00     0.039 C 
ATOM     29  C   UNL     1      62.450  -3.333  -0.825  1.00  0.00     0.008 C 
ENDBRANCH   1  27
BRANCH   4  30
ATOM     30  C   UNL     1      63.663  -2.318   4.405  1.00  0.00     0.163 C 
BRANCH  30  31
ATOM     31  O   UNL     1      64.404  -3.171   5.242  1.00  0.00    -0.396 OA
ATOM     32  H   UNL     1      64.032  -3.076   6.159  1.00  0.00     0.210 HD
ENDBRANCH  30  31
ENDBRANCH   4  30
BRANCH  13  33
ATOM     33  O   UNL     1      63.293   5.705  -2.121  1.00  0.00    -0.393 OA
ATOM     34  H   UNL     1      62.746   5.191  -1.473  1.00  0.00     0.210 HD
ENDBRANCH  13  33
TORSDOF 4
ENDMDL
MODEL 5
REMARK VINA RESULT:    -7.321      3.680      7.005
REMARK INTER + INTRA:          -9.359
REMARK INTER:                  -8.644
REMARK INTRA:                  -0.715
REMARK UNBOUND:                -0.755
REMARK SMILES C=C(C)[C@H]1CC[C@@]2(CO)CC[C@]3(C)[C@@H](CC[C@H]4[C@@]5(C)CC[C@@H](O)C(C)(C)[C@@H]5CC[C@@]43C)[C@H]12
REMARK SMILES IDX 4 1 5 2 6 3 7 4 32 5 14 6 15 7 16 8 17 9 18 10 20 11 21 12
REMARK SMILES IDX 22 13 24 14 27 15 28 16 29 17 30 18 12 19 11 20 10 21 13 22
REMARK SMILES IDX 31 23 25 24 26 25 19 26 2 27 3 28 1 29 8 30 9 31 23 33
REMARK H PARENT 9 32 23 34
REMARK Flexibility Score: inf
ROOT
ATOM      1  C   UNL     1      64.468   3.105  -1.893  1.00  0.00     0.018 C 
ATOM      2  C   UNL     1      65.743   2.543  -2.577  1.00  0.00     0.009 C 
ATOM      3  C   UNL     1      66.079   1.219  -1.871  1.00  0.00     0.010 C 
ATOM      4  C   UNL     1      64.814   0.850  -1.082  1.00  0.00    -0.003 C 
ATOM      5  C   UNL     1      64.301   2.223  -0.635  1.00  0.00     0.008 C 
ATOM      6  C   UNL     1      62.922   2.136   0.118  1.00  0.00    -0.000 C 
ATOM      7  C   UNL     1      62.496   3.521   0.660  1.00  0.00     0.005 C 
ATOM      8  C   UNL     1      63.289   4.011   1.898  1.00  0.00     0.005 C 
ATOM      9  C   UNL     1      63.959   2.870   2.712  1.00  0.00     0.002 C 
ATOM     10  C   UNL     1      64.816   3.297   4.021  1.00  0.00    -0.026 C 
ATOM     11  C   UNL     1      64.847   4.847   4.218  1.00  0.00     0.010 C 
ATOM     12  C   UNL     1      65.535   5.307   5.517  1.00  0.00     0.033 C 
ATOM     13  C   UNL     1      64.911   4.668   6.775  1.00  0.00     0.120 C 
ATOM     14  C   UNL     1      64.864   3.103   6.700  1.00  0.00    -0.006 C 
ATOM     15  C   UNL     1      64.205   2.674   5.327  1.00  0.00     0.003 C 
ATOM     16  C   UNL     1      63.872   1.158   5.217  1.00  0.00     0.005 C 
ATOM     17  C   UNL     1      63.679   0.625   3.783  1.00  0.00     0.008 C 
ATOM     18  C   UNL     1      63.011   1.622   2.789  1.00  0.00    -0.024 C 
ATOM     19  C   UNL     1      62.825   0.995   1.269  1.00  0.00    -0.024 C 
ATOM     20  C   UNL     1      63.798  -0.240   0.958  1.00  0.00     0.008 C 
ATOM     21  C   UNL     1      65.106   0.061   0.209  1.00  0.00     0.010 C 
ATOM     22  C   UNL     1      61.395   0.366   1.133  1.00  0.00     0.012 C 
ATOM     23  C   UNL     1      61.614   2.013   3.410  1.00  0.00     0.012 C 
ATOM     24  C   UNL     1      66.290   2.518   6.939  1.00  0.00     0.014 C 
ATOM     25  C   UNL     1      63.972   2.594   7.871  1.00  0.00     0.014 C 
ATOM     26  C   UNL     1      66.293   2.827   3.790  1.00  0.00     0.012 C 
ENDROOT
BRANCH   1  27
ATOM     27  C   UNL     1      64.602   4.605  -1.640  1.00  0.00    -0.077 C 
ATOM     28  C   UNL     1      65.567   5.106  -0.594  1.00  0.00     0.039 C 
ATOM     29  C   UNL     1      63.834   5.506  -2.279  1.00  0.00     0.008 C 
ENDBRANCH   1  27
BRANCH   4  30
ATOM     30  C   UNL     1      63.841   0.039  -2.019  1.00  0.00     0.163 C 
BRANCH  30  31
ATOM     31  O   UNL     1      64.243  -1.296  -2.202  1.00  0.00    -0.396 OA
ATOM     32  H   UNL     1      63.427  -1.858  -2.130  1.00  0.00     0.210 HD
ENDBRANCH  30  31
ENDBRANCH   4  30
BRANCH  13  33
ATOM     33  O   UNL     1      63.614   5.190   6.954  1.00  0.00    -0.393 OA
ATOM     34  H   UNL     1      63.296   4.883   7.842  1.00  0.00     0.210 HD
ENDBRANCH  13  33
TORSDOF 4
ENDMDL
MODEL 6
REMARK VINA RESULT:    -7.217      3.810      7.514
REMARK INTER + INTRA:          -9.237
REMARK INTER:                  -8.428
REMARK INTRA:                  -0.809
REMARK UNBOUND:                -0.755
REMARK SMILES C=C(C)[C@H]1CC[C@@]2(CO)CC[C@]3(C)[C@@H](CC[C@H]4[C@@]5(C)CC[C@@H](O)C(C)(C)[C@@H]5CC[C@@]43C)[C@H]12
REMARK SMILES IDX 4 1 5 2 6 3 7 4 32 5 14 6 15 7 16 8 17 9 18 10 20 11 21 12
REMARK SMILES IDX 22 13 24 14 27 15 28 16 29 17 30 18 12 19 11 20 10 21 13 22
REMARK SMILES IDX 31 23 25 24 26 25 19 26 2 27 3 28 1 29 8 30 9 31 23 33
REMARK H PARENT 9 32 23 34
REMARK Flexibility Score: inf
ROOT
ATOM      1  C   UNL     1      64.412   1.914   6.474  1.00  0.00     0.018 C 
ATOM      2  C   UNL     1      64.266   3.227   7.287  1.00  0.00     0.009 C 
ATOM      3  C   UNL     1      63.407   4.181   6.440  1.00  0.00     0.010 C 
ATOM      4  C   UNL     1      62.763   3.295   5.364  1.00  0.00    -0.003 C 
ATOM      5  C   UNL     1      63.874   2.282   5.073  1.00  0.00     0.008 C 
ATOM      6  C   UNL     1      63.423   1.168   4.058  1.00  0.00    -0.000 C 
ATOM      7  C   UNL     1      64.603   0.236   3.694  1.00  0.00     0.005 C 
ATOM      8  C   UNL     1      65.658   0.857   2.743  1.00  0.00     0.005 C 
ATOM      9  C   UNL     1      65.122   2.041   1.892  1.00  0.00     0.002 C 
ATOM     10  C   UNL     1      66.165   2.754   0.875  1.00  0.00    -0.026 C 
ATOM     11  C   UNL     1      67.592   2.122   0.963  1.00  0.00     0.010 C 
ATOM     12  C   UNL     1      68.593   2.669  -0.072  1.00  0.00     0.033 C 
ATOM     13  C   UNL     1      68.084   2.523  -1.522  1.00  0.00     0.120 C 
ATOM     14  C   UNL     1      66.667   3.160  -1.733  1.00  0.00    -0.006 C 
ATOM     15  C   UNL     1      65.687   2.617  -0.615  1.00  0.00     0.003 C 
ATOM     16  C   UNL     1      64.189   2.974  -0.842  1.00  0.00     0.005 C 
ATOM     17  C   UNL     1      63.292   2.887   0.408  1.00  0.00     0.008 C 
ATOM     18  C   UNL     1      63.658   1.750   1.409  1.00  0.00    -0.024 C 
ATOM     19  C   UNL     1      62.659   1.701   2.728  1.00  0.00    -0.024 C 
ATOM     20  C   UNL     1      61.889   3.079   3.003  1.00  0.00     0.008 C 
ATOM     21  C   UNL     1      62.500   4.037   4.038  1.00  0.00     0.010 C 
ATOM     22  C   UNL     1      61.493   0.686   2.465  1.00  0.00     0.012 C 
ATOM     23  C   UNL     1      63.589   0.395   0.602  1.00  0.00     0.012 C 
ATOM     24  C   UNL     1      66.787   4.714  -1.784  1.00  0.00     0.014 C 
ATOM     25  C   UNL     1      66.143   2.709  -3.129  1.00  0.00     0.014 C 
ATOM     26  C   UNL     1      66.292   4.255   1.307  1.00  0.00     0.012 C 
ENDROOT
BRANCH   1  27
ATOM     27  C   UNL     1      65.850   1.401   6.520  1.00  0.00    -0.077 C 
ATOM     28  C   UNL     1      66.962   2.234   5.930  1.00  0.00     0.039 C 
ATOM     29  C   UNL     1      66.158   0.189   7.017  1.00  0.00     0.008 C 
ENDBRANCH   1  27
BRANCH   4  30
ATOM     30  C   UNL     1      61.426   2.685   5.932  1.00  0.00     0.163 C 
BRANCH  30  31
ATOM     31  O   UNL     1      60.740   3.568   6.786  1.00  0.00    -0.396 OA
ATOM     32  H   UNL     1      59.908   3.840   6.316  1.00  0.00     0.210 HD
ENDBRANCH  30  31
ENDBRANCH   4  30
BRANCH  13  33
ATOM     33  O   UNL     1      68.063   1.155  -1.859  1.00  0.00    -0.393 OA
ATOM     34  H   UNL     1      67.159   0.813  -1.633  1.00  0.00     0.210 HD
ENDBRANCH  13  33
TORSDOF 4
ENDMDL
MODEL 7
REMARK VINA RESULT:    -7.178      3.752      7.238
REMARK INTER + INTRA:          -9.191
REMARK INTER:                  -8.388
REMARK INTRA:                  -0.803
REMARK UNBOUND:                -0.755
REMARK SMILES C=C(C)[C@H]1CC[C@@]2(CO)CC[C@]3(C)[C@@H](CC[C@H]4[C@@]5(C)CC[C@@H](O)C(C)(C)[C@@H]5CC[C@@]43C)[C@H]12
REMARK SMILES IDX 4 1 5 2 6 3 7 4 32 5 14 6 15 7 16 8 17 9 18 10 20 11 21 12
REMARK SMILES IDX 22 13 24 14 27 15 28 16 29 17 30 18 12 19 11 20 10 21 13 22
REMARK SMILES IDX 31 23 25 24 26 25 19 26 2 27 3 28 1 29 8 30 9 31 23 33
REMARK H PARENT 9 32 23 34
REMARK Flexibility Score: inf
ROOT
ATOM      1  C   UNL     1      63.701   3.874   5.669  1.00  0.00     0.018 C 
ATOM      2  C   UNL     1      64.760   3.527   6.748  1.00  0.00     0.009 C 
ATOM      3  C   UNL     1      66.129   3.924   6.171  1.00  0.00     0.010 C 
ATOM      4  C   UNL     1      65.813   4.827   4.969  1.00  0.00    -0.003 C 
ATOM      5  C   UNL     1      64.541   4.184   4.409  1.00  0.00     0.008 C 
ATOM      6  C   UNL     1      63.932   4.998   3.208  1.00  0.00    -0.000 C 
ATOM      7  C   UNL     1      62.722   4.258   2.591  1.00  0.00     0.005 C 
ATOM      8  C   UNL     1      63.081   3.016   1.736  1.00  0.00     0.005 C 
ATOM      9  C   UNL     1      64.533   3.027   1.184  1.00  0.00     0.002 C 
ATOM     10  C   UNL     1      64.994   1.759   0.285  1.00  0.00    -0.026 C 
ATOM     11  C   UNL     1      63.860   0.690   0.159  1.00  0.00     0.010 C 
ATOM     12  C   UNL     1      64.192  -0.476  -0.792  1.00  0.00     0.033 C 
ATOM     13  C   UNL     1      64.570   0.004  -2.208  1.00  0.00     0.120 C 
ATOM     14  C   UNL     1      65.730   1.058  -2.202  1.00  0.00    -0.006 C 
ATOM     15  C   UNL     1      65.376   2.205  -1.171  1.00  0.00     0.003 C 
ATOM     16  C   UNL     1      66.320   3.441  -1.234  1.00  0.00     0.005 C 
ATOM     17  C   UNL     1      66.315   4.341   0.017  1.00  0.00     0.008 C 
ATOM     18  C   UNL     1      64.938   4.474   0.733  1.00  0.00    -0.024 C 
ATOM     19  C   UNL     1      64.991   5.455   2.065  1.00  0.00    -0.024 C 
ATOM     20  C   UNL     1      66.464   5.642   2.668  1.00  0.00     0.008 C 
ATOM     21  C   UNL     1      66.866   4.741   3.847  1.00  0.00     0.010 C 
ATOM     22  C   UNL     1      64.584   6.914   1.659  1.00  0.00     0.012 C 
ATOM     23  C   UNL     1      63.922   5.036  -0.337  1.00  0.00     0.012 C 
ATOM     24  C   UNL     1      67.090   0.346  -1.929  1.00  0.00     0.014 C 
ATOM     25  C   UNL     1      65.827   1.671  -3.630  1.00  0.00     0.014 C 
ATOM     26  C   UNL     1      66.199   1.076   1.017  1.00  0.00     0.012 C 
ENDROOT
BRANCH   1  27
ATOM     27  C   UNL     1      62.679   2.748   5.526  1.00  0.00    -0.077 C 
ATOM     28  C   UNL     1      63.123   1.391   5.035  1.00  0.00     0.039 C 
ATOM     29  C   UNL     1      61.369   2.940   5.763  1.00  0.00     0.008 C 
ENDBRANCH   1  27
BRANCH   4  30
ATOM     30  C   UNL     1      65.655   6.313   5.468  1.00  0.00     0.163 C 
BRANCH  30  31
ATOM     31  O   UNL     1      66.852   6.850   5.976  1.00  0.00    -0.396 OA
ATOM     32  H   UNL     1      66.601   7.536   6.650  1.00  0.00     0.210 HD
ENDBRANCH  30  31
ENDBRANCH   4  30
BRANCH  13  33
ATOM     33  O   UNL     1      63.422   0.541  -2.826  1.00  0.00    -0.393 OA
ATOM     34  H   UNL     1      62.636   0.089  -2.423  1.00  0.00     0.210 HD
ENDBRANCH  13  33
TORSDOF 4
ENDMDL
MODEL 8
REMARK VINA RESULT:    -7.167      4.020      6.679
REMARK INTER + INTRA:          -9.179
REMARK INTER:                  -8.418
REMARK INTRA:                  -0.761
REMARK UNBOUND:                -0.755
REMARK SMILES C=C(C)[C@H]1CC[C@@]2(CO)CC[C@]3(C)[C@@H](CC[C@H]4[C@@]5(C)CC[C@@H](O)C(C)(C)[C@@H]5CC[C@@]43C)[C@H]12
REMARK SMILES IDX 4 1 5 2 6 3 7 4 32 5 14 6 15 7 16 8 17 9 18 10 20 11 21 12
REMARK SMILES IDX 22 13 24 14 27 15 28 16 29 17 30 18 12 19 11 20 10 21 13 22
REMARK SMILES IDX 31 23 25 24 26 25 19 26 2 27 3 28 1 29 8 30 9 31 23 33
REMARK H PARENT 9 32 23 34
REMARK Flexibility Score: inf
ROOT
ATOM      1  C   UNL     1      64.815   2.357   6.776  1.00  0.00     0.018 C 
ATOM      2  C   UNL     1      64.899   3.889   7.008  1.00  0.00     0.009 C 
ATOM      3  C   UNL     1      63.838   4.534   6.101  1.00  0.00     0.010 C 
ATOM      4  C   UNL     1      62.921   3.381   5.669  1.00  0.00    -0.003 C 
ATOM      5  C   UNL     1      63.909   2.218   5.532  1.00  0.00     0.008 C 
ATOM      6  C   UNL     1      63.196   0.857   5.195  1.00  0.00    -0.000 C 
ATOM      7  C   UNL     1      64.230  -0.266   4.944  1.00  0.00     0.005 C 
ATOM      8  C   UNL     1      64.980  -0.175   3.590  1.00  0.00     0.005 C 
ATOM      9  C   UNL     1      64.227   0.644   2.505  1.00  0.00     0.002 C 
ATOM     10  C   UNL     1      64.946   0.797   1.060  1.00  0.00    -0.026 C 
ATOM     11  C   UNL     1      66.343   0.095   1.026  1.00  0.00     0.010 C 
ATOM     12  C   UNL     1      67.017   0.091  -0.360  1.00  0.00     0.033 C 
ATOM     13  C   UNL     1      66.126  -0.541  -1.450  1.00  0.00     0.120 C 
ATOM     14  C   UNL     1      64.705   0.118  -1.529  1.00  0.00    -0.006 C 
ATOM     15  C   UNL     1      64.075   0.153  -0.078  1.00  0.00     0.003 C 
ATOM     16  C   UNL     1      62.572   0.558  -0.038  1.00  0.00     0.005 C 
ATOM     17  C   UNL     1      62.057   1.053   1.328  1.00  0.00     0.008 C 
ATOM     18  C   UNL     1      62.687   0.353   2.569  1.00  0.00    -0.024 C 
ATOM     19  C   UNL     1      62.093   0.921   4.005  1.00  0.00    -0.024 C 
ATOM     20  C   UNL     1      61.428   2.375   3.897  1.00  0.00     0.008 C 
ATOM     21  C   UNL     1      62.301   3.583   4.273  1.00  0.00     0.010 C 
ATOM     22  C   UNL     1      60.900   0.017   4.474  1.00  0.00     0.012 C 
ATOM     23  C   UNL     1      62.398  -1.191   2.413  1.00  0.00     0.012 C 
ATOM     24  C   UNL     1      64.805   1.511  -2.221  1.00  0.00     0.014 C 
ATOM     25  C   UNL     1      63.816  -0.773  -2.446  1.00  0.00     0.014 C 
ATOM     26  C   UNL     1      65.187   2.325   0.812  1.00  0.00     0.012 C 
ENDROOT
BRANCH   1  27
ATOM     27  C   UNL     1      66.210   1.747   6.654  1.00  0.00    -0.077 C 
ATOM     28  C   UNL     1      66.692   0.766   7.694  1.00  0.00     0.039 C 
ATOM     29  C   UNL     1      67.061   2.105   5.675  1.00  0.00     0.008 C 
ENDBRANCH   1  27
BRANCH   4  30
ATOM     30  C   UNL     1      61.795   3.184   6.753  1.00  0.00     0.163 C 
BRANCH  30  31
ATOM     31  O   UNL     1      60.865   4.239   6.773  1.00  0.00    -0.396 OA
ATOM     32  H   UNL     1      61.342   5.042   7.113  1.00  0.00     0.210 HD
ENDBRANCH  30  31
ENDBRANCH   4  30
BRANCH  13  33
ATOM     33  O   UNL     1      66.014  -1.923  -1.198  1.00  0.00    -0.393 OA
ATOM     34  H   UNL     1      66.895  -2.329  -1.403  1.00  0.00     0.210 HD
ENDBRANCH  13  33
TORSDOF 4
ENDMDL
MODEL 9
REMARK VINA RESULT:    -7.133      4.329      7.955
REMARK INTER + INTRA:          -9.138
REMARK INTER:                  -8.345
REMARK INTRA:                  -0.794
REMARK UNBOUND:                -0.755
REMARK SMILES C=C(C)[C@H]1CC[C@@]2(CO)CC[C@]3(C)[C@@H](CC[C@H]4[C@@]5(C)CC[C@@H](O)C(C)(C)[C@@H]5CC[C@@]43C)[C@H]12
REMARK SMILES IDX 4 1 5 2 6 3 7 4 32 5 14 6 15 7 16 8 17 9 18 10 20 11 21 12
REMARK SMILES IDX 22 13 24 14 27 15 28 16 29 17 30 18 12 19 11 20 10 21 13 22
REMARK SMILES IDX 31 23 25 24 26 25 19 26 2 27 3 28 1 29 8 30 9 31 23 33
REMARK H PARENT 9 32 23 34
REMARK Flexibility Score: inf
ROOT
ATOM      1  C   UNL     1      65.914   0.383   5.764  1.00  0.00     0.018 C 
ATOM      2  C   UNL     1      66.750   1.013   6.909  1.00  0.00     0.009 C 
ATOM      3  C   UNL     1      66.256   2.460   7.075  1.00  0.00     0.010 C 
ATOM      4  C   UNL     1      64.920   2.519   6.319  1.00  0.00    -0.003 C 
ATOM      5  C   UNL     1      65.181   1.587   5.132  1.00  0.00     0.008 C 
ATOM      6  C   UNL     1      63.904   1.381   4.235  1.00  0.00    -0.000 C 
ATOM      7  C   UNL     1      64.234   0.535   2.983  1.00  0.00     0.005 C 
ATOM      8  C   UNL     1      65.042   1.277   1.888  1.00  0.00     0.005 C 
ATOM      9  C   UNL     1      64.917   2.824   1.948  1.00  0.00     0.002 C 
ATOM     10  C   UNL     1      65.739   3.678   0.841  1.00  0.00    -0.026 C 
ATOM     11  C   UNL     1      66.574   2.756  -0.105  1.00  0.00     0.010 C 
ATOM     12  C   UNL     1      67.272   3.500  -1.260  1.00  0.00     0.033 C 
ATOM     13  C   UNL     1      66.285   4.317  -2.121  1.00  0.00     0.120 C 
ATOM     14  C   UNL     1      65.417   5.307  -1.271  1.00  0.00    -0.006 C 
ATOM     15  C   UNL     1      64.766   4.516  -0.065  1.00  0.00     0.003 C 
ATOM     16  C   UNL     1      63.687   5.314   0.722  1.00  0.00     0.005 C 
ATOM     17  C   UNL     1      63.379   4.790   2.138  1.00  0.00     0.008 C 
ATOM     18  C   UNL     1      63.446   3.242   2.302  1.00  0.00    -0.024 C 
ATOM     19  C   UNL     1      63.101   2.736   3.840  1.00  0.00    -0.024 C 
ATOM     20  C   UNL     1      63.288   3.877   4.949  1.00  0.00     0.008 C 
ATOM     21  C   UNL     1      64.620   3.906   5.717  1.00  0.00     0.010 C 
ATOM     22  C   UNL     1      61.578   2.381   3.946  1.00  0.00     0.012 C 
ATOM     23  C   UNL     1      62.422   2.631   1.267  1.00  0.00     0.012 C 
ATOM     24  C   UNL     1      66.278   6.535  -0.845  1.00  0.00     0.014 C 
ATOM     25  C   UNL     1      64.283   5.855  -2.188  1.00  0.00     0.014 C 
ATOM     26  C   UNL     1      66.749   4.596   1.610  1.00  0.00     0.012 C 
ENDROOT
BRANCH   1  27
ATOM     27  C   UNL     1      66.803  -0.424   4.820  1.00  0.00    -0.077 C 
ATOM     28  C   UNL     1      67.870   0.276   4.014  1.00  0.00     0.039 C 
ATOM     29  C   UNL     1      66.627  -1.745   4.630  1.00  0.00     0.008 C 
ENDBRANCH   1  27
BRANCH   4  30
ATOM     30  C   UNL     1      63.760   2.071   7.286  1.00  0.00     0.163 C 
BRANCH  30  31
ATOM     31  O   UNL     1      64.047   2.327   8.640  1.00  0.00    -0.396 OA
ATOM     32  H   UNL     1      63.681   3.226   8.850  1.00  0.00     0.210 HD
ENDBRANCH  30  31
ENDBRANCH   4  30
BRANCH  13  33
ATOM     33  O   UNL     1      65.458   3.424  -2.832  1.00  0.00    -0.393 OA
ATOM     34  H   UNL     1      64.829   3.024  -2.177  1.00  0.00     0.210 HD
ENDBRANCH  13  33
TORSDOF 4
ENDMDL
