MODEL 1
REMARK VINA RESULT:    -4.340      0.000      0.000
REMARK INTER + INTRA:          -6.044
REMARK INTER:                  -6.115
REMARK INTRA:                   0.071
REMARK UNBOUND:                 0.071
REMARK SMILES CC1=CCC(=C(C)C)C(=O)CC(C)=CCC1
REMARK SMILES IDX 12 1 14 2 13 3 15 4 16 5 2 6 1 7 3 8 11 10 9 11 10 12 5 13
REMARK SMILES IDX 6 14 7 15 8 16 4 17
REMARK H PARENT
REMARK Flexibility Score: 60.00
ROOT
ATOM      1  C   UNL     1      51.511  31.511  31.384  1.00  0.00    -0.070 C 
ATOM      2  C   UNL     1      52.857  31.449  31.507  1.00  0.00    -0.027 C 
ATOM      3  C   UNL     1      50.832  30.496  30.501  1.00  0.00     0.039 C 
ENDROOT
BRANCH   2   4
ATOM      4  C   UNL     1      53.678  32.287  32.455  1.00  0.00     0.032 C 
BRANCH   4   5
ATOM      5  C   UNL     1      54.326  33.450  31.695  1.00  0.00     0.034 C 
BRANCH   5   6
ATOM      6  C   UNL     1      54.049  34.792  32.340  1.00  0.00    -0.077 C 
ATOM      7  C   UNL     1      54.915  35.232  33.493  1.00  0.00     0.039 C 
ATOM      8  C   UNL     1      53.015  35.595  31.986  1.00  0.00    -0.023 CG0
ATOM      9  G   UNL     1      52.048  35.401  30.831  1.00  0.00     0.000 G0
ENDBRANCH   5   6
ENDBRANCH   4   5
ENDBRANCH   2   4
BRANCH   1  10
ATOM     10  C   UNL     1      50.658  32.559  32.070  1.00  0.00     0.111 C 
BRANCH  10  11
ATOM     11  C   UNL     1      50.185  33.620  31.105  1.00  0.00     0.163 C 
ATOM     12  O   UNL     1      49.410  33.251  30.182  1.00  0.00    -0.294 OA
BRANCH  11  13
ATOM     13  C   UNL     1      50.604  35.060  31.176  1.00  0.00    -0.002 C 
ATOM     14  C   UNL     1      49.677  36.044  31.388  1.00  0.00    -0.069 C 
ATOM     15  C   UNL     1      48.269  35.720  31.836  1.00  0.00     0.039 C 
ATOM     16  C   UNL     1      50.014  37.510  31.235  1.00  0.00     0.039 C 
BRANCH  13  17
ATOM     17  C   UNL     1      52.049  35.399  30.825  1.00  0.00     0.066 CG0
ATOM     18  G   UNL     1      53.001  35.587  31.993  1.00  0.00     0.000 G0
ENDBRANCH  13  17
ENDBRANCH  11  13
ENDBRANCH  10  11
ENDBRANCH   1  10
TORSDOF 0
ENDMDL
MODEL 2
REMARK VINA RESULT:    -4.300      2.114      4.052
REMARK INTER + INTRA:          -5.988
REMARK INTER:                  -5.971
REMARK INTRA:                  -0.017
REMARK UNBOUND:                 0.071
REMARK SMILES CC1=CCC(=C(C)C)C(=O)CC(C)=CCC1
REMARK SMILES IDX 12 1 14 2 13 3 15 4 16 5 2 6 1 7 3 8 11 10 9 11 10 12 5 13
REMARK SMILES IDX 6 14 7 15 8 16 4 17
REMARK H PARENT
REMARK Flexibility Score: 60.00
ROOT
ATOM      1  C   UNL     1      55.416  32.774  32.238  1.00  0.00    -0.070 C 
ATOM      2  C   UNL     1      55.135  31.453  32.158  1.00  0.00    -0.027 C 
ATOM      3  C   UNL     1      56.662  33.191  32.977  1.00  0.00     0.039 C 
ENDROOT
BRANCH   2   4
ATOM      4  C   UNL     1      54.019  30.855  31.340  1.00  0.00     0.032 C 
BRANCH   4   5
ATOM      5  C   UNL     1      52.728  30.823  32.166  1.00  0.00     0.034 C 
BRANCH   5   6
ATOM      6  C   UNL     1      51.532  31.344  31.395  1.00  0.00    -0.077 C 
ATOM      7  C   UNL     1      51.013  30.536  30.233  1.00  0.00     0.039 C 
ATOM      8  C   UNL     1      50.942  32.539  31.645  1.00  0.00    -0.023 CG0
ATOM      9  G   UNL     1      51.243  33.498  32.784  1.00  0.00     0.000 G0
ENDBRANCH   5   6
ENDBRANCH   4   5
ENDBRANCH   2   4
BRANCH   1  10
ATOM     10  C   UNL     1      54.532  33.852  31.643  1.00  0.00     0.111 C 
BRANCH  10  11
ATOM     11  C   UNL     1      53.624  34.471  32.679  1.00  0.00     0.163 C 
ATOM     12  O   UNL     1      54.151  34.815  33.771  1.00  0.00    -0.294 OA
BRANCH  11  13
ATOM     13  C   UNL     1      52.149  34.671  32.483  1.00  0.00    -0.002 C 
ATOM     14  C   UNL     1      51.647  35.915  32.208  1.00  0.00    -0.069 C 
ATOM     15  C   UNL     1      52.550  37.061  31.811  1.00  0.00     0.039 C 
ATOM     16  C   UNL     1      50.163  36.204  32.234  1.00  0.00     0.039 C 
BRANCH  13  17
ATOM     17  C   UNL     1      51.225  33.495  32.781  1.00  0.00     0.066 CG0
ATOM     18  G   UNL     1      50.945  32.548  31.628  1.00  0.00     0.000 G0
ENDBRANCH  13  17
ENDBRANCH  11  13
ENDBRANCH  10  11
ENDBRANCH   1  10
TORSDOF 0
ENDMDL
MODEL 3
REMARK VINA RESULT:    -4.236      1.927      3.830
REMARK INTER + INTRA:          -5.898
REMARK INTER:                  -6.001
REMARK INTRA:                   0.103
REMARK UNBOUND:                 0.071
REMARK SMILES CC1=CCC(=C(C)C)C(=O)CC(C)=CCC1
REMARK SMILES IDX 12 1 14 2 13 3 15 4 16 5 2 6 1 7 3 8 11 10 9 11 10 12 5 13
REMARK SMILES IDX 6 14 7 15 8 16 4 17
REMARK H PARENT
REMARK Flexibility Score: 60.00
ROOT
ATOM      1  C   UNL     1      53.266  35.741  31.704  1.00  0.00    -0.070 C 
ATOM      2  C   UNL     1      54.132  34.762  32.051  1.00  0.00    -0.027 C 
ATOM      3  C   UNL     1      53.622  37.162  32.058  1.00  0.00     0.039 C 
ENDROOT
BRANCH   2   4
ATOM      4  C   UNL     1      54.006  33.314  31.649  1.00  0.00     0.032 C 
BRANCH   4   5
ATOM      5  C   UNL     1      52.992  32.609  32.559  1.00  0.00     0.034 C 
BRANCH   5   6
ATOM      6  C   UNL     1      51.984  31.790  31.779  1.00  0.00    -0.077 C 
ATOM      7  C   UNL     1      52.483  30.657  30.919  1.00  0.00     0.039 C 
ATOM      8  C   UNL     1      50.656  32.064  31.751  1.00  0.00    -0.023 CG0
ATOM      9  G   UNL     1      49.910  33.106  32.567  1.00  0.00     0.000 G0
ENDBRANCH   5   6
ENDBRANCH   4   5
ENDBRANCH   2   4
BRANCH   1  10
ATOM     10  C   UNL     1      51.949  35.479  31.001  1.00  0.00     0.111 C 
BRANCH  10  11
ATOM     11  C   UNL     1      50.788  35.463  31.967  1.00  0.00     0.163 C 
ATOM     12  O   UNL     1      50.786  36.337  32.875  1.00  0.00    -0.294 OA
BRANCH  11  13
ATOM     13  C   UNL     1      49.671  34.462  31.913  1.00  0.00    -0.002 C 
ATOM     14  C   UNL     1      48.440  34.818  31.431  1.00  0.00    -0.069 C 
ATOM     15  C   UNL     1      48.231  36.116  30.682  1.00  0.00     0.039 C 
ATOM     16  C   UNL     1      47.232  33.920  31.573  1.00  0.00     0.039 C 
BRANCH  13  17
ATOM     17  C   UNL     1      49.896  33.107  32.575  1.00  0.00     0.066 CG0
ATOM     18  G   UNL     1      50.654  32.074  31.760  1.00  0.00     0.000 G0
ENDBRANCH  13  17
ENDBRANCH  11  13
ENDBRANCH  10  11
ENDBRANCH   1  10
TORSDOF 0
ENDMDL
MODEL 4
REMARK VINA RESULT:    -4.217      1.953      3.868
REMARK INTER + INTRA:          -5.871
REMARK INTER:                  -5.757
REMARK INTRA:                  -0.113
REMARK UNBOUND:                 0.071
REMARK SMILES CC1=CCC(=C(C)C)C(=O)CC(C)=CCC1
REMARK SMILES IDX 12 1 14 2 13 3 15 4 16 5 2 6 1 7 3 8 11 10 9 11 10 12 5 13
REMARK SMILES IDX 6 14 7 15 8 16 4 17
REMARK H PARENT
REMARK Flexibility Score: 60.00
ROOT
ATOM      1  C   UNL     1      53.651  32.277  31.445  1.00  0.00    -0.070 C 
ATOM      2  C   UNL     1      52.571  31.471  31.321  1.00  0.00    -0.027 C 
ATOM      3  C   UNL     1      54.953  31.657  31.885  1.00  0.00     0.039 C 
ENDROOT
BRANCH   2   4
ATOM      4  C   UNL     1      51.238  31.893  30.757  1.00  0.00     0.032 C 
BRANCH   4   5
ATOM      5  C   UNL     1      50.333  32.402  31.886  1.00  0.00     0.034 C 
BRANCH   5   6
ATOM      6  C   UNL     1      49.509  33.604  31.472  1.00  0.00    -0.077 C 
ATOM      7  C   UNL     1      48.394  33.407  30.476  1.00  0.00     0.039 C 
ATOM      8  C   UNL     1      49.764  34.868  31.892  1.00  0.00    -0.023 CG0
ATOM      9  G   UNL     1      50.784  35.310  32.926  1.00  0.00     0.000 G0
ENDBRANCH   5   6
ENDBRANCH   4   5
ENDBRANCH   2   4
BRANCH   1  10
ATOM     10  C   UNL     1      53.612  33.770  31.186  1.00  0.00     0.111 C 
BRANCH  10  11
ATOM     11  C   UNL     1      53.210  34.545  32.419  1.00  0.00     0.163 C 
ATOM     12  O   UNL     1      53.761  34.219  33.505  1.00  0.00    -0.294 OA
BRANCH  11  13
ATOM     13  C   UNL     1      52.191  35.647  32.417  1.00  0.00    -0.002 C 
ATOM     14  C   UNL     1      52.558  36.932  32.122  1.00  0.00    -0.069 C 
ATOM     15  C   UNL     1      53.907  37.249  31.516  1.00  0.00     0.039 C 
ATOM     16  C   UNL     1      51.623  38.101  32.334  1.00  0.00     0.039 C 
BRANCH  13  17
ATOM     17  C   UNL     1      50.792  35.324  32.930  1.00  0.00     0.066 CG0
ATOM     18  G   UNL     1      49.780  34.871  31.893  1.00  0.00     0.000 G0
ENDBRANCH  13  17
ENDBRANCH  11  13
ENDBRANCH  10  11
ENDBRANCH   1  10
TORSDOF 0
ENDMDL
MODEL 5
REMARK VINA RESULT:    -4.068      1.406      4.196
REMARK INTER + INTRA:          -5.662
REMARK INTER:                  -5.591
REMARK INTRA:                  -0.071
REMARK UNBOUND:                 0.071
REMARK SMILES CC1=CCC(=C(C)C)C(=O)CC(C)=CCC1
REMARK SMILES IDX 12 1 14 2 13 3 15 4 16 5 2 6 1 7 3 8 11 10 9 11 10 12 5 13
REMARK SMILES IDX 6 14 7 15 8 16 4 17
REMARK H PARENT
REMARK Flexibility Score: 60.00
ROOT
ATOM      1  C   UNL     1      48.749  34.934  31.282  1.00  0.00    -0.070 C 
ATOM      2  C   UNL     1      48.799  36.285  31.336  1.00  0.00    -0.027 C 
ATOM      3  C   UNL     1      47.463  34.255  31.678  1.00  0.00     0.039 C 
ENDROOT
BRANCH   2   4
ATOM      4  C   UNL     1      49.947  37.128  30.840  1.00  0.00     0.032 C 
BRANCH   4   5
ATOM      5  C   UNL     1      50.982  37.305  31.957  1.00  0.00     0.034 C 
BRANCH   5   6
ATOM      6  C   UNL     1      52.402  37.098  31.469  1.00  0.00    -0.077 C 
ATOM      7  C   UNL     1      52.993  38.108  30.518  1.00  0.00     0.039 C 
ATOM      8  C   UNL     1      53.152  36.013  31.784  1.00  0.00    -0.023 CG0
ATOM      9  G   UNL     1      52.804  34.900  32.757  1.00  0.00     0.000 G0
ENDBRANCH   5   6
ENDBRANCH   4   5
ENDBRANCH   2   4
BRANCH   1  10
ATOM     10  C   UNL     1      49.924  34.072  30.864  1.00  0.00     0.111 C 
BRANCH  10  11
ATOM     11  C   UNL     1      50.697  33.559  32.056  1.00  0.00     0.163 C 
ATOM     12  O   UNL     1      50.028  33.065  33.004  1.00  0.00    -0.294 OA
BRANCH  11  13
ATOM     13  C   UNL     1      52.192  33.628  32.173  1.00  0.00    -0.002 C 
ATOM     14  C   UNL     1      52.961  32.525  31.916  1.00  0.00    -0.069 C 
ATOM     15  C   UNL     1      52.385  31.300  31.241  1.00  0.00     0.039 C 
ATOM     16  C   UNL     1      54.436  32.482  32.245  1.00  0.00     0.039 C 
BRANCH  13  17
ATOM     17  C   UNL     1      52.802  34.896  32.760  1.00  0.00     0.066 CG0
ATOM     18  G   UNL     1      53.143  36.000  31.774  1.00  0.00     0.000 G0
ENDBRANCH  13  17
ENDBRANCH  11  13
ENDBRANCH  10  11
ENDBRANCH   1  10
TORSDOF 0
ENDMDL
MODEL 6
REMARK VINA RESULT:    -3.959      1.633      3.961
REMARK INTER + INTRA:          -5.508
REMARK INTER:                  -6.133
REMARK INTRA:                   0.625
REMARK UNBOUND:                 0.071
REMARK SMILES CC1=CCC(=C(C)C)C(=O)CC(C)=CCC1
REMARK SMILES IDX 12 1 14 2 13 3 15 4 16 5 2 6 1 7 3 8 11 10 9 11 10 12 5 13
REMARK SMILES IDX 6 14 7 15 8 16 4 17
REMARK H PARENT
REMARK Flexibility Score: 60.00
ROOT
ATOM      1  C   UNL     1      50.935  31.790  31.179  1.00  0.00    -0.070 C 
ATOM      2  C   UNL     1      49.778  32.453  30.949  1.00  0.00    -0.027 C 
ATOM      3  C   UNL     1      51.308  30.668  30.245  1.00  0.00     0.039 C 
ENDROOT
BRANCH   2   4
ATOM      4  C   UNL     1      49.326  33.686  31.691  1.00  0.00     0.032 C 
BRANCH   4   5
ATOM      5  C   UNL     1      49.863  34.940  30.992  1.00  0.00     0.034 C 
BRANCH   5   6
ATOM      6  C   UNL     1      50.770  35.760  31.886  1.00  0.00    -0.077 C 
ATOM      7  C   UNL     1      50.143  36.723  32.863  1.00  0.00     0.039 C 
ATOM      8  C   UNL     1      52.124  35.731  31.810  1.00  0.00    -0.023 CG0
ATOM      9  G   UNL     1      52.982  34.814  30.957  1.00  0.00     0.000 G0
ENDBRANCH   5   6
ENDBRANCH   4   5
ENDBRANCH   2   4
BRANCH   1  10
ATOM     10  C   UNL     1      51.859  32.103  32.339  1.00  0.00     0.111 C 
BRANCH  10  11
ATOM     11  C   UNL     1      53.267  32.392  31.875  1.00  0.00     0.163 C 
ATOM     12  O   UNL     1      54.006  31.400  31.635  1.00  0.00    -0.294 OA
BRANCH  11  13
ATOM     13  C   UNL     1      53.824  33.777  31.711  1.00  0.00    -0.002 C 
ATOM     14  C   UNL     1      54.973  34.145  32.356  1.00  0.00    -0.069 C 
ATOM     15  C   UNL     1      55.872  33.122  33.015  1.00  0.00     0.039 C 
ATOM     16  C   UNL     1      55.439  35.582  32.407  1.00  0.00     0.039 C 
BRANCH  13  17
ATOM     17  C   UNL     1      52.978  34.800  30.961  1.00  0.00     0.066 CG0
ATOM     18  G   UNL     1      52.147  35.744  31.813  1.00  0.00     0.000 G0
ENDBRANCH  13  17
ENDBRANCH  11  13
ENDBRANCH  10  11
ENDBRANCH   1  10
TORSDOF 0
ENDMDL
MODEL 7
REMARK VINA RESULT:    -3.935      1.725      3.200
REMARK INTER + INTRA:          -5.474
REMARK INTER:                  -5.944
REMARK INTRA:                   0.469
REMARK UNBOUND:                 0.071
REMARK SMILES CC1=CCC(=C(C)C)C(=O)CC(C)=CCC1
REMARK SMILES IDX 12 1 14 2 13 3 15 4 16 5 2 6 1 7 3 8 11 10 9 11 10 12 5 13
REMARK SMILES IDX 6 14 7 15 8 16 4 17
REMARK H PARENT
REMARK Flexibility Score: 60.00
ROOT
ATOM      1  C   UNL     1      50.476  32.810  30.772  1.00  0.00    -0.070 C 
ATOM      2  C   UNL     1      50.873  31.542  31.025  1.00  0.00    -0.027 C 
ATOM      3  C   UNL     1      49.036  33.170  31.037  1.00  0.00     0.039 C 
ENDROOT
BRANCH   2   4
ATOM      4  C   UNL     1      52.297  31.052  30.956  1.00  0.00     0.032 C 
BRANCH   4   5
ATOM      5  C   UNL     1      52.947  31.148  32.342  1.00  0.00     0.034 C 
BRANCH   5   6
ATOM      6  C   UNL     1      54.229  31.955  32.326  1.00  0.00    -0.077 C 
ATOM      7  C   UNL     1      55.516  31.261  31.956  1.00  0.00     0.039 C 
ATOM      8  C   UNL     1      54.300  33.258  32.698  1.00  0.00    -0.023 CG0
ATOM      9  G   UNL     1      53.147  34.181  33.053  1.00  0.00     0.000 G0
ENDBRANCH   5   6
ENDBRANCH   4   5
ENDBRANCH   2   4
BRANCH   1  10
ATOM     10  C   UNL     1      51.398  33.878  30.217  1.00  0.00     0.111 C 
BRANCH  10  11
ATOM     11  C   UNL     1      51.557  35.036  31.173  1.00  0.00     0.163 C 
ATOM     12  O   UNL     1      50.605  35.860  31.239  1.00  0.00    -0.294 OA
BRANCH  11  13
ATOM     13  C   UNL     1      52.779  35.262  32.015  1.00  0.00    -0.002 C 
ATOM     14  C   UNL     1      53.628  36.301  31.744  1.00  0.00    -0.069 C 
ATOM     15  C   UNL     1      53.239  37.412  30.795  1.00  0.00     0.039 C 
ATOM     16  C   UNL     1      54.979  36.426  32.411  1.00  0.00     0.039 C 
BRANCH  13  17
ATOM     17  C   UNL     1      53.136  34.201  33.050  1.00  0.00     0.066 CG0
ATOM     18  G   UNL     1      54.276  33.263  32.691  1.00  0.00     0.000 G0
ENDBRANCH  13  17
ENDBRANCH  11  13
ENDBRANCH  10  11
ENDBRANCH   1  10
TORSDOF 0
ENDMDL
MODEL 8
REMARK VINA RESULT:    -3.866      2.148      4.216
REMARK INTER + INTRA:          -5.377
REMARK INTER:                  -5.240
REMARK INTRA:                  -0.137
REMARK UNBOUND:                 0.071
REMARK SMILES CC1=CCC(=C(C)C)C(=O)CC(C)=CCC1
REMARK SMILES IDX 12 1 14 2 13 3 15 4 16 5 2 6 1 7 3 8 11 10 9 11 10 12 5 13
REMARK SMILES IDX 6 14 7 15 8 16 4 17
REMARK H PARENT
REMARK Flexibility Score: 60.00
ROOT
ATOM      1  C   UNL     1      52.372  33.319  31.558  1.00  0.00    -0.070 C 
ATOM      2  C   UNL     1      51.169  32.704  31.617  1.00  0.00    -0.027 C 
ATOM      3  C   UNL     1      53.563  32.608  32.148  1.00  0.00     0.039 C 
ENDROOT
BRANCH   2   4
ATOM      4  C   UNL     1      49.909  33.202  30.953  1.00  0.00     0.032 C 
BRANCH   4   5
ATOM      5  C   UNL     1      49.038  33.939  31.977  1.00  0.00     0.034 C 
BRANCH   5   6
ATOM      6  C   UNL     1      48.444  35.217  31.421  1.00  0.00    -0.077 C 
ATOM      7  C   UNL     1      47.244  35.121  30.514  1.00  0.00     0.039 C 
ATOM      8  C   UNL     1      48.976  36.446  31.635  1.00  0.00    -0.023 CG0
ATOM      9  G   UNL     1      50.136  36.805  32.547  1.00  0.00     0.000 G0
ENDBRANCH   5   6
ENDBRANCH   4   5
ENDBRANCH   2   4
BRANCH   1  10
ATOM     10  C   UNL     1      52.578  34.692  30.950  1.00  0.00     0.111 C 
BRANCH  10  11
ATOM     11  C   UNL     1      52.462  35.788  31.983  1.00  0.00     0.163 C 
ATOM     12  O   UNL     1      53.204  35.701  32.997  1.00  0.00    -0.294 OA
BRANCH  11  13
ATOM     13  C   UNL     1      51.508  36.942  31.872  1.00  0.00    -0.002 C 
ATOM     14  C   UNL     1      51.913  38.130  31.325  1.00  0.00    -0.069 C 
ATOM     15  C   UNL     1      53.215  38.245  30.564  1.00  0.00     0.039 C 
ATOM     16  C   UNL     1      51.066  39.380  31.406  1.00  0.00     0.039 C 
BRANCH  13  17
ATOM     17  C   UNL     1      50.147  36.808  32.548  1.00  0.00     0.066 CG0
ATOM     18  G   UNL     1      48.982  36.430  31.651  1.00  0.00     0.000 G0
ENDBRANCH  13  17
ENDBRANCH  11  13
ENDBRANCH  10  11
ENDBRANCH   1  10
TORSDOF 0
ENDMDL
MODEL 9
REMARK VINA RESULT:    -3.801      1.902      4.450
REMARK INTER + INTRA:          -5.285
REMARK INTER:                  -5.377
REMARK INTRA:                   0.092
REMARK UNBOUND:                 0.071
REMARK SMILES CC1=CCC(=C(C)C)C(=O)CC(C)=CCC1
REMARK SMILES IDX 12 1 14 2 13 3 15 4 16 5 2 6 1 7 3 8 11 10 9 11 10 12 5 13
REMARK SMILES IDX 6 14 7 15 8 16 4 17
REMARK H PARENT
REMARK Flexibility Score: 60.00
ROOT
ATOM      1  C   UNL     1      50.677  34.032  31.661  1.00  0.00    -0.070 C 
ATOM      2  C   UNL     1      50.182  35.284  31.799  1.00  0.00    -0.027 C 
ATOM      3  C   UNL     1      49.879  32.887  32.229  1.00  0.00     0.039 C 
ENDROOT
BRANCH   2   4
ATOM      4  C   UNL     1      50.771  36.521  31.169  1.00  0.00     0.032 C 
BRANCH   4   5
ATOM      5  C   UNL     1      51.620  37.275  32.198  1.00  0.00     0.034 C 
BRANCH   5   6
ATOM      6  C   UNL     1      53.020  37.563  31.696  1.00  0.00    -0.077 C 
ATOM      7  C   UNL     1      53.234  38.752  30.794  1.00  0.00     0.039 C 
ATOM      8  C   UNL     1      54.088  36.766  31.954  1.00  0.00    -0.023 CG0
ATOM      9  G   UNL     1      54.138  35.558  32.872  1.00  0.00     0.000 G0
ENDBRANCH   5   6
ENDBRANCH   4   5
ENDBRANCH   2   4
BRANCH   1  10
ATOM     10  C   UNL     1      51.999  33.729  30.985  1.00  0.00     0.111 C 
BRANCH  10  11
ATOM     11  C   UNL     1      53.073  33.370  31.985  1.00  0.00     0.163 C 
ATOM     12  O   UNL     1      52.895  32.326  32.667  1.00  0.00    -0.294 OA
BRANCH  11  13
ATOM     13  C   UNL     1      54.306  34.194  32.216  1.00  0.00    -0.002 C 
ATOM     14  C   UNL     1      55.549  33.662  31.998  1.00  0.00    -0.069 C 
ATOM     15  C   UNL     1      55.729  32.355  31.257  1.00  0.00     0.039 C 
ATOM     16  C   UNL     1      56.812  34.368  32.436  1.00  0.00     0.039 C 
BRANCH  13  17
ATOM     17  C   UNL     1      54.138  35.560  32.872  1.00  0.00     0.066 CG0
ATOM     18  G   UNL     1      54.096  36.756  31.938  1.00  0.00     0.000 G0
ENDBRANCH  13  17
ENDBRANCH  11  13
ENDBRANCH  10  11
ENDBRANCH   1  10
TORSDOF 0
ENDMDL
