MODEL 1
REMARK VINA RESULT:    -6.634      0.000      0.000
REMARK INTER + INTRA:          -8.302
REMARK INTER:                  -7.991
REMARK INTRA:                  -0.311
REMARK UNBOUND:                -0.311
REMARK SMILES O=c1c(O)c(-c2ccc(O)c(O)c2)oc2cc(O)cc(O)c12
REMARK SMILES IDX 5 1 3 2 2 3 1 4 22 5 20 6 19 7 17 8 16 9 15 10 14 11 6 12
REMARK SMILES IDX 7 13 8 14 9 15 13 16 11 17 10 18 12 20 4 22 21 24 18 26
REMARK H PARENT 10 19 12 21 4 23 21 25 18 27
REMARK Flexibility Score: inf
ROOT
ATOM      1  C   UNL     1      -5.016   5.422  -2.282  1.00  0.00     0.180 A 
ATOM      2  C   UNL     1      -6.011   4.972  -3.171  1.00  0.00     0.208 A 
ATOM      3  C   UNL     1      -5.622   4.326  -4.355  1.00  0.00     0.238 A 
ATOM      4  O   UNL     1      -6.504   3.929  -5.164  1.00  0.00    -0.285 OA
ATOM      5  C   UNL     1      -4.252   4.124  -4.620  1.00  0.00     0.111 A 
ATOM      6  C   UNL     1      -3.776   3.479  -5.788  1.00  0.00     0.134 A 
ATOM      7  C   UNL     1      -2.396   3.306  -5.973  1.00  0.00     0.093 A 
ATOM      8  C   UNL     1      -1.485   3.767  -5.017  1.00  0.00     0.123 A 
ATOM      9  C   UNL     1      -1.949   4.403  -3.864  1.00  0.00     0.094 A 
ATOM     10  C   UNL     1      -3.320   4.585  -3.661  1.00  0.00     0.146 A 
ATOM     11  O   UNL     1      -3.735   5.199  -2.558  1.00  0.00    -0.452 OA
ENDROOT
BRANCH   1  12
ATOM     12  C   UNL     1      -5.346   6.128  -1.023  1.00  0.00     0.025 A 
ATOM     13  C   UNL     1      -5.677   7.493  -1.015  1.00  0.00     0.016 A 
ATOM     14  C   UNL     1      -5.963   8.143   0.189  1.00  0.00     0.051 A 
ATOM     15  C   UNL     1      -5.907   7.444   1.401  1.00  0.00     0.157 A 
ATOM     16  C   UNL     1      -5.272   5.435   0.197  1.00  0.00     0.062 A 
ATOM     17  C   UNL     1      -5.558   6.083   1.404  1.00  0.00     0.158 A 
BRANCH  15  18
ATOM     18  O   UNL     1      -6.194   8.096   2.600  1.00  0.00    -0.504 OA
ATOM     19  H   UNL     1      -5.488   8.227   3.314  1.00  0.00     0.293 HD
ENDBRANCH  15  18
BRANCH  17  20
ATOM     20  O   UNL     1      -5.487   5.360   2.594  1.00  0.00    -0.504 OA
ATOM     21  H   UNL     1      -4.604   5.128   3.032  1.00  0.00     0.293 HD
ENDBRANCH  17  20
ENDBRANCH   1  12
BRANCH   2  22
ATOM     22  O   UNL     1      -7.363   5.141  -2.861  1.00  0.00    -0.502 OA
ATOM     23  H   UNL     1      -7.796   6.056  -2.800  1.00  0.00     0.293 HD
ENDBRANCH   2  22
BRANCH   6  24
ATOM     24  O   UNL     1      -4.661   3.009  -6.760  1.00  0.00    -0.507 OA
ATOM     25  H   UNL     1      -5.450   3.561  -7.072  1.00  0.00     0.293 HD
ENDBRANCH   6  24
BRANCH   8  26
ATOM     26  O   UNL     1      -0.115   3.595  -5.201  1.00  0.00    -0.508 OA
ATOM     27  H   UNL     1       0.262   2.757  -5.628  1.00  0.00     0.293 HD
ENDBRANCH   8  26
TORSDOF 6
ENDMDL
MODEL 2
REMARK VINA RESULT:    -6.428      1.373      1.988
REMARK INTER + INTRA:          -8.055
REMARK INTER:                  -7.994
REMARK INTRA:                  -0.061
REMARK UNBOUND:                -0.311
REMARK SMILES O=c1c(O)c(-c2ccc(O)c(O)c2)oc2cc(O)cc(O)c12
REMARK SMILES IDX 5 1 3 2 2 3 1 4 22 5 20 6 19 7 17 8 16 9 15 10 14 11 6 12
REMARK SMILES IDX 7 13 8 14 9 15 13 16 11 17 10 18 12 20 4 22 21 24 18 26
REMARK H PARENT 10 19 12 21 4 23 21 25 18 27
REMARK Flexibility Score: inf
ROOT
ATOM      1  C   UNL     1      -4.305   4.764  -3.790  1.00  0.00     0.180 A 
ATOM      2  C   UNL     1      -5.052   4.217  -4.851  1.00  0.00     0.208 A 
ATOM      3  C   UNL     1      -4.381   3.803  -6.012  1.00  0.00     0.238 A 
ATOM      4  O   UNL     1      -5.040   3.321  -6.973  1.00  0.00    -0.285 OA
ATOM      5  C   UNL     1      -2.977   3.923  -6.085  1.00  0.00     0.111 A 
ATOM      6  C   UNL     1      -2.224   3.526  -7.217  1.00  0.00     0.134 A 
ATOM      7  C   UNL     1      -0.828   3.670  -7.209  1.00  0.00     0.093 A 
ATOM      8  C   UNL     1      -0.173   4.202  -6.093  1.00  0.00     0.123 A 
ATOM      9  C   UNL     1      -0.911   4.595  -4.975  1.00  0.00     0.094 A 
ATOM     10  C   UNL     1      -2.303   4.461  -4.964  1.00  0.00     0.146 A 
ATOM     11  O   UNL     1      -2.981   4.848  -3.890  1.00  0.00    -0.452 OA
ENDROOT
BRANCH   1  12
ATOM     12  C   UNL     1      -4.943   5.240  -2.542  1.00  0.00     0.025 A 
ATOM     13  C   UNL     1      -6.002   6.163  -2.568  1.00  0.00     0.016 A 
ATOM     14  C   UNL     1      -6.573   6.616  -1.375  1.00  0.00     0.051 A 
ATOM     15  C   UNL     1      -6.084   6.167  -0.142  1.00  0.00     0.157 A 
ATOM     16  C   UNL     1      -4.442   4.808  -1.302  1.00  0.00     0.062 A 
ATOM     17  C   UNL     1      -5.012   5.260  -0.106  1.00  0.00     0.158 A 
BRANCH  15  18
ATOM     18  O   UNL     1      -6.657   6.620   1.046  1.00  0.00    -0.504 OA
ATOM     19  H   UNL     1      -7.336   6.064   1.553  1.00  0.00     0.293 HD
ENDBRANCH  15  18
BRANCH  17  20
ATOM     20  O   UNL     1      -4.498   4.798   1.105  1.00  0.00    -0.504 OA
ATOM     21  H   UNL     1      -4.744   3.892   1.484  1.00  0.00     0.293 HD
ENDBRANCH  17  20
ENDBRANCH   1  12
BRANCH   2  22
ATOM     22  O   UNL     1      -6.436   4.063  -4.733  1.00  0.00    -0.502 OA
ATOM     23  H   UNL     1      -6.899   3.176  -4.896  1.00  0.00     0.293 HD
ENDBRANCH   2  22
BRANCH   6  24
ATOM     24  O   UNL     1      -2.850   2.992  -8.345  1.00  0.00    -0.507 OA
ATOM     25  H   UNL     1      -3.363   2.120  -8.306  1.00  0.00     0.293 HD
ENDBRANCH   6  24
BRANCH   8  26
ATOM     26  O   UNL     1       1.212   4.344  -6.085  1.00  0.00    -0.508 OA
ATOM     27  H   UNL     1       1.685   4.978  -6.719  1.00  0.00     0.293 HD
ENDBRANCH   8  26
TORSDOF 6
ENDMDL
MODEL 3
REMARK VINA RESULT:    -6.363      1.756      2.856
REMARK INTER + INTRA:          -7.976
REMARK INTER:                  -8.338
REMARK INTRA:                   0.362
REMARK UNBOUND:                -0.311
REMARK SMILES O=c1c(O)c(-c2ccc(O)c(O)c2)oc2cc(O)cc(O)c12
REMARK SMILES IDX 5 1 3 2 2 3 1 4 22 5 20 6 19 7 17 8 16 9 15 10 14 11 6 12
REMARK SMILES IDX 7 13 8 14 9 15 13 16 11 17 10 18 12 20 4 22 21 24 18 26
REMARK H PARENT 10 19 12 21 4 23 21 25 18 27
REMARK Flexibility Score: inf
ROOT
ATOM      1  C   UNL     1      -3.817   4.224  -4.159  1.00  0.00     0.180 A 
ATOM      2  C   UNL     1      -4.853   4.000  -5.086  1.00  0.00     0.208 A 
ATOM      3  C   UNL     1      -4.522   3.694  -6.414  1.00  0.00     0.238 A 
ATOM      4  O   UNL     1      -5.441   3.501  -7.256  1.00  0.00    -0.285 OA
ATOM      5  C   UNL     1      -3.165   3.597  -6.789  1.00  0.00     0.111 A 
ATOM      6  C   UNL     1      -2.745   3.289  -8.106  1.00  0.00     0.134 A 
ATOM      7  C   UNL     1      -1.376   3.201  -8.397  1.00  0.00     0.093 A 
ATOM      8  C   UNL     1      -0.420   3.416  -7.398  1.00  0.00     0.123 A 
ATOM      9  C   UNL     1      -0.829   3.720  -6.099  1.00  0.00     0.094 A 
ATOM     10  C   UNL     1      -2.189   3.813  -5.789  1.00  0.00     0.146 A 
ATOM     11  O   UNL     1      -2.550   4.109  -4.545  1.00  0.00    -0.452 OA
ENDROOT
BRANCH   1  12
ATOM     12  C   UNL     1      -4.088   4.571  -2.745  1.00  0.00     0.025 A 
ATOM     13  C   UNL     1      -3.187   4.229  -1.723  1.00  0.00     0.016 A 
ATOM     14  C   UNL     1      -3.475   4.546  -0.393  1.00  0.00     0.051 A 
ATOM     15  C   UNL     1      -4.672   5.195  -0.063  1.00  0.00     0.157 A 
ATOM     16  C   UNL     1      -5.296   5.203  -2.408  1.00  0.00     0.062 A 
ATOM     17  C   UNL     1      -5.587   5.523  -1.077  1.00  0.00     0.158 A 
BRANCH  15  18
ATOM     18  O   UNL     1      -4.955   5.512   1.265  1.00  0.00    -0.504 OA
ATOM     19  H   UNL     1      -4.726   4.878   2.021  1.00  0.00     0.293 HD
ENDBRANCH  15  18
BRANCH  17  20
ATOM     20  O   UNL     1      -6.791   6.163  -0.782  1.00  0.00    -0.504 OA
ATOM     21  H   UNL     1      -6.987   6.544   0.136  1.00  0.00     0.293 HD
ENDBRANCH  17  20
ENDBRANCH   1  12
BRANCH   2  22
ATOM     22  O   UNL     1      -6.189   4.053  -4.678  1.00  0.00    -0.502 OA
ATOM     23  H   UNL     1      -6.461   4.349  -3.747  1.00  0.00     0.293 HD
ENDBRANCH   2  22
BRANCH   6  24
ATOM     24  O   UNL     1      -3.676   3.069  -9.124  1.00  0.00    -0.507 OA
ATOM     25  H   UNL     1      -4.662   3.255  -8.992  1.00  0.00     0.293 HD
ENDBRANCH   6  24
BRANCH   8  26
ATOM     26  O   UNL     1       0.940   3.329  -7.687  1.00  0.00    -0.508 OA
ATOM     27  H   UNL     1       1.277   2.856  -8.518  1.00  0.00     0.293 HD
ENDBRANCH   8  26
TORSDOF 6
ENDMDL
MODEL 4
REMARK VINA RESULT:    -6.225      1.837      6.932
REMARK INTER + INTRA:          -7.810
REMARK INTER:                  -7.521
REMARK INTRA:                  -0.289
REMARK UNBOUND:                -0.311
REMARK SMILES O=c1c(O)c(-c2ccc(O)c(O)c2)oc2cc(O)cc(O)c12
REMARK SMILES IDX 5 1 3 2 2 3 1 4 22 5 20 6 19 7 17 8 16 9 15 10 14 11 6 12
REMARK SMILES IDX 7 13 8 14 9 15 13 16 11 17 10 18 12 20 4 22 21 24 18 26
REMARK H PARENT 10 19 12 21 4 23 21 25 18 27
REMARK Flexibility Score: inf
ROOT
ATOM      1  C   UNL     1      -3.324   4.806  -4.661  1.00  0.00     0.180 A 
ATOM      2  C   UNL     1      -4.495   5.390  -5.182  1.00  0.00     0.208 A 
ATOM      3  C   UNL     1      -5.516   5.770  -4.297  1.00  0.00     0.238 A 
ATOM      4  O   UNL     1      -6.574   6.283  -4.753  1.00  0.00    -0.285 OA
ATOM      5  C   UNL     1      -5.343   5.579  -2.910  1.00  0.00     0.111 A 
ATOM      6  C   UNL     1      -6.321   5.938  -1.951  1.00  0.00     0.134 A 
ATOM      7  C   UNL     1      -6.069   5.726  -0.588  1.00  0.00     0.093 A 
ATOM      8  C   UNL     1      -4.860   5.162  -0.166  1.00  0.00     0.123 A 
ATOM      9  C   UNL     1      -3.893   4.806  -1.108  1.00  0.00     0.094 A 
ATOM     10  C   UNL     1      -4.125   5.009  -2.471  1.00  0.00     0.146 A 
ATOM     11  O   UNL     1      -3.190   4.656  -3.346  1.00  0.00    -0.452 OA
ENDROOT
BRANCH   1  12
ATOM     12  C   UNL     1      -2.212   4.362  -5.531  1.00  0.00     0.025 A 
ATOM     13  C   UNL     1      -2.294   3.172  -6.274  1.00  0.00     0.016 A 
ATOM     14  C   UNL     1      -1.222   2.761  -7.070  1.00  0.00     0.051 A 
ATOM     15  C   UNL     1      -0.048   3.523  -7.124  1.00  0.00     0.157 A 
ATOM     16  C   UNL     1      -1.025   5.113  -5.573  1.00  0.00     0.062 A 
ATOM     17  C   UNL     1       0.050   4.704  -6.370  1.00  0.00     0.158 A 
BRANCH  15  18
ATOM     18  O   UNL     1       1.020   3.112  -7.921  1.00  0.00    -0.504 OA
ATOM     19  H   UNL     1       0.871   2.704  -8.836  1.00  0.00     0.293 HD
ENDBRANCH  15  18
BRANCH  17  20
ATOM     20  O   UNL     1       1.207   5.483  -6.396  1.00  0.00    -0.504 OA
ATOM     21  H   UNL     1       1.186   6.484  -6.243  1.00  0.00     0.293 HD
ENDBRANCH  17  20
ENDBRANCH   1  12
BRANCH   2  22
ATOM     22  O   UNL     1      -4.621   5.612  -6.556  1.00  0.00    -0.502 OA
ATOM     23  H   UNL     1      -5.446   6.039  -6.963  1.00  0.00     0.293 HD
ENDBRANCH   2  22
BRANCH   6  24
ATOM     24  O   UNL     1      -7.537   6.503  -2.342  1.00  0.00    -0.507 OA
ATOM     25  H   UNL     1      -7.598   7.458  -2.671  1.00  0.00     0.293 HD
ENDBRANCH   6  24
BRANCH   8  26
ATOM     26  O   UNL     1      -4.610   4.951   1.188  1.00  0.00    -0.508 OA
ATOM     27  H   UNL     1      -5.349   4.690   1.830  1.00  0.00     0.293 HD
ENDBRANCH   8  26
TORSDOF 6
ENDMDL
MODEL 5
REMARK VINA RESULT:    -6.056      1.248      2.805
REMARK INTER + INTRA:          -7.607
REMARK INTER:                  -7.575
REMARK INTRA:                  -0.031
REMARK UNBOUND:                -0.311
REMARK SMILES O=c1c(O)c(-c2ccc(O)c(O)c2)oc2cc(O)cc(O)c12
REMARK SMILES IDX 5 1 3 2 2 3 1 4 22 5 20 6 19 7 17 8 16 9 15 10 14 11 6 12
REMARK SMILES IDX 7 13 8 14 9 15 13 16 11 17 10 18 12 20 4 22 21 24 18 26
REMARK H PARENT 10 19 12 21 4 23 21 25 18 27
REMARK Flexibility Score: inf
ROOT
ATOM      1  C   UNL     1      -4.236   5.240  -2.305  1.00  0.00     0.180 A 
ATOM      2  C   UNL     1      -2.929   4.719  -2.251  1.00  0.00     0.208 A 
ATOM      3  C   UNL     1      -2.415   4.055  -3.376  1.00  0.00     0.238 A 
ATOM      4  O   UNL     1      -1.250   3.575  -3.337  1.00  0.00    -0.285 OA
ATOM      5  C   UNL     1      -3.206   3.941  -4.539  1.00  0.00     0.111 A 
ATOM      6  C   UNL     1      -2.763   3.291  -5.717  1.00  0.00     0.134 A 
ATOM      7  C   UNL     1      -3.607   3.228  -6.836  1.00  0.00     0.093 A 
ATOM      8  C   UNL     1      -4.882   3.800  -6.799  1.00  0.00     0.123 A 
ATOM      9  C   UNL     1      -5.324   4.442  -5.641  1.00  0.00     0.094 A 
ATOM     10  C   UNL     1      -4.499   4.515  -4.515  1.00  0.00     0.146 A 
ATOM     11  O   UNL     1      -4.946   5.127  -3.423  1.00  0.00    -0.452 OA
ENDROOT
BRANCH   1  12
ATOM     12  C   UNL     1      -4.853   5.935  -1.153  1.00  0.00     0.025 A 
ATOM     13  C   UNL     1      -5.351   7.244  -1.270  1.00  0.00     0.016 A 
ATOM     14  C   UNL     1      -5.909   7.888  -0.163  1.00  0.00     0.051 A 
ATOM     15  C   UNL     1      -5.964   7.243   1.079  1.00  0.00     0.157 A 
ATOM     16  C   UNL     1      -4.891   5.299   0.099  1.00  0.00     0.062 A 
ATOM     17  C   UNL     1      -5.450   5.942   1.209  1.00  0.00     0.158 A 
BRANCH  15  18
ATOM     18  O   UNL     1      -6.522   7.888   2.182  1.00  0.00    -0.504 OA
ATOM     19  H   UNL     1      -6.675   7.403   3.058  1.00  0.00     0.293 HD
ENDBRANCH  15  18
BRANCH  17  20
ATOM     20  O   UNL     1      -5.482   5.273   2.433  1.00  0.00    -0.504 OA
ATOM     21  H   UNL     1      -6.074   4.466   2.590  1.00  0.00     0.293 HD
ENDBRANCH  17  20
ENDBRANCH   1  12
BRANCH   2  22
ATOM     22  O   UNL     1      -2.148   4.889  -1.105  1.00  0.00    -0.502 OA
ATOM     23  H   UNL     1      -2.356   4.420  -0.231  1.00  0.00     0.293 HD
ENDBRANCH   2  22
BRANCH   6  24
ATOM     24  O   UNL     1      -1.495   2.710  -5.783  1.00  0.00    -0.507 OA
ATOM     25  H   UNL     1      -0.966   2.683  -6.646  1.00  0.00     0.293 HD
ENDBRANCH   6  24
BRANCH   8  26
ATOM     26  O   UNL     1      -5.720   3.738  -7.911  1.00  0.00    -0.508 OA
ATOM     27  H   UNL     1      -6.516   4.357  -8.011  1.00  0.00     0.293 HD
ENDBRANCH   8  26
TORSDOF 6
ENDMDL
MODEL 6
REMARK VINA RESULT:    -5.957      2.020      4.308
REMARK INTER + INTRA:          -7.487
REMARK INTER:                  -7.417
REMARK INTRA:                  -0.070
REMARK UNBOUND:                -0.311
REMARK SMILES O=c1c(O)c(-c2ccc(O)c(O)c2)oc2cc(O)cc(O)c12
REMARK SMILES IDX 5 1 3 2 2 3 1 4 22 5 20 6 19 7 17 8 16 9 15 10 14 11 6 12
REMARK SMILES IDX 7 13 8 14 9 15 13 16 11 17 10 18 12 20 4 22 21 24 18 26
REMARK H PARENT 10 19 12 21 4 23 21 25 18 27
REMARK Flexibility Score: inf
ROOT
ATOM      1  C   UNL     1      -2.648   4.533  -4.044  1.00  0.00     0.180 A 
ATOM      2  C   UNL     1      -1.264   4.756  -4.178  1.00  0.00     0.208 A 
ATOM      3  C   UNL     1      -0.657   4.532  -5.423  1.00  0.00     0.238 A 
ATOM      4  O   UNL     1       0.584   4.718  -5.552  1.00  0.00    -0.285 OA
ATOM      5  C   UNL     1      -1.443   4.110  -6.515  1.00  0.00     0.111 A 
ATOM      6  C   UNL     1      -0.911   3.866  -7.805  1.00  0.00     0.134 A 
ATOM      7  C   UNL     1      -1.761   3.458  -8.843  1.00  0.00     0.093 A 
ATOM      8  C   UNL     1      -3.131   3.288  -8.616  1.00  0.00     0.123 A 
ATOM      9  C   UNL     1      -3.661   3.527  -7.347  1.00  0.00     0.094 A 
ATOM     10  C   UNL     1      -2.830   3.934  -6.299  1.00  0.00     0.146 A 
ATOM     11  O   UNL     1      -3.359   4.150  -5.100  1.00  0.00    -0.452 OA
ENDROOT
BRANCH   1  12
ATOM     12  C   UNL     1      -3.356   4.728  -2.759  1.00  0.00     0.025 A 
ATOM     13  C   UNL     1      -2.923   4.096  -1.581  1.00  0.00     0.016 A 
ATOM     14  C   UNL     1      -3.621   4.277  -0.385  1.00  0.00     0.051 A 
ATOM     15  C   UNL     1      -4.769   5.078  -0.350  1.00  0.00     0.157 A 
ATOM     16  C   UNL     1      -4.519   5.514  -2.724  1.00  0.00     0.062 A 
ATOM     17  C   UNL     1      -5.221   5.698  -1.527  1.00  0.00     0.158 A 
BRANCH  15  18
ATOM     18  O   UNL     1      -5.463   5.258   0.846  1.00  0.00    -0.504 OA
ATOM     19  H   UNL     1      -5.388   6.117   1.378  1.00  0.00     0.293 HD
ENDBRANCH  15  18
BRANCH  17  20
ATOM     20  O   UNL     1      -6.364   6.497  -1.528  1.00  0.00    -0.504 OA
ATOM     21  H   UNL     1      -6.976   6.560  -2.333  1.00  0.00     0.293 HD
ENDBRANCH  17  20
ENDBRANCH   1  12
BRANCH   2  22
ATOM     22  O   UNL     1      -0.516   5.221  -3.093  1.00  0.00    -0.502 OA
ATOM     23  H   UNL     1      -0.417   6.209  -2.885  1.00  0.00     0.293 HD
ENDBRANCH   2  22
BRANCH   6  24
ATOM     24  O   UNL     1       0.453   4.026  -8.061  1.00  0.00    -0.507 OA
ATOM     25  H   UNL     1       0.844   4.925  -8.314  1.00  0.00     0.293 HD
ENDBRANCH   6  24
BRANCH   8  26
ATOM     26  O   UNL     1      -3.976   2.883  -9.647  1.00  0.00    -0.508 OA
ATOM     27  H   UNL     1      -4.815   2.344  -9.465  1.00  0.00     0.293 HD
ENDBRANCH   8  26
TORSDOF 6
ENDMDL
MODEL 7
REMARK VINA RESULT:    -5.908      1.920      7.397
REMARK INTER + INTRA:          -7.428
REMARK INTER:                  -7.256
REMARK INTRA:                  -0.171
REMARK UNBOUND:                -0.311
REMARK SMILES O=c1c(O)c(-c2ccc(O)c(O)c2)oc2cc(O)cc(O)c12
REMARK SMILES IDX 5 1 3 2 2 3 1 4 22 5 20 6 19 7 17 8 16 9 15 10 14 11 6 12
REMARK SMILES IDX 7 13 8 14 9 15 13 16 11 17 10 18 12 20 4 22 21 24 18 26
REMARK H PARENT 10 19 12 21 4 23 21 25 18 27
REMARK Flexibility Score: inf
ROOT
ATOM      1  C   UNL     1      -2.790   4.736  -3.446  1.00  0.00     0.180 A 
ATOM      2  C   UNL     1      -2.076   5.033  -2.269  1.00  0.00     0.208 A 
ATOM      3  C   UNL     1      -2.784   5.453  -1.133  1.00  0.00     0.238 A 
ATOM      4  O   UNL     1      -2.154   5.732  -0.076  1.00  0.00    -0.285 OA
ATOM      5  C   UNL     1      -4.190   5.551  -1.184  1.00  0.00     0.111 A 
ATOM      6  C   UNL     1      -4.979   5.963  -0.083  1.00  0.00     0.134 A 
ATOM      7  C   UNL     1      -6.375   6.025  -0.211  1.00  0.00     0.093 A 
ATOM      8  C   UNL     1      -6.995   5.684  -1.418  1.00  0.00     0.123 A 
ATOM      9  C   UNL     1      -6.222   5.277  -2.506  1.00  0.00     0.094 A 
ATOM     10  C   UNL     1      -4.830   5.210  -2.399  1.00  0.00     0.146 A 
ATOM     11  O   UNL     1      -4.117   4.825  -3.452  1.00  0.00    -0.452 OA
ENDROOT
BRANCH   1  12
ATOM     12  C   UNL     1      -2.114   4.305  -4.690  1.00  0.00     0.025 A 
ATOM     13  C   UNL     1      -2.271   3.004  -5.196  1.00  0.00     0.016 A 
ATOM     14  C   UNL     1      -1.604   2.613  -6.360  1.00  0.00     0.051 A 
ATOM     15  C   UNL     1      -0.758   3.510  -7.025  1.00  0.00     0.157 A 
ATOM     16  C   UNL     1      -1.249   5.195  -5.349  1.00  0.00     0.062 A 
ATOM     17  C   UNL     1      -0.579   4.806  -6.515  1.00  0.00     0.158 A 
BRANCH  15  18
ATOM     18  O   UNL     1      -0.094   3.117  -8.187  1.00  0.00    -0.504 OA
ATOM     19  H   UNL     1       0.253   2.173  -8.305  1.00  0.00     0.293 HD
ENDBRANCH  15  18
BRANCH  17  20
ATOM     20  O   UNL     1       0.261   5.721  -7.150  1.00  0.00    -0.504 OA
ATOM     21  H   UNL     1       0.487   5.651  -8.135  1.00  0.00     0.293 HD
ENDBRANCH  17  20
ENDBRANCH   1  12
BRANCH   2  22
ATOM     22  O   UNL     1      -0.688   4.881  -2.229  1.00  0.00    -0.502 OA
ATOM     23  H   UNL     1      -0.205   4.504  -1.421  1.00  0.00     0.293 HD
ENDBRANCH   2  22
BRANCH   6  24
ATOM     24  O   UNL     1      -4.388   6.310   1.134  1.00  0.00    -0.507 OA
ATOM     25  H   UNL     1      -4.882   6.213   2.012  1.00  0.00     0.293 HD
ENDBRANCH   6  24
BRANCH   8  26
ATOM     26  O   UNL     1      -8.381   5.745  -1.545  1.00  0.00    -0.508 OA
ATOM     27  H   UNL     1      -8.908   4.994  -1.976  1.00  0.00     0.293 HD
ENDBRANCH   8  26
TORSDOF 6
ENDMDL
MODEL 8
REMARK VINA RESULT:    -5.818      1.873      7.033
REMARK INTER + INTRA:          -7.319
REMARK INTER:                  -7.010
REMARK INTRA:                  -0.309
REMARK UNBOUND:                -0.311
REMARK SMILES O=c1c(O)c(-c2ccc(O)c(O)c2)oc2cc(O)cc(O)c12
REMARK SMILES IDX 5 1 3 2 2 3 1 4 22 5 20 6 19 7 17 8 16 9 15 10 14 11 6 12
REMARK SMILES IDX 7 13 8 14 9 15 13 16 11 17 10 18 12 20 4 22 21 24 18 26
REMARK H PARENT 10 19 12 21 4 23 21 25 18 27
REMARK Flexibility Score: inf
ROOT
ATOM      1  C   UNL     1      -3.769   5.622  -1.914  1.00  0.00     0.180 A 
ATOM      2  C   UNL     1      -3.473   5.719  -0.541  1.00  0.00     0.208 A 
ATOM      3  C   UNL     1      -4.435   6.263   0.324  1.00  0.00     0.238 A 
ATOM      4  O   UNL     1      -4.178   6.365   1.554  1.00  0.00    -0.285 OA
ATOM      5  C   UNL     1      -5.680   6.681  -0.192  1.00  0.00     0.111 A 
ATOM      6  C   UNL     1      -6.705   7.236   0.612  1.00  0.00     0.134 A 
ATOM      7  C   UNL     1      -7.920   7.618   0.024  1.00  0.00     0.093 A 
ATOM      8  C   UNL     1      -8.128   7.457  -1.349  1.00  0.00     0.123 A 
ATOM      9  C   UNL     1      -7.121   6.910  -2.146  1.00  0.00     0.094 A 
ATOM     10  C   UNL     1      -5.903   6.524  -1.580  1.00  0.00     0.146 A 
ATOM     11  O   UNL     1      -4.959   6.012  -2.362  1.00  0.00    -0.452 OA
ENDROOT
BRANCH   1  12
ATOM     12  C   UNL     1      -2.799   5.078  -2.891  1.00  0.00     0.025 A 
ATOM     13  C   UNL     1      -1.742   5.860  -3.387  1.00  0.00     0.016 A 
ATOM     14  C   UNL     1      -0.853   5.332  -4.326  1.00  0.00     0.051 A 
ATOM     15  C   UNL     1      -1.015   4.023  -4.796  1.00  0.00     0.157 A 
ATOM     16  C   UNL     1      -2.971   3.772  -3.381  1.00  0.00     0.062 A 
ATOM     17  C   UNL     1      -2.082   3.240  -4.322  1.00  0.00     0.158 A 
BRANCH  15  18
ATOM     18  O   UNL     1      -0.125   3.498  -5.733  1.00  0.00    -0.504 OA
ATOM     19  H   UNL     1       0.666   4.033  -6.069  1.00  0.00     0.293 HD
ENDBRANCH  15  18
BRANCH  17  20
ATOM     20  O   UNL     1      -2.275   1.936  -4.774  1.00  0.00    -0.504 OA
ATOM     21  H   UNL     1      -2.216   1.136  -4.154  1.00  0.00     0.293 HD
ENDBRANCH  17  20
ENDBRANCH   1  12
BRANCH   2  22
ATOM     22  O   UNL     1      -2.252   5.253  -0.048  1.00  0.00    -0.502 OA
ATOM     23  H   UNL     1      -2.077   5.133   0.943  1.00  0.00     0.293 HD
ENDBRANCH   2  22
BRANCH   6  24
ATOM     24  O   UNL     1      -6.526   7.409   1.986  1.00  0.00    -0.507 OA
ATOM     25  H   UNL     1      -5.621   7.289   2.424  1.00  0.00     0.293 HD
ENDBRANCH   6  24
BRANCH   8  26
ATOM     26  O   UNL     1      -9.335   7.836  -1.933  1.00  0.00    -0.508 OA
ATOM     27  H   UNL     1      -9.454   7.858  -2.939  1.00  0.00     0.293 HD
ENDBRANCH   8  26
TORSDOF 6
ENDMDL
MODEL 9
REMARK VINA RESULT:    -5.716      3.318      7.724
REMARK INTER + INTRA:          -7.196
REMARK INTER:                  -6.969
REMARK INTRA:                  -0.227
REMARK UNBOUND:                -0.311
REMARK SMILES O=c1c(O)c(-c2ccc(O)c(O)c2)oc2cc(O)cc(O)c12
REMARK SMILES IDX 5 1 3 2 2 3 1 4 22 5 20 6 19 7 17 8 16 9 15 10 14 11 6 12
REMARK SMILES IDX 7 13 8 14 9 15 13 16 11 17 10 18 12 20 4 22 21 24 18 26
REMARK H PARENT 10 19 12 21 4 23 21 25 18 27
REMARK Flexibility Score: inf
ROOT
ATOM      1  C   UNL     1      -1.149   5.049  -4.284  1.00  0.00     0.180 A 
ATOM      2  C   UNL     1      -2.412   4.732  -3.748  1.00  0.00     0.208 A 
ATOM      3  C   UNL     1      -2.677   5.044  -2.405  1.00  0.00     0.238 A 
ATOM      4  O   UNL     1      -3.800   4.755  -1.910  1.00  0.00    -0.285 OA
ATOM      5  C   UNL     1      -1.686   5.682  -1.630  1.00  0.00     0.111 A 
ATOM      6  C   UNL     1      -1.874   6.034  -0.270  1.00  0.00     0.134 A 
ATOM      7  C   UNL     1      -0.842   6.676   0.430  1.00  0.00     0.093 A 
ATOM      8  C   UNL     1       0.370   6.973  -0.201  1.00  0.00     0.123 A 
ATOM      9  C   UNL     1       0.560   6.628  -1.540  1.00  0.00     0.094 A 
ATOM     10  C   UNL     1      -0.455   5.986  -2.255  1.00  0.00     0.146 A 
ATOM     11  O   UNL     1      -0.246   5.665  -3.527  1.00  0.00    -0.452 OA
ENDROOT
BRANCH   1  12
ATOM     12  C   UNL     1      -0.788   4.735  -5.685  1.00  0.00     0.025 A 
ATOM     13  C   UNL     1      -0.620   3.409  -6.118  1.00  0.00     0.016 A 
ATOM     14  C   UNL     1      -0.257   3.138  -7.440  1.00  0.00     0.051 A 
ATOM     15  C   UNL     1      -0.041   4.186  -8.343  1.00  0.00     0.157 A 
ATOM     16  C   UNL     1      -0.551   5.784  -6.589  1.00  0.00     0.062 A 
ATOM     17  C   UNL     1      -0.187   5.516  -7.914  1.00  0.00     0.158 A 
BRANCH  15  18
ATOM     18  O   UNL     1       0.320   3.913  -9.662  1.00  0.00    -0.504 OA
ATOM     19  H   UNL     1       1.170   4.287 -10.067  1.00  0.00     0.293 HD
ENDBRANCH  15  18
BRANCH  17  20
ATOM     20  O   UNL     1       0.027   6.583  -8.786  1.00  0.00    -0.504 OA
ATOM     21  H   UNL     1       0.421   6.452  -9.710  1.00  0.00     0.293 HD
ENDBRANCH  17  20
ENDBRANCH   1  12
BRANCH   2  22
ATOM     22  O   UNL     1      -3.393   4.145  -4.551  1.00  0.00    -0.502 OA
ATOM     23  H   UNL     1      -3.573   3.147  -4.546  1.00  0.00     0.293 HD
ENDBRANCH   2  22
BRANCH   6  24
ATOM     24  O   UNL     1      -3.073   5.751   0.386  1.00  0.00    -0.507 OA
ATOM     25  H   UNL     1      -3.096   5.222   1.249  1.00  0.00     0.293 HD
ENDBRANCH   6  24
BRANCH   8  26
ATOM     26  O   UNL     1       1.395   7.611   0.495  1.00  0.00    -0.508 OA
ATOM     27  H   UNL     1       2.196   7.100   0.848  1.00  0.00     0.293 HD
ENDBRANCH   8  26
TORSDOF 6
ENDMDL
