MODEL 1
REMARK VINA RESULT:     2.171      0.000      0.000
REMARK INTER + INTRA:           2.171
REMARK INTER:                   2.171
REMARK INTRA:                   0.000
REMARK UNBOUND:                 0.000
REMARK SMILES CC1(C)O[C@]2(C)CC[C@H]1CC2
REMARK SMILES IDX 1 1 2 2 9 3 8 4 7 5 5 6 4 7 11 8 10 9 6 10 3 11
REMARK H PARENT
REMARK Flexibility Score: inf
ROOT
ATOM      1  C   UNL     1       7.998 -10.634   2.070  1.00  0.00     0.042 C 
ATOM      2  C   UNL     1       9.525 -10.542   2.282  1.00  0.00     0.066 C 
ATOM      3  C   UNL     1       9.890  -9.287   3.165  1.00  0.00     0.021 C 
ATOM      4  C   UNL     1      11.421  -9.273   3.388  1.00  0.00     0.009 C 
ATOM      5  C   UNL     1      11.869 -10.656   3.918  1.00  0.00     0.035 C 
ATOM      6  C   UNL     1      10.627 -11.565   4.137  1.00  0.00     0.066 C 
ATOM      7  O   UNL     1       9.966 -11.766   2.888  1.00  0.00    -0.369 OA
ATOM      8  C   UNL     1       9.651 -10.860   5.124  1.00  0.00     0.035 C 
ATOM      9  C   UNL     1       9.254  -9.472   4.565  1.00  0.00     0.009 C 
ATOM     10  C   UNL     1      11.054 -12.927   4.695  1.00  0.00     0.042 C 
ATOM     11  C   UNL     1      10.176 -10.434   0.886  1.00  0.00     0.042 C 
ENDROOT
TORSDOF 0
ENDMDL
MODEL 2
REMARK VINA RESULT:     3.478      0.960      3.332
REMARK INTER + INTRA:           3.478
REMARK INTER:                   3.478
REMARK INTRA:                   0.000
REMARK UNBOUND:                 0.000
REMARK SMILES CC1(C)O[C@]2(C)CC[C@H]1CC2
REMARK SMILES IDX 1 1 2 2 9 3 8 4 7 5 5 6 4 7 11 8 10 9 6 10 3 11
REMARK H PARENT
REMARK Flexibility Score: inf
ROOT
ATOM      1  C   UNL     1      12.414 -12.007   4.658  1.00  0.00     0.042 C 
ATOM      2  C   UNL     1      10.905 -11.756   4.451  1.00  0.00     0.066 C 
ATOM      3  C   UNL     1      10.470 -10.395   5.117  1.00  0.00     0.021 C 
ATOM      4  C   UNL     1       8.965 -10.170   4.835  1.00  0.00     0.009 C 
ATOM      5  C   UNL     1       8.706 -10.320   3.316  1.00  0.00     0.035 C 
ATOM      6  C   UNL     1      10.051 -10.555   2.572  1.00  0.00     0.066 C 
ATOM      7  O   UNL     1      10.641 -11.768   3.040  1.00  0.00    -0.369 OA
ATOM      8  C   UNL     1      11.011  -9.368   2.877  1.00  0.00     0.035 C 
ATOM      9  C   UNL     1      11.217  -9.241   4.405  1.00  0.00     0.009 C 
ATOM     10  C   UNL     1       9.812 -10.672   1.063  1.00  0.00     0.042 C 
ATOM     11  C   UNL     1      10.150 -12.943   5.090  1.00  0.00     0.042 C 
ENDROOT
TORSDOF 0
ENDMDL
MODEL 3
REMARK VINA RESULT:     3.839      1.306      3.357
REMARK INTER + INTRA:           3.839
REMARK INTER:                   3.839
REMARK INTRA:                   0.000
REMARK UNBOUND:                 0.000
REMARK SMILES CC1(C)O[C@]2(C)CC[C@H]1CC2
REMARK SMILES IDX 1 1 2 2 9 3 8 4 7 5 5 6 4 7 11 8 10 9 6 10 3 11
REMARK H PARENT
REMARK Flexibility Score: inf
ROOT
ATOM      1  C   UNL     1      12.389  -9.041   5.099  1.00  0.00     0.042 C 
ATOM      2  C   UNL     1      11.968 -10.344   4.384  1.00  0.00     0.066 C 
ATOM      3  C   UNL     1      10.749 -11.017   5.125  1.00  0.00     0.021 C 
ATOM      4  C   UNL     1      10.337 -12.285   4.339  1.00  0.00     0.009 C 
ATOM      5  C   UNL     1      10.134 -11.915   2.850  1.00  0.00     0.035 C 
ATOM      6  C   UNL     1      10.320 -10.384   2.656  1.00  0.00     0.066 C 
ATOM      7  O   UNL     1      11.652 -10.022   3.021  1.00  0.00    -0.369 OA
ATOM      8  C   UNL     1       9.316  -9.631   3.577  1.00  0.00     0.035 C 
ATOM      9  C   UNL     1       9.539 -10.054   5.049  1.00  0.00     0.009 C 
ATOM     10  C   UNL     1      10.088 -10.000   1.191  1.00  0.00     0.042 C 
ATOM     11  C   UNL     1      13.193 -11.285   4.384  1.00  0.00     0.042 C 
ENDROOT
TORSDOF 0
ENDMDL
