MODEL 1
REMARK VINA RESULT:    -5.040      0.000      0.000
REMARK INTER + INTRA:         -11.509
REMARK INTER:                  -9.459
REMARK INTRA:                  -2.050
REMARK UNBOUND:                -2.050
REMARK SMILES O=C([O-])CCCCCCCCCCCCCCC(=O)[O-]
REMARK SMILES IDX 10 1 9 2 8 3 7 4 6 5 5 6 4 7 2 8 1 9 3 10 11 11 12 12 13 13
REMARK SMILES IDX 14 14 15 15 16 16 17 17 18 18 19 19 20 20
REMARK H PARENT
REMARK Flexibility Score: inf
ROOT
ATOM      1  C   UNL     1      13.313  21.182  29.090  1.00  0.00     0.000 C 
ENDROOT
BRANCH   1   2
ATOM      2  C   UNL     1      13.457  21.917  30.430  1.00  0.00     0.000 C 
BRANCH   2   3
ATOM      3  C   UNL     1      13.891  23.386  30.267  1.00  0.00     0.000 C 
BRANCH   3   4
ATOM      4  C   UNL     1      12.736  24.404  30.205  1.00  0.00     0.000 C 
BRANCH   4   5
ATOM      5  C   UNL     1      11.835  24.445  31.454  1.00  0.00     0.000 C 
BRANCH   5   6
ATOM      6  C   UNL     1      10.329  24.326  31.138  1.00  0.00     0.006 C 
BRANCH   6   7
ATOM      7  C   UNL     1       9.771  22.931  31.453  1.00  0.00     0.053 C 
BRANCH   7   8
ATOM      8  C   UNL     1       9.290  22.266  30.202  1.00  0.00     0.041 C 
ATOM      9  O   UNL     1       8.141  21.751  30.160  1.00  0.00    -0.550 OA
ATOM     10  O   UNL     1      10.089  22.260  29.066  1.00  0.00    -0.550 OA
ENDBRANCH   7   8
ENDBRANCH   6   7
ENDBRANCH   5   6
ENDBRANCH   4   5
ENDBRANCH   3   4
ENDBRANCH   2   3
ENDBRANCH   1   2
BRANCH   1  11
ATOM     11  C   UNL     1      14.401  20.108  28.934  1.00  0.00     0.000 C 
BRANCH  11  12
ATOM     12  C   UNL     1      15.332  20.022  30.154  1.00  0.00     0.000 C 
BRANCH  12  13
ATOM     13  C   UNL     1      16.815  20.182  29.777  1.00  0.00     0.000 C 
BRANCH  13  14
ATOM     14  C   UNL     1      17.032  21.163  28.614  1.00  0.00     0.000 C 
BRANCH  14  15
ATOM     15  C   UNL     1      17.186  22.641  29.024  1.00  0.00     0.000 C 
BRANCH  15  16
ATOM     16  C   UNL     1      16.760  23.640  27.928  1.00  0.00     0.006 C 
BRANCH  16  17
ATOM     17  C   UNL     1      15.791  23.015  26.915  1.00  0.00     0.053 C 
BRANCH  17  18
ATOM     18  C   UNL     1      16.007  23.597  25.554  1.00  0.00     0.041 C 
ATOM     19  O   UNL     1      16.088  24.845  25.405  1.00  0.00    -0.550 OA
ATOM     20  O   UNL     1      16.072  22.766  24.443  1.00  0.00    -0.550 OA
ENDBRANCH  17  18
ENDBRANCH  16  17
ENDBRANCH  15  16
ENDBRANCH  14  15
ENDBRANCH  13  14
ENDBRANCH  12  13
ENDBRANCH  11  12
ENDBRANCH   1  11
TORSDOF 15
ENDMDL
MODEL 2
REMARK VINA RESULT:    -4.978      1.755      2.590
REMARK INTER + INTRA:         -11.393
REMARK INTER:                  -9.390
REMARK INTRA:                  -2.003
REMARK UNBOUND:                -2.050
REMARK SMILES O=C([O-])CCCCCCCCCCCCCCC(=O)[O-]
REMARK SMILES IDX 10 1 9 2 8 3 7 4 6 5 5 6 4 7 2 8 1 9 3 10 11 11 12 12 13 13
REMARK SMILES IDX 14 14 15 15 16 16 17 17 18 18 19 19 20 20
REMARK H PARENT
REMARK Flexibility Score: inf
ROOT
ATOM      1  C   UNL     1      15.696  19.857  29.882  1.00  0.00     0.000 C 
ENDROOT
BRANCH   1   2
ATOM      2  C   UNL     1      14.340  19.261  29.479  1.00  0.00     0.000 C 
BRANCH   2   3
ATOM      3  C   UNL     1      13.525  20.191  28.561  1.00  0.00     0.000 C 
BRANCH   3   4
ATOM      4  C   UNL     1      12.077  20.453  29.017  1.00  0.00     0.000 C 
BRANCH   4   5
ATOM      5  C   UNL     1      11.901  20.684  30.531  1.00  0.00     0.000 C 
BRANCH   5   6
ATOM      6  C   UNL     1      10.499  20.311  31.058  1.00  0.00     0.006 C 
BRANCH   6   7
ATOM      7  C   UNL     1       9.403  20.508  30.003  1.00  0.00     0.053 C 
BRANCH   7   8
ATOM      8  C   UNL     1       8.496  21.631  30.395  1.00  0.00     0.041 C 
ATOM      9  O   UNL     1       7.268  21.419  30.581  1.00  0.00    -0.550 OA
ATOM     10  O   UNL     1       9.014  22.902  30.606  1.00  0.00    -0.550 OA
ENDBRANCH   7   8
ENDBRANCH   6   7
ENDBRANCH   5   6
ENDBRANCH   4   5
ENDBRANCH   3   4
ENDBRANCH   2   3
ENDBRANCH   1   2
BRANCH   1  11
ATOM     11  C   UNL     1      15.538  20.838  31.055  1.00  0.00     0.000 C 
BRANCH  11  12
ATOM     12  C   UNL     1      16.069  22.243  30.730  1.00  0.00     0.000 C 
BRANCH  12  13
ATOM     13  C   UNL     1      15.048  23.097  29.958  1.00  0.00     0.000 C 
BRANCH  13  14
ATOM     14  C   UNL     1      15.567  23.548  28.583  1.00  0.00     0.000 C 
BRANCH  14  15
ATOM     15  C   UNL     1      16.956  23.003  28.197  1.00  0.00     0.000 C 
BRANCH  15  16
ATOM     16  C   UNL     1      16.913  21.879  27.140  1.00  0.00     0.006 C 
BRANCH  16  17
ATOM     17  C   UNL     1      15.636  21.927  26.291  1.00  0.00     0.053 C 
BRANCH  17  18
ATOM     18  C   UNL     1      15.891  22.637  24.998  1.00  0.00     0.041 C 
ATOM     19  O   UNL     1      16.091  23.880  24.988  1.00  0.00    -0.550 OA
ATOM     20  O   UNL     1      15.862  21.934  23.800  1.00  0.00    -0.550 OA
ENDBRANCH  17  18
ENDBRANCH  16  17
ENDBRANCH  15  16
ENDBRANCH  14  15
ENDBRANCH  13  14
ENDBRANCH  12  13
ENDBRANCH  11  12
ENDBRANCH   1  11
TORSDOF 15
ENDMDL
MODEL 3
REMARK VINA RESULT:    -4.976      2.168      4.216
REMARK INTER + INTRA:         -11.388
REMARK INTER:                  -9.730
REMARK INTRA:                  -1.659
REMARK UNBOUND:                -2.050
REMARK SMILES O=C([O-])CCCCCCCCCCCCCCC(=O)[O-]
REMARK SMILES IDX 10 1 9 2 8 3 7 4 6 5 5 6 4 7 2 8 1 9 3 10 11 11 12 12 13 13
REMARK SMILES IDX 14 14 15 15 16 16 17 17 18 18 19 19 20 20
REMARK H PARENT
REMARK Flexibility Score: inf
ROOT
ATOM      1  C   UNL     1      10.319  24.396  31.119  1.00  0.00     0.000 C 
ENDROOT
BRANCH   1   2
ATOM      2  C   UNL     1       9.642  23.080  31.527  1.00  0.00     0.000 C 
BRANCH   2   3
ATOM      3  C   UNL     1       8.936  22.378  30.352  1.00  0.00     0.000 C 
BRANCH   3   4
ATOM      4  C   UNL     1       9.274  20.884  30.185  1.00  0.00     0.000 C 
BRANCH   4   5
ATOM      5  C   UNL     1      10.413  20.580  29.192  1.00  0.00     0.000 C 
BRANCH   5   6
ATOM      6  C   UNL     1      11.787  20.381  29.865  1.00  0.00     0.006 C 
BRANCH   6   7
ATOM      7  C   UNL     1      12.700  19.439  29.069  1.00  0.00     0.053 C 
BRANCH   7   8
ATOM      8  C   UNL     1      13.875  20.187  28.522  1.00  0.00     0.041 C 
ATOM      9  O   UNL     1      13.740  20.926  27.511  1.00  0.00    -0.550 OA
ATOM     10  O   UNL     1      15.106  20.111  29.160  1.00  0.00    -0.550 OA
ENDBRANCH   7   8
ENDBRANCH   6   7
ENDBRANCH   5   6
ENDBRANCH   4   5
ENDBRANCH   3   4
ENDBRANCH   2   3
ENDBRANCH   1   2
BRANCH   1  11
ATOM     11  C   UNL     1      11.452  24.141  30.111  1.00  0.00     0.000 C 
BRANCH  11  12
ATOM     12  C   UNL     1      12.838  24.495  30.673  1.00  0.00     0.000 C 
BRANCH  12  13
ATOM     13  C   UNL     1      13.901  23.435  30.336  1.00  0.00     0.000 C 
BRANCH  13  14
ATOM     14  C   UNL     1      14.744  23.807  29.105  1.00  0.00     0.000 C 
BRANCH  14  15
ATOM     15  C   UNL     1      16.244  23.469  29.213  1.00  0.00     0.000 C 
BRANCH  15  16
ATOM     16  C   UNL     1      17.045  23.768  27.929  1.00  0.00     0.006 C 
BRANCH  16  17
ATOM     17  C   UNL     1      16.151  23.806  26.681  1.00  0.00     0.053 C 
BRANCH  17  18
ATOM     18  C   UNL     1      16.419  22.620  25.809  1.00  0.00     0.041 C 
ATOM     19  O   UNL     1      15.999  22.599  24.622  1.00  0.00    -0.550 OA
ATOM     20  O   UNL     1      17.091  21.516  26.321  1.00  0.00    -0.550 OA
ENDBRANCH  17  18
ENDBRANCH  16  17
ENDBRANCH  15  16
ENDBRANCH  14  15
ENDBRANCH  13  14
ENDBRANCH  12  13
ENDBRANCH  11  12
ENDBRANCH   1  11
TORSDOF 15
ENDMDL
MODEL 4
REMARK VINA RESULT:    -4.935      1.355      6.799
REMARK INTER + INTRA:         -11.312
REMARK INTER:                  -9.453
REMARK INTRA:                  -1.859
REMARK UNBOUND:                -2.050
REMARK SMILES O=C([O-])CCCCCCCCCCCCCCC(=O)[O-]
REMARK SMILES IDX 10 1 9 2 8 3 7 4 6 5 5 6 4 7 2 8 1 9 3 10 11 11 12 12 13 13
REMARK SMILES IDX 14 14 15 15 16 16 17 17 18 18 19 19 20 20
REMARK H PARENT
REMARK Flexibility Score: inf
ROOT
ATOM      1  C   UNL     1      13.314  21.430  29.119  1.00  0.00     0.000 C 
ENDROOT
BRANCH   1   2
ATOM      2  C   UNL     1      14.338  20.318  28.854  1.00  0.00     0.000 C 
BRANCH   2   3
ATOM      3  C   UNL     1      15.596  20.437  29.734  1.00  0.00     0.000 C 
BRANCH   3   4
ATOM      4  C   UNL     1      16.866  20.903  28.996  1.00  0.00     0.000 C 
BRANCH   4   5
ATOM      5  C   UNL     1      17.018  22.431  28.858  1.00  0.00     0.000 C 
BRANCH   5   6
ATOM      6  C   UNL     1      16.812  22.947  27.418  1.00  0.00     0.006 C 
BRANCH   6   7
ATOM      7  C   UNL     1      16.856  21.820  26.378  1.00  0.00     0.053 C 
BRANCH   7   8
ATOM      8  C   UNL     1      15.724  21.959  25.409  1.00  0.00     0.041 C 
ATOM      9  O   UNL     1      14.540  21.748  25.783  1.00  0.00    -0.550 OA
ATOM     10  O   UNL     1      15.971  22.372  24.106  1.00  0.00    -0.550 OA
ENDBRANCH   7   8
ENDBRANCH   6   7
ENDBRANCH   5   6
ENDBRANCH   4   5
ENDBRANCH   3   4
ENDBRANCH   2   3
ENDBRANCH   1   2
BRANCH   1  11
ATOM     11  C   UNL     1      13.621  22.156  30.439  1.00  0.00     0.000 C 
BRANCH  11  12
ATOM     12  C   UNL     1      13.925  23.650  30.239  1.00  0.00     0.000 C 
BRANCH  12  13
ATOM     13  C   UNL     1      12.834  24.559  30.829  1.00  0.00     0.000 C 
BRANCH  13  14
ATOM     14  C   UNL     1      11.423  24.187  30.344  1.00  0.00     0.000 C 
BRANCH  14  15
ATOM     15  C   UNL     1      10.330  24.211  31.431  1.00  0.00     0.000 C 
BRANCH  15  16
ATOM     16  C   UNL     1       9.454  22.941  31.463  1.00  0.00     0.006 C 
BRANCH  16  17
ATOM     17  C   UNL     1      10.235  21.707  31.938  1.00  0.00     0.053 C 
BRANCH  17  18
ATOM     18  C   UNL     1      10.131  20.603  30.933  1.00  0.00     0.041 C 
ATOM     19  O   UNL     1       9.433  20.754  29.896  1.00  0.00    -0.550 OA
ATOM     20  O   UNL     1      10.767  19.390  31.164  1.00  0.00    -0.550 OA
ENDBRANCH  17  18
ENDBRANCH  16  17
ENDBRANCH  15  16
ENDBRANCH  14  15
ENDBRANCH  13  14
ENDBRANCH  12  13
ENDBRANCH  11  12
ENDBRANCH   1  11
TORSDOF 15
ENDMDL
MODEL 5
REMARK VINA RESULT:    -4.898      2.616      4.000
REMARK INTER + INTRA:         -11.243
REMARK INTER:                  -9.360
REMARK INTRA:                  -1.883
REMARK UNBOUND:                -2.050
REMARK SMILES O=C([O-])CCCCCCCCCCCCCCC(=O)[O-]
REMARK SMILES IDX 10 1 9 2 8 3 7 4 6 5 5 6 4 7 2 8 1 9 3 10 11 11 12 12 13 13
REMARK SMILES IDX 14 14 15 15 16 16 17 17 18 18 19 19 20 20
REMARK H PARENT
REMARK Flexibility Score: inf
ROOT
ATOM      1  C   UNL     1      13.718  21.232  27.408  1.00  0.00     0.000 C 
ENDROOT
BRANCH   1   2
ATOM      2  C   UNL     1      14.390  20.270  28.399  1.00  0.00     0.000 C 
BRANCH   2   3
ATOM      3  C   UNL     1      13.446  19.157  28.890  1.00  0.00     0.000 C 
BRANCH   3   4
ATOM      4  C   UNL     1      11.998  19.605  29.168  1.00  0.00     0.000 C 
BRANCH   4   5
ATOM      5  C   UNL     1      11.483  19.299  30.588  1.00  0.00     0.000 C 
BRANCH   5   6
ATOM      6  C   UNL     1      10.231  20.111  30.983  1.00  0.00     0.006 C 
BRANCH   6   7
ATOM      7  C   UNL     1       9.769  21.057  29.867  1.00  0.00     0.053 C 
BRANCH   7   8
ATOM      8  C   UNL     1       8.689  21.965  30.366  1.00  0.00     0.041 C 
ATOM      9  O   UNL     1       8.984  23.058  30.919  1.00  0.00    -0.550 OA
ATOM     10  O   UNL     1       7.355  21.630  30.173  1.00  0.00    -0.550 OA
ENDBRANCH   7   8
ENDBRANCH   6   7
ENDBRANCH   5   6
ENDBRANCH   4   5
ENDBRANCH   3   4
ENDBRANCH   2   3
ENDBRANCH   1   2
BRANCH   1  11
ATOM     11  C   UNL     1      14.663  21.567  26.243  1.00  0.00     0.000 C 
BRANCH  11  12
ATOM     12  C   UNL     1      16.077  21.942  26.713  1.00  0.00     0.000 C 
BRANCH  12  13
ATOM     13  C   UNL     1      16.328  23.459  26.679  1.00  0.00     0.000 C 
BRANCH  13  14
ATOM     14  C   UNL     1      16.540  24.059  28.079  1.00  0.00     0.000 C 
BRANCH  14  15
ATOM     15  C   UNL     1      16.584  23.035  29.230  1.00  0.00     0.000 C 
BRANCH  15  16
ATOM     16  C   UNL     1      15.371  23.112  30.180  1.00  0.00     0.006 C 
BRANCH  16  17
ATOM     17  C   UNL     1      14.253  24.005  29.624  1.00  0.00     0.053 C 
BRANCH  17  18
ATOM     18  C   UNL     1      12.928  23.599  30.191  1.00  0.00     0.041 C 
ATOM     19  O   UNL     1      12.836  22.569  30.909  1.00  0.00    -0.550 OA
ATOM     20  O   UNL     1      11.787  24.330  29.886  1.00  0.00    -0.550 OA
ENDBRANCH  17  18
ENDBRANCH  16  17
ENDBRANCH  15  16
ENDBRANCH  14  15
ENDBRANCH  13  14
ENDBRANCH  12  13
ENDBRANCH  11  12
ENDBRANCH   1  11
TORSDOF 15
ENDMDL
MODEL 6
REMARK VINA RESULT:    -4.848      0.832      6.369
REMARK INTER + INTRA:         -11.148
REMARK INTER:                  -9.021
REMARK INTRA:                  -2.127
REMARK UNBOUND:                -2.050
REMARK SMILES O=C([O-])CCCCCCCCCCCCCCC(=O)[O-]
REMARK SMILES IDX 10 1 9 2 8 3 7 4 6 5 5 6 4 7 2 8 1 9 3 10 11 11 12 12 13 13
REMARK SMILES IDX 14 14 15 15 16 16 17 17 18 18 19 19 20 20
REMARK H PARENT
REMARK Flexibility Score: inf
ROOT
ATOM      1  C   UNL     1      14.215  20.059  29.161  1.00  0.00     0.000 C 
ENDROOT
BRANCH   1   2
ATOM      2  C   UNL     1      15.309  19.272  29.897  1.00  0.00     0.000 C 
BRANCH   2   3
ATOM      3  C   UNL     1      16.678  19.976  29.868  1.00  0.00     0.000 C 
BRANCH   3   4
ATOM      4  C   UNL     1      16.820  21.168  30.835  1.00  0.00     0.000 C 
BRANCH   4   5
ATOM      5  C   UNL     1      16.910  22.550  30.158  1.00  0.00     0.000 C 
BRANCH   5   6
ATOM      6  C   UNL     1      17.060  22.482  28.624  1.00  0.00     0.006 C 
BRANCH   6   7
ATOM      7  C   UNL     1      16.860  23.847  27.953  1.00  0.00     0.053 C 
BRANCH   7   8
ATOM      8  C   UNL     1      15.998  23.711  26.737  1.00  0.00     0.041 C 
ATOM      9  O   UNL     1      16.020  24.597  25.842  1.00  0.00    -0.550 OA
ATOM     10  O   UNL     1      15.210  22.580  26.567  1.00  0.00    -0.550 OA
ENDBRANCH   7   8
ENDBRANCH   6   7
ENDBRANCH   5   6
ENDBRANCH   4   5
ENDBRANCH   3   4
ENDBRANCH   2   3
ENDBRANCH   1   2
BRANCH   1  11
ATOM     11  C   UNL     1      13.073  20.437  30.118  1.00  0.00     0.000 C 
BRANCH  11  12
ATOM     12  C   UNL     1      13.228  21.851  30.699  1.00  0.00     0.000 C 
BRANCH  12  13
ATOM     13  C   UNL     1      13.413  22.921  29.610  1.00  0.00     0.000 C 
BRANCH  13  14
ATOM     14  C   UNL     1      12.959  24.318  30.064  1.00  0.00     0.000 C 
BRANCH  14  15
ATOM     15  C   UNL     1      12.064  24.340  31.318  1.00  0.00     0.000 C 
BRANCH  15  16
ATOM     16  C   UNL     1      10.556  24.441  31.006  1.00  0.00     0.006 C 
BRANCH  16  17
ATOM     17  C   UNL     1       9.789  23.178  31.423  1.00  0.00     0.053 C 
BRANCH  17  18
ATOM     18  C   UNL     1       9.228  22.485  30.222  1.00  0.00     0.041 C 
ATOM     19  O   UNL     1       8.012  22.160  30.190  1.00  0.00    -0.550 OA
ATOM     20  O   UNL     1      10.057  22.156  29.157  1.00  0.00    -0.550 OA
ENDBRANCH  17  18
ENDBRANCH  16  17
ENDBRANCH  15  16
ENDBRANCH  14  15
ENDBRANCH  13  14
ENDBRANCH  12  13
ENDBRANCH  11  12
ENDBRANCH   1  11
TORSDOF 15
ENDMDL
MODEL 7
REMARK VINA RESULT:    -4.810      1.615      6.564
REMARK INTER + INTRA:         -11.077
REMARK INTER:                  -9.060
REMARK INTRA:                  -2.017
REMARK UNBOUND:                -2.050
REMARK SMILES O=C([O-])CCCCCCCCCCCCCCC(=O)[O-]
REMARK SMILES IDX 10 1 9 2 8 3 7 4 6 5 5 6 4 7 2 8 1 9 3 10 11 11 12 12 13 13
REMARK SMILES IDX 14 14 15 15 16 16 17 17 18 18 19 19 20 20
REMARK H PARENT
REMARK Flexibility Score: inf
ROOT
ATOM      1  C   UNL     1      13.649  22.344  30.668  1.00  0.00     0.000 C 
ENDROOT
BRANCH   1   2
ATOM      2  C   UNL     1      14.341  23.659  30.280  1.00  0.00     0.000 C 
BRANCH   2   3
ATOM      3  C   UNL     1      14.745  23.709  28.795  1.00  0.00     0.000 C 
BRANCH   3   4
ATOM      4  C   UNL     1      16.237  23.994  28.534  1.00  0.00     0.000 C 
BRANCH   4   5
ATOM      5  C   UNL     1      17.161  22.764  28.624  1.00  0.00     0.000 C 
BRANCH   5   6
ATOM      6  C   UNL     1      16.654  21.546  27.823  1.00  0.00     0.006 C 
BRANCH   6   7
ATOM      7  C   UNL     1      17.030  21.623  26.337  1.00  0.00     0.053 C 
BRANCH   7   8
ATOM      8  C   UNL     1      15.841  22.019  25.518  1.00  0.00     0.041 C 
ATOM      9  O   UNL     1      15.998  22.640  24.433  1.00  0.00    -0.550 OA
ATOM     10  O   UNL     1      14.564  21.658  25.926  1.00  0.00    -0.550 OA
ENDBRANCH   7   8
ENDBRANCH   6   7
ENDBRANCH   5   6
ENDBRANCH   4   5
ENDBRANCH   3   4
ENDBRANCH   2   3
ENDBRANCH   1   2
BRANCH   1  11
ATOM     11  C   UNL     1      14.683  21.238  30.933  1.00  0.00     0.000 C 
BRANCH  11  12
ATOM     12  C   UNL     1      14.315  19.906  30.258  1.00  0.00     0.000 C 
BRANCH  12  13
ATOM     13  C   UNL     1      13.442  20.100  29.006  1.00  0.00     0.000 C 
BRANCH  13  14
ATOM     14  C   UNL     1      12.118  19.322  29.078  1.00  0.00     0.000 C 
BRANCH  14  15
ATOM     15  C   UNL     1      11.557  19.115  30.499  1.00  0.00     0.000 C 
BRANCH  15  16
ATOM     16  C   UNL     1      10.643  20.260  30.982  1.00  0.00     0.006 C 
BRANCH  16  17
ATOM     17  C   UNL     1       9.948  20.980  29.818  1.00  0.00     0.053 C 
BRANCH  17  18
ATOM     18  C   UNL     1       8.819  21.823  30.323  1.00  0.00     0.041 C 
ATOM     19  O   UNL     1       9.044  22.979  30.770  1.00  0.00    -0.550 OA
ATOM     20  O   UNL     1       7.526  21.316  30.343  1.00  0.00    -0.550 OA
ENDBRANCH  17  18
ENDBRANCH  16  17
ENDBRANCH  15  16
ENDBRANCH  14  15
ENDBRANCH  13  14
ENDBRANCH  12  13
ENDBRANCH  11  12
ENDBRANCH   1  11
TORSDOF 15
ENDMDL
MODEL 8
REMARK VINA RESULT:    -4.755      2.029      6.648
REMARK INTER + INTRA:         -10.975
REMARK INTER:                  -9.432
REMARK INTRA:                  -1.542
REMARK UNBOUND:                -2.050
REMARK SMILES O=C([O-])CCCCCCCCCCCCCCC(=O)[O-]
REMARK SMILES IDX 10 1 9 2 8 3 7 4 6 5 5 6 4 7 2 8 1 9 3 10 11 11 12 12 13 13
REMARK SMILES IDX 14 14 15 15 16 16 17 17 18 18 19 19 20 20
REMARK H PARENT
REMARK Flexibility Score: inf
ROOT
ATOM      1  C   UNL     1      12.074  24.184  29.919  1.00  0.00     0.000 C 
ENDROOT
BRANCH   1   2
ATOM      2  C   UNL     1      13.587  24.424  29.803  1.00  0.00     0.000 C 
BRANCH   2   3
ATOM      3  C   UNL     1      14.424  23.305  30.450  1.00  0.00     0.000 C 
BRANCH   3   4
ATOM      4  C   UNL     1      15.740  22.972  29.723  1.00  0.00     0.000 C 
BRANCH   4   5
ATOM      5  C   UNL     1      16.032  23.830  28.476  1.00  0.00     0.000 C 
BRANCH   5   6
ATOM      6  C   UNL     1      17.051  23.192  27.508  1.00  0.00     0.006 C 
BRANCH   6   7
ATOM      7  C   UNL     1      16.406  22.164  26.569  1.00  0.00     0.053 C 
BRANCH   7   8
ATOM      8  C   UNL     1      16.107  22.785  25.241  1.00  0.00     0.041 C 
ATOM      9  O   UNL     1      16.032  24.037  25.129  1.00  0.00    -0.550 OA
ATOM     10  O   UNL     1      15.961  21.984  24.116  1.00  0.00    -0.550 OA
ENDBRANCH   7   8
ENDBRANCH   6   7
ENDBRANCH   5   6
ENDBRANCH   4   5
ENDBRANCH   3   4
ENDBRANCH   2   3
ENDBRANCH   1   2
BRANCH   1  11
ATOM     11  C   UNL     1      11.640  24.123  31.392  1.00  0.00     0.000 C 
BRANCH  11  12
ATOM     12  C   UNL     1      10.127  24.322  31.574  1.00  0.00     0.000 C 
BRANCH  12  13
ATOM     13  C   UNL     1       9.387  23.002  31.854  1.00  0.00     0.000 C 
BRANCH  13  14
ATOM     14  C   UNL     1       8.716  22.418  30.599  1.00  0.00     0.000 C 
BRANCH  14  15
ATOM     15  C   UNL     1       9.079  20.954  30.285  1.00  0.00     0.000 C 
BRANCH  15  16
ATOM     16  C   UNL     1      10.597  20.685  30.233  1.00  0.00     0.006 C 
BRANCH  16  17
ATOM     17  C   UNL     1      11.167  20.841  28.816  1.00  0.00     0.053 C 
BRANCH  17  18
ATOM     18  C   UNL     1      12.639  20.571  28.811  1.00  0.00     0.041 C 
ATOM     19  O   UNL     1      13.372  21.077  27.921  1.00  0.00    -0.550 OA
ATOM     20  O   UNL     1      13.195  19.722  29.760  1.00  0.00    -0.550 OA
ENDBRANCH  17  18
ENDBRANCH  16  17
ENDBRANCH  15  16
ENDBRANCH  14  15
ENDBRANCH  13  14
ENDBRANCH  12  13
ENDBRANCH  11  12
ENDBRANCH   1  11
TORSDOF 15
ENDMDL
MODEL 9
REMARK VINA RESULT:    -4.713      1.810      2.678
REMARK INTER + INTRA:         -10.896
REMARK INTER:                  -8.913
REMARK INTRA:                  -1.983
REMARK UNBOUND:                -2.050
REMARK SMILES O=C([O-])CCCCCCCCCCCCCCC(=O)[O-]
REMARK SMILES IDX 10 1 9 2 8 3 7 4 6 5 5 6 4 7 2 8 1 9 3 10 11 11 12 12 13 13
REMARK SMILES IDX 14 14 15 15 16 16 17 17 18 18 19 19 20 20
REMARK H PARENT
REMARK Flexibility Score: inf
ROOT
ATOM      1  C   UNL     1      13.200  21.280  28.282  1.00  0.00     0.000 C 
ENDROOT
BRANCH   1   2
ATOM      2  C   UNL     1      11.739  21.006  28.667  1.00  0.00     0.000 C 
BRANCH   2   3
ATOM      3  C   UNL     1      11.578  19.771  29.573  1.00  0.00     0.000 C 
BRANCH   3   4
ATOM      4  C   UNL     1      10.397  19.836  30.561  1.00  0.00     0.000 C 
BRANCH   4   5
ATOM      5  C   UNL     1       9.373  20.953  30.280  1.00  0.00     0.000 C 
BRANCH   5   6
ATOM      6  C   UNL     1       9.260  21.992  31.416  1.00  0.00     0.006 C 
BRANCH   6   7
ATOM      7  C   UNL     1      10.629  22.509  31.877  1.00  0.00     0.053 C 
BRANCH   7   8
ATOM      8  C   UNL     1      10.972  23.783  31.171  1.00  0.00     0.041 C 
ATOM      9  O   UNL     1      10.152  24.740  31.156  1.00  0.00    -0.550 OA
ATOM     10  O   UNL     1      12.216  23.934  30.573  1.00  0.00    -0.550 OA
ENDBRANCH   7   8
ENDBRANCH   6   7
ENDBRANCH   5   6
ENDBRANCH   4   5
ENDBRANCH   3   4
ENDBRANCH   2   3
ENDBRANCH   1   2
BRANCH   1  11
ATOM     11  C   UNL     1      14.083  20.056  28.573  1.00  0.00     0.000 C 
BRANCH  11  12
ATOM     12  C   UNL     1      15.330  20.406  29.401  1.00  0.00     0.000 C 
BRANCH  12  13
ATOM     13  C   UNL     1      15.088  21.579  30.367  1.00  0.00     0.000 C 
BRANCH  13  14
ATOM     14  C   UNL     1      16.061  22.747  30.140  1.00  0.00     0.000 C 
BRANCH  14  15
ATOM     15  C   UNL     1      15.624  23.764  29.067  1.00  0.00     0.000 C 
BRANCH  15  16
ATOM     16  C   UNL     1      16.590  23.858  27.867  1.00  0.00     0.006 C 
BRANCH  16  17
ATOM     17  C   UNL     1      15.870  23.676  26.524  1.00  0.00     0.053 C 
BRANCH  17  18
ATOM     18  C   UNL     1      16.011  22.266  26.041  1.00  0.00     0.041 C 
ATOM     19  O   UNL     1      16.992  21.567  26.407  1.00  0.00    -0.550 OA
ATOM     20  O   UNL     1      15.085  21.740  25.149  1.00  0.00    -0.550 OA
ENDBRANCH  17  18
ENDBRANCH  16  17
ENDBRANCH  15  16
ENDBRANCH  14  15
ENDBRANCH  13  14
ENDBRANCH  12  13
ENDBRANCH  11  12
ENDBRANCH   1  11
TORSDOF 15
ENDMDL
