MODEL 1
REMARK VINA RESULT:    -3.841      0.000      0.000
REMARK INTER + INTRA:          -3.953
REMARK INTER:                  -3.953
REMARK INTRA:                   0.000
REMARK UNBOUND:                 0.000
REMARK SMILES Cc1cccc(O)c1C
REMARK SMILES IDX 1 1 2 2 8 3 6 4 5 5 4 6 3 7 9 8 7 9
REMARK H PARENT 7 10
REMARK Flexibility Score: inf
ROOT
ATOM      1  C   UNL     1      11.353   8.974  19.342  1.00  0.00     0.045 C 
ATOM      2  C   UNL     1      11.242   7.912  18.280  1.00  0.00    -0.045 A 
ATOM      3  C   UNL     1      11.363   6.534  18.594  1.00  0.00    -0.006 A 
ATOM      4  C   UNL     1      11.274   5.579  17.557  1.00  0.00     0.118 A 
ATOM      5  C   UNL     1      11.026   5.991  16.242  1.00  0.00     0.046 A 
ATOM      6  C   UNL     1      10.876   7.344  15.944  1.00  0.00     0.004 A 
ATOM      7  C   UNL     1      10.983   8.299  16.954  1.00  0.00     0.004 A 
ATOM      8  C   UNL     1      11.643   6.088  20.009  1.00  0.00     0.048 C 
ENDROOT
BRANCH   4   9
ATOM      9  O   UNL     1      11.432   4.220  17.832  1.00  0.00    -0.508 OA
ATOM     10  H   UNL     1      12.306   3.844  18.179  1.00  0.00     0.293 HD
ENDBRANCH   4   9
TORSDOF 1
ENDMDL
MODEL 2
REMARK VINA RESULT:    -3.744      1.187      2.118
REMARK INTER + INTRA:          -3.853
REMARK INTER:                  -3.853
REMARK INTRA:                   0.000
REMARK UNBOUND:                 0.000
REMARK SMILES Cc1cccc(O)c1C
REMARK SMILES IDX 1 1 2 2 8 3 6 4 5 5 4 6 3 7 9 8 7 9
REMARK H PARENT 7 10
REMARK Flexibility Score: inf
ROOT
ATOM      1  C   UNL     1      12.015   6.279  20.737  1.00  0.00     0.045 C 
ATOM      2  C   UNL     1      11.620   6.798  19.379  1.00  0.00    -0.045 A 
ATOM      3  C   UNL     1      11.508   5.936  18.259  1.00  0.00    -0.006 A 
ATOM      4  C   UNL     1      11.155   6.477  17.003  1.00  0.00     0.118 A 
ATOM      5  C   UNL     1      10.879   7.845  16.880  1.00  0.00     0.046 A 
ATOM      6  C   UNL     1      10.960   8.682  17.991  1.00  0.00     0.004 A 
ATOM      7  C   UNL     1      11.328   8.165  19.232  1.00  0.00     0.004 A 
ATOM      8  C   UNL     1      11.817   4.463  18.387  1.00  0.00     0.048 C 
ENDROOT
BRANCH   4   9
ATOM      9  O   UNL     1      11.080   5.658  15.876  1.00  0.00    -0.508 OA
ATOM     10  H   UNL     1      10.196   5.293  15.540  1.00  0.00     0.293 HD
ENDBRANCH   4   9
TORSDOF 1
ENDMDL
MODEL 3
REMARK VINA RESULT:    -3.614      2.165      2.710
REMARK INTER + INTRA:          -3.720
REMARK INTER:                  -3.720
REMARK INTRA:                   0.000
REMARK UNBOUND:                 0.000
REMARK SMILES Cc1cccc(O)c1C
REMARK SMILES IDX 1 1 2 2 8 3 6 4 5 5 4 6 3 7 9 8 7 9
REMARK H PARENT 7 10
REMARK Flexibility Score: inf
ROOT
ATOM      1  C   UNL     1      15.121   6.762  16.246  1.00  0.00     0.045 C 
ATOM      2  C   UNL     1      13.644   6.526  16.429  1.00  0.00    -0.045 A 
ATOM      3  C   UNL     1      13.156   5.420  17.172  1.00  0.00    -0.006 A 
ATOM      4  C   UNL     1      11.762   5.232  17.295  1.00  0.00     0.118 A 
ATOM      5  C   UNL     1      10.875   6.154  16.724  1.00  0.00     0.046 A 
ATOM      6  C   UNL     1      11.360   7.256  16.023  1.00  0.00     0.004 A 
ATOM      7  C   UNL     1      12.734   7.443  15.875  1.00  0.00     0.004 A 
ATOM      8  C   UNL     1      14.110   4.418  17.777  1.00  0.00     0.048 C 
ENDROOT
BRANCH   4   9
ATOM      9  O   UNL     1      11.255   4.129  17.984  1.00  0.00    -0.508 OA
ATOM     10  H   UNL     1      11.801   3.285  18.113  1.00  0.00     0.293 HD
ENDBRANCH   4   9
TORSDOF 1
ENDMDL
MODEL 4
REMARK VINA RESULT:    -3.602      2.400      3.103
REMARK INTER + INTRA:          -3.708
REMARK INTER:                  -3.708
REMARK INTRA:                   0.000
REMARK UNBOUND:                 0.000
REMARK SMILES Cc1cccc(O)c1C
REMARK SMILES IDX 1 1 2 2 8 3 6 4 5 5 4 6 3 7 9 8 7 9
REMARK H PARENT 7 10
REMARK Flexibility Score: inf
ROOT
ATOM      1  C   UNL     1      15.186   8.142  16.394  1.00  0.00     0.045 C 
ATOM      2  C   UNL     1      13.682   8.060  16.353  1.00  0.00    -0.045 A 
ATOM      3  C   UNL     1      13.013   6.825  16.160  1.00  0.00    -0.006 A 
ATOM      4  C   UNL     1      11.601   6.805  16.106  1.00  0.00     0.118 A 
ATOM      5  C   UNL     1      10.875   7.989  16.286  1.00  0.00     0.046 A 
ATOM      6  C   UNL     1      11.537   9.195  16.508  1.00  0.00     0.004 A 
ATOM      7  C   UNL     1      12.931   9.232  16.541  1.00  0.00     0.004 A 
ATOM      8  C   UNL     1      13.794   5.549  15.954  1.00  0.00     0.048 C 
ENDROOT
BRANCH   4   9
ATOM      9  O   UNL     1      10.919   5.610  15.875  1.00  0.00    -0.508 OA
ATOM     10  H   UNL     1      10.729   5.277  14.937  1.00  0.00     0.293 HD
ENDBRANCH   4   9
TORSDOF 1
ENDMDL
MODEL 5
REMARK VINA RESULT:    -3.585      1.946      2.882
REMARK INTER + INTRA:          -3.690
REMARK INTER:                  -3.690
REMARK INTRA:                   0.000
REMARK UNBOUND:                 0.000
REMARK SMILES Cc1cccc(O)c1C
REMARK SMILES IDX 1 1 2 2 8 3 6 4 5 5 4 6 3 7 9 8 7 9
REMARK H PARENT 7 10
REMARK Flexibility Score: inf
ROOT
ATOM      1  C   UNL     1      11.646   6.637  20.141  1.00  0.00     0.045 C 
ATOM      2  C   UNL     1      11.381   6.909  18.683  1.00  0.00    -0.045 A 
ATOM      3  C   UNL     1      11.390   8.228  18.162  1.00  0.00    -0.006 A 
ATOM      4  C   UNL     1      11.113   8.431  16.792  1.00  0.00     0.118 A 
ATOM      5  C   UNL     1      10.875   7.335  15.953  1.00  0.00     0.046 A 
ATOM      6  C   UNL     1      10.900   6.039  16.464  1.00  0.00     0.004 A 
ATOM      7  C   UNL     1      11.150   5.825  17.819  1.00  0.00     0.004 A 
ATOM      8  C   UNL     1      11.634   9.412  19.067  1.00  0.00     0.048 C 
ENDROOT
BRANCH   4   9
ATOM      9  O   UNL     1      11.074   9.722  16.262  1.00  0.00    -0.508 OA
ATOM     10  H   UNL     1      10.313  10.031  15.669  1.00  0.00     0.293 HD
ENDBRANCH   4   9
TORSDOF 1
ENDMDL
MODEL 6
REMARK VINA RESULT:    -3.565      3.000      3.478
REMARK INTER + INTRA:          -3.669
REMARK INTER:                  -3.669
REMARK INTRA:                   0.000
REMARK UNBOUND:                 0.000
REMARK SMILES Cc1cccc(O)c1C
REMARK SMILES IDX 1 1 2 2 8 3 6 4 5 5 4 6 3 7 9 8 7 9
REMARK H PARENT 7 10
REMARK Flexibility Score: inf
ROOT
ATOM      1  C   UNL     1      12.047   5.900  19.231  1.00  0.00     0.045 C 
ATOM      2  C   UNL     1      12.928   5.360  18.135  1.00  0.00    -0.045 A 
ATOM      3  C   UNL     1      13.660   4.156  18.298  1.00  0.00    -0.006 A 
ATOM      4  C   UNL     1      14.489   3.704  17.248  1.00  0.00     0.118 A 
ATOM      5  C   UNL     1      14.551   4.419  16.044  1.00  0.00     0.046 A 
ATOM      6  C   UNL     1      13.804   5.583  15.877  1.00  0.00     0.004 A 
ATOM      7  C   UNL     1      12.998   6.053  16.914  1.00  0.00     0.004 A 
ATOM      8  C   UNL     1      13.605   3.392  19.599  1.00  0.00     0.048 C 
ENDROOT
BRANCH   4   9
ATOM      9  O   UNL     1      15.254   2.546  17.398  1.00  0.00    -0.508 OA
ATOM     10  H   UNL     1      16.183   2.467  17.003  1.00  0.00     0.293 HD
ENDBRANCH   4   9
TORSDOF 1
ENDMDL
MODEL 7
REMARK VINA RESULT:    -3.512      2.795      4.107
REMARK INTER + INTRA:          -3.615
REMARK INTER:                  -3.615
REMARK INTRA:                   0.000
REMARK UNBOUND:                 0.000
REMARK SMILES Cc1cccc(O)c1C
REMARK SMILES IDX 1 1 2 2 8 3 6 4 5 5 4 6 3 7 9 8 7 9
REMARK H PARENT 7 10
REMARK Flexibility Score: inf
ROOT
ATOM      1  C   UNL     1      14.535   3.396  17.562  1.00  0.00     0.045 C 
ATOM      2  C   UNL     1      13.485   4.470  17.445  1.00  0.00    -0.045 A 
ATOM      3  C   UNL     1      13.699   5.635  16.666  1.00  0.00    -0.006 A 
ATOM      4  C   UNL     1      12.691   6.623  16.608  1.00  0.00     0.118 A 
ATOM      5  C   UNL     1      11.477   6.427  17.280  1.00  0.00     0.046 A 
ATOM      6  C   UNL     1      11.259   5.265  18.018  1.00  0.00     0.004 A 
ATOM      7  C   UNL     1      12.255   4.293  18.102  1.00  0.00     0.004 A 
ATOM      8  C   UNL     1      15.012   5.853  15.951  1.00  0.00     0.048 C 
ENDROOT
BRANCH   4   9
ATOM      9  O   UNL     1      12.893   7.798  15.884  1.00  0.00    -0.508 OA
ATOM     10  H   UNL     1      12.324   8.622  16.036  1.00  0.00     0.293 HD
ENDBRANCH   4   9
TORSDOF 1
ENDMDL
MODEL 8
REMARK VINA RESULT:    -3.508      1.863      2.873
REMARK INTER + INTRA:          -3.611
REMARK INTER:                  -3.611
REMARK INTRA:                   0.000
REMARK UNBOUND:                 0.000
REMARK SMILES Cc1cccc(O)c1C
REMARK SMILES IDX 1 1 2 2 8 3 6 4 5 5 4 6 3 7 9 8 7 9
REMARK H PARENT 7 10
REMARK Flexibility Score: inf
ROOT
ATOM      1  C   UNL     1      11.877   4.507  18.101  1.00  0.00     0.045 C 
ATOM      2  C   UNL     1      11.532   5.907  17.663  1.00  0.00    -0.045 A 
ATOM      3  C   UNL     1      11.566   6.997  18.569  1.00  0.00    -0.006 A 
ATOM      4  C   UNL     1      11.213   8.286  18.114  1.00  0.00     0.118 A 
ATOM      5  C   UNL     1      10.875   8.487  16.769  1.00  0.00     0.046 A 
ATOM      6  C   UNL     1      10.875   7.419  15.875  1.00  0.00     0.004 A 
ATOM      7  C   UNL     1      11.200   6.137  16.316  1.00  0.00     0.004 A 
ATOM      8  C   UNL     1      11.918   6.779  20.022  1.00  0.00     0.048 C 
ENDROOT
BRANCH   4   9
ATOM      9  O   UNL     1      11.196   9.368  18.995  1.00  0.00    -0.508 OA
ATOM     10  H   UNL     1      10.607  10.176  18.835  1.00  0.00     0.293 HD
ENDBRANCH   4   9
TORSDOF 1
ENDMDL
MODEL 9
REMARK VINA RESULT:    -3.484      1.157      2.594
REMARK INTER + INTRA:          -3.586
REMARK INTER:                  -3.586
REMARK INTRA:                   0.000
REMARK UNBOUND:                 0.000
REMARK SMILES Cc1cccc(O)c1C
REMARK SMILES IDX 1 1 2 2 8 3 6 4 5 5 4 6 3 7 9 8 7 9
REMARK H PARENT 7 10
REMARK Flexibility Score: inf
ROOT
ATOM      1  C   UNL     1      11.148   9.519  19.047  1.00  0.00     0.045 C 
ATOM      2  C   UNL     1      11.326   8.056  18.731  1.00  0.00    -0.045 A 
ATOM      3  C   UNL     1      11.215   7.567  17.405  1.00  0.00    -0.006 A 
ATOM      4  C   UNL     1      11.368   6.183  17.164  1.00  0.00     0.118 A 
ATOM      5  C   UNL     1      11.671   5.316  18.221  1.00  0.00     0.046 A 
ATOM      6  C   UNL     1      11.812   5.807  19.518  1.00  0.00     0.004 A 
ATOM      7  C   UNL     1      11.641   7.167  19.773  1.00  0.00     0.004 A 
ATOM      8  C   UNL     1      10.876   8.498  16.265  1.00  0.00     0.048 C 
ENDROOT
BRANCH   4   9
ATOM      9  O   UNL     1      11.221   5.669  15.875  1.00  0.00    -0.508 OA
ATOM     10  H   UNL     1      11.112   4.675  15.707  1.00  0.00     0.293 HD
ENDBRANCH   4   9
TORSDOF 1
ENDMDL
