MODEL 1
REMARK VINA RESULT:    -4.603      0.000      0.000
REMARK INTER + INTRA:         -11.269
REMARK INTER:                  -8.640
REMARK INTRA:                  -2.629
REMARK UNBOUND:                -2.629
REMARK SMILES CCCCCCCCC=CCCCCCCCC(=O)[O-]
REMARK SMILES IDX 10 1 9 2 11 3 12 4 13 5 14 6 15 7 16 8 17 9 18 10 19 11
REMARK SMILES IDX 20 12 8 13 7 14 6 15 5 16 4 17 3 18 2 19 1 20
REMARK H PARENT
REMARK Flexibility Score: inf
ROOT
ATOM      1  C   UNL     1      17.345  25.139  55.971  1.00  0.00    -0.031 C 
ATOM      2  C   UNL     1      16.535  24.705  56.947  1.00  0.00    -0.031 C 
ENDROOT
BRANCH   1   3
ATOM      3  C   UNL     1      17.616  24.311  54.745  1.00  0.00     0.027 C 
BRANCH   3   4
ATOM      4  C   UNL     1      16.620  24.639  53.622  1.00  0.00     0.004 C 
BRANCH   4   5
ATOM      5  C   UNL     1      17.269  25.415  52.466  1.00  0.00     0.000 C 
BRANCH   5   6
ATOM      6  C   UNL     1      16.834  26.890  52.425  1.00  0.00     0.000 C 
BRANCH   6   7
ATOM      7  C   UNL     1      15.362  27.069  52.017  1.00  0.00     0.000 C 
BRANCH   7   8
ATOM      8  C   UNL     1      14.973  28.536  51.732  1.00  0.00     0.006 C 
BRANCH   8   9
ATOM      9  C   UNL     1      16.191  29.404  51.390  1.00  0.00     0.053 C 
BRANCH   9  10
ATOM     10  C   UNL     1      16.217  30.632  52.244  1.00  0.00     0.041 C 
ATOM     11  O   UNL     1      15.300  30.841  53.082  1.00  0.00    -0.550 OA
ATOM     12  O   UNL     1      17.281  31.521  52.148  1.00  0.00    -0.550 OA
ENDBRANCH   9  10
ENDBRANCH   8   9
ENDBRANCH   7   8
ENDBRANCH   6   7
ENDBRANCH   5   6
ENDBRANCH   4   5
ENDBRANCH   3   4
ENDBRANCH   1   3
BRANCH   2  13
ATOM     13  C   UNL     1      16.260  25.559  58.155  1.00  0.00     0.027 C 
BRANCH  13  14
ATOM     14  C   UNL     1      14.765  25.567  58.500  1.00  0.00     0.004 C 
BRANCH  14  15
ATOM     15  C   UNL     1      13.901  26.174  57.373  1.00  0.00     0.000 C 
BRANCH  15  16
ATOM     16  C   UNL     1      14.228  27.649  57.069  1.00  0.00     0.000 C 
BRANCH  16  17
ATOM     17  C   UNL     1      14.834  27.904  55.677  1.00  0.00    -0.000 C 
BRANCH  17  18
ATOM     18  C   UNL     1      16.202  28.616  55.680  1.00  0.00    -0.000 C 
BRANCH  18  19
ATOM     19  C   UNL     1      16.777  28.915  57.075  1.00  0.00    -0.003 C 
ATOM     20  C   UNL     1      18.251  28.533  57.209  1.00  0.00     0.004 C 
ENDBRANCH  18  19
ENDBRANCH  17  18
ENDBRANCH  16  17
ENDBRANCH  15  16
ENDBRANCH  14  15
ENDBRANCH  13  14
ENDBRANCH   2  13
TORSDOF 15
ENDMDL
MODEL 2
REMARK VINA RESULT:    -4.576      2.187      5.019
REMARK INTER + INTRA:         -11.217
REMARK INTER:                  -8.681
REMARK INTRA:                  -2.537
REMARK UNBOUND:                -2.629
REMARK SMILES CCCCCCCCC=CCCCCCCCC(=O)[O-]
REMARK SMILES IDX 10 1 9 2 11 3 12 4 13 5 14 6 15 7 16 8 17 9 18 10 19 11
REMARK SMILES IDX 20 12 8 13 7 14 6 15 5 16 4 17 3 18 2 19 1 20
REMARK H PARENT
REMARK Flexibility Score: inf
ROOT
ATOM      1  C   UNL     1      16.593  24.961  57.337  1.00  0.00    -0.031 C 
ATOM      2  C   UNL     1      16.432  25.077  56.011  1.00  0.00    -0.031 C 
ENDROOT
BRANCH   1   3
ATOM      3  C   UNL     1      15.805  25.802  58.304  1.00  0.00     0.027 C 
BRANCH   3   4
ATOM      4  C   UNL     1      14.897  26.795  57.562  1.00  0.00     0.004 C 
BRANCH   4   5
ATOM      5  C   UNL     1      15.232  28.258  57.887  1.00  0.00     0.000 C 
BRANCH   5   6
ATOM      6  C   UNL     1      16.596  28.692  57.325  1.00  0.00     0.000 C 
BRANCH   6   7
ATOM      7  C   UNL     1      16.572  28.924  55.806  1.00  0.00     0.000 C 
BRANCH   7   8
ATOM      8  C   UNL     1      17.841  28.422  55.082  1.00  0.00     0.006 C 
BRANCH   8   9
ATOM      9  C   UNL     1      18.826  27.743  56.043  1.00  0.00     0.053 C 
BRANCH   9  10
ATOM     10  C   UNL     1      20.121  28.491  56.082  1.00  0.00     0.041 C 
ATOM     11  O   UNL     1      20.170  29.649  56.574  1.00  0.00    -0.550 OA
ATOM     12  O   UNL     1      21.284  27.887  55.618  1.00  0.00    -0.550 OA
ENDBRANCH   9  10
ENDBRANCH   8   9
ENDBRANCH   7   8
ENDBRANCH   6   7
ENDBRANCH   5   6
ENDBRANCH   4   5
ENDBRANCH   3   4
ENDBRANCH   1   3
BRANCH   2  13
ATOM     13  C   UNL     1      17.215  24.211  55.062  1.00  0.00     0.027 C 
BRANCH  13  14
ATOM     14  C   UNL     1      17.188  24.784  53.639  1.00  0.00     0.004 C 
BRANCH  14  15
ATOM     15  C   UNL     1      15.867  25.519  53.322  1.00  0.00     0.000 C 
BRANCH  15  16
ATOM     16  C   UNL     1      16.009  26.611  52.245  1.00  0.00     0.000 C 
BRANCH  16  17
ATOM     17  C   UNL     1      15.212  27.899  52.519  1.00  0.00    -0.000 C 
BRANCH  17  18
ATOM     18  C   UNL     1      15.253  28.947  51.387  1.00  0.00    -0.000 C 
BRANCH  18  19
ATOM     19  C   UNL     1      16.343  30.022  51.535  1.00  0.00    -0.003 C 
ATOM     20  C   UNL     1      16.931  30.465  50.196  1.00  0.00     0.004 C 
ENDBRANCH  18  19
ENDBRANCH  17  18
ENDBRANCH  16  17
ENDBRANCH  15  16
ENDBRANCH  14  15
ENDBRANCH  13  14
ENDBRANCH   2  13
TORSDOF 15
ENDMDL
MODEL 3
REMARK VINA RESULT:    -4.545      6.763      8.965
REMARK INTER + INTRA:         -11.160
REMARK INTER:                  -9.016
REMARK INTRA:                  -2.144
REMARK UNBOUND:                -2.629
REMARK SMILES CCCCCCCCC=CCCCCCCCC(=O)[O-]
REMARK SMILES IDX 10 1 9 2 11 3 12 4 13 5 14 6 15 7 16 8 17 9 18 10 19 11
REMARK SMILES IDX 20 12 8 13 7 14 6 15 5 16 4 17 3 18 2 19 1 20
REMARK H PARENT
REMARK Flexibility Score: inf
ROOT
ATOM      1  C   UNL     1      25.704  21.938  54.304  1.00  0.00    -0.031 C 
ATOM      2  C   UNL     1      24.406  22.263  54.393  1.00  0.00    -0.031 C 
ENDROOT
BRANCH   1   3
ATOM      3  C   UNL     1      26.522  21.619  55.525  1.00  0.00     0.027 C 
BRANCH   3   4
ATOM      4  C   UNL     1      27.186  22.884  56.092  1.00  0.00     0.004 C 
BRANCH   4   5
ATOM      5  C   UNL     1      26.403  23.483  57.270  1.00  0.00     0.000 C 
BRANCH   5   6
ATOM      6  C   UNL     1      25.796  24.857  56.940  1.00  0.00     0.000 C 
BRANCH   6   7
ATOM      7  C   UNL     1      26.424  25.505  55.695  1.00  0.00     0.000 C 
BRANCH   7   8
ATOM      8  C   UNL     1      25.401  25.831  54.584  1.00  0.00     0.006 C 
BRANCH   8   9
ATOM      9  C   UNL     1      23.969  25.934  55.126  1.00  0.00     0.053 C 
BRANCH   9  10
ATOM     10  C   UNL     1      23.510  27.357  55.128  1.00  0.00     0.041 C 
ATOM     11  O   UNL     1      22.409  27.668  55.656  1.00  0.00    -0.550 OA
ATOM     12  O   UNL     1      24.322  28.349  54.589  1.00  0.00    -0.550 OA
ENDBRANCH   9  10
ENDBRANCH   8   9
ENDBRANCH   7   8
ENDBRANCH   6   7
ENDBRANCH   5   6
ENDBRANCH   4   5
ENDBRANCH   3   4
ENDBRANCH   1   3
BRANCH   2  13
ATOM     13  C   UNL     1      23.600  22.557  53.157  1.00  0.00     0.027 C 
BRANCH  13  14
ATOM     14  C   UNL     1      22.346  21.675  53.091  1.00  0.00     0.004 C 
BRANCH  14  15
ATOM     15  C   UNL     1      21.078  22.413  53.577  1.00  0.00     0.000 C 
BRANCH  15  16
ATOM     16  C   UNL     1      21.144  23.941  53.396  1.00  0.00     0.000 C 
BRANCH  16  17
ATOM     17  C   UNL     1      20.251  24.746  54.357  1.00  0.00    -0.000 C 
BRANCH  17  18
ATOM     18  C   UNL     1      19.126  25.556  53.682  1.00  0.00    -0.000 C 
BRANCH  18  19
ATOM     19  C   UNL     1      17.875  24.742  53.306  1.00  0.00    -0.003 C 
ATOM     20  C   UNL     1      17.525  23.672  54.339  1.00  0.00     0.004 C 
ENDBRANCH  18  19
ENDBRANCH  17  18
ENDBRANCH  16  17
ENDBRANCH  15  16
ENDBRANCH  14  15
ENDBRANCH  13  14
ENDBRANCH   2  13
TORSDOF 15
ENDMDL
MODEL 4
REMARK VINA RESULT:    -4.542      2.604      4.895
REMARK INTER + INTRA:         -11.155
REMARK INTER:                  -8.830
REMARK INTRA:                  -2.325
REMARK UNBOUND:                -2.629
REMARK SMILES CCCCCCCCC=CCCCCCCCC(=O)[O-]
REMARK SMILES IDX 10 1 9 2 11 3 12 4 13 5 14 6 15 7 16 8 17 9 18 10 19 11
REMARK SMILES IDX 20 12 8 13 7 14 6 15 5 16 4 17 3 18 2 19 1 20
REMARK H PARENT
REMARK Flexibility Score: inf
ROOT
ATOM      1  C   UNL     1      16.318  26.665  52.365  1.00  0.00    -0.031 C 
ATOM      2  C   UNL     1      16.096  25.546  53.069  1.00  0.00    -0.031 C 
ENDROOT
BRANCH   1   3
ATOM      3  C   UNL     1      15.222  27.661  52.103  1.00  0.00     0.027 C 
BRANCH   3   4
ATOM      4  C   UNL     1      15.136  28.700  53.232  1.00  0.00     0.004 C 
BRANCH   4   5
ATOM      5  C   UNL     1      16.481  28.912  53.942  1.00  0.00     0.000 C 
BRANCH   5   6
ATOM      6  C   UNL     1      16.376  28.759  55.469  1.00  0.00     0.000 C 
BRANCH   6   7
ATOM      7  C   UNL     1      17.746  28.715  56.163  1.00  0.00     0.000 C 
BRANCH   7   8
ATOM      8  C   UNL     1      18.937  28.674  55.180  1.00  0.00     0.006 C 
BRANCH   8   9
ATOM      9  C   UNL     1      19.903  27.522  55.487  1.00  0.00     0.053 C 
BRANCH   9  10
ATOM     10  C   UNL     1      21.195  28.050  56.023  1.00  0.00     0.041 C 
ATOM     11  O   UNL     1      21.198  28.864  56.985  1.00  0.00    -0.550 OA
ATOM     12  O   UNL     1      22.400  27.604  55.493  1.00  0.00    -0.550 OA
ENDBRANCH   9  10
ENDBRANCH   8   9
ENDBRANCH   7   8
ENDBRANCH   6   7
ENDBRANCH   5   6
ENDBRANCH   4   5
ENDBRANCH   3   4
ENDBRANCH   1   3
BRANCH   2  13
ATOM     13  C   UNL     1      17.212  24.572  53.338  1.00  0.00     0.027 C 
BRANCH  13  14
ATOM     14  C   UNL     1      17.711  24.687  54.785  1.00  0.00     0.004 C 
BRANCH  14  15
ATOM     15  C   UNL     1      16.612  25.178  55.752  1.00  0.00     0.000 C 
BRANCH  15  16
ATOM     16  C   UNL     1      16.810  24.708  57.205  1.00  0.00     0.000 C 
BRANCH  16  17
ATOM     17  C   UNL     1      15.878  25.373  58.235  1.00  0.00    -0.000 C 
BRANCH  17  18
ATOM     18  C   UNL     1      14.726  26.204  57.633  1.00  0.00    -0.000 C 
BRANCH  18  19
ATOM     19  C   UNL     1      14.513  27.585  58.279  1.00  0.00    -0.003 C 
ATOM     20  C   UNL     1      13.088  28.110  58.108  1.00  0.00     0.004 C 
ENDBRANCH  18  19
ENDBRANCH  17  18
ENDBRANCH  16  17
ENDBRANCH  15  16
ENDBRANCH  14  15
ENDBRANCH  13  14
ENDBRANCH   2  13
TORSDOF 15
ENDMDL
MODEL 5
REMARK VINA RESULT:    -4.539      1.694      2.272
REMARK INTER + INTRA:         -11.149
REMARK INTER:                  -8.746
REMARK INTRA:                  -2.403
REMARK UNBOUND:                -2.629
REMARK SMILES CCCCCCCCC=CCCCCCCCC(=O)[O-]
REMARK SMILES IDX 10 1 9 2 11 3 12 4 13 5 14 6 15 7 16 8 17 9 18 10 19 11
REMARK SMILES IDX 20 12 8 13 7 14 6 15 5 16 4 17 3 18 2 19 1 20
REMARK H PARENT
REMARK Flexibility Score: inf
ROOT
ATOM      1  C   UNL     1      16.456  25.156  54.703  1.00  0.00    -0.031 C 
ATOM      2  C   UNL     1      17.345  25.118  55.705  1.00  0.00    -0.031 C 
ENDROOT
BRANCH   1   3
ATOM      3  C   UNL     1      16.889  25.300  53.270  1.00  0.00     0.027 C 
BRANCH   3   4
ATOM      4  C   UNL     1      15.827  26.040  52.442  1.00  0.00     0.004 C 
BRANCH   4   5
ATOM      5  C   UNL     1      16.154  27.530  52.259  1.00  0.00     0.000 C 
BRANCH   5   6
ATOM      6  C   UNL     1      14.925  28.360  51.851  1.00  0.00     0.000 C 
BRANCH   6   7
ATOM      7  C   UNL     1      15.286  29.589  51.001  1.00  0.00     0.000 C 
BRANCH   7   8
ATOM      8  C   UNL     1      16.759  30.031  51.147  1.00  0.00     0.006 C 
BRANCH   8   9
ATOM      9  C   UNL     1      17.305  30.664  49.861  1.00  0.00     0.053 C 
BRANCH   9  10
ATOM     10  C   UNL     1      16.609  31.957  49.577  1.00  0.00     0.041 C 
ATOM     11  O   UNL     1      15.872  32.071  48.562  1.00  0.00    -0.550 OA
ATOM     12  O   UNL     1      16.737  33.023  50.461  1.00  0.00    -0.550 OA
ENDBRANCH   9  10
ENDBRANCH   8   9
ENDBRANCH   7   8
ENDBRANCH   6   7
ENDBRANCH   5   6
ENDBRANCH   4   5
ENDBRANCH   3   4
ENDBRANCH   1   3
BRANCH   2  13
ATOM     13  C   UNL     1      16.891  24.951  57.130  1.00  0.00     0.027 C 
BRANCH  13  14
ATOM     14  C   UNL     1      15.533  25.627  57.362  1.00  0.00     0.004 C 
BRANCH  14  15
ATOM     15  C   UNL     1      15.674  27.086  57.850  1.00  0.00     0.000 C 
BRANCH  15  16
ATOM     16  C   UNL     1      14.992  28.116  56.929  1.00  0.00     0.000 C 
BRANCH  16  17
ATOM     17  C   UNL     1      15.869  28.634  55.775  1.00  0.00    -0.000 C 
BRANCH  17  18
ATOM     18  C   UNL     1      17.341  28.909  56.145  1.00  0.00    -0.000 C 
BRANCH  18  19
ATOM     19  C   UNL     1      18.354  28.664  55.013  1.00  0.00    -0.003 C 
ATOM     20  C   UNL     1      19.624  27.961  55.490  1.00  0.00     0.004 C 
ENDBRANCH  18  19
ENDBRANCH  17  18
ENDBRANCH  16  17
ENDBRANCH  15  16
ENDBRANCH  14  15
ENDBRANCH  13  14
ENDBRANCH   2  13
TORSDOF 15
ENDMDL
MODEL 6
REMARK VINA RESULT:    -4.534      1.903      4.745
REMARK INTER + INTRA:         -11.139
REMARK INTER:                  -8.646
REMARK INTRA:                  -2.493
REMARK UNBOUND:                -2.629
REMARK SMILES CCCCCCCCC=CCCCCCCCC(=O)[O-]
REMARK SMILES IDX 10 1 9 2 11 3 12 4 13 5 14 6 15 7 16 8 17 9 18 10 19 11
REMARK SMILES IDX 20 12 8 13 7 14 6 15 5 16 4 17 3 18 2 19 1 20
REMARK H PARENT
REMARK Flexibility Score: inf
ROOT
ATOM      1  C   UNL     1      16.867  25.068  57.116  1.00  0.00    -0.031 C 
ATOM      2  C   UNL     1      16.607  25.110  55.802  1.00  0.00    -0.031 C 
ENDROOT
BRANCH   1   3
ATOM      3  C   UNL     1      15.825  25.431  58.138  1.00  0.00     0.027 C 
BRANCH   3   4
ATOM      4  C   UNL     1      14.537  25.927  57.463  1.00  0.00     0.004 C 
BRANCH   4   5
ATOM      5  C   UNL     1      14.365  27.450  57.567  1.00  0.00     0.000 C 
BRANCH   5   6
ATOM      6  C   UNL     1      14.850  28.188  56.307  1.00  0.00     0.000 C 
BRANCH   6   7
ATOM      7  C   UNL     1      16.136  28.996  56.543  1.00  0.00     0.000 C 
BRANCH   7   8
ATOM      8  C   UNL     1      16.871  29.386  55.242  1.00  0.00     0.006 C 
BRANCH   8   9
ATOM      9  C   UNL     1      18.035  28.438  54.926  1.00  0.00     0.053 C 
BRANCH   9  10
ATOM     10  C   UNL     1      19.309  28.959  55.509  1.00  0.00     0.041 C 
ATOM     11  O   UNL     1      20.290  28.188  55.682  1.00  0.00    -0.550 OA
ATOM     12  O   UNL     1      19.430  30.310  55.816  1.00  0.00    -0.550 OA
ENDBRANCH   9  10
ENDBRANCH   8   9
ENDBRANCH   7   8
ENDBRANCH   6   7
ENDBRANCH   5   6
ENDBRANCH   4   5
ENDBRANCH   3   4
ENDBRANCH   1   3
BRANCH   2  13
ATOM     13  C   UNL     1      17.658  24.721  54.797  1.00  0.00     0.027 C 
BRANCH  13  14
ATOM     14  C   UNL     1      17.216  25.070  53.370  1.00  0.00     0.004 C 
BRANCH  14  15
ATOM     15  C   UNL     1      15.822  25.734  53.329  1.00  0.00     0.000 C 
BRANCH  15  16
ATOM     16  C   UNL     1      15.605  26.645  52.105  1.00  0.00     0.000 C 
BRANCH  16  17
ATOM     17  C   UNL     1      14.969  28.011  52.418  1.00  0.00    -0.000 C 
BRANCH  17  18
ATOM     18  C   UNL     1      15.195  29.098  51.347  1.00  0.00    -0.000 C 
BRANCH  18  19
ATOM     19  C   UNL     1      16.492  29.910  51.507  1.00  0.00    -0.003 C 
ATOM     20  C   UNL     1      16.990  30.507  50.192  1.00  0.00     0.004 C 
ENDBRANCH  18  19
ENDBRANCH  17  18
ENDBRANCH  16  17
ENDBRANCH  15  16
ENDBRANCH  14  15
ENDBRANCH  13  14
ENDBRANCH   2  13
TORSDOF 15
ENDMDL
MODEL 7
REMARK VINA RESULT:    -4.532      2.272      4.913
REMARK INTER + INTRA:         -11.135
REMARK INTER:                  -8.317
REMARK INTRA:                  -2.819
REMARK UNBOUND:                -2.629
REMARK SMILES CCCCCCCCC=CCCCCCCCC(=O)[O-]
REMARK SMILES IDX 10 1 9 2 11 3 12 4 13 5 14 6 15 7 16 8 17 9 18 10 19 11
REMARK SMILES IDX 20 12 8 13 7 14 6 15 5 16 4 17 3 18 2 19 1 20
REMARK H PARENT
REMARK Flexibility Score: inf
ROOT
ATOM      1  C   UNL     1      14.635  28.207  55.718  1.00  0.00    -0.031 C 
ATOM      2  C   UNL     1      14.807  28.546  57.004  1.00  0.00    -0.031 C 
ENDROOT
BRANCH   1   3
ATOM      3  C   UNL     1      14.959  29.161  54.601  1.00  0.00     0.027 C 
BRANCH   3   4
ATOM      4  C   UNL     1      16.394  29.696  54.728  1.00  0.00     0.004 C 
BRANCH   4   5
ATOM      5  C   UNL     1      17.451  28.636  54.384  1.00  0.00     0.000 C 
BRANCH   5   6
ATOM      6  C   UNL     1      18.673  28.696  55.316  1.00  0.00     0.000 C 
BRANCH   6   7
ATOM      7  C   UNL     1      18.341  28.307  56.766  1.00  0.00     0.000 C 
BRANCH   7   8
ATOM      8  C   UNL     1      19.101  29.141  57.821  1.00  0.00     0.006 C 
BRANCH   8   9
ATOM      9  C   UNL     1      20.040  30.171  57.179  1.00  0.00     0.053 C 
BRANCH   9  10
ATOM     10  C   UNL     1      19.494  31.553  57.345  1.00  0.00     0.041 C 
ATOM     11  O   UNL     1      19.529  32.117  58.471  1.00  0.00    -0.550 OA
ATOM     12  O   UNL     1      18.992  32.238  56.245  1.00  0.00    -0.550 OA
ENDBRANCH   9  10
ENDBRANCH   8   9
ENDBRANCH   7   8
ENDBRANCH   6   7
ENDBRANCH   5   6
ENDBRANCH   4   5
ENDBRANCH   3   4
ENDBRANCH   1   3
BRANCH   2  13
ATOM     13  C   UNL     1      14.497  27.569  58.105  1.00  0.00     0.027 C 
BRANCH  13  14
ATOM     14  C   UNL     1      14.748  26.125  57.652  1.00  0.00     0.004 C 
BRANCH  14  15
ATOM     15  C   UNL     1      16.118  25.588  58.122  1.00  0.00     0.000 C 
BRANCH  15  16
ATOM     16  C   UNL     1      16.883  24.809  57.035  1.00  0.00     0.000 C 
BRANCH  16  17
ATOM     17  C   UNL     1      16.506  25.175  55.588  1.00  0.00    -0.000 C 
BRANCH  17  18
ATOM     18  C   UNL     1      17.616  24.939  54.543  1.00  0.00    -0.000 C 
BRANCH  18  19
ATOM     19  C   UNL     1      17.192  25.163  53.081  1.00  0.00    -0.003 C 
ATOM     20  C   UNL     1      15.763  25.688  52.947  1.00  0.00     0.004 C 
ENDBRANCH  18  19
ENDBRANCH  17  18
ENDBRANCH  16  17
ENDBRANCH  15  16
ENDBRANCH  14  15
ENDBRANCH  13  14
ENDBRANCH   2  13
TORSDOF 15
ENDMDL
MODEL 8
REMARK VINA RESULT:    -4.476      1.767      2.022
REMARK INTER + INTRA:         -11.031
REMARK INTER:                  -8.622
REMARK INTRA:                  -2.409
REMARK UNBOUND:                -2.629
REMARK SMILES CCCCCCCCC=CCCCCCCCC(=O)[O-]
REMARK SMILES IDX 10 1 9 2 11 3 12 4 13 5 14 6 15 7 16 8 17 9 18 10 19 11
REMARK SMILES IDX 20 12 8 13 7 14 6 15 5 16 4 17 3 18 2 19 1 20
REMARK H PARENT
REMARK Flexibility Score: inf
ROOT
ATOM      1  C   UNL     1      17.638  25.235  55.664  1.00  0.00    -0.031 C 
ATOM      2  C   UNL     1      16.671  24.816  56.494  1.00  0.00    -0.031 C 
ENDROOT
BRANCH   1   3
ATOM      3  C   UNL     1      17.766  24.694  54.267  1.00  0.00     0.027 C 
BRANCH   3   4
ATOM      4  C   UNL     1      17.356  25.748  53.225  1.00  0.00     0.004 C 
BRANCH   4   5
ATOM      5  C   UNL     1      15.840  25.777  52.981  1.00  0.00     0.000 C 
BRANCH   5   6
ATOM      6  C   UNL     1      15.401  26.984  52.134  1.00  0.00     0.000 C 
BRANCH   6   7
ATOM      7  C   UNL     1      16.312  28.208  52.318  1.00  0.00     0.000 C 
BRANCH   7   8
ATOM      8  C   UNL     1      15.974  29.379  51.369  1.00  0.00     0.006 C 
BRANCH   8   9
ATOM      9  C   UNL     1      14.550  29.278  50.806  1.00  0.00     0.053 C 
BRANCH   9  10
ATOM     10  C   UNL     1      14.455  29.979  49.489  1.00  0.00     0.041 C 
ATOM     11  O   UNL     1      15.251  30.915  49.210  1.00  0.00    -0.550 OA
ATOM     12  O   UNL     1      13.519  29.564  48.548  1.00  0.00    -0.550 OA
ENDBRANCH   9  10
ENDBRANCH   8   9
ENDBRANCH   7   8
ENDBRANCH   6   7
ENDBRANCH   5   6
ENDBRANCH   4   5
ENDBRANCH   3   4
ENDBRANCH   1   3
BRANCH   2  13
ATOM     13  C   UNL     1      16.548  25.386  57.881  1.00  0.00     0.027 C 
BRANCH  13  14
ATOM     14  C   UNL     1      15.093  25.753  58.202  1.00  0.00     0.004 C 
BRANCH  14  15
ATOM     15  C   UNL     1      14.294  26.156  56.943  1.00  0.00     0.000 C 
BRANCH  15  16
ATOM     16  C   UNL     1      14.212  27.679  56.722  1.00  0.00     0.000 C 
BRANCH  16  17
ATOM     17  C   UNL     1      15.225  28.242  55.709  1.00  0.00    -0.000 C 
BRANCH  17  18
ATOM     18  C   UNL     1      16.452  28.940  56.330  1.00  0.00    -0.000 C 
BRANCH  18  19
ATOM     19  C   UNL     1      17.791  28.646  55.631  1.00  0.00    -0.003 C 
ATOM     20  C   UNL     1      18.635  29.899  55.403  1.00  0.00     0.004 C 
ENDBRANCH  18  19
ENDBRANCH  17  18
ENDBRANCH  16  17
ENDBRANCH  15  16
ENDBRANCH  14  15
ENDBRANCH  13  14
ENDBRANCH   2  13
TORSDOF 15
ENDMDL
MODEL 9
REMARK VINA RESULT:    -4.442      2.964      4.673
REMARK INTER + INTRA:         -10.966
REMARK INTER:                  -8.052
REMARK INTRA:                  -2.914
REMARK UNBOUND:                -2.629
REMARK SMILES CCCCCCCCC=CCCCCCCCC(=O)[O-]
REMARK SMILES IDX 10 1 9 2 11 3 12 4 13 5 14 6 15 7 16 8 17 9 18 10 19 11
REMARK SMILES IDX 20 12 8 13 7 14 6 15 5 16 4 17 3 18 2 19 1 20
REMARK H PARENT
REMARK Flexibility Score: inf
ROOT
ATOM      1  C   UNL     1      14.294  28.722  55.979  1.00  0.00    -0.031 C 
ATOM      2  C   UNL     1      14.276  29.003  57.290  1.00  0.00    -0.031 C 
ENDROOT
BRANCH   1   3
ATOM      3  C   UNL     1      14.673  29.757  54.957  1.00  0.00     0.027 C 
BRANCH   3   4
ATOM      4  C   UNL     1      15.221  29.100  53.680  1.00  0.00     0.004 C 
BRANCH   4   5
ATOM      5  C   UNL     1      15.320  27.572  53.799  1.00  0.00     0.000 C 
BRANCH   5   6
ATOM      6  C   UNL     1      15.954  26.921  52.557  1.00  0.00     0.000 C 
BRANCH   6   7
ATOM      7  C   UNL     1      16.294  25.437  52.766  1.00  0.00     0.000 C 
BRANCH   7   8
ATOM      8  C   UNL     1      17.801  25.123  52.639  1.00  0.00     0.006 C 
BRANCH   8   9
ATOM      9  C   UNL     1      18.177  23.800  53.318  1.00  0.00     0.053 C 
BRANCH   9  10
ATOM     10  C   UNL     1      19.629  23.788  53.675  1.00  0.00     0.041 C 
ATOM     11  O   UNL     1      20.329  22.765  53.450  1.00  0.00    -0.550 OA
ATOM     12  O   UNL     1      20.221  24.926  54.212  1.00  0.00    -0.550 OA
ENDBRANCH   9  10
ENDBRANCH   8   9
ENDBRANCH   7   8
ENDBRANCH   6   7
ENDBRANCH   5   6
ENDBRANCH   4   5
ENDBRANCH   3   4
ENDBRANCH   1   3
BRANCH   2  13
ATOM     13  C   UNL     1      13.914  27.946  58.298  1.00  0.00     0.027 C 
BRANCH  13  14
ATOM     14  C   UNL     1      13.881  26.553  57.654  1.00  0.00     0.004 C 
BRANCH  14  15
ATOM     15  C   UNL     1      14.592  25.487  58.516  1.00  0.00     0.000 C 
BRANCH  15  16
ATOM     16  C   UNL     1      16.057  25.238  58.109  1.00  0.00     0.000 C 
BRANCH  16  17
ATOM     17  C   UNL     1      16.334  25.330  56.597  1.00  0.00    -0.000 C 
BRANCH  17  18
ATOM     18  C   UNL     1      17.574  26.161  56.209  1.00  0.00    -0.000 C 
BRANCH  18  19
ATOM     19  C   UNL     1      17.657  27.551  56.865  1.00  0.00    -0.003 C 
ATOM     20  C   UNL     1      18.190  28.626  55.919  1.00  0.00     0.004 C 
ENDBRANCH  18  19
ENDBRANCH  17  18
ENDBRANCH  16  17
ENDBRANCH  15  16
ENDBRANCH  14  15
ENDBRANCH  13  14
ENDBRANCH   2  13
TORSDOF 15
ENDMDL
