MODEL 1
REMARK VINA RESULT:    -3.867      0.000      0.000
REMARK INTER + INTRA:          -6.247
REMARK INTER:                  -5.676
REMARK INTRA:                  -0.571
REMARK UNBOUND:                -0.571
REMARK SMILES O=C([O-])CCCCCCCC(=O)[O-]
REMARK SMILES IDX 7 1 6 2 5 3 4 4 2 5 1 6 3 7 8 8 9 9 10 10 11 11 12 12 13 13
REMARK H PARENT
REMARK Flexibility Score: inf
ROOT
ATOM      1  C   UNL     1      28.060   3.886  10.793  1.00  0.00     0.000 C 
ENDROOT
BRANCH   1   2
ATOM      2  C   UNL     1      26.641   4.106  10.258  1.00  0.00     0.000 C 
BRANCH   2   3
ATOM      3  C   UNL     1      26.393   5.590   9.947  1.00  0.00     0.006 C 
BRANCH   3   4
ATOM      4  C   UNL     1      26.891   5.981   8.549  1.00  0.00     0.053 C 
BRANCH   4   5
ATOM      5  C   UNL     1      26.699   7.442   8.281  1.00  0.00     0.041 C 
ATOM      6  O   UNL     1      27.447   8.040   7.464  1.00  0.00    -0.550 OA
ATOM      7  O   UNL     1      25.673   8.136   8.910  1.00  0.00    -0.550 OA
ENDBRANCH   4   5
ENDBRANCH   3   4
ENDBRANCH   2   3
ENDBRANCH   1   2
BRANCH   1   8
ATOM      8  C   UNL     1      28.806   2.834   9.963  1.00  0.00     0.000 C 
BRANCH   8   9
ATOM      9  C   UNL     1      27.910   2.272   8.851  1.00  0.00     0.006 C 
BRANCH   9  10
ATOM     10  C   UNL     1      28.434   2.616   7.451  1.00  0.00     0.053 C 
BRANCH  10  11
ATOM     11  C   UNL     1      27.433   2.293   6.386  1.00  0.00     0.041 C 
ATOM     12  O   UNL     1      26.339   2.915   6.335  1.00  0.00    -0.550 OA
ATOM     13  O   UNL     1      27.721   1.329   5.428  1.00  0.00    -0.550 OA
ENDBRANCH  10  11
ENDBRANCH   9  10
ENDBRANCH   8   9
ENDBRANCH   1   8
TORSDOF 8
ENDMDL
MODEL 2
REMARK VINA RESULT:    -3.848      9.352     11.407
REMARK INTER + INTRA:          -6.219
REMARK INTER:                  -5.821
REMARK INTRA:                  -0.398
REMARK UNBOUND:                -0.571
REMARK SMILES O=C([O-])CCCCCCCC(=O)[O-]
REMARK SMILES IDX 7 1 6 2 5 3 4 4 2 5 1 6 3 7 8 8 9 9 10 10 11 11 12 12 13 13
REMARK H PARENT
REMARK Flexibility Score: inf
ROOT
ATOM      1  C   UNL     1      25.244   3.195  17.415  1.00  0.00     0.000 C 
ENDROOT
BRANCH   1   2
ATOM      2  C   UNL     1      25.439   1.677  17.481  1.00  0.00     0.000 C 
BRANCH   2   3
ATOM      3  C   UNL     1      24.759   1.088  18.726  1.00  0.00     0.006 C 
BRANCH   3   4
ATOM      4  C   UNL     1      23.825  -0.079  18.381  1.00  0.00     0.053 C 
BRANCH   4   5
ATOM      5  C   UNL     1      24.559  -1.195  17.704  1.00  0.00     0.041 C 
ATOM      6  O   UNL     1      25.376  -1.902  18.351  1.00  0.00    -0.550 OA
ATOM      7  O   UNL     1      24.316  -1.476  16.365  1.00  0.00    -0.550 OA
ENDBRANCH   4   5
ENDBRANCH   3   4
ENDBRANCH   2   3
ENDBRANCH   1   2
BRANCH   1   8
ATOM      8  C   UNL     1      24.074   3.640  18.300  1.00  0.00     0.000 C 
BRANCH   8   9
ATOM      9  C   UNL     1      23.143   4.598  17.543  1.00  0.00     0.006 C 
BRANCH   9  10
ATOM     10  C   UNL     1      23.919   5.629  16.714  1.00  0.00     0.053 C 
BRANCH  10  11
ATOM     11  C   UNL     1      23.313   6.995  16.815  1.00  0.00     0.041 C 
ATOM     12  O   UNL     1      22.075   7.152  16.655  1.00  0.00    -0.550 OA
ATOM     13  O   UNL     1      24.111   8.090  17.121  1.00  0.00    -0.550 OA
ENDBRANCH  10  11
ENDBRANCH   9  10
ENDBRANCH   8   9
ENDBRANCH   1   8
TORSDOF 8
ENDMDL
MODEL 3
REMARK VINA RESULT:    -3.837      1.857      2.401
REMARK INTER + INTRA:          -6.203
REMARK INTER:                  -5.919
REMARK INTRA:                  -0.284
REMARK UNBOUND:                -0.571
REMARK SMILES O=C([O-])CCCCCCCC(=O)[O-]
REMARK SMILES IDX 7 1 6 2 5 3 4 4 2 5 1 6 3 7 8 8 9 9 10 10 11 11 12 12 13 13
REMARK H PARENT
REMARK Flexibility Score: inf
ROOT
ATOM      1  C   UNL     1      27.938   3.935  10.662  1.00  0.00     0.000 C 
ENDROOT
BRANCH   1   2
ATOM      2  C   UNL     1      27.080   4.040   9.396  1.00  0.00     0.000 C 
BRANCH   2   3
ATOM      3  C   UNL     1      27.270   5.403   8.713  1.00  0.00     0.006 C 
BRANCH   3   4
ATOM      4  C   UNL     1      26.269   6.450   9.217  1.00  0.00     0.053 C 
BRANCH   4   5
ATOM      5  C   UNL     1      26.462   7.772   8.540  1.00  0.00     0.041 C 
ATOM      6  O   UNL     1      25.786   8.773   8.898  1.00  0.00    -0.550 OA
ATOM      7  O   UNL     1      27.412   7.908   7.536  1.00  0.00    -0.550 OA
ENDBRANCH   4   5
ENDBRANCH   3   4
ENDBRANCH   2   3
ENDBRANCH   1   2
BRANCH   1   8
ATOM      8  C   UNL     1      29.012   2.851  10.511  1.00  0.00     0.000 C 
BRANCH   8   9
ATOM      9  C   UNL     1      28.701   1.926   9.326  1.00  0.00     0.006 C 
BRANCH   9  10
ATOM     10  C   UNL     1      28.999   0.455   9.642  1.00  0.00     0.053 C 
BRANCH  10  11
ATOM     11  C   UNL     1      28.639  -0.444   8.499  1.00  0.00     0.041 C 
ATOM     12  O   UNL     1      28.578   0.014   7.328  1.00  0.00    -0.550 OA
ATOM     13  O   UNL     1      28.405  -1.795   8.723  1.00  0.00    -0.550 OA
ENDBRANCH  10  11
ENDBRANCH   9  10
ENDBRANCH   8   9
ENDBRANCH   1   8
TORSDOF 8
ENDMDL
MODEL 4
REMARK VINA RESULT:    -3.836      9.273     10.125
REMARK INTER + INTRA:          -6.201
REMARK INTER:                  -5.694
REMARK INTRA:                  -0.507
REMARK UNBOUND:                -0.571
REMARK SMILES O=C([O-])CCCCCCCC(=O)[O-]
REMARK SMILES IDX 7 1 6 2 5 3 4 4 2 5 1 6 3 7 8 8 9 9 10 10 11 11 12 12 13 13
REMARK H PARENT
REMARK Flexibility Score: inf
ROOT
ATOM      1  C   UNL     1      25.086   2.888  17.401  1.00  0.00     0.000 C 
ENDROOT
BRANCH   1   2
ATOM      2  C   UNL     1      24.590   3.358  18.772  1.00  0.00     0.000 C 
BRANCH   2   3
ATOM      3  C   UNL     1      23.405   4.325  18.627  1.00  0.00     0.006 C 
BRANCH   3   4
ATOM      4  C   UNL     1      23.199   4.777  17.176  1.00  0.00     0.053 C 
BRANCH   4   5
ATOM      5  C   UNL     1      23.447   6.245  17.011  1.00  0.00     0.041 C 
ATOM      6  O   UNL     1      23.808   6.706  15.896  1.00  0.00    -0.550 OA
ATOM      7  O   UNL     1      23.248   7.109  18.081  1.00  0.00    -0.550 OA
ENDBRANCH   4   5
ENDBRANCH   3   4
ENDBRANCH   2   3
ENDBRANCH   1   2
BRANCH   1   8
ATOM      8  C   UNL     1      25.463   1.401  17.430  1.00  0.00     0.000 C 
BRANCH   8   9
ATOM      9  C   UNL     1      24.842   0.699  18.646  1.00  0.00     0.006 C 
BRANCH   9  10
ATOM     10  C   UNL     1      23.674  -0.216  18.256  1.00  0.00     0.053 C 
BRANCH  10  11
ATOM     11  C   UNL     1      24.108  -1.306  17.325  1.00  0.00     0.041 C 
ATOM     12  O   UNL     1      23.596  -1.402  16.180  1.00  0.00    -0.550 OA
ATOM     13  O   UNL     1      25.104  -2.194  17.709  1.00  0.00    -0.550 OA
ENDBRANCH  10  11
ENDBRANCH   9  10
ENDBRANCH   8   9
ENDBRANCH   1   8
TORSDOF 8
ENDMDL
MODEL 5
REMARK VINA RESULT:    -3.829      1.186      4.879
REMARK INTER + INTRA:          -6.191
REMARK INTER:                  -5.523
REMARK INTRA:                  -0.669
REMARK UNBOUND:                -0.571
REMARK SMILES O=C([O-])CCCCCCCC(=O)[O-]
REMARK SMILES IDX 7 1 6 2 5 3 4 4 2 5 1 6 3 7 8 8 9 9 10 10 11 11 12 12 13 13
REMARK H PARENT
REMARK Flexibility Score: inf
ROOT
ATOM      1  C   UNL     1      27.995   3.680  10.318  1.00  0.00     0.000 C 
ENDROOT
BRANCH   1   2
ATOM      2  C   UNL     1      28.738   3.638   8.978  1.00  0.00     0.000 C 
BRANCH   2   3
ATOM      3  C   UNL     1      28.455   2.324   8.233  1.00  0.00     0.006 C 
BRANCH   3   4
ATOM      4  C   UNL     1      27.702   2.554   6.916  1.00  0.00     0.053 C 
BRANCH   4   5
ATOM      5  C   UNL     1      26.225   2.661   7.133  1.00  0.00     0.041 C 
ATOM      6  O   UNL     1      25.541   3.472   6.455  1.00  0.00    -0.550 OA
ATOM      7  O   UNL     1      25.597   1.842   8.063  1.00  0.00    -0.550 OA
ENDBRANCH   4   5
ENDBRANCH   3   4
ENDBRANCH   2   3
ENDBRANCH   1   2
BRANCH   1   8
ATOM      8  C   UNL     1      26.871   4.724  10.293  1.00  0.00     0.000 C 
BRANCH   8   9
ATOM      9  C   UNL     1      27.012   5.657   9.082  1.00  0.00     0.006 C 
BRANCH   9  10
ATOM     10  C   UNL     1      25.792   6.569   8.906  1.00  0.00     0.053 C 
BRANCH  10  11
ATOM     11  C   UNL     1      26.189   7.969   8.553  1.00  0.00     0.041 C 
ATOM     12  O   UNL     1      25.560   8.947   9.035  1.00  0.00    -0.550 OA
ATOM     13  O   UNL     1      27.277   8.195   7.719  1.00  0.00    -0.550 OA
ENDBRANCH  10  11
ENDBRANCH   9  10
ENDBRANCH   8   9
ENDBRANCH   1   8
TORSDOF 8
ENDMDL
MODEL 6
REMARK VINA RESULT:    -3.805     10.072     11.224
REMARK INTER + INTRA:          -6.156
REMARK INTER:                  -5.461
REMARK INTRA:                  -0.695
REMARK UNBOUND:                -0.571
REMARK SMILES O=C([O-])CCCCCCCC(=O)[O-]
REMARK SMILES IDX 7 1 6 2 5 3 4 4 2 5 1 6 3 7 8 8 9 9 10 10 11 11 12 12 13 13
REMARK H PARENT
REMARK Flexibility Score: inf
ROOT
ATOM      1  C   UNL     1      25.080   3.148  17.451  1.00  0.00     0.000 C 
ENDROOT
BRANCH   1   2
ATOM      2  C   UNL     1      24.349   3.546  18.738  1.00  0.00     0.000 C 
BRANCH   2   3
ATOM      3  C   UNL     1      23.275   4.607  18.457  1.00  0.00     0.006 C 
BRANCH   3   4
ATOM      4  C   UNL     1      21.911   4.223  19.044  1.00  0.00     0.053 C 
BRANCH   4   5
ATOM      5  C   UNL     1      21.600   2.775  18.824  1.00  0.00     0.041 C 
ATOM      6  O   UNL     1      21.500   1.992  19.805  1.00  0.00    -0.550 OA
ATOM      7  O   UNL     1      21.389   2.296  17.537  1.00  0.00    -0.550 OA
ENDBRANCH   4   5
ENDBRANCH   3   4
ENDBRANCH   2   3
ENDBRANCH   1   2
BRANCH   1   8
ATOM      8  C   UNL     1      25.443   1.658  17.460  1.00  0.00     0.000 C 
BRANCH   8   9
ATOM      9  C   UNL     1      24.801   0.941  18.657  1.00  0.00     0.006 C 
BRANCH   9  10
ATOM     10  C   UNL     1      23.820  -0.154  18.220  1.00  0.00     0.053 C 
BRANCH  10  11
ATOM     11  C   UNL     1      24.526  -1.318  17.597  1.00  0.00     0.041 C 
ATOM     12  O   UNL     1      25.396  -1.953  18.247  1.00  0.00    -0.550 OA
ATOM     13  O   UNL     1      24.197  -1.724  16.309  1.00  0.00    -0.550 OA
ENDBRANCH  10  11
ENDBRANCH   9  10
ENDBRANCH   8   9
ENDBRANCH   1   8
TORSDOF 8
ENDMDL
MODEL 7
REMARK VINA RESULT:    -3.762      2.715      6.312
REMARK INTER + INTRA:          -6.092
REMARK INTER:                  -5.660
REMARK INTRA:                  -0.432
REMARK UNBOUND:                -0.571
REMARK SMILES O=C([O-])CCCCCCCC(=O)[O-]
REMARK SMILES IDX 7 1 6 2 5 3 4 4 2 5 1 6 3 7 8 8 9 9 10 10 11 11 12 12 13 13
REMARK H PARENT
REMARK Flexibility Score: inf
ROOT
ATOM      1  C   UNL     1      28.312   2.657   7.840  1.00  0.00     0.000 C 
ENDROOT
BRANCH   1   2
ATOM      2  C   UNL     1      27.683   1.428   8.504  1.00  0.00     0.000 C 
BRANCH   2   3
ATOM      3  C   UNL     1      28.737   0.339   8.757  1.00  0.00     0.006 C 
BRANCH   3   4
ATOM      4  C   UNL     1      29.011  -0.507   7.507  1.00  0.00     0.053 C 
BRANCH   4   5
ATOM      5  C   UNL     1      28.480  -1.900   7.652  1.00  0.00     0.041 C 
ATOM      6  O   UNL     1      28.163  -2.567   6.632  1.00  0.00    -0.550 OA
ATOM      7  O   UNL     1      28.365  -2.473   8.912  1.00  0.00    -0.550 OA
ENDBRANCH   4   5
ENDBRANCH   3   4
ENDBRANCH   2   3
ENDBRANCH   1   2
BRANCH   1   8
ATOM      8  C   UNL     1      28.672   3.723   8.882  1.00  0.00     0.000 C 
BRANCH   8   9
ATOM      9  C   UNL     1      27.714   3.668  10.081  1.00  0.00     0.006 C 
BRANCH   9  10
ATOM     10  C   UNL     1      27.075   5.030  10.378  1.00  0.00     0.053 C 
BRANCH  10  11
ATOM     11  C   UNL     1      26.469   5.640   9.152  1.00  0.00     0.041 C 
ATOM     12  O   UNL     1      26.890   6.745   8.720  1.00  0.00    -0.550 OA
ATOM     13  O   UNL     1      25.464   4.971   8.465  1.00  0.00    -0.550 OA
ENDBRANCH  10  11
ENDBRANCH   9  10
ENDBRANCH   8   9
ENDBRANCH   1   8
TORSDOF 8
ENDMDL
MODEL 8
REMARK VINA RESULT:    -3.739      2.288      2.836
REMARK INTER + INTRA:          -6.058
REMARK INTER:                  -5.547
REMARK INTRA:                  -0.512
REMARK UNBOUND:                -0.571
REMARK SMILES O=C([O-])CCCCCCCC(=O)[O-]
REMARK SMILES IDX 7 1 6 2 5 3 4 4 2 5 1 6 3 7 8 8 9 9 10 10 11 11 12 12 13 13
REMARK H PARENT
REMARK Flexibility Score: inf
ROOT
ATOM      1  C   UNL     1      28.579   3.751   8.873  1.00  0.00     0.000 C 
ENDROOT
BRANCH   1   2
ATOM      2  C   UNL     1      27.441   3.756   9.900  1.00  0.00     0.000 C 
BRANCH   2   3
ATOM      3  C   UNL     1      26.820   5.156  10.026  1.00  0.00     0.006 C 
BRANCH   3   4
ATOM      4  C   UNL     1      26.871   5.935   8.706  1.00  0.00     0.053 C 
BRANCH   4   5
ATOM      5  C   UNL     1      25.651   5.694   7.871  1.00  0.00     0.041 C 
ATOM      6  O   UNL     1      25.673   4.839   6.947  1.00  0.00    -0.550 OA
ATOM      7  O   UNL     1      24.478   6.391   8.135  1.00  0.00    -0.550 OA
ENDBRANCH   4   5
ENDBRANCH   3   4
ENDBRANCH   2   3
ENDBRANCH   1   2
BRANCH   1   8
ATOM      8  C   UNL     1      28.400   2.616   7.857  1.00  0.00     0.000 C 
BRANCH   8   9
ATOM      9  C   UNL     1      27.741   1.392   8.508  1.00  0.00     0.006 C 
BRANCH   9  10
ATOM     10  C   UNL     1      28.769   0.339   8.942  1.00  0.00     0.053 C 
BRANCH  10  11
ATOM     11  C   UNL     1      28.389  -1.034   8.480  1.00  0.00     0.041 C 
ATOM     12  O   UNL     1      28.394  -1.998   9.289  1.00  0.00    -0.550 OA
ATOM     13  O   UNL     1      27.993  -1.242   7.165  1.00  0.00    -0.550 OA
ENDBRANCH  10  11
ENDBRANCH   9  10
ENDBRANCH   8   9
ENDBRANCH   1   8
TORSDOF 8
ENDMDL
MODEL 9
REMARK VINA RESULT:    -3.701      1.966      5.180
REMARK INTER + INTRA:          -6.003
REMARK INTER:                  -5.399
REMARK INTRA:                  -0.603
REMARK UNBOUND:                -0.571
REMARK SMILES O=C([O-])CCCCCCCC(=O)[O-]
REMARK SMILES IDX 7 1 6 2 5 3 4 4 2 5 1 6 3 7 8 8 9 9 10 10 11 11 12 12 13 13
REMARK H PARENT
REMARK Flexibility Score: inf
ROOT
ATOM      1  C   UNL     1      28.016   3.743  10.748  1.00  0.00     0.000 C 
ENDROOT
BRANCH   1   2
ATOM      2  C   UNL     1      28.783   2.992   9.655  1.00  0.00     0.000 C 
BRANCH   2   3
ATOM      3  C   UNL     1      27.838   2.107   8.828  1.00  0.00     0.006 C 
BRANCH   3   4
ATOM      4  C   UNL     1      28.571   1.371   7.699  1.00  0.00     0.053 C 
BRANCH   4   5
ATOM      5  C   UNL     1      28.719  -0.089   7.994  1.00  0.00     0.041 C 
ATOM      6  O   UNL     1      28.914  -0.909   7.058  1.00  0.00    -0.550 OA
ATOM      7  O   UNL     1      28.675  -0.542   9.307  1.00  0.00    -0.550 OA
ENDBRANCH   4   5
ENDBRANCH   3   4
ENDBRANCH   2   3
ENDBRANCH   1   2
BRANCH   1   8
ATOM      8  C   UNL     1      26.607   4.120  10.274  1.00  0.00     0.000 C 
BRANCH   8   9
ATOM      9  C   UNL     1      26.515   5.618   9.951  1.00  0.00     0.006 C 
BRANCH   9  10
ATOM     10  C   UNL     1      26.834   5.916   8.481  1.00  0.00     0.053 C 
BRANCH  10  11
ATOM     11  C   UNL     1      25.802   5.344   7.560  1.00  0.00     0.041 C 
ATOM     12  O   UNL     1      24.645   5.838   7.519  1.00  0.00    -0.550 OA
ATOM     13  O   UNL     1      26.127   4.286   6.720  1.00  0.00    -0.550 OA
ENDBRANCH  10  11
ENDBRANCH   9  10
ENDBRANCH   8   9
ENDBRANCH   1   8
TORSDOF 8
ENDMDL
