MODEL 1
REMARK VINA RESULT:    -4.567      0.000      0.000
REMARK INTER + INTRA:          -6.725
REMARK INTER:                  -6.436
REMARK INTRA:                  -0.288
REMARK UNBOUND:                -0.288
REMARK SMILES C=CCCCCCCC(=O)[O-]
REMARK SMILES IDX 6 1 7 2 8 3 9 4 10 5 11 6 5 7 4 8 3 9 2 10 1 11
REMARK H PARENT
REMARK Flexibility Score: inf
ROOT
ATOM      1  C   UNL     1     117.764 115.377 106.986  1.00  0.00     0.000 C 
ENDROOT
BRANCH   1   2
ATOM      2  C   UNL     1     118.837 114.894 107.973  1.00  0.00     0.006 C 
BRANCH   2   3
ATOM      3  C   UNL     1     118.245 114.516 109.337  1.00  0.00     0.053 C 
BRANCH   3   4
ATOM      4  C   UNL     1     118.821 113.234 109.856  1.00  0.00     0.041 C 
ATOM      5  O   UNL     1     119.518 112.504 109.105  1.00  0.00    -0.550 OA
ATOM      6  O   UNL     1     118.614 112.863 111.179  1.00  0.00    -0.550 OA
ENDBRANCH   3   4
ENDBRANCH   2   3
ENDBRANCH   1   2
BRANCH   1   7
ATOM      7  C   UNL     1     116.505 115.847 107.728  1.00  0.00     0.000 C 
BRANCH   7   8
ATOM      8  C   UNL     1     116.352 117.379 107.737  1.00  0.00     0.004 C 
BRANCH   8   9
ATOM      9  C   UNL     1     115.335 117.918 106.715  1.00  0.00     0.027 C 
BRANCH   9  10
ATOM     10  C   UNL     1     114.050 118.367 107.357  1.00  0.00    -0.035 C 
ATOM     11  C   UNL     1     114.040 119.104 108.472  1.00  0.00     0.004 C 
ENDBRANCH   9  10
ENDBRANCH   8   9
ENDBRANCH   7   8
ENDBRANCH   1   7
TORSDOF 7
ENDMDL
MODEL 2
REMARK VINA RESULT:    -4.448      0.785      1.357
REMARK INTER + INTRA:          -6.557
REMARK INTER:                  -6.233
REMARK INTRA:                  -0.324
REMARK UNBOUND:                -0.288
REMARK SMILES C=CCCCCCCC(=O)[O-]
REMARK SMILES IDX 6 1 7 2 8 3 9 4 10 5 11 6 5 7 4 8 3 9 2 10 1 11
REMARK H PARENT
REMARK Flexibility Score: inf
ROOT
ATOM      1  C   UNL     1     118.000 114.993 106.832  1.00  0.00     0.000 C 
ENDROOT
BRANCH   1   2
ATOM      2  C   UNL     1     119.126 114.584 107.793  1.00  0.00     0.006 C 
BRANCH   2   3
ATOM      3  C   UNL     1     118.600 114.242 109.194  1.00  0.00     0.053 C 
BRANCH   3   4
ATOM      4  C   UNL     1     119.043 112.882 109.638  1.00  0.00     0.041 C 
ATOM      5  O   UNL     1     118.744 112.462 110.786  1.00  0.00    -0.550 OA
ATOM      6  O   UNL     1     119.759 112.066 108.771  1.00  0.00    -0.550 OA
ENDBRANCH   3   4
ENDBRANCH   2   3
ENDBRANCH   1   2
BRANCH   1   7
ATOM      7  C   UNL     1     116.785 115.529 107.603  1.00  0.00     0.000 C 
BRANCH   7   8
ATOM      8  C   UNL     1     116.802 117.061 107.753  1.00  0.00     0.004 C 
BRANCH   8   9
ATOM      9  C   UNL     1     115.726 117.614 108.704  1.00  0.00     0.027 C 
BRANCH   9  10
ATOM     10  C   UNL     1     114.338 117.521 108.128  1.00  0.00    -0.035 C 
ATOM     11  C   UNL     1     113.896 118.388 107.212  1.00  0.00     0.004 C 
ENDBRANCH   9  10
ENDBRANCH   8   9
ENDBRANCH   7   8
ENDBRANCH   1   7
TORSDOF 7
ENDMDL
MODEL 3
REMARK VINA RESULT:    -4.406      4.328      6.345
REMARK INTER + INTRA:          -6.498
REMARK INTER:                  -6.131
REMARK INTRA:                  -0.367
REMARK UNBOUND:                -0.288
REMARK SMILES C=CCCCCCCC(=O)[O-]
REMARK SMILES IDX 6 1 7 2 8 3 9 4 10 5 11 6 5 7 4 8 3 9 2 10 1 11
REMARK H PARENT
REMARK Flexibility Score: inf
ROOT
ATOM      1  C   UNL     1     114.428 117.352 107.761  1.00  0.00     0.000 C 
ENDROOT
BRANCH   1   2
ATOM      2  C   UNL     1     114.171 118.824 108.116  1.00  0.00     0.006 C 
BRANCH   2   3
ATOM      3  C   UNL     1     114.597 119.160 109.551  1.00  0.00     0.053 C 
BRANCH   3   4
ATOM      4  C   UNL     1     114.004 120.455 110.018  1.00  0.00     0.041 C 
ATOM      5  O   UNL     1     113.267 121.126 109.251  1.00  0.00    -0.550 OA
ATOM      6  O   UNL     1     114.241 120.902 111.312  1.00  0.00    -0.550 OA
ENDBRANCH   3   4
ENDBRANCH   2   3
ENDBRANCH   1   2
BRANCH   1   7
ATOM      7  C   UNL     1     115.023 116.594 108.957  1.00  0.00     0.000 C 
BRANCH   7   8
ATOM      8  C   UNL     1     116.300 115.814 108.594  1.00  0.00     0.004 C 
BRANCH   8   9
ATOM      9  C   UNL     1     116.890 116.175 107.219  1.00  0.00     0.027 C 
BRANCH   9  10
ATOM     10  C   UNL     1     117.814 115.112 106.686  1.00  0.00    -0.035 C 
ATOM     11  C   UNL     1     118.890 114.708 107.368  1.00  0.00     0.004 C 
ENDBRANCH   9  10
ENDBRANCH   8   9
ENDBRANCH   7   8
ENDBRANCH   1   7
TORSDOF 7
ENDMDL
MODEL 4
REMARK VINA RESULT:    -4.374      4.572      6.733
REMARK INTER + INTRA:          -6.453
REMARK INTER:                  -6.187
REMARK INTRA:                  -0.266
REMARK UNBOUND:                -0.288
REMARK SMILES C=CCCCCCCC(=O)[O-]
REMARK SMILES IDX 6 1 7 2 8 3 9 4 10 5 11 6 5 7 4 8 3 9 2 10 1 11
REMARK H PARENT
REMARK Flexibility Score: inf
ROOT
ATOM      1  C   UNL     1     114.434 117.533 107.851  1.00  0.00     0.000 C 
ENDROOT
BRANCH   1   2
ATOM      2  C   UNL     1     113.931 118.967 108.072  1.00  0.00     0.006 C 
BRANCH   2   3
ATOM      3  C   UNL     1     114.284 119.500 109.467  1.00  0.00     0.053 C 
BRANCH   3   4
ATOM      4  C   UNL     1     113.494 120.726 109.810  1.00  0.00     0.041 C 
ATOM      5  O   UNL     1     112.981 120.849 110.953  1.00  0.00    -0.550 OA
ATOM      6  O   UNL     1     113.353 121.746 108.878  1.00  0.00    -0.550 OA
ENDBRANCH   3   4
ENDBRANCH   2   3
ENDBRANCH   1   2
BRANCH   1   7
ATOM      7  C   UNL     1     115.848 117.533 107.251  1.00  0.00     0.000 C 
BRANCH   7   8
ATOM      8  C   UNL     1     116.913 117.012 108.233  1.00  0.00     0.004 C 
BRANCH   8   9
ATOM      9  C   UNL     1     117.133 115.489 108.176  1.00  0.00     0.027 C 
BRANCH   9  10
ATOM     10  C   UNL     1     117.841 115.052 106.921  1.00  0.00    -0.035 C 
ATOM     11  C   UNL     1     119.129 114.698 106.926  1.00  0.00     0.004 C 
ENDBRANCH   9  10
ENDBRANCH   8   9
ENDBRANCH   7   8
ENDBRANCH   1   7
TORSDOF 7
ENDMDL
MODEL 5
REMARK VINA RESULT:    -4.292      1.292      2.375
REMARK INTER + INTRA:          -6.337
REMARK INTER:                  -6.003
REMARK INTRA:                  -0.333
REMARK UNBOUND:                -0.288
REMARK SMILES C=CCCCCCCC(=O)[O-]
REMARK SMILES IDX 6 1 7 2 8 3 9 4 10 5 11 6 5 7 4 8 3 9 2 10 1 11
REMARK H PARENT
REMARK Flexibility Score: inf
ROOT
ATOM      1  C   UNL     1     116.549 117.406 107.744  1.00  0.00     0.000 C 
ENDROOT
BRANCH   1   2
ATOM      2  C   UNL     1     116.658 115.892 107.511  1.00  0.00     0.006 C 
BRANCH   2   3
ATOM      3  C   UNL     1     118.113 115.404 107.516  1.00  0.00     0.053 C 
BRANCH   3   4
ATOM      4  C   UNL     1     118.426 114.602 108.742  1.00  0.00     0.041 C 
ATOM      5  O   UNL     1     119.210 113.620 108.671  1.00  0.00    -0.550 OA
ATOM      6  O   UNL     1     117.878 114.959 109.967  1.00  0.00    -0.550 OA
ENDBRANCH   3   4
ENDBRANCH   2   3
ENDBRANCH   1   2
BRANCH   1   7
ATOM      7  C   UNL     1     115.325 117.986 107.022  1.00  0.00     0.000 C 
BRANCH   7   8
ATOM      8  C   UNL     1     114.245 118.496 107.994  1.00  0.00     0.004 C 
BRANCH   8   9
ATOM      9  C   UNL     1     114.745 118.719 109.433  1.00  0.00     0.027 C 
BRANCH   9  10
ATOM     10  C   UNL     1     114.257 120.014 110.023  1.00  0.00    -0.035 C 
ATOM     11  C   UNL     1     113.491 120.860 109.329  1.00  0.00     0.004 C 
ENDBRANCH   9  10
ENDBRANCH   8   9
ENDBRANCH   7   8
ENDBRANCH   1   7
TORSDOF 7
ENDMDL
MODEL 6
REMARK VINA RESULT:    -4.206      3.957      6.304
REMARK INTER + INTRA:          -6.215
REMARK INTER:                  -6.003
REMARK INTRA:                  -0.212
REMARK UNBOUND:                -0.288
REMARK SMILES C=CCCCCCCC(=O)[O-]
REMARK SMILES IDX 6 1 7 2 8 3 9 4 10 5 11 6 5 7 4 8 3 9 2 10 1 11
REMARK H PARENT
REMARK Flexibility Score: inf
ROOT
ATOM      1  C   UNL     1     114.022 119.137 108.410  1.00  0.00     0.000 C 
ENDROOT
BRANCH   1   2
ATOM      2  C   UNL     1     114.660 119.235 109.802  1.00  0.00     0.006 C 
BRANCH   2   3
ATOM      3  C   UNL     1     114.127 120.430 110.605  1.00  0.00     0.053 C 
BRANCH   3   4
ATOM      4  C   UNL     1     114.445 120.307 112.063  1.00  0.00     0.041 C 
ATOM      5  O   UNL     1     114.090 121.208 112.867  1.00  0.00    -0.550 OA
ATOM      6  O   UNL     1     115.105 119.180 112.539  1.00  0.00    -0.550 OA
ENDBRANCH   3   4
ENDBRANCH   2   3
ENDBRANCH   1   2
BRANCH   1   7
ATOM      7  C   UNL     1     114.260 117.751 107.792  1.00  0.00     0.000 C 
BRANCH   7   8
ATOM      8  C   UNL     1     115.597 117.658 107.032  1.00  0.00     0.004 C 
BRANCH   8   9
ATOM      9  C   UNL     1     116.706 116.915 107.797  1.00  0.00     0.027 C 
BRANCH   9  10
ATOM     10  C   UNL     1     117.049 115.586 107.179  1.00  0.00    -0.035 C 
ATOM     11  C   UNL     1     118.297 115.110 107.179  1.00  0.00     0.004 C 
ENDBRANCH   9  10
ENDBRANCH   8   9
ENDBRANCH   7   8
ENDBRANCH   1   7
TORSDOF 7
ENDMDL
MODEL 7
REMARK VINA RESULT:    -4.140      3.019      5.503
REMARK INTER + INTRA:          -6.123
REMARK INTER:                  -5.823
REMARK INTRA:                  -0.300
REMARK UNBOUND:                -0.288
REMARK SMILES C=CCCCCCCC(=O)[O-]
REMARK SMILES IDX 6 1 7 2 8 3 9 4 10 5 11 6 5 7 4 8 3 9 2 10 1 11
REMARK H PARENT
REMARK Flexibility Score: inf
ROOT
ATOM      1  C   UNL     1     117.055 116.885 107.737  1.00  0.00     0.000 C 
ENDROOT
BRANCH   1   2
ATOM      2  C   UNL     1     115.740 117.572 107.340  1.00  0.00     0.006 C 
BRANCH   2   3
ATOM      3  C   UNL     1     114.646 117.389 108.400  1.00  0.00     0.053 C 
BRANCH   3   4
ATOM      4  C   UNL     1     114.955 118.145 109.656  1.00  0.00     0.041 C 
ATOM      5  O   UNL     1     114.690 119.373 109.737  1.00  0.00    -0.550 OA
ATOM      6  O   UNL     1     115.507 117.486 110.747  1.00  0.00    -0.550 OA
ENDBRANCH   3   4
ENDBRANCH   2   3
ENDBRANCH   1   2
BRANCH   1   7
ATOM      7  C   UNL     1     117.015 115.386 107.405  1.00  0.00     0.000 C 
BRANCH   7   8
ATOM      8  C   UNL     1     118.352 114.862 106.848  1.00  0.00     0.004 C 
BRANCH   8   9
ATOM      9  C   UNL     1     119.286 114.261 107.913  1.00  0.00     0.027 C 
BRANCH   9  10
ATOM     10  C   UNL     1     118.582 113.986 109.215  1.00  0.00    -0.035 C 
ATOM     11  C   UNL     1     118.973 113.006 110.034  1.00  0.00     0.004 C 
ENDBRANCH   9  10
ENDBRANCH   8   9
ENDBRANCH   7   8
ENDBRANCH   1   7
TORSDOF 7
ENDMDL
MODEL 8
REMARK VINA RESULT:    -4.077      2.902      5.588
REMARK INTER + INTRA:          -6.033
REMARK INTER:                  -5.689
REMARK INTRA:                  -0.344
REMARK UNBOUND:                -0.288
REMARK SMILES C=CCCCCCCC(=O)[O-]
REMARK SMILES IDX 6 1 7 2 8 3 9 4 10 5 11 6 5 7 4 8 3 9 2 10 1 11
REMARK H PARENT
REMARK Flexibility Score: inf
ROOT
ATOM      1  C   UNL     1     117.499 115.424 106.993  1.00  0.00     0.000 C 
ENDROOT
BRANCH   1   2
ATOM      2  C   UNL     1     116.584 116.651 107.108  1.00  0.00     0.006 C 
BRANCH   2   3
ATOM      3  C   UNL     1     116.701 117.340 108.474  1.00  0.00     0.053 C 
BRANCH   3   4
ATOM      4  C   UNL     1     115.389 117.367 109.197  1.00  0.00     0.041 C 
ATOM      5  O   UNL     1     114.554 116.440 109.028  1.00  0.00    -0.550 OA
ATOM      6  O   UNL     1     115.104 118.398 110.083  1.00  0.00    -0.550 OA
ENDBRANCH   3   4
ENDBRANCH   2   3
ENDBRANCH   1   2
BRANCH   1   7
ATOM      7  C   UNL     1     118.597 115.455 108.066  1.00  0.00     0.000 C 
BRANCH   7   8
ATOM      8  C   UNL     1     118.918 114.059 108.632  1.00  0.00     0.004 C 
BRANCH   8   9
ATOM      9  C   UNL     1     118.334 113.796 110.031  1.00  0.00     0.027 C 
BRANCH   9  10
ATOM     10  C   UNL     1     118.875 112.540 110.660  1.00  0.00    -0.035 C 
ATOM     11  C   UNL     1     118.987 112.407 111.985  1.00  0.00     0.004 C 
ENDBRANCH   9  10
ENDBRANCH   8   9
ENDBRANCH   7   8
ENDBRANCH   1   7
TORSDOF 7
ENDMDL
MODEL 9
REMARK VINA RESULT:    -3.937      2.372      3.936
REMARK INTER + INTRA:          -5.836
REMARK INTER:                  -5.597
REMARK INTRA:                  -0.239
REMARK UNBOUND:                -0.288
REMARK SMILES C=CCCCCCCC(=O)[O-]
REMARK SMILES IDX 6 1 7 2 8 3 9 4 10 5 11 6 5 7 4 8 3 9 2 10 1 11
REMARK H PARENT
REMARK Flexibility Score: inf
ROOT
ATOM      1  C   UNL     1     114.464 117.377 107.873  1.00  0.00     0.000 C 
ENDROOT
BRANCH   1   2
ATOM      2  C   UNL     1     115.856 117.291 107.230  1.00  0.00     0.006 C 
BRANCH   2   3
ATOM      3  C   UNL     1     116.944 116.913 108.244  1.00  0.00     0.053 C 
BRANCH   3   4
ATOM      4  C   UNL     1     117.626 115.631 107.875  1.00  0.00     0.041 C 
ATOM      5  O   UNL     1     118.113 114.894 108.771  1.00  0.00    -0.550 OA
ATOM      6  O   UNL     1     117.695 115.236 106.545  1.00  0.00    -0.550 OA
ENDBRANCH   3   4
ENDBRANCH   2   3
ENDBRANCH   1   2
BRANCH   1   7
ATOM      7  C   UNL     1     114.043 118.839 108.079  1.00  0.00     0.000 C 
BRANCH   7   8
ATOM      8  C   UNL     1     114.431 119.382 109.467  1.00  0.00     0.004 C 
BRANCH   8   9
ATOM      9  C   UNL     1     113.619 120.612 109.913  1.00  0.00     0.027 C 
BRANCH   9  10
ATOM     10  C   UNL     1     113.451 120.687 111.406  1.00  0.00    -0.035 C 
ATOM     11  C   UNL     1     114.394 120.247 112.244  1.00  0.00     0.004 C 
ENDBRANCH   9  10
ENDBRANCH   8   9
ENDBRANCH   7   8
ENDBRANCH   1   7
TORSDOF 7
ENDMDL
