MODEL 1
REMARK VINA RESULT:    -3.460      0.000      0.000
REMARK INTER + INTRA:          -4.404
REMARK INTER:                  -4.269
REMARK INTRA:                  -0.135
REMARK UNBOUND:                -0.135
REMARK SMILES CCCCCC(=O)[O-]
REMARK SMILES IDX 4 1 5 2 6 3 7 4 8 5 3 6 2 7 1 8
REMARK H PARENT
REMARK Flexibility Score: inf
ROOT
ATOM      1  C   UNL     1      37.180  24.104  69.701  1.00  0.00     0.006 C 
ENDROOT
BRANCH   1   2
ATOM      2  C   UNL     1      37.446  23.875  71.195  1.00  0.00     0.053 C 
BRANCH   2   3
ATOM      3  C   UNL     1      38.827  24.305  71.586  1.00  0.00     0.041 C 
ATOM      4  O   UNL     1      39.689  24.558  70.702  1.00  0.00    -0.550 OA
ATOM      5  O   UNL     1      39.155  24.454  72.928  1.00  0.00    -0.550 OA
ENDBRANCH   2   3
ENDBRANCH   1   2
BRANCH   1   6
ATOM      6  C   UNL     1      35.796  24.725  69.447  1.00  0.00     0.000 C 
BRANCH   6   7
ATOM      7  C   UNL     1      35.003  24.949  70.745  1.00  0.00    -0.003 C 
ATOM      8  C   UNL     1      34.569  26.401  70.930  1.00  0.00     0.004 C 
ENDBRANCH   6   7
ENDBRANCH   1   6
TORSDOF 4
ENDMDL
MODEL 2
REMARK VINA RESULT:    -3.421     18.698     19.607
REMARK INTER + INTRA:          -4.356
REMARK INTER:                  -4.093
REMARK INTRA:                  -0.263
REMARK UNBOUND:                -0.135
REMARK SMILES CCCCCC(=O)[O-]
REMARK SMILES IDX 4 1 5 2 6 3 7 4 8 5 3 6 2 7 1 8
REMARK H PARENT
REMARK Flexibility Score: inf
ROOT
ATOM      1  C   UNL     1      38.058  41.072  61.822  1.00  0.00     0.006 C 
ENDROOT
BRANCH   1   2
ATOM      2  C   UNL     1      38.643  39.900  61.023  1.00  0.00     0.053 C 
BRANCH   2   3
ATOM      3  C   UNL     1      39.799  40.330  60.172  1.00  0.00     0.041 C 
ATOM      4  O   UNL     1      39.634  41.180  59.257  1.00  0.00    -0.550 OA
ATOM      5  O   UNL     1      41.067  39.813  60.409  1.00  0.00    -0.550 OA
ENDBRANCH   2   3
ENDBRANCH   1   2
BRANCH   1   6
ATOM      6  C   UNL     1      39.102  41.726  62.742  1.00  0.00     0.000 C 
BRANCH   6   7
ATOM      7  C   UNL     1      39.067  43.261  62.675  1.00  0.00    -0.003 C 
ATOM      8  C   UNL     1      38.522  43.784  61.347  1.00  0.00     0.004 C 
ENDBRANCH   6   7
ENDBRANCH   1   6
TORSDOF 4
ENDMDL
MODEL 3
REMARK VINA RESULT:    -3.417      3.096      4.274
REMARK INTER + INTRA:          -4.351
REMARK INTER:                  -4.223
REMARK INTRA:                  -0.127
REMARK UNBOUND:                -0.135
REMARK SMILES CCCCCC(=O)[O-]
REMARK SMILES IDX 4 1 5 2 6 3 7 4 8 5 3 6 2 7 1 8
REMARK H PARENT
REMARK Flexibility Score: inf
ROOT
ATOM      1  C   UNL     1      36.168  24.633  69.524  1.00  0.00     0.006 C 
ENDROOT
BRANCH   1   2
ATOM      2  C   UNL     1      35.179  24.449  70.682  1.00  0.00     0.053 C 
BRANCH   2   3
ATOM      3  C   UNL     1      34.186  25.568  70.749  1.00  0.00     0.041 C 
ATOM      4  O   UNL     1      32.952  25.329  70.669  1.00  0.00    -0.550 OA
ATOM      5  O   UNL     1      34.622  26.875  70.930  1.00  0.00    -0.550 OA
ENDBRANCH   2   3
ENDBRANCH   1   2
BRANCH   1   6
ATOM      6  C   UNL     1      37.604  24.250  69.921  1.00  0.00     0.000 C 
BRANCH   6   7
ATOM      7  C   UNL     1      37.725  23.875  71.406  1.00  0.00    -0.003 C 
ATOM      8  C   UNL     1      39.081  24.248  72.002  1.00  0.00     0.004 C 
ENDBRANCH   6   7
ENDBRANCH   1   6
TORSDOF 4
ENDMDL
MODEL 4
REMARK VINA RESULT:    -3.350     18.816     19.660
REMARK INTER + INTRA:          -4.269
REMARK INTER:                  -4.147
REMARK INTRA:                  -0.122
REMARK UNBOUND:                -0.135
REMARK SMILES CCCCCC(=O)[O-]
REMARK SMILES IDX 4 1 5 2 6 3 7 4 8 5 3 6 2 7 1 8
REMARK H PARENT
REMARK Flexibility Score: inf
ROOT
ATOM      1  C   UNL     1      38.553  39.880  60.903  1.00  0.00     0.006 C 
ENDROOT
BRANCH   1   2
ATOM      2  C   UNL     1      38.009  40.705  62.077  1.00  0.00     0.053 C 
BRANCH   2   3
ATOM      3  C   UNL     1      38.310  42.164  61.918  1.00  0.00     0.041 C 
ATOM      4  O   UNL     1      37.818  42.814  60.958  1.00  0.00    -0.550 OA
ATOM      5  O   UNL     1      39.111  42.814  62.848  1.00  0.00    -0.550 OA
ENDBRANCH   2   3
ENDBRANCH   1   2
BRANCH   1   6
ATOM      6  C   UNL     1      40.015  40.228  60.578  1.00  0.00     0.000 C 
BRANCH   6   7
ATOM      7  C   UNL     1      40.262  40.388  59.070  1.00  0.00    -0.003 C 
ATOM      8  C   UNL     1      41.487  39.615  58.584  1.00  0.00     0.004 C 
ENDBRANCH   6   7
ENDBRANCH   1   6
TORSDOF 4
ENDMDL
MODEL 5
REMARK VINA RESULT:    -3.327      4.155      5.345
REMARK INTER + INTRA:          -4.240
REMARK INTER:                  -4.100
REMARK INTRA:                  -0.140
REMARK UNBOUND:                -0.135
REMARK SMILES CCCCCC(=O)[O-]
REMARK SMILES IDX 4 1 5 2 6 3 7 4 8 5 3 6 2 7 1 8
REMARK H PARENT
REMARK Flexibility Score: inf
ROOT
ATOM      1  C   UNL     1      34.730  25.919  70.239  1.00  0.00     0.006 C 
ENDROOT
BRANCH   1   2
ATOM      2  C   UNL     1      33.712  26.174  71.358  1.00  0.00     0.053 C 
BRANCH   2   3
ATOM      3  C   UNL     1      32.305  25.968  70.887  1.00  0.00     0.041 C 
ATOM      4  O   UNL     1      31.350  26.556  71.461  1.00  0.00    -0.550 OA
ATOM      5  O   UNL     1      32.050  25.147  69.795  1.00  0.00    -0.550 OA
ENDBRANCH   2   3
ENDBRANCH   1   2
BRANCH   1   6
ATOM      6  C   UNL     1      35.724  24.803  70.602  1.00  0.00     0.000 C 
BRANCH   6   7
ATOM      7  C   UNL     1      36.349  24.144  69.362  1.00  0.00    -0.003 C 
ATOM      8  C   UNL     1      35.449  24.225  68.130  1.00  0.00     0.004 C 
ENDBRANCH   6   7
ENDBRANCH   1   6
TORSDOF 4
ENDMDL
MODEL 6
REMARK VINA RESULT:    -3.288      1.604      2.308
REMARK INTER + INTRA:          -4.192
REMARK INTER:                  -4.085
REMARK INTRA:                  -0.107
REMARK UNBOUND:                -0.135
REMARK SMILES CCCCCC(=O)[O-]
REMARK SMILES IDX 4 1 5 2 6 3 7 4 8 5 3 6 2 7 1 8
REMARK H PARENT
REMARK Flexibility Score: inf
ROOT
ATOM      1  C   UNL     1      34.953  25.185  70.159  1.00  0.00     0.006 C 
ENDROOT
BRANCH   1   2
ATOM      2  C   UNL     1      35.699  24.101  70.947  1.00  0.00     0.053 C 
BRANCH   2   3
ATOM      3  C   UNL     1      37.171  24.124  70.669  1.00  0.00     0.041 C 
ATOM      4  O   UNL     1      37.594  24.300  69.495  1.00  0.00    -0.550 OA
ATOM      5  O   UNL     1      38.078  23.981  71.711  1.00  0.00    -0.550 OA
ENDBRANCH   2   3
ENDBRANCH   1   2
BRANCH   1   6
ATOM      6  C   UNL     1      34.460  26.325  71.067  1.00  0.00     0.000 C 
BRANCH   6   7
ATOM      7  C   UNL     1      32.932  26.487  71.034  1.00  0.00    -0.003 C 
ATOM      8  C   UNL     1      32.223  25.285  70.412  1.00  0.00     0.004 C 
ENDBRANCH   6   7
ENDBRANCH   1   6
TORSDOF 4
ENDMDL
MODEL 7
REMARK VINA RESULT:    -3.268     19.308     20.209
REMARK INTER + INTRA:          -4.167
REMARK INTER:                  -3.908
REMARK INTRA:                  -0.259
REMARK UNBOUND:                -0.135
REMARK SMILES CCCCCC(=O)[O-]
REMARK SMILES IDX 4 1 5 2 6 3 7 4 8 5 3 6 2 7 1 8
REMARK H PARENT
REMARK Flexibility Score: inf
ROOT
ATOM      1  C   UNL     1      39.271  43.206  60.496  1.00  0.00     0.006 C 
ENDROOT
BRANCH   1   2
ATOM      2  C   UNL     1      37.963  42.763  61.166  1.00  0.00     0.053 C 
BRANCH   2   3
ATOM      3  C   UNL     1      38.136  41.489  61.934  1.00  0.00     0.041 C 
ATOM      4  O   UNL     1      37.291  40.561  61.824  1.00  0.00    -0.550 OA
ATOM      5  O   UNL     1      39.246  41.314  62.750  1.00  0.00    -0.550 OA
ENDBRANCH   2   3
ENDBRANCH   1   2
BRANCH   1   6
ATOM      6  C   UNL     1      39.499  42.503  59.147  1.00  0.00     0.000 C 
BRANCH   6   7
ATOM      7  C   UNL     1      40.738  41.594  59.159  1.00  0.00    -0.003 C 
ATOM      8  C   UNL     1      40.384  40.111  59.248  1.00  0.00     0.004 C 
ENDBRANCH   6   7
ENDBRANCH   1   6
TORSDOF 4
ENDMDL
MODEL 8
REMARK VINA RESULT:    -3.267      4.896      6.266
REMARK INTER + INTRA:          -4.166
REMARK INTER:                  -4.017
REMARK INTRA:                  -0.149
REMARK UNBOUND:                -0.135
REMARK SMILES CCCCCC(=O)[O-]
REMARK SMILES IDX 4 1 5 2 6 3 7 4 8 5 3 6 2 7 1 8
REMARK H PARENT
REMARK Flexibility Score: inf
ROOT
ATOM      1  C   UNL     1      32.530  26.607  70.885  1.00  0.00     0.006 C 
ENDROOT
BRANCH   1   2
ATOM      2  C   UNL     1      31.407  25.653  71.314  1.00  0.00     0.053 C 
BRANCH   2   3
ATOM      3  C   UNL     1      30.984  24.754  70.193  1.00  0.00     0.041 C 
ATOM      4  O   UNL     1      30.099  23.877  70.381  1.00  0.00    -0.550 OA
ATOM      5  O   UNL     1      31.547  24.902  68.931  1.00  0.00    -0.550 OA
ENDBRANCH   2   3
ENDBRANCH   1   2
BRANCH   1   6
ATOM      6  C   UNL     1      33.912  26.124  71.356  1.00  0.00     0.000 C 
BRANCH   6   7
ATOM      7  C   UNL     1      34.802  25.660  70.192  1.00  0.00    -0.003 C 
ATOM      8  C   UNL     1      35.845  24.629  70.619  1.00  0.00     0.004 C 
ENDBRANCH   6   7
ENDBRANCH   1   6
TORSDOF 4
ENDMDL
MODEL 9
REMARK VINA RESULT:    -1.375      3.972      5.149
REMARK INTER + INTRA:          -1.832
REMARK INTER:                  -1.749
REMARK INTRA:                  -0.083
REMARK UNBOUND:                -0.135
REMARK SMILES CCCCCC(=O)[O-]
REMARK SMILES IDX 4 1 5 2 6 3 7 4 8 5 3 6 2 7 1 8
REMARK H PARENT
REMARK Flexibility Score: inf
ROOT
ATOM      1  C   UNL     1      34.997  25.420  70.143  1.00  0.00     0.006 C 
ENDROOT
BRANCH   1   2
ATOM      2  C   UNL     1      34.022  26.133  71.088  1.00  0.00     0.053 C 
BRANCH   2   3
ATOM      3  C   UNL     1      32.597  25.787  70.782  1.00  0.00     0.041 C 
ATOM      4  O   UNL     1      32.327  24.830  70.008  1.00  0.00    -0.550 OA
ATOM      5  O   UNL     1      31.564  26.502  71.376  1.00  0.00    -0.550 OA
ENDBRANCH   2   3
ENDBRANCH   1   2
BRANCH   1   6
ATOM      6  C   UNL     1      35.782  24.304  70.853  1.00  0.00     0.000 C 
BRANCH   6   7
ATOM      7  C   UNL     1      37.203  24.135  70.293  1.00  0.00    -0.003 C 
ATOM      8  C   UNL     1      38.242  23.875  71.383  1.00  0.00     0.004 C 
ENDBRANCH   6   7
ENDBRANCH   1   6
TORSDOF 4
ENDMDL
