MODEL 1
REMARK VINA RESULT:     1.245      0.000      0.000
REMARK INTER + INTRA:           2.812
REMARK INTER:                   1.536
REMARK INTRA:                   1.276
REMARK UNBOUND:                 1.276
REMARK SMILES C=C1[C@H]2CC[C@@H]3[C@H]2C(C)(C)CCC[C@]13C
REMARK SMILES IDX 14 1 6 2 7 3 3 4 2 5 1 6 4 7 5 8 15 9 8 10 9 11 10 12 11 13
REMARK SMILES IDX 13 15 12 16
REMARK H PARENT
REMARK Flexibility Score: 80.00
ROOT
ATOM      1  C   UNL     1       7.289   7.800  13.062  1.00  0.00    -0.008 C 
ATOM      2  C   UNL     1       6.448   7.012  14.129  1.00  0.00     0.003 C 
ATOM      3  C   UNL     1       5.509   6.145  13.284  1.00  0.00     0.006 C 
ATOM      4  C   UNL     1       6.646   5.516  12.474  1.00  0.00     0.019 C 
ATOM      5  C   UNL     1       7.409   6.731  12.006  1.00  0.00    -0.068 C 
ATOM      6  C   UNL     1       8.122   6.809  10.876  1.00  0.00     0.009 C 
ATOM      7  C   UNL     1       7.494   4.888  13.599  1.00  0.00     0.008 C 
ATOM      8  C   UNL     1       7.303   5.881  14.769  1.00  0.00     0.005 C 
ATOM      9  C   UNL     1       8.689   8.217  13.585  1.00  0.00     0.016 C 
ENDROOT
BRANCH   3  10
ATOM     10  C   UNL     1       4.316   6.815  12.502  1.00  0.00    -0.032 C 
ATOM     11  C   UNL     1       3.409   5.670  11.979  1.00  0.00     0.011 C 
ATOM     12  C   UNL     1       3.455   7.666  13.463  1.00  0.00     0.011 C 
BRANCH  10  13
ATOM     13  C   UNL     1       4.733   7.651  11.261  1.00  0.00     0.007 CG0
ATOM     14  G   UNL     1       5.462   8.983  11.505  1.00  0.00     0.000 G0
ENDBRANCH  10  13
ENDBRANCH   3  10
BRANCH   1  15
ATOM     15  C   UNL     1       6.529   9.081  12.601  1.00  0.00     0.011 C 
BRANCH  15  16
ATOM     16  C   UNL     1       5.457   8.981  11.493  1.00  0.00     0.001 CG0
ATOM     17  G   UNL     1       4.728   7.646  11.261  1.00  0.00     0.000 G0
ENDBRANCH  15  16
ENDBRANCH   1  15
TORSDOF 0
ENDMDL
MODEL 2
REMARK VINA RESULT:     1.455      1.514      3.108
REMARK INTER + INTRA:           3.071
REMARK INTER:                   1.807
REMARK INTRA:                   1.265
REMARK UNBOUND:                 1.276
REMARK SMILES C=C1[C@H]2CC[C@@H]3[C@H]2C(C)(C)CCC[C@]13C
REMARK SMILES IDX 14 1 6 2 7 3 3 4 2 5 1 6 4 7 5 8 15 9 8 10 9 11 10 12 11 13
REMARK SMILES IDX 13 15 12 16
REMARK H PARENT
REMARK Flexibility Score: 80.00
ROOT
ATOM      1  C   UNL     1       6.902   5.658  12.592  1.00  0.00    -0.008 C 
ATOM      2  C   UNL     1       6.989   7.159  12.144  1.00  0.00     0.003 C 
ATOM      3  C   UNL     1       5.974   7.869  13.047  1.00  0.00     0.006 C 
ATOM      4  C   UNL     1       6.596   7.338  14.341  1.00  0.00     0.019 C 
ATOM      5  C   UNL     1       6.673   5.856  14.070  1.00  0.00    -0.068 C 
ATOM      6  C   UNL     1       6.614   4.894  14.998  1.00  0.00     0.009 C 
ATOM      7  C   UNL     1       8.038   7.870  14.213  1.00  0.00     0.008 C 
ATOM      8  C   UNL     1       8.289   7.817  12.688  1.00  0.00     0.005 C 
ATOM      9  C   UNL     1       8.218   4.875  12.340  1.00  0.00     0.016 C 
ENDROOT
BRANCH   3  10
ATOM     10  C   UNL     1       4.431   7.649  12.814  1.00  0.00    -0.032 C 
ATOM     11  C   UNL     1       3.682   8.692  13.685  1.00  0.00     0.011 C 
ATOM     12  C   UNL     1       4.062   7.946  11.342  1.00  0.00     0.011 C 
BRANCH  10  13
ATOM     13  C   UNL     1       3.896   6.254  13.237  1.00  0.00     0.007 CG0
ATOM     14  G   UNL     1       4.323   5.037  12.400  1.00  0.00     0.000 G0
ENDBRANCH  10  13
ENDBRANCH   3  10
BRANCH   1  15
ATOM     15  C   UNL     1       5.740   4.929  11.851  1.00  0.00     0.011 C 
BRANCH  15  16
ATOM     16  C   UNL     1       4.299   5.025  12.399  1.00  0.00     0.001 CG0
ATOM     17  G   UNL     1       3.885   6.248  13.236  1.00  0.00     0.000 G0
ENDBRANCH  15  16
ENDBRANCH   1  15
TORSDOF 0
ENDMDL
MODEL 3
REMARK VINA RESULT:     3.250      1.584      4.078
REMARK INTER + INTRA:           5.286
REMARK INTER:                   4.008
REMARK INTRA:                   1.278
REMARK UNBOUND:                 1.276
REMARK SMILES C=C1[C@H]2CC[C@@H]3[C@H]2C(C)(C)CCC[C@]13C
REMARK SMILES IDX 14 1 6 2 7 3 3 4 2 5 1 6 4 7 5 8 15 9 8 10 9 11 10 12 11 13
REMARK SMILES IDX 13 15 12 16
REMARK H PARENT
REMARK Flexibility Score: 80.00
ROOT
ATOM      1  C   UNL     1       4.939   7.418  13.615  1.00  0.00    -0.008 C 
ATOM      2  C   UNL     1       5.729   8.596  12.944  1.00  0.00     0.003 C 
ATOM      3  C   UNL     1       6.527   7.911  11.830  1.00  0.00     0.006 C 
ATOM      4  C   UNL     1       5.292   7.258  11.202  1.00  0.00     0.019 C 
ATOM      5  C   UNL     1       4.653   6.585  12.391  1.00  0.00    -0.068 C 
ATOM      6  C   UNL     1       3.906   5.476  12.344  1.00  0.00     0.009 C 
ATOM      7  C   UNL     1       4.428   8.499  10.899  1.00  0.00     0.008 C 
ATOM      8  C   UNL     1       4.780   9.456  12.061  1.00  0.00     0.005 C 
ATOM      9  C   UNL     1       3.618   7.881  14.286  1.00  0.00     0.016 C 
ENDROOT
BRANCH   3  10
ATOM     10  C   UNL     1       7.754   6.992  12.197  1.00  0.00    -0.032 C 
ATOM     11  C   UNL     1       8.505   6.680  10.876  1.00  0.00     0.011 C 
ATOM     12  C   UNL     1       8.744   7.755  13.106  1.00  0.00     0.011 C 
BRANCH  10  13
ATOM     13  C   UNL     1       7.382   5.623  12.828  1.00  0.00     0.007 CG0
ATOM     14  G   UNL     1       6.808   5.622  14.255  1.00  0.00     0.000 G0
ENDBRANCH  10  13
ENDBRANCH   3  10
BRANCH   1  15
ATOM     15  C   UNL     1       5.818   6.707  14.689  1.00  0.00     0.011 C 
BRANCH  15  16
ATOM     16  C   UNL     1       6.817   5.610  14.259  1.00  0.00     0.001 CG0
ATOM     17  G   UNL     1       7.386   5.618  12.830  1.00  0.00     0.000 G0
ENDBRANCH  15  16
ENDBRANCH   1  15
TORSDOF 0
ENDMDL
