MODEL 1
REMARK VINA RESULT:    -6.027      0.000      0.000
REMARK INTER + INTRA:         -11.124
REMARK INTER:                  -9.198
REMARK INTRA:                  -1.926
REMARK UNBOUND:                -1.926
REMARK SMILES CC(=O)CCC=C(C)CCC=C(C)CCC=C(C)C
REMARK SMILES IDX 10 1 11 2 12 3 13 4 14 5 15 6 16 7 18 8 17 9 19 10 9 11 7 12
REMARK SMILES IDX 6 13 8 14 5 15 4 16 2 17 3 18 1 19
REMARK H PARENT
REMARK Flexibility Score: inf
ROOT
ATOM      1  C   UNL     1      14.672 -33.672  20.110  1.00  0.00     0.032 C 
ENDROOT
BRANCH   1   2
ATOM      2  C   UNL     1      15.411 -34.982  19.951  1.00  0.00    -0.028 C 
ATOM      3  C   UNL     1      16.638 -35.138  19.401  1.00  0.00    -0.077 C 
ATOM      4  C   UNL     1      17.223 -36.527  19.365  1.00  0.00     0.039 C 
BRANCH   3   5
ATOM      5  C   UNL     1      17.446 -33.993  18.813  1.00  0.00     0.034 C 
BRANCH   5   6
ATOM      6  C   UNL     1      18.633 -33.594  19.702  1.00  0.00     0.032 C 
BRANCH   6   7
ATOM      7  C   UNL     1      18.317 -32.387  20.555  1.00  0.00    -0.028 C 
ATOM      8  C   UNL     1      18.119 -33.715  22.669  1.00  0.00     0.039 C 
ATOM      9  C   UNL     1      18.051 -32.430  21.879  1.00  0.00    -0.080 C 
ATOM     10  C   UNL     1      17.692 -31.144  22.579  1.00  0.00     0.039 C 
ENDBRANCH   6   7
ENDBRANCH   5   6
ENDBRANCH   3   5
ENDBRANCH   1   2
BRANCH   1  11
ATOM     11  C   UNL     1      14.632 -33.232  21.580  1.00  0.00     0.034 C 
BRANCH  11  12
ATOM     12  C   UNL     1      13.843 -31.954  21.774  1.00  0.00    -0.077 C 
ATOM     13  C   UNL     1      13.830 -31.362  22.988  1.00  0.00    -0.028 C 
ATOM     14  C   UNL     1      13.081 -31.372  20.606  1.00  0.00     0.039 C 
BRANCH  13  15
ATOM     15  C   UNL     1      13.079 -30.081  23.274  1.00  0.00     0.035 C 
BRANCH  15  16
ATOM     16  C   UNL     1      13.955 -28.840  23.061  1.00  0.00     0.079 C 
BRANCH  16  17
ATOM     17  C   UNL     1      13.254 -27.581  23.504  1.00  0.00     0.130 C 
ATOM     18  O   UNL     1      13.880 -26.534  23.567  1.00  0.00    -0.300 OA
ATOM     19  C   UNL     1      11.803 -27.587  23.884  1.00  0.00     0.087 C 
ENDBRANCH  16  17
ENDBRANCH  15  16
ENDBRANCH  13  15
ENDBRANCH  11  12
ENDBRANCH   1  11
TORSDOF 9
ENDMDL
MODEL 2
REMARK VINA RESULT:    -5.994      2.629      6.704
REMARK INTER + INTRA:         -11.074
REMARK INTER:                  -8.844
REMARK INTRA:                  -2.230
REMARK UNBOUND:                -1.926
REMARK SMILES CC(=O)CCC=C(C)CCC=C(C)CCC=C(C)C
REMARK SMILES IDX 10 1 11 2 12 3 13 4 14 5 15 6 16 7 18 8 17 9 19 10 9 11 7 12
REMARK SMILES IDX 6 13 8 14 5 15 4 16 2 17 3 18 1 19
REMARK H PARENT
REMARK Flexibility Score: inf
ROOT
ATOM      1  C   UNL     1      15.855 -30.456  21.237  1.00  0.00     0.032 C 
ENDROOT
BRANCH   1   2
ATOM      2  C   UNL     1      14.970 -29.535  22.047  1.00  0.00    -0.028 C 
ATOM      3  C   UNL     1      13.865 -29.901  22.737  1.00  0.00    -0.077 C 
ATOM      4  C   UNL     1      13.134 -28.837  23.515  1.00  0.00     0.039 C 
BRANCH   3   5
ATOM      5  C   UNL     1      13.322 -31.320  22.760  1.00  0.00     0.034 C 
BRANCH   5   6
ATOM      6  C   UNL     1      13.871 -32.142  23.936  1.00  0.00     0.032 C 
BRANCH   6   7
ATOM      7  C   UNL     1      14.651 -33.347  23.465  1.00  0.00    -0.028 C 
ATOM      8  C   UNL     1      16.861 -32.414  24.185  1.00  0.00     0.039 C 
ATOM      9  C   UNL     1      15.995 -33.469  23.538  1.00  0.00    -0.080 C 
ATOM     10  C   UNL     1      16.634 -34.710  22.968  1.00  0.00     0.039 C 
ENDBRANCH   6   7
ENDBRANCH   5   6
ENDBRANCH   3   5
ENDBRANCH   1   2
BRANCH   1  11
ATOM     11  C   UNL     1      17.329 -30.041  21.338  1.00  0.00     0.034 C 
BRANCH  11  12
ATOM     12  C   UNL     1      18.267 -31.150  20.904  1.00  0.00    -0.077 C 
ATOM     13  C   UNL     1      17.751 -32.313  20.451  1.00  0.00    -0.028 C 
ATOM     14  C   UNL     1      19.759 -30.933  20.994  1.00  0.00     0.039 C 
BRANCH  13  15
ATOM     15  C   UNL     1      18.605 -33.471  19.989  1.00  0.00     0.035 C 
BRANCH  15  16
ATOM     16  C   UNL     1      17.952 -34.244  18.837  1.00  0.00     0.079 C 
BRANCH  16  17
ATOM     17  C   UNL     1      16.966 -35.268  19.341  1.00  0.00     0.130 C 
ATOM     18  O   UNL     1      15.779 -34.984  19.397  1.00  0.00    -0.300 OA
ATOM     19  C   UNL     1      17.412 -36.628  19.790  1.00  0.00     0.087 C 
ENDBRANCH  16  17
ENDBRANCH  15  16
ENDBRANCH  13  15
ENDBRANCH  11  12
ENDBRANCH   1  11
TORSDOF 9
ENDMDL
MODEL 3
REMARK VINA RESULT:    -5.912      1.569      3.457
REMARK INTER + INTRA:         -10.949
REMARK INTER:                  -7.972
REMARK INTRA:                  -2.977
REMARK UNBOUND:                -1.926
REMARK SMILES CC(=O)CCC=C(C)CCC=C(C)CCC=C(C)C
REMARK SMILES IDX 10 1 11 2 12 3 13 4 14 5 15 6 16 7 18 8 17 9 19 10 9 11 7 12
REMARK SMILES IDX 6 13 8 14 5 15 4 16 2 17 3 18 1 19
REMARK H PARENT
REMARK Flexibility Score: inf
ROOT
ATOM      1  C   UNL     1      18.903 -33.088  19.556  1.00  0.00     0.032 C 
ENDROOT
BRANCH   1   2
ATOM      2  C   UNL     1      18.524 -34.534  19.329  1.00  0.00    -0.028 C 
ATOM      3  C   UNL     1      17.263 -35.016  19.221  1.00  0.00    -0.077 C 
ATOM      4  C   UNL     1      17.092 -36.491  18.959  1.00  0.00     0.039 C 
BRANCH   3   5
ATOM      5  C   UNL     1      16.021 -34.152  19.360  1.00  0.00     0.034 C 
BRANCH   5   6
ATOM      6  C   UNL     1      15.029 -34.709  20.392  1.00  0.00     0.032 C 
BRANCH   6   7
ATOM      7  C   UNL     1      14.975 -33.856  21.637  1.00  0.00    -0.028 C 
ATOM      8  C   UNL     1      16.860 -35.065  22.758  1.00  0.00     0.039 C 
ATOM      9  C   UNL     1      15.766 -34.024  22.720  1.00  0.00    -0.080 C 
ATOM     10  C   UNL     1      15.549 -33.128  23.912  1.00  0.00     0.039 C 
ENDBRANCH   6   7
ENDBRANCH   5   6
ENDBRANCH   3   5
ENDBRANCH   1   2
BRANCH   1  11
ATOM     11  C   UNL     1      19.278 -32.836  21.023  1.00  0.00     0.034 C 
BRANCH  11  12
ATOM     12  C   UNL     1      18.431 -31.747  21.651  1.00  0.00    -0.077 C 
ATOM     13  C   UNL     1      17.509 -31.108  20.896  1.00  0.00    -0.028 C 
ATOM     14  C   UNL     1      18.640 -31.394  23.104  1.00  0.00     0.039 C 
BRANCH  13  15
ATOM     15  C   UNL     1      16.614 -30.017  21.436  1.00  0.00     0.035 C 
BRANCH  15  16
ATOM     16  C   UNL     1      15.129 -30.384  21.325  1.00  0.00     0.079 C 
BRANCH  16  17
ATOM     17  C   UNL     1      14.309 -29.720  22.403  1.00  0.00     0.130 C 
ATOM     18  O   UNL     1      14.580 -28.581  22.750  1.00  0.00    -0.300 OA
ATOM     19  C   UNL     1      13.172 -30.435  23.072  1.00  0.00     0.087 C 
ENDBRANCH  16  17
ENDBRANCH  15  16
ENDBRANCH  13  15
ENDBRANCH  11  12
ENDBRANCH   1  11
TORSDOF 9
ENDMDL
MODEL 4
REMARK VINA RESULT:    -5.833      2.140      3.156
REMARK INTER + INTRA:         -10.828
REMARK INTER:                  -8.189
REMARK INTRA:                  -2.639
REMARK UNBOUND:                -1.926
REMARK SMILES CC(=O)CCC=C(C)CCC=C(C)CCC=C(C)C
REMARK SMILES IDX 10 1 11 2 12 3 13 4 14 5 15 6 16 7 18 8 17 9 19 10 9 11 7 12
REMARK SMILES IDX 6 13 8 14 5 15 4 16 2 17 3 18 1 19
REMARK H PARENT
REMARK Flexibility Score: inf
ROOT
ATOM      1  C   UNL     1      17.842 -34.898  22.804  1.00  0.00     0.032 C 
ENDROOT
BRANCH   1   2
ATOM      2  C   UNL     1      17.660 -35.895  21.682  1.00  0.00    -0.028 C 
ATOM      3  C   UNL     1      16.993 -35.674  20.525  1.00  0.00    -0.077 C 
ATOM      4  C   UNL     1      16.953 -36.787  19.509  1.00  0.00     0.039 C 
BRANCH   3   5
ATOM      5  C   UNL     1      16.278 -34.372  20.205  1.00  0.00     0.034 C 
BRANCH   5   6
ATOM      6  C   UNL     1      17.198 -33.348  19.523  1.00  0.00     0.032 C 
BRANCH   6   7
ATOM      7  C   UNL     1      17.215 -32.029  20.260  1.00  0.00    -0.028 C 
ATOM      8  C   UNL     1      19.675 -32.120  20.719  1.00  0.00     0.039 C 
ATOM      9  C   UNL     1      18.311 -31.482  20.831  1.00  0.00    -0.080 C 
ATOM     10  C   UNL     1      18.154 -30.186  21.586  1.00  0.00     0.039 C 
ENDBRANCH   6   7
ENDBRANCH   5   6
ENDBRANCH   3   5
ENDBRANCH   1   2
BRANCH   1  11
ATOM     11  C   UNL     1      16.557 -34.754  23.632  1.00  0.00     0.034 C 
BRANCH  11  12
ATOM     12  C   UNL     1      16.124 -33.308  23.769  1.00  0.00    -0.077 C 
ATOM     13  C   UNL     1      14.865 -32.960  23.426  1.00  0.00    -0.028 C 
ATOM     14  C   UNL     1      17.113 -32.286  24.278  1.00  0.00     0.039 C 
BRANCH  13  15
ATOM     15  C   UNL     1      14.340 -31.547  23.536  1.00  0.00     0.035 C 
BRANCH  15  16
ATOM     16  C   UNL     1      14.376 -30.813  22.190  1.00  0.00     0.079 C 
BRANCH  16  17
ATOM     17  C   UNL     1      13.141 -31.092  21.370  1.00  0.00     0.130 C 
ATOM     18  O   UNL     1      12.053 -30.703  21.769  1.00  0.00    -0.300 OA
ATOM     19  C   UNL     1      13.215 -31.850  20.078  1.00  0.00     0.087 C 
ENDBRANCH  16  17
ENDBRANCH  15  16
ENDBRANCH  13  15
ENDBRANCH  11  12
ENDBRANCH   1  11
TORSDOF 9
ENDMDL
MODEL 5
REMARK VINA RESULT:    -5.803      1.842      2.707
REMARK INTER + INTRA:         -10.782
REMARK INTER:                  -8.294
REMARK INTRA:                  -2.487
REMARK UNBOUND:                -1.926
REMARK SMILES CC(=O)CCC=C(C)CCC=C(C)CCC=C(C)C
REMARK SMILES IDX 10 1 11 2 12 3 13 4 14 5 15 6 16 7 18 8 17 9 19 10 9 11 7 12
REMARK SMILES IDX 6 13 8 14 5 15 4 16 2 17 3 18 1 19
REMARK H PARENT
REMARK Flexibility Score: inf
ROOT
ATOM      1  C   UNL     1      14.999 -34.045  21.975  1.00  0.00     0.032 C 
ENDROOT
BRANCH   1   2
ATOM      2  C   UNL     1      16.406 -34.577  22.124  1.00  0.00    -0.028 C 
ATOM      3  C   UNL     1      17.256 -34.298  23.140  1.00  0.00    -0.077 C 
ATOM      4  C   UNL     1      18.611 -34.958  23.128  1.00  0.00     0.039 C 
BRANCH   3   5
ATOM      5  C   UNL     1      16.918 -33.353  24.280  1.00  0.00     0.034 C 
BRANCH   5   6
ATOM      6  C   UNL     1      17.794 -32.091  24.278  1.00  0.00     0.032 C 
BRANCH   6   7
ATOM      7  C   UNL     1      17.162 -30.969  23.486  1.00  0.00    -0.028 C 
ATOM      8  C   UNL     1      18.578 -31.371  21.459  1.00  0.00     0.039 C 
ATOM      9  C   UNL     1      17.526 -30.613  22.235  1.00  0.00    -0.080 C 
ATOM     10  C   UNL     1      16.841 -29.430  21.599  1.00  0.00     0.039 C 
ENDBRANCH   6   7
ENDBRANCH   5   6
ENDBRANCH   3   5
ENDBRANCH   1   2
BRANCH   1  11
ATOM     11  C   UNL     1      14.954 -32.856  21.005  1.00  0.00     0.034 C 
BRANCH  11  12
ATOM     12  C   UNL     1      13.889 -31.848  21.384  1.00  0.00    -0.077 C 
ATOM     13  C   UNL     1      13.839 -31.384  22.652  1.00  0.00    -0.028 C 
ATOM     14  C   UNL     1      12.900 -31.389  20.338  1.00  0.00     0.039 C 
BRANCH  13  15
ATOM     15  C   UNL     1      12.819 -30.372  23.121  1.00  0.00     0.035 C 
BRANCH  15  16
ATOM     16  C   UNL     1      13.384 -28.946  23.130  1.00  0.00     0.079 C 
BRANCH  16  17
ATOM     17  C   UNL     1      12.419 -27.968  23.751  1.00  0.00     0.130 C 
ATOM     18  O   UNL     1      11.223 -28.076  23.524  1.00  0.00    -0.300 OA
ATOM     19  C   UNL     1      12.896 -26.854  24.635  1.00  0.00     0.087 C 
ENDBRANCH  16  17
ENDBRANCH  15  16
ENDBRANCH  13  15
ENDBRANCH  11  12
ENDBRANCH   1  11
TORSDOF 9
ENDMDL
MODEL 6
REMARK VINA RESULT:    -5.766      2.860      6.491
REMARK INTER + INTRA:         -10.726
REMARK INTER:                  -7.712
REMARK INTRA:                  -3.014
REMARK UNBOUND:                -1.926
REMARK SMILES CC(=O)CCC=C(C)CCC=C(C)CCC=C(C)C
REMARK SMILES IDX 10 1 11 2 12 3 13 4 14 5 15 6 16 7 18 8 17 9 19 10 9 11 7 12
REMARK SMILES IDX 6 13 8 14 5 15 4 16 2 17 3 18 1 19
REMARK H PARENT
REMARK Flexibility Score: inf
ROOT
ATOM      1  C   UNL     1      17.456 -30.320  21.745  1.00  0.00     0.032 C 
ENDROOT
BRANCH   1   2
ATOM      2  C   UNL     1      16.035 -29.884  22.019  1.00  0.00    -0.028 C 
ATOM      3  C   UNL     1      15.159 -30.508  22.842  1.00  0.00    -0.077 C 
ATOM      4  C   UNL     1      13.792 -29.896  23.011  1.00  0.00     0.039 C 
BRANCH   3   5
ATOM      5  C   UNL     1      15.479 -31.791  23.590  1.00  0.00     0.034 C 
BRANCH   5   6
ATOM      6  C   UNL     1      14.501 -32.928  23.255  1.00  0.00     0.032 C 
BRANCH   6   7
ATOM      7  C   UNL     1      15.076 -33.881  22.233  1.00  0.00    -0.028 C 
ATOM      8  C   UNL     1      13.980 -32.736  20.293  1.00  0.00     0.039 C 
ATOM      9  C   UNL     1      14.825 -33.829  20.906  1.00  0.00    -0.080 C 
ATOM     10  C   UNL     1      15.426 -34.890  20.020  1.00  0.00     0.039 C 
ENDBRANCH   6   7
ENDBRANCH   5   6
ENDBRANCH   3   5
ENDBRANCH   1   2
BRANCH   1  11
ATOM     11  C   UNL     1      17.525 -31.264  20.537  1.00  0.00     0.034 C 
BRANCH  11  12
ATOM     12  C   UNL     1      18.286 -32.537  20.848  1.00  0.00    -0.077 C 
ATOM     13  C   UNL     1      18.544 -32.856  22.135  1.00  0.00    -0.028 C 
ATOM     14  C   UNL     1      18.747 -33.419  19.712  1.00  0.00     0.039 C 
BRANCH  13  15
ATOM     15  C   UNL     1      19.287 -34.106  22.544  1.00  0.00     0.035 C 
BRANCH  15  16
ATOM     16  C   UNL     1      18.334 -35.263  22.868  1.00  0.00     0.079 C 
BRANCH  16  17
ATOM     17  C   UNL     1      18.211 -35.485  24.355  1.00  0.00     0.130 C 
ATOM     18  O   UNL     1      19.219 -35.664  25.021  1.00  0.00    -0.300 OA
ATOM     19  C   UNL     1      16.874 -35.503  25.034  1.00  0.00     0.087 C 
ENDBRANCH  16  17
ENDBRANCH  15  16
ENDBRANCH  13  15
ENDBRANCH  11  12
ENDBRANCH   1  11
TORSDOF 9
ENDMDL
MODEL 7
REMARK VINA RESULT:    -5.757      3.163      6.075
REMARK INTER + INTRA:         -10.712
REMARK INTER:                  -7.816
REMARK INTRA:                  -2.896
REMARK UNBOUND:                -1.926
REMARK SMILES CC(=O)CCC=C(C)CCC=C(C)CCC=C(C)C
REMARK SMILES IDX 10 1 11 2 12 3 13 4 14 5 15 6 16 7 18 8 17 9 19 10 9 11 7 12
REMARK SMILES IDX 6 13 8 14 5 15 4 16 2 17 3 18 1 19
REMARK H PARENT
REMARK Flexibility Score: inf
ROOT
ATOM      1  C   UNL     1      15.006 -34.431  20.091  1.00  0.00     0.032 C 
ENDROOT
BRANCH   1   2
ATOM      2  C   UNL     1      14.234 -33.135  19.992  1.00  0.00    -0.028 C 
ATOM      3  C   UNL     1      13.947 -32.301  21.019  1.00  0.00    -0.077 C 
ATOM      4  C   UNL     1      13.194 -31.033  20.710  1.00  0.00     0.039 C 
BRANCH   3   5
ATOM      5  C   UNL     1      14.337 -32.583  22.461  1.00  0.00     0.034 C 
BRANCH   5   6
ATOM      6  C   UNL     1      14.944 -31.355  23.157  1.00  0.00     0.032 C 
BRANCH   6   7
ATOM      7  C   UNL     1      16.390 -31.579  23.533  1.00  0.00    -0.028 C 
ATOM      8  C   UNL     1      17.271 -30.728  21.348  1.00  0.00     0.039 C 
ATOM      9  C   UNL     1      17.442 -31.335  22.721  1.00  0.00    -0.080 C 
ATOM     10  C   UNL     1      18.825 -31.669  23.219  1.00  0.00     0.039 C 
ENDBRANCH   6   7
ENDBRANCH   5   6
ENDBRANCH   3   5
ENDBRANCH   1   2
BRANCH   1  11
ATOM     11  C   UNL     1      16.474 -34.235  19.687  1.00  0.00     0.034 C 
BRANCH  11  12
ATOM     12  C   UNL     1      17.425 -34.515  20.833  1.00  0.00    -0.077 C 
ATOM     13  C   UNL     1      16.938 -35.011  21.991  1.00  0.00    -0.028 C 
ATOM     14  C   UNL     1      18.898 -34.225  20.658  1.00  0.00     0.039 C 
BRANCH  13  15
ATOM     15  C   UNL     1      17.809 -35.329  23.184  1.00  0.00     0.035 C 
BRANCH  15  16
ATOM     16  C   UNL     1      17.055 -35.163  24.509  1.00  0.00     0.079 C 
BRANCH  16  17
ATOM     17  C   UNL     1      17.355 -36.288  25.467  1.00  0.00     0.130 C 
ATOM     18  O   UNL     1      16.814 -36.307  26.562  1.00  0.00    -0.300 OA
ATOM     19  C   UNL     1      18.317 -37.382  25.109  1.00  0.00     0.087 C 
ENDBRANCH  16  17
ENDBRANCH  15  16
ENDBRANCH  13  15
ENDBRANCH  11  12
ENDBRANCH   1  11
TORSDOF 9
ENDMDL
MODEL 8
REMARK VINA RESULT:    -5.744      2.975      6.190
REMARK INTER + INTRA:         -10.692
REMARK INTER:                  -7.495
REMARK INTRA:                  -3.197
REMARK UNBOUND:                -1.926
REMARK SMILES CC(=O)CCC=C(C)CCC=C(C)CCC=C(C)C
REMARK SMILES IDX 10 1 11 2 12 3 13 4 14 5 15 6 16 7 18 8 17 9 19 10 9 11 7 12
REMARK SMILES IDX 6 13 8 14 5 15 4 16 2 17 3 18 1 19
REMARK H PARENT
REMARK Flexibility Score: inf
ROOT
ATOM      1  C   UNL     1      16.411 -29.789  21.630  1.00  0.00     0.032 C 
ENDROOT
BRANCH   1   2
ATOM      2  C   UNL     1      14.925 -29.975  21.423  1.00  0.00    -0.028 C 
ATOM      3  C   UNL     1      14.082 -30.618  22.263  1.00  0.00    -0.077 C 
ATOM      4  C   UNL     1      12.620 -30.667  21.895  1.00  0.00     0.039 C 
BRANCH   3   5
ATOM      5  C   UNL     1      14.532 -31.298  23.546  1.00  0.00     0.034 C 
BRANCH   5   6
ATOM      6  C   UNL     1      14.166 -32.790  23.581  1.00  0.00     0.032 C 
BRANCH   6   7
ATOM      7  C   UNL     1      15.370 -33.669  23.339  1.00  0.00    -0.028 C 
ATOM      8  C   UNL     1      14.923 -33.905  20.886  1.00  0.00     0.039 C 
ATOM      9  C   UNL     1      15.704 -34.205  22.144  1.00  0.00    -0.080 C 
ATOM     10  C   UNL     1      16.904 -35.114  22.075  1.00  0.00     0.039 C 
ENDBRANCH   6   7
ENDBRANCH   5   6
ENDBRANCH   3   5
ENDBRANCH   1   2
BRANCH   1  11
ATOM     11  C   UNL     1      17.215 -30.877  20.903  1.00  0.00     0.034 C 
BRANCH  11  12
ATOM     12  C   UNL     1      18.228 -31.543  21.811  1.00  0.00    -0.077 C 
ATOM     13  C   UNL     1      18.149 -31.349  23.146  1.00  0.00    -0.028 C 
ATOM     14  C   UNL     1      19.309 -32.405  21.204  1.00  0.00     0.039 C 
BRANCH  13  15
ATOM     15  C   UNL     1      19.107 -31.978  24.130  1.00  0.00     0.035 C 
BRANCH  15  16
ATOM     16  C   UNL     1      18.374 -32.696  25.270  1.00  0.00     0.079 C 
BRANCH  16  17
ATOM     17  C   UNL     1      18.585 -34.189  25.215  1.00  0.00     0.130 C 
ATOM     18  O   UNL     1      17.725 -34.934  25.660  1.00  0.00    -0.300 OA
ATOM     19  C   UNL     1      19.836 -34.780  24.637  1.00  0.00     0.087 C 
ENDBRANCH  16  17
ENDBRANCH  15  16
ENDBRANCH  13  15
ENDBRANCH  11  12
ENDBRANCH   1  11
TORSDOF 9
ENDMDL
MODEL 9
REMARK VINA RESULT:    -5.718      1.422      3.359
REMARK INTER + INTRA:         -10.652
REMARK INTER:                  -8.837
REMARK INTRA:                  -1.815
REMARK UNBOUND:                -1.926
REMARK SMILES CC(=O)CCC=C(C)CCC=C(C)CCC=C(C)C
REMARK SMILES IDX 10 1 11 2 12 3 13 4 14 5 15 6 16 7 18 8 17 9 19 10 9 11 7 12
REMARK SMILES IDX 6 13 8 14 5 15 4 16 2 17 3 18 1 19
REMARK H PARENT
REMARK Flexibility Score: inf
ROOT
ATOM      1  C   UNL     1      16.304 -31.372  23.561  1.00  0.00     0.032 C 
ENDROOT
BRANCH   1   2
ATOM      2  C   UNL     1      16.909 -30.368  22.606  1.00  0.00    -0.028 C 
ATOM      3  C   UNL     1      18.002 -30.569  21.833  1.00  0.00    -0.077 C 
ATOM      4  C   UNL     1      18.431 -29.453  20.915  1.00  0.00     0.039 C 
BRANCH   3   5
ATOM      5  C   UNL     1      18.818 -31.851  21.850  1.00  0.00     0.034 C 
BRANCH   5   6
ATOM      6  C   UNL     1      18.752 -32.608  20.515  1.00  0.00     0.032 C 
BRANCH   6   7
ATOM      7  C   UNL     1      17.327 -32.850  20.076  1.00  0.00    -0.028 C 
ATOM      8  C   UNL     1      17.219 -35.138  21.090  1.00  0.00     0.039 C 
ATOM      9  C   UNL     1      16.638 -33.992  20.296  1.00  0.00    -0.080 C 
ATOM     10  C   UNL     1      15.241 -34.104  19.741  1.00  0.00     0.039 C 
ENDBRANCH   6   7
ENDBRANCH   5   6
ENDBRANCH   3   5
ENDBRANCH   1   2
BRANCH   1  11
ATOM     11  C   UNL     1      15.095 -32.079  22.931  1.00  0.00     0.034 C 
BRANCH  11  12
ATOM     12  C   UNL     1      14.008 -31.103  22.529  1.00  0.00    -0.077 C 
ATOM     13  C   UNL     1      13.473 -30.286  23.462  1.00  0.00    -0.028 C 
ATOM     14  C   UNL     1      13.538 -31.072  21.093  1.00  0.00     0.039 C 
BRANCH  13  15
ATOM     15  C   UNL     1      12.392 -29.276  23.154  1.00  0.00     0.035 C 
BRANCH  15  16
ATOM     16  C   UNL     1      12.318 -28.171  24.215  1.00  0.00     0.079 C 
BRANCH  16  17
ATOM     17  C   UNL     1      12.166 -26.807  23.588  1.00  0.00     0.130 C 
ATOM     18  O   UNL     1      11.107 -26.502  23.061  1.00  0.00    -0.300 OA
ATOM     19  C   UNL     1      13.293 -25.818  23.587  1.00  0.00     0.087 C 
ENDBRANCH  16  17
ENDBRANCH  15  16
ENDBRANCH  13  15
ENDBRANCH  11  12
ENDBRANCH   1  11
TORSDOF 9
ENDMDL
