MODEL 1
REMARK VINA RESULT:    -5.429      0.000      0.000
REMARK INTER + INTRA:          -7.040
REMARK INTER:                  -6.699
REMARK INTRA:                  -0.341
REMARK UNBOUND:                -0.341
REMARK SMILES Oc1cc(O)c2cc(O)c(-c3cc(O)c(O)c(O)c3)[o+]c2c1
REMARK SMILES IDX 10 1 20 2 21 3 22 4 2 5 3 6 4 7 6 8 7 9 8 10 11 11 12 12
REMARK SMILES IDX 13 13 19 14 15 15 17 16 14 17 16 19 18 21 9 23 1 25 5 27
REMARK H PARENT 14 18 16 20 18 22 9 24 1 26 5 28
REMARK Flexibility Score: inf
ROOT
ATOM      1  C   UNL     1      17.791  13.150  23.953  1.00  0.00     0.402 A 
ATOM      2  O   UNL     1      17.801  11.895  24.395  1.00  0.00    -0.202 OA
ATOM      3  C   UNL     1      18.214  10.866  23.661  1.00  0.00     0.368 A 
ATOM      4  C   UNL     1      18.189   9.583  24.214  1.00  0.00     0.162 A 
ATOM      5  C   UNL     1      18.618   8.485  23.468  1.00  0.00     0.128 A 
ATOM      6  C   UNL     1      19.076   8.669  22.159  1.00  0.00     0.093 A 
ATOM      7  C   UNL     1      19.110   9.944  21.581  1.00  0.00     0.136 A 
ATOM      8  C   UNL     1      18.672  11.063  22.337  1.00  0.00     0.125 A 
ATOM      9  C   UNL     1      18.659  12.376  21.836  1.00  0.00     0.078 A 
ATOM     10  C   UNL     1      18.207  13.427  22.639  1.00  0.00     0.223 A 
ENDROOT
BRANCH   1  11
ATOM     11  C   UNL     1      17.319  14.211  24.872  1.00  0.00     0.091 A 
ATOM     12  C   UNL     1      15.952  14.305  25.174  1.00  0.00     0.068 A 
ATOM     13  C   UNL     1      15.480  15.284  26.053  1.00  0.00     0.162 A 
ATOM     14  C   UNL     1      18.217  15.097  25.491  1.00  0.00     0.068 A 
ATOM     15  C   UNL     1      16.379  16.180  26.654  1.00  0.00     0.200 A 
ATOM     16  C   UNL     1      17.753  16.081  26.375  1.00  0.00     0.162 A 
BRANCH  13  17
ATOM     17  O   UNL     1      14.111  15.352  26.316  1.00  0.00    -0.504 OA
ATOM     18  H   UNL     1      13.744  15.364  27.260  1.00  0.00     0.293 HD
ENDBRANCH  13  17
BRANCH  15  19
ATOM     19  O   UNL     1      15.899  17.158  27.527  1.00  0.00    -0.502 OA
ATOM     20  H   UNL     1      16.494  17.610  28.212  1.00  0.00     0.293 HD
ENDBRANCH  15  19
BRANCH  16  21
ATOM     21  O   UNL     1      18.653  16.957  26.980  1.00  0.00    -0.504 OA
ATOM     22  H   UNL     1      18.530  17.268  27.937  1.00  0.00     0.293 HD
ENDBRANCH  16  21
ENDBRANCH   1  11
BRANCH  10  23
ATOM     23  O   UNL     1      18.147  14.723  22.125  1.00  0.00    -0.500 OA
ATOM     24  H   UNL     1      18.361  15.533  22.694  1.00  0.00     0.294 HD
ENDBRANCH  10  23
BRANCH   5  25
ATOM     25  O   UNL     1      18.586   7.214  24.037  1.00  0.00    -0.507 OA
ATOM     26  H   UNL     1      18.441   7.082  25.031  1.00  0.00     0.293 HD
ENDBRANCH   5  25
BRANCH   7  27
ATOM     27  O   UNL     1      19.585  10.045  20.270  1.00  0.00    -0.507 OA
ATOM     28  H   UNL     1      19.402  10.825  19.655  1.00  0.00     0.293 HD
ENDBRANCH   7  27
TORSDOF 7
ENDMDL
MODEL 2
REMARK VINA RESULT:    -5.362      0.156      1.798
REMARK INTER + INTRA:          -6.957
REMARK INTER:                  -6.674
REMARK INTRA:                  -0.283
REMARK UNBOUND:                -0.341
REMARK SMILES Oc1cc(O)c2cc(O)c(-c3cc(O)c(O)c(O)c3)[o+]c2c1
REMARK SMILES IDX 10 1 20 2 21 3 22 4 2 5 3 6 4 7 6 8 7 9 8 10 11 11 12 12
REMARK SMILES IDX 13 13 19 14 15 15 17 16 14 17 16 19 18 21 9 23 1 25 5 27
REMARK H PARENT 14 18 16 20 18 22 9 24 1 26 5 28
REMARK Flexibility Score: inf
ROOT
ATOM      1  C   UNL     1      17.725  13.128  24.053  1.00  0.00     0.402 A 
ATOM      2  O   UNL     1      17.717  11.873  24.492  1.00  0.00    -0.202 OA
ATOM      3  C   UNL     1      18.111  10.839  23.755  1.00  0.00     0.368 A 
ATOM      4  C   UNL     1      18.068   9.555  24.305  1.00  0.00     0.162 A 
ATOM      5  C   UNL     1      18.478   8.452  23.556  1.00  0.00     0.128 A 
ATOM      6  C   UNL     1      18.935   8.632  22.246  1.00  0.00     0.093 A 
ATOM      7  C   UNL     1      18.987   9.908  21.670  1.00  0.00     0.136 A 
ATOM      8  C   UNL     1      18.569  11.032  22.429  1.00  0.00     0.125 A 
ATOM      9  C   UNL     1      18.574  12.345  21.931  1.00  0.00     0.078 A 
ATOM     10  C   UNL     1      18.142  13.402  22.738  1.00  0.00     0.223 A 
ENDROOT
BRANCH   1  11
ATOM     11  C   UNL     1      17.273  14.195  24.975  1.00  0.00     0.091 A 
ATOM     12  C   UNL     1      18.204  15.122  25.468  1.00  0.00     0.068 A 
ATOM     13  C   UNL     1      17.803  16.151  26.325  1.00  0.00     0.162 A 
ATOM     14  C   UNL     1      15.919  14.335  25.326  1.00  0.00     0.068 A 
ATOM     15  C   UNL     1      16.452  16.274  26.690  1.00  0.00     0.200 A 
ATOM     16  C   UNL     1      15.508  15.365  26.183  1.00  0.00     0.162 A 
BRANCH  13  17
ATOM     17  O   UNL     1      18.762  17.043  26.804  1.00  0.00    -0.504 OA
ATOM     18  H   UNL     1      19.550  16.738  27.363  1.00  0.00     0.293 HD
ENDBRANCH  13  17
BRANCH  15  19
ATOM     19  O   UNL     1      16.060  17.303  27.548  1.00  0.00    -0.502 OA
ATOM     20  H   UNL     1      15.749  17.125  28.497  1.00  0.00     0.293 HD
ENDBRANCH  15  19
BRANCH  16  21
ATOM     21  O   UNL     1      14.163  15.490  26.530  1.00  0.00    -0.504 OA
ATOM     22  H   UNL     1      13.425  15.381  25.843  1.00  0.00     0.293 HD
ENDBRANCH  16  21
ENDBRANCH   1  11
BRANCH  10  23
ATOM     23  O   UNL     1      18.100  14.699  22.227  1.00  0.00    -0.500 OA
ATOM     24  H   UNL     1      17.453  14.963  21.492  1.00  0.00     0.294 HD
ENDBRANCH  10  23
BRANCH   5  25
ATOM     25  O   UNL     1      18.428   7.181  24.122  1.00  0.00    -0.507 OA
ATOM     26  H   UNL     1      17.861   6.443  23.720  1.00  0.00     0.293 HD
ENDBRANCH   5  25
BRANCH   7  27
ATOM     27  O   UNL     1      19.459  10.004  20.358  1.00  0.00    -0.507 OA
ATOM     28  H   UNL     1      19.083   9.486  19.577  1.00  0.00     0.293 HD
ENDBRANCH   7  27
TORSDOF 7
ENDMDL
MODEL 3
REMARK VINA RESULT:    -5.351     12.280     17.175
REMARK INTER + INTRA:          -6.944
REMARK INTER:                  -7.277
REMARK INTRA:                   0.333
REMARK UNBOUND:                -0.341
REMARK SMILES Oc1cc(O)c2cc(O)c(-c3cc(O)c(O)c(O)c3)[o+]c2c1
REMARK SMILES IDX 10 1 20 2 21 3 22 4 2 5 3 6 4 7 6 8 7 9 8 10 11 11 12 12
REMARK SMILES IDX 13 13 19 14 15 15 17 16 14 17 16 19 18 21 9 23 1 25 5 27
REMARK H PARENT 14 18 16 20 18 22 9 24 1 26 5 28
REMARK Flexibility Score: inf
ROOT
ATOM      1  C   UNL     1       8.308  21.717  33.604  1.00  0.00     0.402 A 
ATOM      2  O   UNL     1       7.264  20.896  33.673  1.00  0.00    -0.202 OA
ATOM      3  C   UNL     1       6.174  21.159  34.389  1.00  0.00     0.368 A 
ATOM      4  C   UNL     1       5.127  20.235  34.398  1.00  0.00     0.162 A 
ATOM      5  C   UNL     1       3.971  20.485  35.137  1.00  0.00     0.128 A 
ATOM      6  C   UNL     1       3.859  21.669  35.875  1.00  0.00     0.093 A 
ATOM      7  C   UNL     1       4.895  22.612  35.883  1.00  0.00     0.136 A 
ATOM      8  C   UNL     1       6.074  22.359  35.134  1.00  0.00     0.125 A 
ATOM      9  C   UNL     1       7.168  23.240  35.093  1.00  0.00     0.078 A 
ATOM     10  C   UNL     1       8.297  22.919  34.336  1.00  0.00     0.223 A 
ENDROOT
BRANCH   1  11
ATOM     11  C   UNL     1       9.459  21.316  32.762  1.00  0.00     0.091 A 
ATOM     12  C   UNL     1       9.279  20.347  31.764  1.00  0.00     0.068 A 
ATOM     13  C   UNL     1      10.342  19.963  30.941  1.00  0.00     0.162 A 
ATOM     14  C   UNL     1      10.718  21.924  32.905  1.00  0.00     0.068 A 
ATOM     15  C   UNL     1      11.604  20.559  31.101  1.00  0.00     0.200 A 
ATOM     16  C   UNL     1      11.789  21.546  32.083  1.00  0.00     0.162 A 
BRANCH  13  17
ATOM     17  O   UNL     1      10.124  18.986  29.969  1.00  0.00    -0.504 OA
ATOM     18  H   UNL     1       9.196  18.754  29.636  1.00  0.00     0.293 HD
ENDBRANCH  13  17
BRANCH  15  19
ATOM     19  O   UNL     1      12.661  20.167  30.278  1.00  0.00    -0.502 OA
ATOM     20  H   UNL     1      13.154  20.823  29.683  1.00  0.00     0.293 HD
ENDBRANCH  15  19
BRANCH  16  21
ATOM     21  O   UNL     1      13.035  22.153  32.238  1.00  0.00    -0.504 OA
ATOM     22  H   UNL     1      13.136  23.161  32.257  1.00  0.00     0.293 HD
ENDBRANCH  16  21
ENDBRANCH   1  11
BRANCH  10  23
ATOM     23  O   UNL     1       9.403  23.769  34.335  1.00  0.00    -0.500 OA
ATOM     24  H   UNL     1      10.203  23.604  33.736  1.00  0.00     0.294 HD
ENDBRANCH  10  23
BRANCH   5  25
ATOM     25  O   UNL     1       2.937  19.552  35.133  1.00  0.00    -0.507 OA
ATOM     26  H   UNL     1       2.151  19.629  35.767  1.00  0.00     0.293 HD
ENDBRANCH   5  25
BRANCH   7  27
ATOM     27  O   UNL     1       4.706  23.770  36.642  1.00  0.00    -0.507 OA
ATOM     28  H   UNL     1       5.404  24.177  37.248  1.00  0.00     0.293 HD
ENDBRANCH   7  27
TORSDOF 7
ENDMDL
MODEL 4
REMARK VINA RESULT:    -5.190      2.085      6.884
REMARK INTER + INTRA:          -6.744
REMARK INTER:                  -6.367
REMARK INTRA:                  -0.377
REMARK UNBOUND:                -0.341
REMARK SMILES Oc1cc(O)c2cc(O)c(-c3cc(O)c(O)c(O)c3)[o+]c2c1
REMARK SMILES IDX 10 1 20 2 21 3 22 4 2 5 3 6 4 7 6 8 7 9 8 10 11 11 12 12
REMARK SMILES IDX 13 13 19 14 15 15 17 16 14 17 16 19 18 21 9 23 1 25 5 27
REMARK H PARENT 14 18 16 20 18 22 9 24 1 26 5 28
REMARK Flexibility Score: inf
ROOT
ATOM      1  C   UNL     1      17.619  13.231  24.331  1.00  0.00     0.402 A 
ATOM      2  O   UNL     1      16.808  13.921  25.128  1.00  0.00    -0.202 OA
ATOM      3  C   UNL     1      17.177  15.029  25.764  1.00  0.00     0.368 A 
ATOM      4  C   UNL     1      16.252  15.686  26.579  1.00  0.00     0.162 A 
ATOM      5  C   UNL     1      16.611  16.851  27.256  1.00  0.00     0.128 A 
ATOM      6  C   UNL     1      17.905  17.366  27.118  1.00  0.00     0.093 A 
ATOM      7  C   UNL     1      18.852  16.726  26.308  1.00  0.00     0.136 A 
ATOM      8  C   UNL     1      18.490  15.539  25.620  1.00  0.00     0.125 A 
ATOM      9  C   UNL     1      19.376  14.823  24.796  1.00  0.00     0.078 A 
ATOM     10  C   UNL     1      18.948  13.657  24.154  1.00  0.00     0.223 A 
ENDROOT
BRANCH   1  11
ATOM     11  C   UNL     1      17.085  12.019  23.669  1.00  0.00     0.091 A 
ATOM     12  C   UNL     1      16.474  12.132  22.411  1.00  0.00     0.068 A 
ATOM     13  C   UNL     1      15.978  11.002  21.754  1.00  0.00     0.162 A 
ATOM     14  C   UNL     1      17.225  10.746  24.248  1.00  0.00     0.068 A 
ATOM     15  C   UNL     1      16.101   9.734  22.346  1.00  0.00     0.200 A 
ATOM     16  C   UNL     1      16.733   9.608  23.595  1.00  0.00     0.162 A 
BRANCH  13  17
ATOM     17  O   UNL     1      15.365  11.160  20.511  1.00  0.00    -0.504 OA
ATOM     18  H   UNL     1      14.627  11.836  20.356  1.00  0.00     0.293 HD
ENDBRANCH  13  17
BRANCH  15  19
ATOM     19  O   UNL     1      15.600   8.612  21.685  1.00  0.00    -0.502 OA
ATOM     20  H   UNL     1      15.370   8.625  20.698  1.00  0.00     0.293 HD
ENDBRANCH  15  19
BRANCH  16  21
ATOM     21  O   UNL     1      16.872   8.351  24.183  1.00  0.00    -0.504 OA
ATOM     22  H   UNL     1      16.227   7.595  23.980  1.00  0.00     0.293 HD
ENDBRANCH  16  21
ENDBRANCH   1  11
BRANCH  10  23
ATOM     23  O   UNL     1      19.841  12.920  23.377  1.00  0.00    -0.500 OA
ATOM     24  H   UNL     1      20.844  12.980  23.514  1.00  0.00     0.294 HD
ENDBRANCH  10  23
BRANCH   5  25
ATOM     25  O   UNL     1      15.675  17.493  28.064  1.00  0.00    -0.507 OA
ATOM     26  H   UNL     1      15.950  17.990  28.902  1.00  0.00     0.293 HD
ENDBRANCH   5  25
BRANCH   7  27
ATOM     27  O   UNL     1      20.121  17.305  26.220  1.00  0.00    -0.507 OA
ATOM     28  H   UNL     1      20.677  17.335  25.378  1.00  0.00     0.293 HD
ENDBRANCH   7  27
TORSDOF 7
ENDMDL
MODEL 5
REMARK VINA RESULT:    -5.002     15.193     19.668
REMARK INTER + INTRA:          -6.513
REMARK INTER:                  -6.290
REMARK INTRA:                  -0.223
REMARK UNBOUND:                -0.341
REMARK SMILES Oc1cc(O)c2cc(O)c(-c3cc(O)c(O)c(O)c3)[o+]c2c1
REMARK SMILES IDX 10 1 20 2 21 3 22 4 2 5 3 6 4 7 6 8 7 9 8 10 11 11 12 12
REMARK SMILES IDX 13 13 19 14 15 15 17 16 14 17 16 19 18 21 9 23 1 25 5 27
REMARK H PARENT 14 18 16 20 18 22 9 24 1 26 5 28
REMARK Flexibility Score: inf
ROOT
ATOM      1  C   UNL     1       5.669  22.477  34.837  1.00  0.00     0.402 A 
ATOM      2  O   UNL     1       5.117  21.406  35.400  1.00  0.00    -0.202 OA
ATOM      3  C   UNL     1       3.916  21.418  35.971  1.00  0.00     0.368 A 
ATOM      4  C   UNL     1       3.418  20.241  36.535  1.00  0.00     0.162 A 
ATOM      5  C   UNL     1       2.161  20.224  37.139  1.00  0.00     0.128 A 
ATOM      6  C   UNL     1       1.393  21.392  37.180  1.00  0.00     0.093 A 
ATOM      7  C   UNL     1       1.868  22.586  36.622  1.00  0.00     0.136 A 
ATOM      8  C   UNL     1       3.148  22.607  36.009  1.00  0.00     0.125 A 
ATOM      9  C   UNL     1       3.711  23.760  35.436  1.00  0.00     0.078 A 
ATOM     10  C   UNL     1       4.981  23.704  34.855  1.00  0.00     0.223 A 
ENDROOT
BRANCH   1  11
ATOM     11  C   UNL     1       7.008  22.332  34.222  1.00  0.00     0.091 A 
ATOM     12  C   UNL     1       8.105  22.996  34.794  1.00  0.00     0.068 A 
ATOM     13  C   UNL     1       9.384  22.863  34.247  1.00  0.00     0.162 A 
ATOM     14  C   UNL     1       7.218  21.501  33.109  1.00  0.00     0.068 A 
ATOM     15  C   UNL     1       9.586  22.047  33.121  1.00  0.00     0.200 A 
ATOM     16  C   UNL     1       8.497  21.360  32.555  1.00  0.00     0.162 A 
BRANCH  13  17
ATOM     17  O   UNL     1      10.445  23.550  34.837  1.00  0.00    -0.504 OA
ATOM     18  H   UNL     1      11.403  23.227  34.766  1.00  0.00     0.293 HD
ENDBRANCH  13  17
BRANCH  15  19
ATOM     19  O   UNL     1      10.866  21.922  32.579  1.00  0.00    -0.502 OA
ATOM     20  H   UNL     1      11.210  22.547  31.859  1.00  0.00     0.293 HD
ENDBRANCH  15  19
BRANCH  16  21
ATOM     21  O   UNL     1       8.692  20.537  31.447  1.00  0.00    -0.504 OA
ATOM     22  H   UNL     1       8.151  19.691  31.312  1.00  0.00     0.293 HD
ENDBRANCH  16  21
ENDBRANCH   1  11
BRANCH  10  23
ATOM     23  O   UNL     1       5.561  24.860  34.331  1.00  0.00    -0.500 OA
ATOM     24  H   UNL     1       6.447  25.214  34.673  1.00  0.00     0.294 HD
ENDBRANCH  10  23
BRANCH   5  25
ATOM     25  O   UNL     1       1.683  19.040  37.695  1.00  0.00    -0.507 OA
ATOM     26  H   UNL     1       1.515  18.217  37.128  1.00  0.00     0.293 HD
ENDBRANCH   5  25
BRANCH   7  27
ATOM     27  O   UNL     1       1.039  23.709  36.701  1.00  0.00    -0.507 OA
ATOM     28  H   UNL     1       1.235  24.595  36.258  1.00  0.00     0.293 HD
ENDBRANCH   7  27
TORSDOF 7
ENDMDL
MODEL 6
REMARK VINA RESULT:    -4.741      2.062      2.487
REMARK INTER + INTRA:          -6.191
REMARK INTER:                  -6.482
REMARK INTRA:                   0.291
REMARK UNBOUND:                -0.341
REMARK SMILES Oc1cc(O)c2cc(O)c(-c3cc(O)c(O)c(O)c3)[o+]c2c1
REMARK SMILES IDX 10 1 20 2 21 3 22 4 2 5 3 6 4 7 6 8 7 9 8 10 11 11 12 12
REMARK SMILES IDX 13 13 19 14 15 15 17 16 14 17 16 19 18 21 9 23 1 25 5 27
REMARK H PARENT 14 18 16 20 18 22 9 24 1 26 5 28
REMARK Flexibility Score: inf
ROOT
ATOM      1  C   UNL     1      17.437  13.469  23.727  1.00  0.00     0.402 A 
ATOM      2  O   UNL     1      16.369  13.033  23.064  1.00  0.00    -0.202 OA
ATOM      3  C   UNL     1      16.426  12.091  22.128  1.00  0.00     0.368 A 
ATOM      4  C   UNL     1      15.248  11.697  21.487  1.00  0.00     0.162 A 
ATOM      5  C   UNL     1      15.277  10.709  20.502  1.00  0.00     0.128 A 
ATOM      6  C   UNL     1      16.492  10.108  20.154  1.00  0.00     0.093 A 
ATOM      7  C   UNL     1      17.686  10.485  20.781  1.00  0.00     0.136 A 
ATOM      8  C   UNL     1      17.661  11.492  21.781  1.00  0.00     0.125 A 
ATOM      9  C   UNL     1      18.809  11.942  22.453  1.00  0.00     0.078 A 
ATOM     10  C   UNL     1      18.706  12.942  23.424  1.00  0.00     0.223 A 
ENDROOT
BRANCH   1  11
ATOM     11  C   UNL     1      17.242  14.516  24.756  1.00  0.00     0.091 A 
ATOM     12  C   UNL     1      15.988  14.654  25.371  1.00  0.00     0.068 A 
ATOM     13  C   UNL     1      15.780  15.620  26.360  1.00  0.00     0.162 A 
ATOM     14  C   UNL     1      18.301  15.340  25.172  1.00  0.00     0.068 A 
ATOM     15  C   UNL     1      16.836  16.457  26.758  1.00  0.00     0.200 A 
ATOM     16  C   UNL     1      18.102  16.310  26.164  1.00  0.00     0.162 A 
BRANCH  13  17
ATOM     17  O   UNL     1      14.515  15.735  26.935  1.00  0.00    -0.504 OA
ATOM     18  H   UNL     1      14.253  16.527  27.510  1.00  0.00     0.293 HD
ENDBRANCH  13  17
BRANCH  15  19
ATOM     19  O   UNL     1      16.619  17.421  27.743  1.00  0.00    -0.502 OA
ATOM     20  H   UNL     1      16.128  18.286  27.552  1.00  0.00     0.293 HD
ENDBRANCH  15  19
BRANCH  16  21
ATOM     21  O   UNL     1      19.159  17.126  26.565  1.00  0.00    -0.504 OA
ATOM     22  H   UNL     1      19.936  16.763  27.106  1.00  0.00     0.293 HD
ENDBRANCH  16  21
ENDBRANCH   1  11
BRANCH  10  23
ATOM     23  O   UNL     1      19.852  13.425  24.056  1.00  0.00    -0.500 OA
ATOM     24  H   UNL     1      19.810  14.172  24.739  1.00  0.00     0.294 HD
ENDBRANCH  10  23
BRANCH   5  25
ATOM     25  O   UNL     1      14.092  10.330  19.875  1.00  0.00    -0.507 OA
ATOM     26  H   UNL     1      13.468  11.014  19.463  1.00  0.00     0.293 HD
ENDBRANCH   5  25
BRANCH   7  27
ATOM     27  O   UNL     1      18.857   9.835  20.380  1.00  0.00    -0.507 OA
ATOM     28  H   UNL     1      19.625   9.611  20.996  1.00  0.00     0.293 HD
ENDBRANCH   7  27
TORSDOF 7
ENDMDL
MODEL 7
REMARK VINA RESULT:    -4.710      1.624      7.209
REMARK INTER + INTRA:          -6.153
REMARK INTER:                  -5.768
REMARK INTRA:                  -0.385
REMARK UNBOUND:                -0.341
REMARK SMILES Oc1cc(O)c2cc(O)c(-c3cc(O)c(O)c(O)c3)[o+]c2c1
REMARK SMILES IDX 10 1 20 2 21 3 22 4 2 5 3 6 4 7 6 8 7 9 8 10 11 11 12 12
REMARK SMILES IDX 13 13 19 14 15 15 17 16 14 17 16 19 18 21 9 23 1 25 5 27
REMARK H PARENT 14 18 16 20 18 22 9 24 1 26 5 28
REMARK Flexibility Score: inf
ROOT
ATOM      1  C   UNL     1      17.054  11.993  24.190  1.00  0.00     0.402 A 
ATOM      2  O   UNL     1      17.954  12.955  24.000  1.00  0.00    -0.202 OA
ATOM      3  C   UNL     1      17.820  14.186  24.486  1.00  0.00     0.368 A 
ATOM      4  C   UNL     1      18.820  15.128  24.235  1.00  0.00     0.162 A 
ATOM      5  C   UNL     1      18.707  16.426  24.733  1.00  0.00     0.128 A 
ATOM      6  C   UNL     1      17.586  16.787  25.489  1.00  0.00     0.093 A 
ATOM      7  C   UNL     1      16.569  15.861  25.755  1.00  0.00     0.136 A 
ATOM      8  C   UNL     1      16.680  14.540  25.247  1.00  0.00     0.125 A 
ATOM      9  C   UNL     1      15.705  13.550  25.452  1.00  0.00     0.078 A 
ATOM     10  C   UNL     1      15.881  12.272  24.915  1.00  0.00     0.223 A 
ENDROOT
BRANCH   1  11
ATOM     11  C   UNL     1      17.324  10.658  23.608  1.00  0.00     0.091 A 
ATOM     12  C   UNL     1      17.019  10.420  22.259  1.00  0.00     0.068 A 
ATOM     13  C   UNL     1      17.281   9.176  21.677  1.00  0.00     0.162 A 
ATOM     14  C   UNL     1      17.929   9.639  24.362  1.00  0.00     0.068 A 
ATOM     15  C   UNL     1      17.867   8.152  22.441  1.00  0.00     0.200 A 
ATOM     16  C   UNL     1      18.196   8.389  23.787  1.00  0.00     0.162 A 
BRANCH  13  17
ATOM     17  O   UNL     1      16.950   8.975  20.337  1.00  0.00    -0.504 OA
ATOM     18  H   UNL     1      16.349   9.612  19.829  1.00  0.00     0.293 HD
ENDBRANCH  13  17
BRANCH  15  19
ATOM     19  O   UNL     1      18.121   6.912  21.853  1.00  0.00    -0.502 OA
ATOM     20  H   UNL     1      19.057   6.614  21.606  1.00  0.00     0.293 HD
ENDBRANCH  15  19
BRANCH  16  21
ATOM     21  O   UNL     1      18.792   7.383  24.547  1.00  0.00    -0.504 OA
ATOM     22  H   UNL     1      18.330   6.495  24.707  1.00  0.00     0.293 HD
ENDBRANCH  16  21
ENDBRANCH   1  11
BRANCH  10  23
ATOM     23  O   UNL     1      14.890  11.303  25.076  1.00  0.00    -0.500 OA
ATOM     24  H   UNL     1      14.848  10.714  25.899  1.00  0.00     0.294 HD
ENDBRANCH  10  23
BRANCH   5  25
ATOM     25  O   UNL     1      19.715  17.352  24.472  1.00  0.00    -0.507 OA
ATOM     26  H   UNL     1      20.622  17.289  24.921  1.00  0.00     0.293 HD
ENDBRANCH   5  25
BRANCH   7  27
ATOM     27  O   UNL     1      15.485  16.298  26.520  1.00  0.00    -0.507 OA
ATOM     28  H   UNL     1      15.560  16.914  27.317  1.00  0.00     0.293 HD
ENDBRANCH   7  27
TORSDOF 7
ENDMDL
MODEL 8
REMARK VINA RESULT:    -4.660      1.871      6.942
REMARK INTER + INTRA:          -6.091
REMARK INTER:                  -5.782
REMARK INTRA:                  -0.309
REMARK UNBOUND:                -0.341
REMARK SMILES Oc1cc(O)c2cc(O)c(-c3cc(O)c(O)c(O)c3)[o+]c2c1
REMARK SMILES IDX 10 1 20 2 21 3 22 4 2 5 3 6 4 7 6 8 7 9 8 10 11 11 12 12
REMARK SMILES IDX 13 13 19 14 15 15 17 16 14 17 16 19 18 21 9 23 1 25 5 27
REMARK H PARENT 14 18 16 20 18 22 9 24 1 26 5 28
REMARK Flexibility Score: inf
ROOT
ATOM      1  C   UNL     1      17.348  12.446  23.831  1.00  0.00     0.402 A 
ATOM      2  O   UNL     1      16.535  13.064  24.683  1.00  0.00    -0.202 OA
ATOM      3  C   UNL     1      16.721  14.316  25.091  1.00  0.00     0.368 A 
ATOM      4  C   UNL     1      15.811  14.882  25.988  1.00  0.00     0.162 A 
ATOM      5  C   UNL     1      15.979  16.194  26.431  1.00  0.00     0.128 A 
ATOM      6  C   UNL     1      17.066  16.948  25.975  1.00  0.00     0.093 A 
ATOM      7  C   UNL     1      17.993  16.405  25.076  1.00  0.00     0.136 A 
ATOM      8  C   UNL     1      17.825  15.069  24.625  1.00  0.00     0.125 A 
ATOM      9  C   UNL     1      18.711  14.438  23.736  1.00  0.00     0.078 A 
ATOM     10  C   UNL     1      18.483  13.117  23.341  1.00  0.00     0.223 A 
ENDROOT
BRANCH   1  11
ATOM     11  C   UNL     1      17.027  11.053  23.444  1.00  0.00     0.091 A 
ATOM     12  C   UNL     1      17.113  10.032  24.404  1.00  0.00     0.068 A 
ATOM     13  C   UNL     1      16.797   8.712  24.072  1.00  0.00     0.162 A 
ATOM     14  C   UNL     1      16.584  10.736  22.148  1.00  0.00     0.068 A 
ATOM     15  C   UNL     1      16.375   8.396  22.770  1.00  0.00     0.200 A 
ATOM     16  C   UNL     1      16.264   9.415  21.808  1.00  0.00     0.162 A 
BRANCH  13  17
ATOM     17  O   UNL     1      16.910   7.725  25.052  1.00  0.00    -0.504 OA
ATOM     18  H   UNL     1      17.068   7.948  26.027  1.00  0.00     0.293 HD
ENDBRANCH  13  17
BRANCH  15  19
ATOM     19  O   UNL     1      16.065   7.074  22.446  1.00  0.00    -0.502 OA
ATOM     20  H   UNL     1      16.361   6.648  21.575  1.00  0.00     0.293 HD
ENDBRANCH  15  19
BRANCH  16  21
ATOM     21  O   UNL     1      15.831   9.111  20.517  1.00  0.00    -0.504 OA
ATOM     22  H   UNL     1      16.342   9.422  19.699  1.00  0.00     0.293 HD
ENDBRANCH  16  21
ENDBRANCH   1  11
BRANCH  10  23
ATOM     23  O   UNL     1      19.389  12.473  22.498  1.00  0.00    -0.500 OA
ATOM     24  H   UNL     1      20.295  12.160  22.827  1.00  0.00     0.294 HD
ENDBRANCH  10  23
BRANCH   5  25
ATOM     25  O   UNL     1      15.061  16.740  27.324  1.00  0.00    -0.507 OA
ATOM     26  H   UNL     1      15.085  16.515  28.312  1.00  0.00     0.293 HD
ENDBRANCH   5  25
BRANCH   7  27
ATOM     27  O   UNL     1      19.048  17.224  24.666  1.00  0.00    -0.507 OA
ATOM     28  H   UNL     1      19.033  17.803  23.838  1.00  0.00     0.293 HD
ENDBRANCH   7  27
TORSDOF 7
ENDMDL
MODEL 9
REMARK VINA RESULT:    -4.450      1.577      7.270
REMARK INTER + INTRA:          -5.831
REMARK INTER:                  -5.550
REMARK INTRA:                  -0.282
REMARK UNBOUND:                -0.341
REMARK SMILES Oc1cc(O)c2cc(O)c(-c3cc(O)c(O)c(O)c3)[o+]c2c1
REMARK SMILES IDX 10 1 20 2 21 3 22 4 2 5 3 6 4 7 6 8 7 9 8 10 11 11 12 12
REMARK SMILES IDX 13 13 19 14 15 15 17 16 14 17 16 19 18 21 9 23 1 25 5 27
REMARK H PARENT 14 18 16 20 18 22 9 24 1 26 5 28
REMARK Flexibility Score: inf
ROOT
ATOM      1  C   UNL     1      17.194  12.960  24.171  1.00  0.00     0.402 A 
ATOM      2  O   UNL     1      18.175  13.833  24.382  1.00  0.00    -0.202 OA
ATOM      3  C   UNL     1      18.043  14.906  25.156  1.00  0.00     0.368 A 
ATOM      4  C   UNL     1      19.133  15.766  25.318  1.00  0.00     0.162 A 
ATOM      5  C   UNL     1      19.024  16.898  26.126  1.00  0.00     0.128 A 
ATOM      6  C   UNL     1      17.817  17.174  26.778  1.00  0.00     0.093 A 
ATOM      7  C   UNL     1      16.710  16.329  26.632  1.00  0.00     0.136 A 
ATOM      8  C   UNL     1      16.817  15.178  25.808  1.00  0.00     0.125 A 
ATOM      9  C   UNL     1      15.756  14.282  25.593  1.00  0.00     0.078 A 
ATOM     10  C   UNL     1      15.935  13.171  24.763  1.00  0.00     0.223 A 
ENDROOT
BRANCH   1  11
ATOM     11  C   UNL     1      17.468  11.796  23.296  1.00  0.00     0.091 A 
ATOM     12  C   UNL     1      18.273  10.750  23.773  1.00  0.00     0.068 A 
ATOM     13  C   UNL     1      18.533   9.630  22.977  1.00  0.00     0.162 A 
ATOM     14  C   UNL     1      16.896  11.691  22.017  1.00  0.00     0.068 A 
ATOM     15  C   UNL     1      17.976   9.538  21.690  1.00  0.00     0.200 A 
ATOM     16  C   UNL     1      17.151  10.571  21.213  1.00  0.00     0.162 A 
BRANCH  13  17
ATOM     17  O   UNL     1      19.349   8.618  23.482  1.00  0.00    -0.504 OA
ATOM     18  H   UNL     1      19.846   7.974  22.878  1.00  0.00     0.293 HD
ENDBRANCH  13  17
BRANCH  15  19
ATOM     19  O   UNL     1      18.244   8.419  20.901  1.00  0.00    -0.502 OA
ATOM     20  H   UNL     1      19.114   8.313  20.392  1.00  0.00     0.293 HD
ENDBRANCH  15  19
BRANCH  16  21
ATOM     21  O   UNL     1      16.582  10.479  19.943  1.00  0.00    -0.504 OA
ATOM     22  H   UNL     1      16.842   9.743  19.297  1.00  0.00     0.293 HD
ENDBRANCH  16  21
ENDBRANCH   1  11
BRANCH  10  23
ATOM     23  O   UNL     1      14.868  12.309  24.510  1.00  0.00    -0.500 OA
ATOM     24  H   UNL     1      13.954  12.656  24.244  1.00  0.00     0.294 HD
ENDBRANCH  10  23
BRANCH   5  25
ATOM     25  O   UNL     1      20.122  17.742  26.275  1.00  0.00    -0.507 OA
ATOM     26  H   UNL     1      20.208  18.599  25.741  1.00  0.00     0.293 HD
ENDBRANCH   5  25
BRANCH   7  27
ATOM     27  O   UNL     1      15.543  16.672  27.319  1.00  0.00    -0.507 OA
ATOM     28  H   UNL     1      14.754  16.056  27.448  1.00  0.00     0.293 HD
ENDBRANCH   7  27
TORSDOF 7
ENDMDL
