MODEL 1
REMARK VINA RESULT:    -3.764      0.000      0.000
REMARK INTER + INTRA:          -4.106
REMARK INTER:                  -4.094
REMARK INTRA:                  -0.013
REMARK UNBOUND:                -0.013
REMARK SMILES OCc1ccco1
REMARK SMILES IDX 2 1 3 2 5 3 6 4 4 5 7 6 1 7
REMARK H PARENT 1 8
REMARK Flexibility Score: inf
ROOT
ATOM      1  C   UNL     1       6.613   6.234  17.669  1.00  0.00     0.231 C 
ENDROOT
BRANCH   1   2
ATOM      2  C   UNL     1       5.877   7.364  18.317  1.00  0.00     0.129 A 
ATOM      3  C   UNL     1       4.284   8.674  19.071  1.00  0.00     0.042 A 
ATOM      4  C   UNL     1       5.529   9.233  19.281  1.00  0.00     0.195 A 
ATOM      5  C   UNL     1       4.506   7.466  18.444  1.00  0.00     0.048 A 
ATOM      6  O   UNL     1       6.458   8.429  18.818  1.00  0.00    -0.467 OA
ENDBRANCH   1   2
BRANCH   1   7
ATOM      7  O   UNL     1       6.573   5.102  18.492  1.00  0.00    -0.388 OA
ATOM      8  H   UNL     1       5.815   5.233  19.120  1.00  0.00     0.211 HD
ENDBRANCH   1   7
TORSDOF 2
ENDMDL
MODEL 2
REMARK VINA RESULT:    -3.554      1.936      2.553
REMARK INTER + INTRA:          -3.879
REMARK INTER:                  -3.859
REMARK INTRA:                  -0.019
REMARK UNBOUND:                -0.013
REMARK SMILES OCc1ccco1
REMARK SMILES IDX 2 1 3 2 5 3 6 4 4 5 7 6 1 7
REMARK H PARENT 1 8
REMARK Flexibility Score: inf
ROOT
ATOM      1  C   UNL     1       7.267   8.826  18.455  1.00  0.00     0.231 C 
ENDROOT
BRANCH   1   2
ATOM      2  C   UNL     1       5.859   8.351  18.622  1.00  0.00     0.129 A 
ATOM      3  C   UNL     1       3.970   7.254  18.386  1.00  0.00     0.042 A 
ATOM      4  C   UNL     1       3.847   8.262  19.321  1.00  0.00     0.195 A 
ATOM      5  C   UNL     1       5.270   7.311  17.930  1.00  0.00     0.048 A 
ATOM      6  O   UNL     1       4.988   8.900  19.437  1.00  0.00    -0.467 OA
ENDBRANCH   1   2
BRANCH   1   7
ATOM      7  O   UNL     1       7.304  10.226  18.457  1.00  0.00    -0.388 OA
ATOM      8  H   UNL     1       8.197  10.487  18.112  1.00  0.00     0.211 HD
ENDBRANCH   1   7
TORSDOF 2
ENDMDL
MODEL 3
REMARK VINA RESULT:    -3.544     15.723     15.996
REMARK INTER + INTRA:          -3.868
REMARK INTER:                  -3.852
REMARK INTRA:                  -0.016
REMARK UNBOUND:                -0.013
REMARK SMILES OCc1ccco1
REMARK SMILES IDX 2 1 3 2 5 3 6 4 4 5 7 6 1 7
REMARK H PARENT 1 8
REMARK Flexibility Score: inf
ROOT
ATOM      1  C   UNL     1       2.838  14.988   4.111  1.00  0.00     0.231 C 
ENDROOT
BRANCH   1   2
ATOM      2  C   UNL     1       2.866  16.049   5.164  1.00  0.00     0.129 A 
ATOM      3  C   UNL     1       2.875  17.088   7.099  1.00  0.00     0.042 A 
ATOM      4  C   UNL     1       2.852  17.987   6.052  1.00  0.00     0.195 A 
ATOM      5  C   UNL     1       2.881  15.833   6.528  1.00  0.00     0.048 A 
ATOM      6  O   UNL     1       2.844  17.337   4.911  1.00  0.00    -0.467 OA
ENDBRANCH   1   2
BRANCH   1   7
ATOM      7  O   UNL     1       2.416  13.773   4.667  1.00  0.00    -0.388 OA
ATOM      8  H   UNL     1       2.204  13.954   5.620  1.00  0.00     0.211 HD
ENDBRANCH   1   7
TORSDOF 2
ENDMDL
MODEL 4
REMARK VINA RESULT:    -3.504     12.624     13.551
REMARK INTER + INTRA:          -3.823
REMARK INTER:                  -3.802
REMARK INTRA:                  -0.022
REMARK UNBOUND:                -0.013
REMARK SMILES OCc1ccco1
REMARK SMILES IDX 2 1 3 2 5 3 6 4 4 5 7 6 1 7
REMARK H PARENT 1 8
REMARK Flexibility Score: inf
ROOT
ATOM      1  C   UNL     1      15.521  14.506  18.752  1.00  0.00     0.231 C 
ENDROOT
BRANCH   1   2
ATOM      2  C   UNL     1      16.711  14.606  17.853  1.00  0.00     0.129 A 
ATOM      3  C   UNL     1      18.713  15.036  17.059  1.00  0.00     0.042 A 
ATOM      4  C   UNL     1      17.898  14.493  16.086  1.00  0.00     0.195 A 
ATOM      5  C   UNL     1      17.946  15.114  18.203  1.00  0.00     0.048 A 
ATOM      6  O   UNL     1      16.710  14.251  16.589  1.00  0.00    -0.467 OA
ENDBRANCH   1   2
BRANCH   1   7
ATOM      7  O   UNL     1      14.458  13.892  18.076  1.00  0.00    -0.388 OA
ATOM      8  H   UNL     1      13.632  14.123  18.576  1.00  0.00     0.211 HD
ENDBRANCH   1   7
TORSDOF 2
ENDMDL
MODEL 5
REMARK VINA RESULT:    -3.451     11.861     12.371
REMARK INTER + INTRA:          -3.766
REMARK INTER:                  -3.749
REMARK INTRA:                  -0.017
REMARK UNBOUND:                -0.013
REMARK SMILES OCc1ccco1
REMARK SMILES IDX 2 1 3 2 5 3 6 4 4 5 7 6 1 7
REMARK H PARENT 1 8
REMARK Flexibility Score: inf
ROOT
ATOM      1  C   UNL     1      15.465  14.615  18.485  1.00  0.00     0.231 C 
ENDROOT
BRANCH   1   2
ATOM      2  C   UNL     1      14.931  15.729  19.326  1.00  0.00     0.129 A 
ATOM      3  C   UNL     1      14.479  17.049  21.022  1.00  0.00     0.042 A 
ATOM      4  C   UNL     1      13.806  17.451  19.885  1.00  0.00     0.195 A 
ATOM      5  C   UNL     1      15.205  15.934  20.664  1.00  0.00     0.048 A 
ATOM      6  O   UNL     1      14.094  16.643  18.892  1.00  0.00    -0.467 OA
ENDBRANCH   1   2
BRANCH   1   7
ATOM      7  O   UNL     1      14.410  13.829  18.004  1.00  0.00    -0.388 OA
ATOM      8  H   UNL     1      14.812  13.154  17.396  1.00  0.00     0.211 HD
ENDBRANCH   1   7
TORSDOF 2
ENDMDL
MODEL 6
REMARK VINA RESULT:    -3.433      1.520      3.166
REMARK INTER + INTRA:          -3.746
REMARK INTER:                  -3.725
REMARK INTRA:                  -0.022
REMARK UNBOUND:                -0.013
REMARK SMILES OCc1ccco1
REMARK SMILES IDX 2 1 3 2 5 3 6 4 4 5 7 6 1 7
REMARK H PARENT 1 8
REMARK Flexibility Score: inf
ROOT
ATOM      1  C   UNL     1       4.238   9.467  19.701  1.00  0.00     0.231 C 
ENDROOT
BRANCH   1   2
ATOM      2  C   UNL     1       5.117   8.532  18.934  1.00  0.00     0.129 A 
ATOM      3  C   UNL     1       5.851   6.824  17.763  1.00  0.00     0.042 A 
ATOM      4  C   UNL     1       6.881   7.684  18.089  1.00  0.00     0.195 A 
ATOM      5  C   UNL     1       4.709   7.369  18.312  1.00  0.00     0.048 A 
ATOM      6  O   UNL     1       6.412   8.690  18.790  1.00  0.00    -0.467 OA
ENDBRANCH   1   2
BRANCH   1   7
ATOM      7  O   UNL     1       5.018  10.428  20.358  1.00  0.00    -0.388 OA
ATOM      8  H   UNL     1       4.597  11.309  20.174  1.00  0.00     0.211 HD
ENDBRANCH   1   7
TORSDOF 2
ENDMDL
MODEL 7
REMARK VINA RESULT:    -3.256     12.885     13.737
REMARK INTER + INTRA:          -3.554
REMARK INTER:                  -3.539
REMARK INTRA:                  -0.015
REMARK UNBOUND:                -0.013
REMARK SMILES OCc1ccco1
REMARK SMILES IDX 2 1 3 2 5 3 6 4 4 5 7 6 1 7
REMARK H PARENT 1 8
REMARK Flexibility Score: inf
ROOT
ATOM      1  C   UNL     1      17.856  14.446  16.348  1.00  0.00     0.231 C 
ENDROOT
BRANCH   1   2
ATOM      2  C   UNL     1      16.847  15.090  17.243  1.00  0.00     0.129 A 
ATOM      3  C   UNL     1      15.617  16.574  18.296  1.00  0.00     0.042 A 
ATOM      4  C   UNL     1      15.343  15.296  18.740  1.00  0.00     0.195 A 
ATOM      5  C   UNL     1      16.592  16.444  17.330  1.00  0.00     0.048 A 
ATOM      6  O   UNL     1      16.094  14.433  18.096  1.00  0.00    -0.467 OA
ENDBRANCH   1   2
BRANCH   1   7
ATOM      7  O   UNL     1      19.042  15.193  16.346  1.00  0.00    -0.388 OA
ATOM      8  H   UNL     1      18.937  15.894  17.042  1.00  0.00     0.211 HD
ENDBRANCH   1   7
TORSDOF 2
ENDMDL
MODEL 8
REMARK VINA RESULT:    -3.238     11.969     12.981
REMARK INTER + INTRA:          -3.535
REMARK INTER:                  -3.513
REMARK INTRA:                  -0.022
REMARK UNBOUND:                -0.013
REMARK SMILES OCc1ccco1
REMARK SMILES IDX 2 1 3 2 5 3 6 4 4 5 7 6 1 7
REMARK H PARENT 1 8
REMARK Flexibility Score: inf
ROOT
ATOM      1  C   UNL     1      13.895  16.544  18.813  1.00  0.00     0.231 C 
ENDROOT
BRANCH   1   2
ATOM      2  C   UNL     1      15.219  15.850  18.846  1.00  0.00     0.129 A 
ATOM      3  C   UNL     1      17.361  15.424  19.077  1.00  0.00     0.042 A 
ATOM      4  C   UNL     1      16.683  14.321  18.596  1.00  0.00     0.195 A 
ATOM      5  C   UNL     1      16.416  16.416  19.236  1.00  0.00     0.048 A 
ATOM      6  O   UNL     1      15.409  14.608  18.466  1.00  0.00    -0.467 OA
ENDBRANCH   1   2
BRANCH   1   7
ATOM      7  O   UNL     1      12.893  15.646  18.423  1.00  0.00    -0.388 OA
ATOM      8  H   UNL     1      12.044  15.978  18.817  1.00  0.00     0.211 HD
ENDBRANCH   1   7
TORSDOF 2
ENDMDL
MODEL 9
REMARK VINA RESULT:    -3.200     12.134     13.112
REMARK INTER + INTRA:          -3.493
REMARK INTER:                  -3.476
REMARK INTRA:                  -0.016
REMARK UNBOUND:                -0.013
REMARK SMILES OCc1ccco1
REMARK SMILES IDX 2 1 3 2 5 3 6 4 4 5 7 6 1 7
REMARK H PARENT 1 8
REMARK Flexibility Score: inf
ROOT
ATOM      1  C   UNL     1      15.594  14.530  18.517  1.00  0.00     0.231 C 
ENDROOT
BRANCH   1   2
ATOM      2  C   UNL     1      15.484  15.969  18.128  1.00  0.00     0.129 A 
ATOM      3  C   UNL     1      15.920  17.967  17.327  1.00  0.00     0.042 A 
ATOM      4  C   UNL     1      14.703  17.947  17.978  1.00  0.00     0.195 A 
ATOM      5  C   UNL     1      16.430  16.690  17.426  1.00  0.00     0.048 A 
ATOM      6  O   UNL     1      14.472  16.742  18.447  1.00  0.00    -0.467 OA
ENDBRANCH   1   2
BRANCH   1   7
ATOM      7  O   UNL     1      14.453  13.832  18.101  1.00  0.00    -0.388 OA
ATOM      8  H   UNL     1      13.702  14.482  18.114  1.00  0.00     0.211 HD
ENDBRANCH   1   7
TORSDOF 2
ENDMDL
