MODEL 1
REMARK VINA RESULT:    40.554      0.000      0.000
REMARK INTER + INTRA:          44.188
REMARK INTER:                  44.111
REMARK INTRA:                   0.078
REMARK UNBOUND:                 0.078
REMARK SMILES CC(=O)[C@H]1CC[C@H]2[C@@H]3CC=C4C[C@H](O)CC[C@@]4(C)[C@@H]3CC[C@]12C
REMARK SMILES IDX 4 1 5 2 6 3 7 4 22 5 21 6 20 7 19 8 8 9 9 10 10 11 11 12
REMARK SMILES IDX 17 13 16 14 15 15 13 16 12 17 18 18 23 19 2 20 1 21 3 22
REMARK SMILES IDX 14 23
REMARK H PARENT 14 24
REMARK Flexibility Score: inf
ROOT
ATOM      1  C   UNL     1     -36.861  22.346   6.045  1.00  0.00     0.062 C 
ATOM      2  C   UNL     1     -37.282  23.180   7.280  1.00  0.00     0.012 C 
ATOM      3  C   UNL     1     -36.007  23.878   7.786  1.00  0.00     0.005 C 
ATOM      4  C   UNL     1     -34.930  23.502   6.774  1.00  0.00    -0.001 C 
ATOM      5  C   UNL     1     -35.341  22.122   6.236  1.00  0.00    -0.020 C 
ATOM      6  C   UNL     1     -34.557  21.824   4.922  1.00  0.00     0.008 C 
ATOM      7  C   UNL     1     -33.228  22.618   4.795  1.00  0.00     0.005 C 
ATOM      8  C   UNL     1     -32.507  22.884   6.157  1.00  0.00     0.003 C 
ATOM      9  C   UNL     1     -33.457  23.541   7.236  1.00  0.00     0.000 C 
ATOM     10  C   UNL     1     -33.037  24.968   7.603  1.00  0.00     0.031 C 
ATOM     11  C   UNL     1     -31.592  24.985   7.990  1.00  0.00    -0.027 C 
ATOM     12  C   UNL     1     -30.671  24.308   7.278  1.00  0.00    -0.065 C 
ATOM     13  C   UNL     1     -31.083  23.584   5.986  1.00  0.00    -0.008 C 
ATOM     14  C   UNL     1     -30.033  22.478   5.636  1.00  0.00     0.014 C 
ATOM     15  C   UNL     1     -28.580  22.941   5.779  1.00  0.00     0.033 C 
ATOM     16  C   UNL     1     -28.310  23.373   7.219  1.00  0.00     0.118 C 
ATOM     17  C   UNL     1     -29.208  24.554   7.601  1.00  0.00     0.063 C 
ATOM     18  C   UNL     1     -31.084  24.641   4.847  1.00  0.00     0.016 C 
ATOM     19  C   UNL     1     -35.095  20.974   7.269  1.00  0.00     0.012 C 
ENDROOT
BRANCH   1  20
ATOM     20  C   UNL     1     -37.661  21.079   5.785  1.00  0.00     0.133 C 
ATOM     21  C   UNL     1     -38.125  20.166   6.885  1.00  0.00     0.088 C 
ATOM     22  O   UNL     1     -37.942  20.791   4.630  1.00  0.00    -0.300 OA
ENDBRANCH   1  20
BRANCH  16  23
ATOM     23  O   UNL     1     -26.962  23.746   7.340  1.00  0.00    -0.393 OA
ATOM     24  H   UNL     1     -26.754  24.327   6.562  1.00  0.00     0.210 HD
ENDBRANCH  16  23
TORSDOF 2
ENDMDL
MODEL 2
REMARK VINA RESULT:    40.929      1.877      3.246
REMARK INTER + INTRA:          44.596
REMARK INTER:                  43.892
REMARK INTRA:                   0.704
REMARK UNBOUND:                 0.078
REMARK SMILES CC(=O)[C@H]1CC[C@H]2[C@@H]3CC=C4C[C@H](O)CC[C@@]4(C)[C@@H]3CC[C@]12C
REMARK SMILES IDX 4 1 5 2 6 3 7 4 22 5 21 6 20 7 19 8 8 9 9 10 10 11 11 12
REMARK SMILES IDX 17 13 16 14 15 15 13 16 12 17 18 18 23 19 2 20 1 21 3 22
REMARK SMILES IDX 14 23
REMARK H PARENT 14 24
REMARK Flexibility Score: inf
ROOT
ATOM      1  C   UNL     1     -36.601  20.208   7.377  1.00  0.00     0.062 C 
ATOM      2  C   UNL     1     -37.122  20.041   5.928  1.00  0.00     0.012 C 
ATOM      3  C   UNL     1     -36.157  20.829   5.026  1.00  0.00     0.005 C 
ATOM      4  C   UNL     1     -35.069  21.335   5.969  1.00  0.00    -0.001 C 
ATOM      5  C   UNL     1     -35.760  21.508   7.332  1.00  0.00    -0.020 C 
ATOM      6  C   UNL     1     -34.679  21.623   8.449  1.00  0.00     0.008 C 
ATOM      7  C   UNL     1     -33.297  22.110   7.933  1.00  0.00     0.005 C 
ATOM      8  C   UNL     1     -33.377  23.118   6.739  1.00  0.00     0.003 C 
ATOM      9  C   UNL     1     -34.271  22.589   5.548  1.00  0.00     0.000 C 
ATOM     10  C   UNL     1     -33.462  22.319   4.276  1.00  0.00     0.031 C 
ATOM     11  C   UNL     1     -32.655  23.530   3.925  1.00  0.00    -0.027 C 
ATOM     12  C   UNL     1     -31.983  24.218   4.868  1.00  0.00    -0.065 C 
ATOM     13  C   UNL     1     -31.954  23.702   6.316  1.00  0.00    -0.008 C 
ATOM     14  C   UNL     1     -31.595  24.872   7.291  1.00  0.00     0.014 C 
ATOM     15  C   UNL     1     -30.434  25.744   6.806  1.00  0.00     0.033 C 
ATOM     16  C   UNL     1     -30.784  26.376   5.460  1.00  0.00     0.118 C 
ATOM     17  C   UNL     1     -31.017  25.292   4.403  1.00  0.00     0.063 C 
ATOM     18  C   UNL     1     -30.834  22.629   6.400  1.00  0.00     0.016 C 
ATOM     19  C   UNL     1     -36.701  22.755   7.377  1.00  0.00     0.012 C 
ENDROOT
BRANCH   1  20
ATOM     20  C   UNL     1     -37.650  20.170   8.478  1.00  0.00     0.133 C 
ATOM     21  C   UNL     1     -38.125  18.892   9.109  1.00  0.00     0.088 C 
ATOM     22  O   UNL     1     -38.125  21.227   8.870  1.00  0.00    -0.300 OA
ENDBRANCH   1  20
BRANCH  16  23
ATOM     23  O   UNL     1     -29.728  27.210   5.058  1.00  0.00    -0.393 OA
ATOM     24  H   UNL     1     -29.462  27.740   5.855  1.00  0.00     0.210 HD
ENDBRANCH  16  23
TORSDOF 2
ENDMDL
