MODEL 1
REMARK VINA RESULT:    16.846      0.000      0.000
REMARK INTER + INTRA:          39.396
REMARK INTER:                  38.513
REMARK INTRA:                   0.883
REMARK UNBOUND:                 0.883
REMARK SMILES CCCCCCCCCCCCCCCCCCCCCCCC(=O)[O-]
REMARK SMILES IDX 13 1 14 2 15 3 16 4 17 5 18 6 19 7 20 8 21 9 22 10 23 11
REMARK SMILES IDX 24 12 25 13 26 14 12 15 11 16 10 17 9 18 8 19 7 20 6 21 5 22
REMARK SMILES IDX 4 23 3 24 2 25 1 26
REMARK H PARENT
REMARK Flexibility Score: inf
ROOT
ATOM      1  C   UNL     1      -3.143 -10.785  20.365  1.00  0.00     0.000 C 
ENDROOT
BRANCH   1   2
ATOM      2  C   UNL     1      -3.276  -9.338  19.856  1.00  0.00     0.000 C 
BRANCH   2   3
ATOM      3  C   UNL     1      -1.918  -8.674  19.574  1.00  0.00     0.000 C 
BRANCH   3   4
ATOM      4  C   UNL     1      -1.238  -8.154  20.850  1.00  0.00     0.000 C 
BRANCH   4   5
ATOM      5  C   UNL     1      -2.218  -7.442  21.800  1.00  0.00     0.000 C 
BRANCH   5   6
ATOM      6  C   UNL     1      -1.503  -6.782  22.990  1.00  0.00     0.000 C 
BRANCH   6   7
ATOM      7  C   UNL     1      -1.252  -5.278  22.774  1.00  0.00     0.000 C 
BRANCH   7   8
ATOM      8  C   UNL     1      -1.291  -4.482  24.096  1.00  0.00     0.000 C 
BRANCH   8   9
ATOM      9  C   UNL     1      -2.702  -4.011  24.502  1.00  0.00     0.000 C 
BRANCH   9  10
ATOM     10  C   UNL     1      -3.089  -4.301  25.961  1.00  0.00     0.006 C 
BRANCH  10  11
ATOM     11  C   UNL     1      -4.573  -4.662  26.124  1.00  0.00     0.053 C 
BRANCH  11  12
ATOM     12  C   UNL     1      -5.046  -5.488  24.970  1.00  0.00     0.041 C 
ATOM     13  O   UNL     1      -6.270  -5.760  24.845  1.00  0.00    -0.550 OA
ATOM     14  O   UNL     1      -4.144  -5.913  24.002  1.00  0.00    -0.550 OA
ENDBRANCH  11  12
ENDBRANCH  10  11
ENDBRANCH   9  10
ENDBRANCH   8   9
ENDBRANCH   7   8
ENDBRANCH   6   7
ENDBRANCH   5   6
ENDBRANCH   4   5
ENDBRANCH   3   4
ENDBRANCH   2   3
ENDBRANCH   1   2
BRANCH   1  15
ATOM     15  C   UNL     1      -4.443 -11.415  20.910  1.00  0.00     0.000 C 
BRANCH  15  16
ATOM     16  C   UNL     1      -4.886 -12.713  20.211  1.00  0.00     0.000 C 
BRANCH  16  17
ATOM     17  C   UNL     1      -4.068 -13.096  18.964  1.00  0.00     0.000 C 
BRANCH  17  18
ATOM     18  C   UNL     1      -2.660 -13.642  19.281  1.00  0.00    -0.000 C 
BRANCH  18  19
ATOM     19  C   UNL     1      -2.599 -15.180  19.270  1.00  0.00    -0.000 C 
BRANCH  19  20
ATOM     20  C   UNL     1      -3.989 -15.825  19.376  1.00  0.00    -0.000 C 
BRANCH  20  21
ATOM     21  C   UNL     1      -3.949 -17.352  19.193  1.00  0.00    -0.000 C 
BRANCH  21  22
ATOM     22  C   UNL     1      -3.229 -17.777  17.901  1.00  0.00    -0.000 C 
BRANCH  22  23
ATOM     23  C   UNL     1      -4.103 -18.556  16.897  1.00  0.00    -0.000 C 
BRANCH  23  24
ATOM     24  C   UNL     1      -5.219 -17.734  16.221  1.00  0.00    -0.000 C 
BRANCH  24  25
ATOM     25  C   UNL     1      -6.468 -18.540  15.828  1.00  0.00    -0.003 C 
ATOM     26  C   UNL     1      -6.187 -20.035  15.672  1.00  0.00     0.004 C 
ENDBRANCH  24  25
ENDBRANCH  23  24
ENDBRANCH  22  23
ENDBRANCH  21  22
ENDBRANCH  20  21
ENDBRANCH  19  20
ENDBRANCH  18  19
ENDBRANCH  17  18
ENDBRANCH  16  17
ENDBRANCH  15  16
ENDBRANCH   1  15
TORSDOF 22
ENDMDL
MODEL 2
REMARK VINA RESULT:    17.269     10.828     16.116
REMARK INTER + INTRA:          40.361
REMARK INTER:                  40.932
REMARK INTRA:                  -0.570
REMARK UNBOUND:                 0.883
REMARK SMILES CCCCCCCCCCCCCCCCCCCCCCCC(=O)[O-]
REMARK SMILES IDX 13 1 14 2 15 3 16 4 17 5 18 6 19 7 20 8 21 9 22 10 23 11
REMARK SMILES IDX 24 12 25 13 26 14 12 15 11 16 10 17 9 18 8 19 7 20 6 21 5 22
REMARK SMILES IDX 4 23 3 24 2 25 1 26
REMARK H PARENT
REMARK Flexibility Score: inf
ROOT
ATOM      1  C   UNL     1      -4.110 -12.158   8.077  1.00  0.00     0.000 C 
ENDROOT
BRANCH   1   2
ATOM      2  C   UNL     1      -5.012 -11.902   6.856  1.00  0.00     0.000 C 
BRANCH   2   3
ATOM      3  C   UNL     1      -5.364 -13.188   6.089  1.00  0.00     0.000 C 
BRANCH   3   4
ATOM      4  C   UNL     1      -6.766 -13.715   6.433  1.00  0.00     0.000 C 
BRANCH   4   5
ATOM      5  C   UNL     1      -6.757 -14.718   7.600  1.00  0.00     0.000 C 
BRANCH   5   6
ATOM      6  C   UNL     1      -6.529 -16.163   7.127  1.00  0.00     0.000 C 
BRANCH   6   7
ATOM      7  C   UNL     1      -5.256 -16.315   6.274  1.00  0.00     0.000 C 
BRANCH   7   8
ATOM      8  C   UNL     1      -4.117 -17.020   7.043  1.00  0.00     0.000 C 
BRANCH   8   9
ATOM      9  C   UNL     1      -2.792 -16.232   7.058  1.00  0.00     0.000 C 
BRANCH   9  10
ATOM     10  C   UNL     1      -2.856 -14.841   6.405  1.00  0.00     0.006 C 
BRANCH  10  11
ATOM     11  C   UNL     1      -1.515 -14.094   6.459  1.00  0.00     0.053 C 
BRANCH  11  12
ATOM     12  C   UNL     1      -0.965 -14.096   7.851  1.00  0.00     0.041 C 
ATOM     13  O   UNL     1       0.224 -13.737   8.063  1.00  0.00    -0.550 OA
ATOM     14  O   UNL     1      -1.781 -14.442   8.921  1.00  0.00    -0.550 OA
ENDBRANCH  11  12
ENDBRANCH  10  11
ENDBRANCH   9  10
ENDBRANCH   8   9
ENDBRANCH   7   8
ENDBRANCH   6   7
ENDBRANCH   5   6
ENDBRANCH   4   5
ENDBRANCH   3   4
ENDBRANCH   2   3
ENDBRANCH   1   2
BRANCH   1  15
ATOM     15  C   UNL     1      -3.037 -11.080   8.343  1.00  0.00     0.000 C 
BRANCH  15  16
ATOM     16  C   UNL     1      -3.284 -10.202   9.583  1.00  0.00     0.000 C 
BRANCH  16  17
ATOM     17  C   UNL     1      -2.028  -9.876  10.413  1.00  0.00     0.000 C 
BRANCH  17  18
ATOM     18  C   UNL     1      -2.322  -9.110  11.721  1.00  0.00    -0.000 C 
BRANCH  18  19
ATOM     19  C   UNL     1      -1.566  -9.686  12.932  1.00  0.00    -0.000 C 
BRANCH  19  20
ATOM     20  C   UNL     1      -0.065  -9.866  12.658  1.00  0.00    -0.000 C 
BRANCH  20  21
ATOM     21  C   UNL     1       0.730  -8.560  12.833  1.00  0.00    -0.000 C 
BRANCH  21  22
ATOM     22  C   UNL     1       2.095  -8.596  12.123  1.00  0.00    -0.000 C 
BRANCH  22  23
ATOM     23  C   UNL     1       2.571  -7.240  11.562  1.00  0.00    -0.000 C 
BRANCH  23  24
ATOM     24  C   UNL     1       2.561  -6.072  12.570  1.00  0.00    -0.000 C 
BRANCH  24  25
ATOM     25  C   UNL     1       2.151  -4.713  11.979  1.00  0.00    -0.003 C 
ATOM     26  C   UNL     1       2.082  -4.724  10.452  1.00  0.00     0.004 C 
ENDBRANCH  24  25
ENDBRANCH  23  24
ENDBRANCH  22  23
ENDBRANCH  21  22
ENDBRANCH  20  21
ENDBRANCH  19  20
ENDBRANCH  18  19
ENDBRANCH  17  18
ENDBRANCH  16  17
ENDBRANCH  15  16
ENDBRANCH   1  15
TORSDOF 22
ENDMDL
MODEL 3
REMARK VINA RESULT:    17.376     10.637     12.848
REMARK INTER + INTRA:          40.608
REMARK INTER:                  42.244
REMARK INTRA:                  -1.637
REMARK UNBOUND:                 0.883
REMARK SMILES CCCCCCCCCCCCCCCCCCCCCCCC(=O)[O-]
REMARK SMILES IDX 13 1 14 2 15 3 16 4 17 5 18 6 19 7 20 8 21 9 22 10 23 11
REMARK SMILES IDX 24 12 25 13 26 14 12 15 11 16 10 17 9 18 8 19 7 20 6 21 5 22
REMARK SMILES IDX 4 23 3 24 2 25 1 26
REMARK H PARENT
REMARK Flexibility Score: inf
ROOT
ATOM      1  C   UNL     1      -4.395 -12.370   7.771  1.00  0.00     0.000 C 
ENDROOT
BRANCH   1   2
ATOM      2  C   UNL     1      -3.250 -11.362   7.981  1.00  0.00     0.000 C 
BRANCH   2   3
ATOM      3  C   UNL     1      -3.002 -11.036   9.463  1.00  0.00     0.000 C 
BRANCH   3   4
ATOM      4  C   UNL     1      -3.067  -9.528   9.755  1.00  0.00     0.000 C 
BRANCH   4   5
ATOM      5  C   UNL     1      -2.731  -9.188  11.218  1.00  0.00     0.000 C 
BRANCH   5   6
ATOM      6  C   UNL     1      -1.472  -9.920  11.713  1.00  0.00     0.000 C 
BRANCH   6   7
ATOM      7  C   UNL     1      -0.631  -9.065  12.680  1.00  0.00     0.000 C 
BRANCH   7   8
ATOM      8  C   UNL     1       0.831  -9.554  12.772  1.00  0.00     0.000 C 
BRANCH   8   9
ATOM      9  C   UNL     1       1.825  -8.710  11.949  1.00  0.00     0.000 C 
BRANCH   9  10
ATOM     10  C   UNL     1       2.181  -7.345  12.560  1.00  0.00     0.006 C 
BRANCH  10  11
ATOM     11  C   UNL     1       2.908  -6.421  11.573  1.00  0.00     0.053 C 
BRANCH  11  12
ATOM     12  C   UNL     1       2.313  -5.048  11.598  1.00  0.00     0.041 C 
ATOM     13  O   UNL     1       2.437  -4.322  12.622  1.00  0.00    -0.550 OA
ATOM     14  O   UNL     1       1.668  -4.548  10.474  1.00  0.00    -0.550 OA
ENDBRANCH  11  12
ENDBRANCH  10  11
ENDBRANCH   9  10
ENDBRANCH   8   9
ENDBRANCH   7   8
ENDBRANCH   6   7
ENDBRANCH   5   6
ENDBRANCH   4   5
ENDBRANCH   3   4
ENDBRANCH   2   3
ENDBRANCH   1   2
BRANCH   1  15
ATOM     15  C   UNL     1      -5.342 -12.058   6.593  1.00  0.00     0.000 C 
BRANCH  15  16
ATOM     16  C   UNL     1      -6.233 -13.229   6.139  1.00  0.00     0.000 C 
BRANCH  16  17
ATOM     17  C   UNL     1      -6.495 -14.304   7.210  1.00  0.00     0.000 C 
BRANCH  17  18
ATOM     18  C   UNL     1      -6.731 -15.717   6.635  1.00  0.00    -0.000 C 
BRANCH  18  19
ATOM     19  C   UNL     1      -5.863 -16.791   7.315  1.00  0.00    -0.000 C 
BRANCH  19  20
ATOM     20  C   UNL     1      -4.509 -16.983   6.616  1.00  0.00    -0.000 C 
BRANCH  20  21
ATOM     21  C   UNL     1      -3.382 -16.170   7.274  1.00  0.00    -0.000 C 
BRANCH  21  22
ATOM     22  C   UNL     1      -2.302 -15.729   6.268  1.00  0.00    -0.000 C 
BRANCH  22  23
ATOM     23  C   UNL     1      -2.228 -14.208   6.021  1.00  0.00    -0.000 C 
BRANCH  23  24
ATOM     24  C   UNL     1      -1.095 -13.475   6.767  1.00  0.00    -0.000 C 
BRANCH  24  25
ATOM     25  C   UNL     1      -0.715 -14.087   8.125  1.00  0.00    -0.003 C 
ATOM     26  C   UNL     1       0.772 -13.940   8.449  1.00  0.00     0.004 C 
ENDBRANCH  24  25
ENDBRANCH  23  24
ENDBRANCH  22  23
ENDBRANCH  21  22
ENDBRANCH  20  21
ENDBRANCH  19  20
ENDBRANCH  18  19
ENDBRANCH  17  18
ENDBRANCH  16  17
ENDBRANCH  15  16
ENDBRANCH   1  15
TORSDOF 22
ENDMDL
MODEL 4
REMARK VINA RESULT:    17.852      8.680     14.589
REMARK INTER + INTRA:          41.696
REMARK INTER:                  42.983
REMARK INTRA:                  -1.287
REMARK UNBOUND:                 0.883
REMARK SMILES CCCCCCCCCCCCCCCCCCCCCCCC(=O)[O-]
REMARK SMILES IDX 13 1 14 2 15 3 16 4 17 5 18 6 19 7 20 8 21 9 22 10 23 11
REMARK SMILES IDX 24 12 25 13 26 14 12 15 11 16 10 17 9 18 8 19 7 20 6 21 5 22
REMARK SMILES IDX 4 23 3 24 2 25 1 26
REMARK H PARENT
REMARK Flexibility Score: inf
ROOT
ATOM      1  C   UNL     1      -4.768  -7.852  12.298  1.00  0.00     0.000 C 
ENDROOT
BRANCH   1   2
ATOM      2  C   UNL     1      -3.935  -8.075  11.023  1.00  0.00     0.000 C 
BRANCH   2   3
ATOM      3  C   UNL     1      -3.674  -9.562  10.729  1.00  0.00     0.000 C 
BRANCH   3   4
ATOM      4  C   UNL     1      -3.214  -9.807   9.283  1.00  0.00     0.000 C 
BRANCH   4   5
ATOM      5  C   UNL     1      -3.294 -11.288   8.874  1.00  0.00     0.000 C 
BRANCH   5   6
ATOM      6  C   UNL     1      -3.817 -11.471   7.440  1.00  0.00     0.000 C 
BRANCH   6   7
ATOM      7  C   UNL     1      -4.903 -12.558   7.338  1.00  0.00     0.000 C 
BRANCH   7   8
ATOM      8  C   UNL     1      -4.640 -13.541   6.176  1.00  0.00     0.000 C 
BRANCH   8   9
ATOM      9  C   UNL     1      -4.548 -15.016   6.614  1.00  0.00     0.000 C 
BRANCH   9  10
ATOM     10  C   UNL     1      -3.126 -15.599   6.639  1.00  0.00     0.006 C 
BRANCH  10  11
ATOM     11  C   UNL     1      -2.037 -14.522   6.532  1.00  0.00     0.053 C 
BRANCH  11  12
ATOM     12  C   UNL     1      -1.371 -14.310   7.856  1.00  0.00     0.041 C 
ATOM     13  O   UNL     1      -1.994 -14.551   8.924  1.00  0.00    -0.550 OA
ATOM     14  O   UNL     1      -0.045 -13.898   7.909  1.00  0.00    -0.550 OA
ENDBRANCH  11  12
ENDBRANCH  10  11
ENDBRANCH   9  10
ENDBRANCH   8   9
ENDBRANCH   7   8
ENDBRANCH   6   7
ENDBRANCH   5   6
ENDBRANCH   4   5
ENDBRANCH   3   4
ENDBRANCH   2   3
ENDBRANCH   1   2
BRANCH   1  15
ATOM     15  C   UNL     1      -4.089  -6.994  13.388  1.00  0.00     0.000 C 
BRANCH  15  16
ATOM     16  C   UNL     1      -3.231  -7.776  14.399  1.00  0.00     0.000 C 
BRANCH  16  17
ATOM     17  C   UNL     1      -2.000  -7.021  14.932  1.00  0.00     0.000 C 
BRANCH  17  18
ATOM     18  C   UNL     1      -1.814  -7.124  16.461  1.00  0.00    -0.000 C 
BRANCH  18  19
ATOM     19  C   UNL     1      -2.936  -6.422  17.247  1.00  0.00    -0.000 C 
BRANCH  19  20
ATOM     20  C   UNL     1      -2.834  -6.663  18.761  1.00  0.00    -0.000 C 
BRANCH  20  21
ATOM     21  C   UNL     1      -2.389  -8.095  19.104  1.00  0.00    -0.000 C 
BRANCH  21  22
ATOM     22  C   UNL     1      -1.796  -8.210  20.520  1.00  0.00    -0.000 C 
BRANCH  22  23
ATOM     23  C   UNL     1      -1.682  -6.876  21.286  1.00  0.00    -0.000 C 
BRANCH  23  24
ATOM     24  C   UNL     1      -1.459  -7.008  22.806  1.00  0.00    -0.000 C 
BRANCH  24  25
ATOM     25  C   UNL     1      -1.606  -5.697  23.597  1.00  0.00    -0.003 C 
ATOM     26  C   UNL     1      -2.955  -5.577  24.306  1.00  0.00     0.004 C 
ENDBRANCH  24  25
ENDBRANCH  23  24
ENDBRANCH  22  23
ENDBRANCH  21  22
ENDBRANCH  20  21
ENDBRANCH  19  20
ENDBRANCH  18  19
ENDBRANCH  17  18
ENDBRANCH  16  17
ENDBRANCH  15  16
ENDBRANCH   1  15
TORSDOF 22
ENDMDL
MODEL 5
REMARK VINA RESULT:    17.856      9.427     15.203
REMARK INTER + INTRA:          41.703
REMARK INTER:                  42.834
REMARK INTRA:                  -1.130
REMARK UNBOUND:                 0.883
REMARK SMILES CCCCCCCCCCCCCCCCCCCCCCCC(=O)[O-]
REMARK SMILES IDX 13 1 14 2 15 3 16 4 17 5 18 6 19 7 20 8 21 9 22 10 23 11
REMARK SMILES IDX 24 12 25 13 26 14 12 15 11 16 10 17 9 18 8 19 7 20 6 21 5 22
REMARK SMILES IDX 4 23 3 24 2 25 1 26
REMARK H PARENT
REMARK Flexibility Score: inf
ROOT
ATOM      1  C   UNL     1      -3.018 -11.057   8.876  1.00  0.00     0.000 C 
ENDROOT
BRANCH   1   2
ATOM      2  C   UNL     1      -3.445 -11.551   7.481  1.00  0.00     0.000 C 
BRANCH   2   3
ATOM      3  C   UNL     1      -4.594 -12.572   7.532  1.00  0.00     0.000 C 
BRANCH   3   4
ATOM      4  C   UNL     1      -5.232 -12.812   6.155  1.00  0.00     0.000 C 
BRANCH   4   5
ATOM      5  C   UNL     1      -6.467 -13.728   6.221  1.00  0.00     0.000 C 
BRANCH   5   6
ATOM      6  C   UNL     1      -6.289 -14.876   7.228  1.00  0.00     0.000 C 
BRANCH   6   7
ATOM      7  C   UNL     1      -5.521 -16.072   6.636  1.00  0.00     0.000 C 
BRANCH   7   8
ATOM      8  C   UNL     1      -4.091 -16.190   7.207  1.00  0.00     0.000 C 
BRANCH   8   9
ATOM      9  C   UNL     1      -2.998 -15.624   6.278  1.00  0.00     0.000 C 
BRANCH   9  10
ATOM     10  C   UNL     1      -2.198 -14.447   6.859  1.00  0.00     0.006 C 
BRANCH  10  11
ATOM     11  C   UNL     1      -1.586 -14.761   8.232  1.00  0.00     0.053 C 
BRANCH  11  12
ATOM     12  C   UNL     1      -0.224 -14.153   8.355  1.00  0.00     0.041 C 
ATOM     13  O   UNL     1       0.672 -14.736   9.022  1.00  0.00    -0.550 OA
ATOM     14  O   UNL     1       0.073 -12.970   7.690  1.00  0.00    -0.550 OA
ENDBRANCH  11  12
ENDBRANCH  10  11
ENDBRANCH   9  10
ENDBRANCH   8   9
ENDBRANCH   7   8
ENDBRANCH   6   7
ENDBRANCH   5   6
ENDBRANCH   4   5
ENDBRANCH   3   4
ENDBRANCH   2   3
ENDBRANCH   1   2
BRANCH   1  15
ATOM     15  C   UNL     1      -3.532  -9.654   9.264  1.00  0.00     0.000 C 
BRANCH  15  16
ATOM     16  C   UNL     1      -3.467  -9.324  10.767  1.00  0.00     0.000 C 
BRANCH  16  17
ATOM     17  C   UNL     1      -4.462  -8.251  11.244  1.00  0.00     0.000 C 
BRANCH  17  18
ATOM     18  C   UNL     1      -4.411  -7.978  12.762  1.00  0.00    -0.000 C 
BRANCH  18  19
ATOM     19  C   UNL     1      -3.099  -8.456  13.411  1.00  0.00    -0.000 C 
BRANCH  19  20
ATOM     20  C   UNL     1      -3.079  -8.233  14.931  1.00  0.00    -0.000 C 
BRANCH  20  21
ATOM     21  C   UNL     1      -2.005  -7.222  15.367  1.00  0.00    -0.000 C 
BRANCH  21  22
ATOM     22  C   UNL     1      -2.405  -6.437  16.629  1.00  0.00    -0.000 C 
BRANCH  22  23
ATOM     23  C   UNL     1      -1.969  -7.083  17.961  1.00  0.00    -0.000 C 
BRANCH  23  24
ATOM     24  C   UNL     1      -3.118  -7.456  18.918  1.00  0.00    -0.000 C 
BRANCH  24  25
ATOM     25  C   UNL     1      -2.720  -8.392  20.072  1.00  0.00    -0.003 C 
ATOM     26  C   UNL     1      -1.206  -8.498  20.256  1.00  0.00     0.004 C 
ENDBRANCH  24  25
ENDBRANCH  23  24
ENDBRANCH  22  23
ENDBRANCH  21  22
ENDBRANCH  20  21
ENDBRANCH  19  20
ENDBRANCH  18  19
ENDBRANCH  17  18
ENDBRANCH  16  17
ENDBRANCH  15  16
ENDBRANCH   1  15
TORSDOF 22
ENDMDL
MODEL 6
REMARK VINA RESULT:    17.941     10.841     15.963
REMARK INTER + INTRA:          41.898
REMARK INTER:                  43.090
REMARK INTRA:                  -1.193
REMARK UNBOUND:                 0.883
REMARK SMILES CCCCCCCCCCCCCCCCCCCCCCCC(=O)[O-]
REMARK SMILES IDX 13 1 14 2 15 3 16 4 17 5 18 6 19 7 20 8 21 9 22 10 23 11
REMARK SMILES IDX 24 12 25 13 26 14 12 15 11 16 10 17 9 18 8 19 7 20 6 21 5 22
REMARK SMILES IDX 4 23 3 24 2 25 1 26
REMARK H PARENT
REMARK Flexibility Score: inf
ROOT
ATOM      1  C   UNL     1      -4.935 -12.998   6.787  1.00  0.00     0.000 C 
ENDROOT
BRANCH   1   2
ATOM      2  C   UNL     1      -6.367 -12.964   6.221  1.00  0.00     0.000 C 
BRANCH   2   3
ATOM      3  C   UNL     1      -7.114 -14.297   6.398  1.00  0.00     0.000 C 
BRANCH   3   4
ATOM      4  C   UNL     1      -6.283 -15.343   7.158  1.00  0.00     0.000 C 
BRANCH   4   5
ATOM      5  C   UNL     1      -5.200 -15.996   6.281  1.00  0.00     0.000 C 
BRANCH   5   6
ATOM      6  C   UNL     1      -4.229 -16.862   7.100  1.00  0.00     0.000 C 
BRANCH   6   7
ATOM      7  C   UNL     1      -2.844 -16.208   7.264  1.00  0.00     0.000 C 
BRANCH   7   8
ATOM      8  C   UNL     1      -2.635 -15.028   6.291  1.00  0.00     0.000 C 
BRANCH   8   9
ATOM      9  C   UNL     1      -1.569 -14.016   6.756  1.00  0.00     0.000 C 
BRANCH   9  10
ATOM     10  C   UNL     1      -0.971 -14.294   8.145  1.00  0.00     0.006 C 
BRANCH  10  11
ATOM     11  C   UNL     1       0.452 -13.740   8.304  1.00  0.00     0.053 C 
BRANCH  11  12
ATOM     12  C   UNL     1       1.307 -14.694   9.079  1.00  0.00     0.041 C 
ATOM     13  O   UNL     1       1.220 -14.744  10.336  1.00  0.00    -0.550 OA
ATOM     14  O   UNL     1       2.159 -15.565   8.412  1.00  0.00    -0.550 OA
ENDBRANCH  11  12
ENDBRANCH  10  11
ENDBRANCH   9  10
ENDBRANCH   8   9
ENDBRANCH   7   8
ENDBRANCH   6   7
ENDBRANCH   5   6
ENDBRANCH   4   5
ENDBRANCH   3   4
ENDBRANCH   2   3
ENDBRANCH   1   2
BRANCH   1  15
ATOM     15  C   UNL     1      -4.423 -11.662   7.365  1.00  0.00     0.000 C 
BRANCH  15  16
ATOM     16  C   UNL     1      -3.462 -11.790   8.562  1.00  0.00     0.000 C 
BRANCH  16  17
ATOM     17  C   UNL     1      -2.590 -10.551   8.836  1.00  0.00     0.000 C 
BRANCH  17  18
ATOM     18  C   UNL     1      -2.752  -9.973  10.258  1.00  0.00    -0.000 C 
BRANCH  18  19
ATOM     19  C   UNL     1      -1.404  -9.728  10.960  1.00  0.00    -0.000 C 
BRANCH  19  20
ATOM     20  C   UNL     1      -1.571  -9.344  12.438  1.00  0.00    -0.000 C 
BRANCH  20  21
ATOM     21  C   UNL     1      -0.259  -9.459  13.232  1.00  0.00    -0.000 C 
BRANCH  21  22
ATOM     22  C   UNL     1       0.985  -9.474  12.325  1.00  0.00    -0.000 C 
BRANCH  22  23
ATOM     23  C   UNL     1       2.013  -8.362  12.616  1.00  0.00    -0.000 C 
BRANCH  23  24
ATOM     24  C   UNL     1       1.960  -7.152  11.661  1.00  0.00    -0.000 C 
BRANCH  24  25
ATOM     25  C   UNL     1       2.847  -5.965  12.072  1.00  0.00    -0.003 C 
ATOM     26  C   UNL     1       2.472  -4.666  11.358  1.00  0.00     0.004 C 
ENDBRANCH  24  25
ENDBRANCH  23  24
ENDBRANCH  22  23
ENDBRANCH  21  22
ENDBRANCH  20  21
ENDBRANCH  19  20
ENDBRANCH  18  19
ENDBRANCH  17  18
ENDBRANCH  16  17
ENDBRANCH  15  16
ENDBRANCH   1  15
TORSDOF 22
ENDMDL
MODEL 7
REMARK VINA RESULT:    18.188      8.266     10.211
REMARK INTER + INTRA:          42.462
REMARK INTER:                  43.130
REMARK INTRA:                  -0.668
REMARK UNBOUND:                 0.883
REMARK SMILES CCCCCCCCCCCCCCCCCCCCCCCC(=O)[O-]
REMARK SMILES IDX 13 1 14 2 15 3 16 4 17 5 18 6 19 7 20 8 21 9 22 10 23 11
REMARK SMILES IDX 24 12 25 13 26 14 12 15 11 16 10 17 9 18 8 19 7 20 6 21 5 22
REMARK SMILES IDX 4 23 3 24 2 25 1 26
REMARK H PARENT
REMARK Flexibility Score: inf
ROOT
ATOM      1  C   UNL     1      -3.217 -10.305   9.630  1.00  0.00     0.000 C 
ENDROOT
BRANCH   1   2
ATOM      2  C   UNL     1      -3.709  -8.910  10.056  1.00  0.00     0.000 C 
BRANCH   2   3
ATOM      3  C   UNL     1      -4.348  -8.900  11.455  1.00  0.00     0.000 C 
BRANCH   3   4
ATOM      4  C   UNL     1      -4.657  -7.479  11.953  1.00  0.00     0.000 C 
BRANCH   4   5
ATOM      5  C   UNL     1      -4.243  -7.257  13.418  1.00  0.00     0.000 C 
BRANCH   5   6
ATOM      6  C   UNL     1      -3.288  -8.350  13.927  1.00  0.00     0.000 C 
BRANCH   6   7
ATOM      7  C   UNL     1      -2.051  -7.773  14.640  1.00  0.00     0.000 C 
BRANCH   7   8
ATOM      8  C   UNL     1      -2.420  -6.658  15.642  1.00  0.00     0.000 C 
BRANCH   8   9
ATOM      9  C   UNL     1      -1.931  -6.923  17.080  1.00  0.00     0.000 C 
BRANCH   9  10
ATOM     10  C   UNL     1      -3.045  -7.203  18.103  1.00  0.00     0.006 C 
BRANCH  10  11
ATOM     11  C   UNL     1      -2.580  -7.022  19.556  1.00  0.00     0.053 C 
BRANCH  11  12
ATOM     12  C   UNL     1      -2.089  -8.319  20.119  1.00  0.00     0.041 C 
ATOM     13  O   UNL     1      -2.852  -9.322  20.158  1.00  0.00    -0.550 OA
ATOM     14  O   UNL     1      -0.773  -8.437  20.550  1.00  0.00    -0.550 OA
ENDBRANCH  11  12
ENDBRANCH  10  11
ENDBRANCH   9  10
ENDBRANCH   8   9
ENDBRANCH   7   8
ENDBRANCH   6   7
ENDBRANCH   5   6
ENDBRANCH   4   5
ENDBRANCH   3   4
ENDBRANCH   2   3
ENDBRANCH   1   2
BRANCH   1  15
ATOM     15  C   UNL     1      -3.538 -10.702   8.173  1.00  0.00     0.000 C 
BRANCH  15  16
ATOM     16  C   UNL     1      -4.227 -12.068   8.002  1.00  0.00     0.000 C 
BRANCH  16  17
ATOM     17  C   UNL     1      -4.141 -12.671   6.587  1.00  0.00     0.000 C 
BRANCH  17  18
ATOM     18  C   UNL     1      -5.487 -13.201   6.049  1.00  0.00    -0.000 C 
BRANCH  18  19
ATOM     19  C   UNL     1      -6.388 -13.776   7.157  1.00  0.00    -0.000 C 
BRANCH  19  20
ATOM     20  C   UNL     1      -6.220 -15.294   7.323  1.00  0.00    -0.000 C 
BRANCH  20  21
ATOM     21  C   UNL     1      -5.116 -15.870   6.420  1.00  0.00    -0.000 C 
BRANCH  21  22
ATOM     22  C   UNL     1      -3.793 -16.102   7.173  1.00  0.00    -0.000 C 
BRANCH  22  23
ATOM     23  C   UNL     1      -2.519 -15.810   6.353  1.00  0.00    -0.000 C 
BRANCH  23  24
ATOM     24  C   UNL     1      -1.877 -14.431   6.605  1.00  0.00    -0.000 C 
BRANCH  24  25
ATOM     25  C   UNL     1      -1.485 -14.158   8.067  1.00  0.00    -0.003 C 
ATOM     26  C   UNL     1       0.015 -13.922   8.246  1.00  0.00     0.004 C 
ENDBRANCH  24  25
ENDBRANCH  23  24
ENDBRANCH  22  23
ENDBRANCH  21  22
ENDBRANCH  20  21
ENDBRANCH  19  20
ENDBRANCH  18  19
ENDBRANCH  17  18
ENDBRANCH  16  17
ENDBRANCH  15  16
ENDBRANCH   1  15
TORSDOF 22
ENDMDL
MODEL 8
REMARK VINA RESULT:    18.390      8.481     10.684
REMARK INTER + INTRA:          42.925
REMARK INTER:                  43.309
REMARK INTRA:                  -0.384
REMARK UNBOUND:                 0.883
REMARK SMILES CCCCCCCCCCCCCCCCCCCCCCCC(=O)[O-]
REMARK SMILES IDX 13 1 14 2 15 3 16 4 17 5 18 6 19 7 20 8 21 9 22 10 23 11
REMARK SMILES IDX 24 12 25 13 26 14 12 15 11 16 10 17 9 18 8 19 7 20 6 21 5 22
REMARK SMILES IDX 4 23 3 24 2 25 1 26
REMARK H PARENT
REMARK Flexibility Score: inf
ROOT
ATOM      1  C   UNL     1      -3.296 -11.283   8.632  1.00  0.00     0.000 C 
ENDROOT
BRANCH   1   2
ATOM      2  C   UNL     1      -2.958  -9.924   9.270  1.00  0.00     0.000 C 
BRANCH   2   3
ATOM      3  C   UNL     1      -4.030  -9.443  10.263  1.00  0.00     0.000 C 
BRANCH   3   4
ATOM      4  C   UNL     1      -3.486  -8.413  11.267  1.00  0.00     0.000 C 
BRANCH   4   5
ATOM      5  C   UNL     1      -4.598  -7.575  11.922  1.00  0.00     0.000 C 
BRANCH   5   6
ATOM      6  C   UNL     1      -4.824  -7.954  13.395  1.00  0.00     0.000 C 
BRANCH   6   7
ATOM      7  C   UNL     1      -3.506  -8.166  14.163  1.00  0.00     0.000 C 
BRANCH   7   8
ATOM      8  C   UNL     1      -3.744  -8.523  15.646  1.00  0.00     0.000 C 
BRANCH   8   9
ATOM      9  C   UNL     1      -3.122  -7.520  16.638  1.00  0.00     0.000 C 
BRANCH   9  10
ATOM     10  C   UNL     1      -3.190  -7.942  18.115  1.00  0.00     0.006 C 
BRANCH  10  11
ATOM     11  C   UNL     1      -1.854  -7.757  18.851  1.00  0.00     0.053 C 
BRANCH  11  12
ATOM     12  C   UNL     1      -1.886  -8.438  20.183  1.00  0.00     0.041 C 
ATOM     13  O   UNL     1      -1.021  -8.162  21.056  1.00  0.00    -0.550 OA
ATOM     14  O   UNL     1      -2.902  -9.338  20.481  1.00  0.00    -0.550 OA
ENDBRANCH  11  12
ENDBRANCH  10  11
ENDBRANCH   9  10
ENDBRANCH   8   9
ENDBRANCH   7   8
ENDBRANCH   6   7
ENDBRANCH   5   6
ENDBRANCH   4   5
ENDBRANCH   3   4
ENDBRANCH   2   3
ENDBRANCH   1   2
BRANCH   1  15
ATOM     15  C   UNL     1      -4.270 -11.227   7.436  1.00  0.00     0.000 C 
BRANCH  15  16
ATOM     16  C   UNL     1      -4.764 -12.594   6.928  1.00  0.00     0.000 C 
BRANCH  16  17
ATOM     17  C   UNL     1      -6.130 -12.572   6.217  1.00  0.00     0.000 C 
BRANCH  17  18
ATOM     18  C   UNL     1      -6.883 -13.919   6.263  1.00  0.00    -0.000 C 
BRANCH  18  19
ATOM     19  C   UNL     1      -6.289 -14.900   7.290  1.00  0.00    -0.000 C 
BRANCH  19  20
ATOM     20  C   UNL     1      -5.723 -16.168   6.633  1.00  0.00    -0.000 C 
BRANCH  20  21
ATOM     21  C   UNL     1      -4.186 -16.221   6.677  1.00  0.00    -0.000 C 
BRANCH  21  22
ATOM     22  C   UNL     1      -3.534 -14.876   6.310  1.00  0.00    -0.000 C 
BRANCH  22  23
ATOM     23  C   UNL     1      -2.018 -14.793   6.584  1.00  0.00    -0.000 C 
BRANCH  23  24
ATOM     24  C   UNL     1      -1.631 -14.337   8.005  1.00  0.00    -0.000 C 
BRANCH  24  25
ATOM     25  C   UNL     1      -0.289 -13.591   8.101  1.00  0.00    -0.003 C 
ATOM     26  C   UNL     1       0.852 -14.479   8.596  1.00  0.00     0.004 C 
ENDBRANCH  24  25
ENDBRANCH  23  24
ENDBRANCH  22  23
ENDBRANCH  21  22
ENDBRANCH  20  21
ENDBRANCH  19  20
ENDBRANCH  18  19
ENDBRANCH  17  18
ENDBRANCH  16  17
ENDBRANCH  15  16
ENDBRANCH   1  15
TORSDOF 22
ENDMDL
MODEL 9
REMARK VINA RESULT:    18.670     10.181     16.020
REMARK INTER + INTRA:          43.566
REMARK INTER:                  43.364
REMARK INTRA:                   0.202
REMARK UNBOUND:                 0.883
REMARK SMILES CCCCCCCCCCCCCCCCCCCCCCCC(=O)[O-]
REMARK SMILES IDX 13 1 14 2 15 3 16 4 17 5 18 6 19 7 20 8 21 9 22 10 23 11
REMARK SMILES IDX 24 12 25 13 26 14 12 15 11 16 10 17 9 18 8 19 7 20 6 21 5 22
REMARK SMILES IDX 4 23 3 24 2 25 1 26
REMARK H PARENT
REMARK Flexibility Score: inf
ROOT
ATOM      1  C   UNL     1      -4.114 -12.675   7.836  1.00  0.00     0.000 C 
ENDROOT
BRANCH   1   2
ATOM      2  C   UNL     1      -4.590 -12.760   6.374  1.00  0.00     0.000 C 
BRANCH   2   3
ATOM      3  C   UNL     1      -6.116 -12.630   6.231  1.00  0.00     0.000 C 
BRANCH   3   4
ATOM      4  C   UNL     1      -6.819 -13.995   6.154  1.00  0.00     0.000 C 
BRANCH   4   5
ATOM      5  C   UNL     1      -6.543 -14.878   7.383  1.00  0.00     0.000 C 
BRANCH   5   6
ATOM      6  C   UNL     1      -6.537 -16.377   7.036  1.00  0.00     0.000 C 
BRANCH   6   7
ATOM      7  C   UNL     1      -5.138 -16.889   6.643  1.00  0.00     0.000 C 
BRANCH   7   8
ATOM      8  C   UNL     1      -4.011 -16.139   7.383  1.00  0.00     0.000 C 
BRANCH   8   9
ATOM      9  C   UNL     1      -2.727 -15.957   6.548  1.00  0.00     0.000 C 
BRANCH   9  10
ATOM     10  C   UNL     1      -2.420 -14.509   6.135  1.00  0.00     0.006 C 
BRANCH  10  11
ATOM     11  C   UNL     1      -0.974 -14.093   6.444  1.00  0.00     0.053 C 
BRANCH  11  12
ATOM     12  C   UNL     1      -0.721 -14.118   7.919  1.00  0.00     0.041 C 
ATOM     13  O   UNL     1      -1.618 -14.517   8.709  1.00  0.00    -0.550 OA
ATOM     14  O   UNL     1       0.523 -13.752   8.418  1.00  0.00    -0.550 OA
ENDBRANCH  11  12
ENDBRANCH  10  11
ENDBRANCH   9  10
ENDBRANCH   8   9
ENDBRANCH   7   8
ENDBRANCH   6   7
ENDBRANCH   5   6
ENDBRANCH   4   5
ENDBRANCH   3   4
ENDBRANCH   2   3
ENDBRANCH   1   2
BRANCH   1  15
ATOM     15  C   UNL     1      -3.125 -11.530   8.143  1.00  0.00     0.000 C 
BRANCH  15  16
ATOM     16  C   UNL     1      -3.765 -10.237   8.679  1.00  0.00     0.000 C 
BRANCH  16  17
ATOM     17  C   UNL     1      -3.005  -9.563   9.836  1.00  0.00     0.000 C 
BRANCH  17  18
ATOM     18  C   UNL     1      -3.870  -9.305  11.088  1.00  0.00    -0.000 C 
BRANCH  18  19
ATOM     19  C   UNL     1      -4.271  -7.826  11.243  1.00  0.00    -0.000 C 
BRANCH  19  20
ATOM     20  C   UNL     1      -5.667  -7.657  11.862  1.00  0.00    -0.000 C 
BRANCH  20  21
ATOM     21  C   UNL     1      -5.693  -6.605  12.984  1.00  0.00    -0.000 C 
BRANCH  21  22
ATOM     22  C   UNL     1      -4.676  -5.471  12.759  1.00  0.00    -0.000 C 
BRANCH  22  23
ATOM     23  C   UNL     1      -4.072  -4.877  14.049  1.00  0.00    -0.000 C 
BRANCH  23  24
ATOM     24  C   UNL     1      -2.575  -5.173  14.271  1.00  0.00    -0.000 C 
BRANCH  24  25
ATOM     25  C   UNL     1      -2.277  -6.187  15.390  1.00  0.00    -0.003 C 
ATOM     26  C   UNL     1      -0.818  -6.641  15.407  1.00  0.00     0.004 C 
ENDBRANCH  24  25
ENDBRANCH  23  24
ENDBRANCH  22  23
ENDBRANCH  21  22
ENDBRANCH  20  21
ENDBRANCH  19  20
ENDBRANCH  18  19
ENDBRANCH  17  18
ENDBRANCH  16  17
ENDBRANCH  15  16
ENDBRANCH   1  15
TORSDOF 22
ENDMDL
