MODEL 1
REMARK VINA RESULT:    -4.270      0.000      0.000
REMARK INTER + INTRA:          -6.815
REMARK INTER:                  -6.266
REMARK INTRA:                  -0.549
REMARK UNBOUND:                -0.549
REMARK SMILES O=C([O-])CCCCCCCC(=O)[O-]
REMARK SMILES IDX 7 1 6 2 5 3 4 4 2 5 1 6 3 7 8 8 9 9 10 10 11 11 12 12 13 13
REMARK H PARENT
REMARK Flexibility Score: inf
ROOT
ATOM      1  C   UNL     1      52.491  20.594  49.580  1.00  0.00     0.000 C 
ENDROOT
BRANCH   1   2
ATOM      2  C   UNL     1      51.061  21.056  49.908  1.00  0.00     0.000 C 
BRANCH   2   3
ATOM      3  C   UNL     1      50.129  19.886  50.262  1.00  0.00     0.006 C 
BRANCH   3   4
ATOM      4  C   UNL     1      48.738  20.023  49.630  1.00  0.00     0.053 C 
BRANCH   4   5
ATOM      5  C   UNL     1      47.750  20.508  50.643  1.00  0.00     0.041 C 
ATOM      6  O   UNL     1      47.820  21.686  51.083  1.00  0.00    -0.550 OA
ATOM      7  O   UNL     1      46.782  19.645  51.138  1.00  0.00    -0.550 OA
ENDBRANCH   4   5
ENDBRANCH   3   4
ENDBRANCH   2   3
ENDBRANCH   1   2
BRANCH   1   8
ATOM      8  C   UNL     1      53.503  20.992  50.666  1.00  0.00     0.000 C 
BRANCH   8   9
ATOM      9  C   UNL     1      52.892  21.904  51.744  1.00  0.00     0.006 C 
BRANCH   9  10
ATOM     10  C   UNL     1      53.063  21.327  53.155  1.00  0.00     0.053 C 
BRANCH  10  11
ATOM     11  C   UNL     1      51.749  20.942  53.762  1.00  0.00     0.041 C 
ATOM     12  O   UNL     1      51.696  20.041  54.639  1.00  0.00    -0.550 OA
ATOM     13  O   UNL     1      50.578  21.555  53.333  1.00  0.00    -0.550 OA
ENDBRANCH  10  11
ENDBRANCH   9  10
ENDBRANCH   8   9
ENDBRANCH   1   8
TORSDOF 8
ENDMDL
MODEL 2
REMARK VINA RESULT:    -4.260      3.143      3.972
REMARK INTER + INTRA:          -6.801
REMARK INTER:                  -6.384
REMARK INTRA:                  -0.416
REMARK UNBOUND:                -0.549
REMARK SMILES O=C([O-])CCCCCCCC(=O)[O-]
REMARK SMILES IDX 7 1 6 2 5 3 4 4 2 5 1 6 3 7 8 8 9 9 10 10 11 11 12 12 13 13
REMARK H PARENT
REMARK Flexibility Score: inf
ROOT
ATOM      1  C   UNL     1      51.415  20.868  52.300  1.00  0.00     0.000 C 
ENDROOT
BRANCH   1   2
ATOM      2  C   UNL     1      50.245  21.692  52.866  1.00  0.00     0.000 C 
BRANCH   2   3
ATOM      3  C   UNL     1      49.474  22.449  51.773  1.00  0.00     0.006 C 
BRANCH   3   4
ATOM      4  C   UNL     1      48.019  21.980  51.642  1.00  0.00     0.053 C 
BRANCH   4   5
ATOM      5  C   UNL     1      47.934  20.793  50.735  1.00  0.00     0.041 C 
ATOM      6  O   UNL     1      48.615  20.754  49.676  1.00  0.00    -0.550 OA
ATOM      7  O   UNL     1      47.066  19.750  51.033  1.00  0.00    -0.550 OA
ENDBRANCH   4   5
ENDBRANCH   3   4
ENDBRANCH   2   3
ENDBRANCH   1   2
BRANCH   1   8
ATOM      8  C   UNL     1      51.835  21.328  50.895  1.00  0.00     0.000 C 
BRANCH   8   9
ATOM      9  C   UNL     1      53.324  21.073  50.605  1.00  0.00     0.006 C 
BRANCH   9  10
ATOM     10  C   UNL     1      53.532  20.231  49.340  1.00  0.00     0.053 C 
BRANCH  10  11
ATOM     11  C   UNL     1      54.894  20.435  48.753  1.00  0.00     0.041 C 
ATOM     12  O   UNL     1      55.117  21.415  47.995  1.00  0.00    -0.550 OA
ATOM     13  O   UNL     1      55.910  19.523  49.015  1.00  0.00    -0.550 OA
ENDBRANCH  10  11
ENDBRANCH   9  10
ENDBRANCH   8   9
ENDBRANCH   1   8
TORSDOF 8
ENDMDL
MODEL 3
REMARK VINA RESULT:    -4.218      2.978      5.297
REMARK INTER + INTRA:          -6.739
REMARK INTER:                  -6.333
REMARK INTRA:                  -0.406
REMARK UNBOUND:                -0.549
REMARK SMILES O=C([O-])CCCCCCCC(=O)[O-]
REMARK SMILES IDX 7 1 6 2 5 3 4 4 2 5 1 6 3 7 8 8 9 9 10 10 11 11 12 12 13 13
REMARK H PARENT
REMARK Flexibility Score: inf
ROOT
ATOM      1  C   UNL     1      50.607  19.369  50.331  1.00  0.00     0.000 C 
ENDROOT
BRANCH   1   2
ATOM      2  C   UNL     1      51.200  20.787  50.405  1.00  0.00     0.000 C 
BRANCH   2   3
ATOM      3  C   UNL     1      52.366  20.992  49.424  1.00  0.00     0.006 C 
BRANCH   3   4
ATOM      4  C   UNL     1      53.719  20.582  50.018  1.00  0.00     0.053 C 
BRANCH   4   5
ATOM      5  C   UNL     1      54.755  20.494  48.942  1.00  0.00     0.041 C 
ATOM      6  O   UNL     1      54.713  21.276  47.956  1.00  0.00    -0.550 OA
ATOM      7  O   UNL     1      55.740  19.517  49.004  1.00  0.00    -0.550 OA
ENDBRANCH   4   5
ENDBRANCH   3   4
ENDBRANCH   2   3
ENDBRANCH   1   2
BRANCH   1   8
ATOM      8  C   UNL     1      49.132  19.369  49.899  1.00  0.00     0.000 C 
BRANCH   8   9
ATOM      9  C   UNL     1      48.500  20.772  49.939  1.00  0.00     0.006 C 
BRANCH   9  10
ATOM     10  C   UNL     1      47.493  20.920  51.087  1.00  0.00     0.053 C 
BRANCH  10  11
ATOM     11  C   UNL     1      47.982  21.869  52.137  1.00  0.00     0.041 C 
ATOM     12  O   UNL     1      48.752  22.815  51.827  1.00  0.00    -0.550 OA
ATOM     13  O   UNL     1      47.616  21.687  53.466  1.00  0.00    -0.550 OA
ENDBRANCH  10  11
ENDBRANCH   9  10
ENDBRANCH   8   9
ENDBRANCH   1   8
TORSDOF 8
ENDMDL
MODEL 4
REMARK VINA RESULT:    -4.218      3.065      5.435
REMARK INTER + INTRA:          -6.739
REMARK INTER:                  -6.340
REMARK INTRA:                  -0.399
REMARK UNBOUND:                -0.549
REMARK SMILES O=C([O-])CCCCCCCC(=O)[O-]
REMARK SMILES IDX 7 1 6 2 5 3 4 4 2 5 1 6 3 7 8 8 9 9 10 10 11 11 12 12 13 13
REMARK H PARENT
REMARK Flexibility Score: inf
ROOT
ATOM      1  C   UNL     1      51.705  21.278  51.673  1.00  0.00     0.000 C 
ENDROOT
BRANCH   1   2
ATOM      2  C   UNL     1      51.304  20.883  50.241  1.00  0.00     0.000 C 
BRANCH   2   3
ATOM      3  C   UNL     1      52.469  20.263  49.452  1.00  0.00     0.006 C 
BRANCH   3   4
ATOM      4  C   UNL     1      53.841  20.726  49.959  1.00  0.00     0.053 C 
BRANCH   4   5
ATOM      5  C   UNL     1      54.884  20.512  48.908  1.00  0.00     0.041 C 
ATOM      6  O   UNL     1      55.718  19.576  49.024  1.00  0.00    -0.550 OA
ATOM      7  O   UNL     1      54.966  21.377  47.825  1.00  0.00    -0.550 OA
ENDBRANCH   4   5
ENDBRANCH   3   4
ENDBRANCH   2   3
ENDBRANCH   1   2
BRANCH   1   8
ATOM      8  C   UNL     1      50.495  21.672  52.536  1.00  0.00     0.000 C 
BRANCH   8   9
ATOM      9  C   UNL     1      49.363  22.314  51.716  1.00  0.00     0.006 C 
BRANCH   9  10
ATOM     10  C   UNL     1      47.994  21.701  52.042  1.00  0.00     0.053 C 
BRANCH  10  11
ATOM     11  C   UNL     1      47.552  20.735  50.986  1.00  0.00     0.041 C 
ATOM     12  O   UNL     1      47.838  20.942  49.778  1.00  0.00    -0.550 OA
ATOM     13  O   UNL     1      46.794  19.623  51.333  1.00  0.00    -0.550 OA
ENDBRANCH  10  11
ENDBRANCH   9  10
ENDBRANCH   8   9
ENDBRANCH   1   8
TORSDOF 8
ENDMDL
MODEL 5
REMARK VINA RESULT:    -4.213      3.209      4.119
REMARK INTER + INTRA:          -6.732
REMARK INTER:                  -6.318
REMARK INTRA:                  -0.413
REMARK UNBOUND:                -0.549
REMARK SMILES O=C([O-])CCCCCCCC(=O)[O-]
REMARK SMILES IDX 7 1 6 2 5 3 4 4 2 5 1 6 3 7 8 8 9 9 10 10 11 11 12 12 13 13
REMARK H PARENT
REMARK Flexibility Score: inf
ROOT
ATOM      1  C   UNL     1      50.888  20.977  49.954  1.00  0.00     0.000 C 
ENDROOT
BRANCH   1   2
ATOM      2  C   UNL     1      49.597  20.257  50.382  1.00  0.00     0.000 C 
BRANCH   2   3
ATOM      3  C   UNL     1      48.407  21.219  50.531  1.00  0.00     0.006 C 
BRANCH   3   4
ATOM      4  C   UNL     1      48.110  21.572  51.994  1.00  0.00     0.053 C 
BRANCH   4   5
ATOM      5  C   UNL     1      48.406  23.016  52.252  1.00  0.00     0.041 C 
ATOM      6  O   UNL     1      49.596  23.407  52.377  1.00  0.00    -0.550 OA
ATOM      7  O   UNL     1      47.364  23.923  52.402  1.00  0.00    -0.550 OA
ENDBRANCH   4   5
ENDBRANCH   3   4
ENDBRANCH   2   3
ENDBRANCH   1   2
BRANCH   1   8
ATOM      8  C   UNL     1      51.891  21.126  51.110  1.00  0.00     0.000 C 
BRANCH   8   9
ATOM      9  C   UNL     1      53.354  21.110  50.635  1.00  0.00     0.006 C 
BRANCH   9  10
ATOM     10  C   UNL     1      53.541  20.265  49.368  1.00  0.00     0.053 C 
BRANCH  10  11
ATOM     11  C   UNL     1      54.907  20.441  48.780  1.00  0.00     0.041 C 
ATOM     12  O   UNL     1      55.178  21.467  48.103  1.00  0.00    -0.550 OA
ATOM     13  O   UNL     1      55.870  19.453  48.949  1.00  0.00    -0.550 OA
ENDBRANCH  10  11
ENDBRANCH   9  10
ENDBRANCH   8   9
ENDBRANCH   1   8
TORSDOF 8
ENDMDL
MODEL 6
REMARK VINA RESULT:    -4.161      2.960      3.597
REMARK INTER + INTRA:          -6.655
REMARK INTER:                  -6.280
REMARK INTRA:                  -0.375
REMARK UNBOUND:                -0.549
REMARK SMILES O=C([O-])CCCCCCCC(=O)[O-]
REMARK SMILES IDX 7 1 6 2 5 3 4 4 2 5 1 6 3 7 8 8 9 9 10 10 11 11 12 12 13 13
REMARK H PARENT
REMARK Flexibility Score: inf
ROOT
ATOM      1  C   UNL     1      51.076  21.530  50.596  1.00  0.00     0.000 C 
ENDROOT
BRANCH   1   2
ATOM      2  C   UNL     1      50.681  20.128  51.090  1.00  0.00     0.000 C 
BRANCH   2   3
ATOM      3  C   UNL     1      49.669  19.438  50.162  1.00  0.00     0.006 C 
BRANCH   3   4
ATOM      4  C   UNL     1      48.572  20.392  49.669  1.00  0.00     0.053 C 
BRANCH   4   5
ATOM      5  C   UNL     1      47.585  20.659  50.760  1.00  0.00     0.041 C 
ATOM      6  O   UNL     1      47.559  21.782  51.331  1.00  0.00    -0.550 OA
ATOM      7  O   UNL     1      46.726  19.653  51.182  1.00  0.00    -0.550 OA
ENDBRANCH   4   5
ENDBRANCH   3   4
ENDBRANCH   2   3
ENDBRANCH   1   2
BRANCH   1   8
ATOM      8  C   UNL     1      52.529  21.891  50.946  1.00  0.00     0.000 C 
BRANCH   8   9
ATOM      9  C   UNL     1      53.513  20.743  50.662  1.00  0.00     0.006 C 
BRANCH   9  10
ATOM     10  C   UNL     1      53.628  20.438  49.163  1.00  0.00     0.053 C 
BRANCH  10  11
ATOM     11  C   UNL     1      55.049  20.488  48.693  1.00  0.00     0.041 C 
ATOM     12  O   UNL     1      55.861  19.589  49.034  1.00  0.00    -0.550 OA
ATOM     13  O   UNL     1      55.487  21.547  47.907  1.00  0.00    -0.550 OA
ENDBRANCH  10  11
ENDBRANCH   9  10
ENDBRANCH   8   9
ENDBRANCH   1   8
TORSDOF 8
ENDMDL
MODEL 7
REMARK VINA RESULT:    -4.009      3.182      5.485
REMARK INTER + INTRA:          -6.433
REMARK INTER:                  -6.127
REMARK INTRA:                  -0.306
REMARK UNBOUND:                -0.549
REMARK SMILES O=C([O-])CCCCCCCC(=O)[O-]
REMARK SMILES IDX 7 1 6 2 5 3 4 4 2 5 1 6 3 7 8 8 9 9 10 10 11 11 12 12 13 13
REMARK H PARENT
REMARK Flexibility Score: inf
ROOT
ATOM      1  C   UNL     1      51.687  22.458  52.095  1.00  0.00     0.000 C 
ENDROOT
BRANCH   1   2
ATOM      2  C   UNL     1      51.894  21.287  51.118  1.00  0.00     0.000 C 
BRANCH   2   3
ATOM      3  C   UNL     1      53.310  21.259  50.522  1.00  0.00     0.006 C 
BRANCH   3   4
ATOM      4  C   UNL     1      53.416  20.354  49.288  1.00  0.00     0.053 C 
BRANCH   4   5
ATOM      5  C   UNL     1      54.788  20.438  48.697  1.00  0.00     0.041 C 
ATOM      6  O   UNL     1      55.085  21.378  47.913  1.00  0.00    -0.550 OA
ATOM      7  O   UNL     1      55.725  19.450  48.972  1.00  0.00    -0.550 OA
ENDBRANCH   4   5
ENDBRANCH   3   4
ENDBRANCH   2   3
ENDBRANCH   1   2
BRANCH   1   8
ATOM      8  C   UNL     1      50.237  22.969  52.103  1.00  0.00     0.000 C 
BRANCH   8   9
ATOM      9  C   UNL     1      49.213  21.850  52.359  1.00  0.00     0.006 C 
BRANCH   9  10
ATOM     10  C   UNL     1      47.955  22.009  51.496  1.00  0.00     0.053 C 
BRANCH  10  11
ATOM     11  C   UNL     1      47.695  20.792  50.662  1.00  0.00     0.041 C 
ATOM     12  O   UNL     1      46.762  20.004  50.966  1.00  0.00    -0.550 OA
ATOM     13  O   UNL     1      48.507  20.510  49.570  1.00  0.00    -0.550 OA
ENDBRANCH  10  11
ENDBRANCH   9  10
ENDBRANCH   8   9
ENDBRANCH   1   8
TORSDOF 8
ENDMDL
MODEL 8
REMARK VINA RESULT:    -3.991      0.340      4.514
REMARK INTER + INTRA:          -6.406
REMARK INTER:                  -5.806
REMARK INTRA:                  -0.600
REMARK UNBOUND:                -0.549
REMARK SMILES O=C([O-])CCCCCCCC(=O)[O-]
REMARK SMILES IDX 7 1 6 2 5 3 4 4 2 5 1 6 3 7 8 8 9 9 10 10 11 11 12 12 13 13
REMARK H PARENT
REMARK Flexibility Score: inf
ROOT
ATOM      1  C   UNL     1      52.691  20.606  50.142  1.00  0.00     0.000 C 
ENDROOT
BRANCH   1   2
ATOM      2  C   UNL     1      53.484  21.752  50.793  1.00  0.00     0.000 C 
BRANCH   2   3
ATOM      3  C   UNL     1      52.870  22.213  52.125  1.00  0.00     0.006 C 
BRANCH   3   4
ATOM      4  C   UNL     1      53.095  21.206  53.261  1.00  0.00     0.053 C 
BRANCH   4   5
ATOM      5  C   UNL     1      51.788  20.813  53.875  1.00  0.00     0.041 C 
ATOM      6  O   UNL     1      51.735  19.864  54.700  1.00  0.00    -0.550 OA
ATOM      7  O   UNL     1      50.620  21.464  53.499  1.00  0.00    -0.550 OA
ENDBRANCH   4   5
ENDBRANCH   3   4
ENDBRANCH   2   3
ENDBRANCH   1   2
BRANCH   1   8
ATOM      8  C   UNL     1      51.221  20.977  49.886  1.00  0.00     0.000 C 
BRANCH   8   9
ATOM      9  C   UNL     1      50.240  19.908  50.399  1.00  0.00     0.006 C 
BRANCH   9  10
ATOM     10  C   UNL     1      48.853  20.040  49.756  1.00  0.00     0.053 C 
BRANCH  10  11
ATOM     11  C   UNL     1      47.839  20.564  50.724  1.00  0.00     0.041 C 
ATOM     12  O   UNL     1      47.977  21.709  51.229  1.00  0.00    -0.550 OA
ATOM     13  O   UNL     1      46.758  19.774  51.098  1.00  0.00    -0.550 OA
ENDBRANCH  10  11
ENDBRANCH   9  10
ENDBRANCH   8   9
ENDBRANCH   1   8
TORSDOF 8
ENDMDL
MODEL 9
REMARK VINA RESULT:    -3.982      3.625      4.809
REMARK INTER + INTRA:          -6.394
REMARK INTER:                  -5.901
REMARK INTRA:                  -0.492
REMARK UNBOUND:                -0.549
REMARK SMILES O=C([O-])CCCCCCCC(=O)[O-]
REMARK SMILES IDX 7 1 6 2 5 3 4 4 2 5 1 6 3 7 8 8 9 9 10 10 11 11 12 12 13 13
REMARK H PARENT
REMARK Flexibility Score: inf
ROOT
ATOM      1  C   UNL     1      52.077  21.799  51.751  1.00  0.00     0.000 C 
ENDROOT
BRANCH   1   2
ATOM      2  C   UNL     1      51.411  21.103  50.551  1.00  0.00     0.000 C 
BRANCH   2   3
ATOM      3  C   UNL     1      52.435  20.516  49.566  1.00  0.00     0.006 C 
BRANCH   3   4
ATOM      4  C   UNL     1      53.878  20.625  50.076  1.00  0.00     0.053 C 
BRANCH   4   5
ATOM      5  C   UNL     1      54.844  20.443  48.948  1.00  0.00     0.041 C 
ATOM      6  O   UNL     1      55.736  19.557  49.015  1.00  0.00    -0.550 OA
ATOM      7  O   UNL     1      54.791  21.285  47.844  1.00  0.00    -0.550 OA
ENDBRANCH   4   5
ENDBRANCH   3   4
ENDBRANCH   2   3
ENDBRANCH   1   2
BRANCH   1   8
ATOM      8  C   UNL     1      51.288  21.606  53.056  1.00  0.00     0.000 C 
BRANCH   8   9
ATOM      9  C   UNL     1      52.012  20.692  54.059  1.00  0.00     0.006 C 
BRANCH   9  10
ATOM     10  C   UNL     1      53.443  21.166  54.346  1.00  0.00     0.053 C 
BRANCH  10  11
ATOM     11  C   UNL     1      53.460  22.474  55.074  1.00  0.00     0.041 C 
ATOM     12  O   UNL     1      54.273  23.375  54.739  1.00  0.00    -0.550 OA
ATOM     13  O   UNL     1      52.601  22.687  56.146  1.00  0.00    -0.550 OA
ENDBRANCH  10  11
ENDBRANCH   9  10
ENDBRANCH   8   9
ENDBRANCH   1   8
TORSDOF 8
ENDMDL
