MODEL 1
REMARK VINA RESULT:    -6.716      0.000      0.000
REMARK INTER + INTRA:          -7.203
REMARK INTER:                  -7.108
REMARK INTRA:                  -0.095
REMARK UNBOUND:                -0.095
REMARK SMILES C=C(C)[C@@H]1CC=C(C)C(=O)C1
REMARK SMILES IDX 8 1 7 2 6 3 5 4 4 5 11 6 9 7 10 8 2 9 1 10 3 11
REMARK H PARENT
REMARK Flexibility Score: inf
ROOT
ATOM      1  C   UNL     1      28.255  60.319 136.664  1.00  0.00     0.048 C 
ATOM      2  C   UNL     1      27.553  59.327 137.549  1.00  0.00    -0.012 C 
ATOM      3  C   UNL     1      27.202  58.125 137.059  1.00  0.00    -0.019 C 
ATOM      4  C   UNL     1      26.513  57.087 137.906  1.00  0.00     0.036 C 
ATOM      5  C   UNL     1      25.603  57.746 138.959  1.00  0.00     0.025 C 
ATOM      6  C   UNL     1      26.405  58.752 139.806  1.00  0.00     0.089 C 
ATOM      7  C   UNL     1      27.141  59.719 138.920  1.00  0.00     0.158 C 
ATOM      8  O   UNL     1      27.438  60.859 139.370  1.00  0.00    -0.295 OA
ENDROOT
BRANCH   5   9
ATOM      9  C   UNL     1      24.905  56.711 139.827  1.00  0.00    -0.077 C 
ATOM     10  C   UNL     1      25.451  56.272 140.975  1.00  0.00     0.008 C 
ATOM     11  C   UNL     1      23.571  56.174 139.375  1.00  0.00     0.039 C 
ENDBRANCH   5   9
TORSDOF 1
ENDMDL
MODEL 2
REMARK VINA RESULT:    -6.164      2.305      4.789
REMARK INTER + INTRA:          -6.619
REMARK INTER:                  -6.527
REMARK INTRA:                  -0.092
REMARK UNBOUND:                -0.095
REMARK SMILES C=C(C)[C@@H]1CC=C(C)C(=O)C1
REMARK SMILES IDX 8 1 7 2 6 3 5 4 4 5 11 6 9 7 10 8 2 9 1 10 3 11
REMARK H PARENT
REMARK Flexibility Score: inf
ROOT
ATOM      1  C   UNL     1      24.312  54.746 139.745  1.00  0.00     0.048 C 
ATOM      2  C   UNL     1      25.277  55.867 139.471  1.00  0.00    -0.012 C 
ATOM      3  C   UNL     1      24.818  57.122 139.324  1.00  0.00    -0.019 C 
ATOM      4  C   UNL     1      25.741  58.285 139.066  1.00  0.00     0.036 C 
ATOM      5  C   UNL     1      26.965  57.848 138.240  1.00  0.00     0.025 C 
ATOM      6  C   UNL     1      27.685  56.673 138.929  1.00  0.00     0.089 C 
ATOM      7  C   UNL     1      26.712  55.569 139.241  1.00  0.00     0.158 C 
ATOM      8  O   UNL     1      27.138  54.387 139.344  1.00  0.00    -0.295 OA
ENDROOT
BRANCH   5   9
ATOM      9  C   UNL     1      27.910  59.009 137.976  1.00  0.00    -0.077 C 
ATOM     10  C   UNL     1      27.830  59.738 136.848  1.00  0.00     0.008 C 
ATOM     11  C   UNL     1      28.954  59.339 139.011  1.00  0.00     0.039 C 
ENDBRANCH   5   9
TORSDOF 1
ENDMDL
MODEL 3
REMARK VINA RESULT:    -6.080      3.786      4.290
REMARK INTER + INTRA:          -6.530
REMARK INTER:                  -6.433
REMARK INTRA:                  -0.098
REMARK UNBOUND:                -0.095
REMARK SMILES C=C(C)[C@@H]1CC=C(C)C(=O)C1
REMARK SMILES IDX 8 1 7 2 6 3 5 4 4 5 11 6 9 7 10 8 2 9 1 10 3 11
REMARK H PARENT
REMARK Flexibility Score: inf
ROOT
ATOM      1  C   UNL     1      31.251  57.706 139.376  1.00  0.00     0.048 C 
ATOM      2  C   UNL     1      30.180  57.515 140.414  1.00  0.00    -0.012 C 
ATOM      3  C   UNL     1      29.103  56.761 140.133  1.00  0.00    -0.019 C 
ATOM      4  C   UNL     1      28.010  56.522 141.141  1.00  0.00     0.036 C 
ATOM      5  C   UNL     1      27.833  57.741 142.065  1.00  0.00     0.025 C 
ATOM      6  C   UNL     1      29.171  58.108 142.732  1.00  0.00     0.089 C 
ATOM      7  C   UNL     1      30.253  58.257 141.697  1.00  0.00     0.158 C 
ATOM      8  O   UNL     1      31.245  58.993 141.949  1.00  0.00    -0.295 OA
ENDROOT
BRANCH   5   9
ATOM      9  C   UNL     1      26.736  57.514 143.093  1.00  0.00    -0.077 C 
ATOM     10  C   UNL     1      25.853  56.506 142.968  1.00  0.00     0.008 C 
ATOM     11  C   UNL     1      26.648  58.447 144.273  1.00  0.00     0.039 C 
ENDBRANCH   5   9
TORSDOF 1
ENDMDL
MODEL 4
REMARK VINA RESULT:    -6.003      3.185      4.810
REMARK INTER + INTRA:          -6.449
REMARK INTER:                  -6.354
REMARK INTRA:                  -0.095
REMARK UNBOUND:                -0.095
REMARK SMILES C=C(C)[C@@H]1CC=C(C)C(=O)C1
REMARK SMILES IDX 8 1 7 2 6 3 5 4 4 5 11 6 9 7 10 8 2 9 1 10 3 11
REMARK H PARENT
REMARK Flexibility Score: inf
ROOT
ATOM      1  C   UNL     1      24.195  56.632 139.043  1.00  0.00     0.048 C 
ATOM      2  C   UNL     1      25.609  56.833 139.516  1.00  0.00    -0.012 C 
ATOM      3  C   UNL     1      26.045  58.069 139.813  1.00  0.00    -0.019 C 
ATOM      4  C   UNL     1      27.444  58.325 140.308  1.00  0.00     0.036 C 
ATOM      5  C   UNL     1      28.440  57.321 139.697  1.00  0.00     0.025 C 
ATOM      6  C   UNL     1      27.980  55.877 139.968  1.00  0.00     0.089 C 
ATOM      7  C   UNL     1      26.552  55.687 139.534  1.00  0.00     0.158 C 
ATOM      8  O   UNL     1      26.154  54.533 139.221  1.00  0.00    -0.295 OA
ENDROOT
BRANCH   5   9
ATOM      9  C   UNL     1      29.857  57.563 140.191  1.00  0.00    -0.077 C 
ATOM     10  C   UNL     1      30.918  57.441 139.373  1.00  0.00     0.008 C 
ATOM     11  C   UNL     1      30.062  57.946 141.634  1.00  0.00     0.039 C 
ENDBRANCH   5   9
TORSDOF 1
ENDMDL
MODEL 5
REMARK VINA RESULT:    -6.000      1.788      4.375
REMARK INTER + INTRA:          -6.446
REMARK INTER:                  -6.349
REMARK INTRA:                  -0.097
REMARK UNBOUND:                -0.095
REMARK SMILES C=C(C)[C@@H]1CC=C(C)C(=O)C1
REMARK SMILES IDX 8 1 7 2 6 3 5 4 4 5 11 6 9 7 10 8 2 9 1 10 3 11
REMARK H PARENT
REMARK Flexibility Score: inf
ROOT
ATOM      1  C   UNL     1      25.998  56.633 143.425  1.00  0.00     0.048 C 
ATOM      2  C   UNL     1      26.175  57.220 142.052  1.00  0.00    -0.012 C 
ATOM      3  C   UNL     1      25.559  56.655 140.999  1.00  0.00    -0.019 C 
ATOM      4  C   UNL     1      25.687  57.212 139.605  1.00  0.00     0.036 C 
ATOM      5  C   UNL     1      27.071  57.853 139.390  1.00  0.00     0.025 C 
ATOM      6  C   UNL     1      27.343  58.917 140.471  1.00  0.00     0.089 C 
ATOM      7  C   UNL     1      27.124  58.341 141.844  1.00  0.00     0.158 C 
ATOM      8  O   UNL     1      27.730  58.850 142.825  1.00  0.00    -0.295 OA
ENDROOT
BRANCH   5   9
ATOM      9  C   UNL     1      27.215  58.426 137.989  1.00  0.00    -0.077 C 
ATOM     10  C   UNL     1      26.907  57.701 136.898  1.00  0.00     0.008 C 
ATOM     11  C   UNL     1      27.716  59.839 137.836  1.00  0.00     0.039 C 
ENDBRANCH   5   9
TORSDOF 1
ENDMDL
MODEL 6
REMARK VINA RESULT:    -5.998      2.720      4.572
REMARK INTER + INTRA:          -6.443
REMARK INTER:                  -6.347
REMARK INTRA:                  -0.096
REMARK UNBOUND:                -0.095
REMARK SMILES C=C(C)[C@@H]1CC=C(C)C(=O)C1
REMARK SMILES IDX 8 1 7 2 6 3 5 4 4 5 11 6 9 7 10 8 2 9 1 10 3 11
REMARK H PARENT
REMARK Flexibility Score: inf
ROOT
ATOM      1  C   UNL     1      23.975  56.577 139.364  1.00  0.00     0.048 C 
ATOM      2  C   UNL     1      25.387  56.705 139.864  1.00  0.00    -0.012 C 
ATOM      3  C   UNL     1      25.638  56.637 141.183  1.00  0.00    -0.019 C 
ATOM      4  C   UNL     1      27.035  56.742 141.736  1.00  0.00     0.036 C 
ATOM      5  C   UNL     1      27.907  57.669 140.869  1.00  0.00     0.025 C 
ATOM      6  C   UNL     1      27.894  57.199 139.402  1.00  0.00     0.089 C 
ATOM      7  C   UNL     1      26.481  57.029 138.915  1.00  0.00     0.158 C 
ATOM      8  O   UNL     1      26.242  57.128 137.681  1.00  0.00    -0.295 OA
ENDROOT
BRANCH   5   9
ATOM      9  C   UNL     1      29.323  57.781 141.411  1.00  0.00    -0.077 C 
ATOM     10  C   UNL     1      29.564  58.204 142.665  1.00  0.00     0.008 C 
ATOM     11  C   UNL     1      30.471  57.407 140.511  1.00  0.00     0.039 C 
ENDBRANCH   5   9
TORSDOF 1
ENDMDL
MODEL 7
REMARK VINA RESULT:    -5.987      2.291      3.304
REMARK INTER + INTRA:          -6.432
REMARK INTER:                  -6.338
REMARK INTRA:                  -0.095
REMARK UNBOUND:                -0.095
REMARK SMILES C=C(C)[C@@H]1CC=C(C)C(=O)C1
REMARK SMILES IDX 8 1 7 2 6 3 5 4 4 5 11 6 9 7 10 8 2 9 1 10 3 11
REMARK H PARENT
REMARK Flexibility Score: inf
ROOT
ATOM      1  C   UNL     1      26.833  57.603 137.052  1.00  0.00     0.048 C 
ATOM      2  C   UNL     1      26.767  57.376 138.537  1.00  0.00    -0.012 C 
ATOM      3  C   UNL     1      25.573  57.268 139.145  1.00  0.00    -0.019 C 
ATOM      4  C   UNL     1      25.449  57.023 140.626  1.00  0.00     0.036 C 
ATOM      5  C   UNL     1      26.607  57.684 141.395  1.00  0.00     0.025 C 
ATOM      6  C   UNL     1      27.962  57.210 140.837  1.00  0.00     0.089 C 
ATOM      7  C   UNL     1      28.012  57.397 139.345  1.00  0.00     0.158 C 
ATOM      8  O   UNL     1      29.131  57.534 138.781  1.00  0.00    -0.295 OA
ENDROOT
BRANCH   5   9
ATOM      9  C   UNL     1      26.500  57.441 142.892  1.00  0.00    -0.077 C 
ATOM     10  C   UNL     1      26.010  56.289 143.385  1.00  0.00     0.008 C 
ATOM     11  C   UNL     1      26.956  58.526 143.833  1.00  0.00     0.039 C 
ENDBRANCH   5   9
TORSDOF 1
ENDMDL
MODEL 8
REMARK VINA RESULT:    -5.874      3.540      4.370
REMARK INTER + INTRA:          -6.313
REMARK INTER:                  -6.214
REMARK INTRA:                  -0.098
REMARK UNBOUND:                -0.095
REMARK SMILES C=C(C)[C@@H]1CC=C(C)C(=O)C1
REMARK SMILES IDX 8 1 7 2 6 3 5 4 4 5 11 6 9 7 10 8 2 9 1 10 3 11
REMARK H PARENT
REMARK Flexibility Score: inf
ROOT
ATOM      1  C   UNL     1      31.205  57.696 139.407  1.00  0.00     0.048 C 
ATOM      2  C   UNL     1      30.047  57.770 140.364  1.00  0.00    -0.012 C 
ATOM      3  C   UNL     1      30.260  58.116 141.645  1.00  0.00    -0.019 C 
ATOM      4  C   UNL     1      29.136  58.223 142.641  1.00  0.00     0.036 C 
ATOM      5  C   UNL     1      28.022  57.206 142.330  1.00  0.00     0.025 C 
ATOM      6  C   UNL     1      27.533  57.373 140.879  1.00  0.00     0.089 C 
ATOM      7  C   UNL     1      28.696  57.342 139.925  1.00  0.00     0.158 C 
ATOM      8  O   UNL     1      28.501  56.983 138.732  1.00  0.00    -0.295 OA
ENDROOT
BRANCH   5   9
ATOM      9  C   UNL     1      26.875  57.305 143.324  1.00  0.00    -0.077 C 
ATOM     10  C   UNL     1      25.951  56.333 143.430  1.00  0.00     0.008 C 
ATOM     11  C   UNL     1      26.787  58.526 144.203  1.00  0.00     0.039 C 
ENDBRANCH   5   9
TORSDOF 1
ENDMDL
MODEL 9
REMARK VINA RESULT:    -5.780      1.989      2.954
REMARK INTER + INTRA:          -6.213
REMARK INTER:                  -6.113
REMARK INTRA:                  -0.100
REMARK UNBOUND:                -0.095
REMARK SMILES C=C(C)[C@@H]1CC=C(C)C(=O)C1
REMARK SMILES IDX 8 1 7 2 6 3 5 4 4 5 11 6 9 7 10 8 2 9 1 10 3 11
REMARK H PARENT
REMARK Flexibility Score: inf
ROOT
ATOM      1  C   UNL     1      28.001  59.971 136.705  1.00  0.00     0.048 C 
ATOM      2  C   UNL     1      27.501  59.493 138.041  1.00  0.00    -0.012 C 
ATOM      3  C   UNL     1      27.743  60.221 139.144  1.00  0.00    -0.019 C 
ATOM      4  C   UNL     1      27.251  59.799 140.504  1.00  0.00     0.036 C 
ATOM      5  C   UNL     1      27.215  58.265 140.628  1.00  0.00     0.025 C 
ATOM      6  C   UNL     1      26.379  57.653 139.489  1.00  0.00     0.089 C 
ATOM      7  C   UNL     1      26.851  58.164 138.155  1.00  0.00     0.158 C 
ATOM      8  O   UNL     1      26.654  57.463 137.126  1.00  0.00    -0.295 OA
ENDROOT
BRANCH   5   9
ATOM      9  C   UNL     1      26.715  57.822 141.994  1.00  0.00    -0.077 C 
ATOM     10  C   UNL     1      25.850  56.800 142.129  1.00  0.00     0.008 C 
ATOM     11  C   UNL     1      27.207  58.556 143.215  1.00  0.00     0.039 C 
ENDBRANCH   5   9
TORSDOF 1
ENDMDL
