MODEL 1
REMARK VINA RESULT:    -2.931      0.000      0.000
REMARK INTER + INTRA:          -4.792
REMARK INTER:                  -4.474
REMARK INTRA:                  -0.318
REMARK UNBOUND:                -0.318
REMARK SMILES CCCCCCCCCCC(=O)[O-]
REMARK SMILES IDX 7 1 8 2 9 3 10 4 11 5 12 6 13 7 6 8 5 9 4 10 3 11 2 12 1 13
REMARK H PARENT
REMARK Flexibility Score: inf
ROOT
ATOM      1  C   UNL     1      -2.809  -8.076  -5.668  1.00  0.00     0.000 C 
ENDROOT
BRANCH   1   2
ATOM      2  C   UNL     1      -1.514  -7.814  -4.878  1.00  0.00     0.000 C 
BRANCH   2   3
ATOM      3  C   UNL     1      -0.411  -7.186  -5.743  1.00  0.00     0.006 C 
BRANCH   3   4
ATOM      4  C   UNL     1       0.688  -6.520  -4.905  1.00  0.00     0.053 C 
BRANCH   4   5
ATOM      5  C   UNL     1       1.975  -7.268  -5.043  1.00  0.00     0.041 C 
ATOM      6  O   UNL     1       3.058  -6.644  -5.202  1.00  0.00    -0.550 OA
ATOM      7  O   UNL     1       1.988  -8.654  -4.947  1.00  0.00    -0.550 OA
ENDBRANCH   4   5
ENDBRANCH   3   4
ENDBRANCH   2   3
ENDBRANCH   1   2
BRANCH   1   8
ATOM      8  C   UNL     1      -3.716  -9.118  -4.994  1.00  0.00     0.000 C 
BRANCH   8   9
ATOM      9  C   UNL     1      -4.098 -10.268  -5.943  1.00  0.00    -0.000 C 
BRANCH   9  10
ATOM     10  C   UNL     1      -3.777 -11.652  -5.353  1.00  0.00    -0.000 C 
BRANCH  10  11
ATOM     11  C   UNL     1      -5.043 -12.466  -5.035  1.00  0.00    -0.000 C 
BRANCH  11  12
ATOM     12  C   UNL     1      -6.240 -12.057  -5.909  1.00  0.00    -0.003 C 
ATOM     13  C   UNL     1      -7.341 -11.353  -5.116  1.00  0.00     0.004 C 
ENDBRANCH  11  12
ENDBRANCH  10  11
ENDBRANCH   9  10
ENDBRANCH   8   9
ENDBRANCH   1   8
TORSDOF 9
ENDMDL
MODEL 2
REMARK VINA RESULT:    -2.866      4.127      7.465
REMARK INTER + INTRA:          -4.692
REMARK INTER:                  -4.328
REMARK INTRA:                  -0.364
REMARK UNBOUND:                -0.318
REMARK SMILES CCCCCCCCCCC(=O)[O-]
REMARK SMILES IDX 7 1 8 2 9 3 10 4 11 5 12 6 13 7 6 8 5 9 4 10 3 11 2 12 1 13
REMARK H PARENT
REMARK Flexibility Score: inf
ROOT
ATOM      1  C   UNL     1      -3.737  -8.627  -6.216  1.00  0.00     0.000 C 
ENDROOT
BRANCH   1   2
ATOM      2  C   UNL     1      -4.022 -10.130  -6.393  1.00  0.00     0.000 C 
BRANCH   2   3
ATOM      3  C   UNL     1      -4.026 -10.892  -5.059  1.00  0.00     0.006 C 
BRANCH   3   4
ATOM      4  C   UNL     1      -4.818 -12.203  -5.132  1.00  0.00     0.053 C 
BRANCH   4   5
ATOM      5  C   UNL     1      -6.182 -11.959  -5.696  1.00  0.00     0.041 C 
ATOM      6  O   UNL     1      -6.519 -12.482  -6.792  1.00  0.00    -0.550 OA
ATOM      7  O   UNL     1      -7.101 -11.195  -4.988  1.00  0.00    -0.550 OA
ENDBRANCH   4   5
ENDBRANCH   3   4
ENDBRANCH   2   3
ENDBRANCH   1   2
BRANCH   1   8
ATOM      8  C   UNL     1      -2.553  -8.354  -5.276  1.00  0.00     0.000 C 
BRANCH   8   9
ATOM      9  C   UNL     1      -2.095  -6.885  -5.316  1.00  0.00    -0.000 C 
BRANCH   9  10
ATOM     10  C   UNL     1      -0.624  -6.737  -5.741  1.00  0.00    -0.000 C 
BRANCH  10  11
ATOM     11  C   UNL     1       0.328  -7.581  -4.875  1.00  0.00    -0.000 C 
BRANCH  11  12
ATOM     12  C   UNL     1       1.772  -7.562  -5.403  1.00  0.00    -0.003 C 
ATOM     13  C   UNL     1       2.550  -6.323  -4.962  1.00  0.00     0.004 C 
ENDBRANCH  11  12
ENDBRANCH  10  11
ENDBRANCH   9  10
ENDBRANCH   8   9
ENDBRANCH   1   8
TORSDOF 9
ENDMDL
MODEL 3
REMARK VINA RESULT:    -2.515      3.541      8.367
REMARK INTER + INTRA:          -4.157
REMARK INTER:                  -3.991
REMARK INTRA:                  -0.166
REMARK UNBOUND:                -0.318
REMARK SMILES CCCCCCCCCCC(=O)[O-]
REMARK SMILES IDX 7 1 8 2 9 3 10 4 11 5 12 6 13 7 6 8 5 9 4 10 3 11 2 12 1 13
REMARK H PARENT
REMARK Flexibility Score: inf
ROOT
ATOM      1  C   UNL     1      -0.588  -7.969  -4.898  1.00  0.00     0.000 C 
ENDROOT
BRANCH   1   2
ATOM      2  C   UNL     1      -2.065  -7.581  -5.095  1.00  0.00     0.000 C 
BRANCH   2   3
ATOM      3  C   UNL     1      -3.017  -8.776  -4.925  1.00  0.00     0.006 C 
BRANCH   3   4
ATOM      4  C   UNL     1      -3.629  -9.234  -6.255  1.00  0.00     0.053 C 
BRANCH   4   5
ATOM      5  C   UNL     1      -4.501 -10.431  -6.043  1.00  0.00     0.041 C 
ATOM      6  O   UNL     1      -4.620 -10.934  -4.894  1.00  0.00    -0.550 OA
ATOM      7  O   UNL     1      -5.224 -10.962  -7.104  1.00  0.00    -0.550 OA
ENDBRANCH   4   5
ENDBRANCH   3   4
ENDBRANCH   2   3
ENDBRANCH   1   2
BRANCH   1   8
ATOM      8  C   UNL     1       0.381  -6.925  -5.474  1.00  0.00     0.000 C 
BRANCH   8   9
ATOM      9  C   UNL     1       1.795  -7.039  -4.875  1.00  0.00    -0.000 C 
BRANCH   9  10
ATOM     10  C   UNL     1       2.598  -5.734  -5.003  1.00  0.00    -0.000 C 
BRANCH  10  11
ATOM     11  C   UNL     1       3.992  -5.956  -5.617  1.00  0.00    -0.000 C 
BRANCH  11  12
ATOM     12  C   UNL     1       5.071  -5.085  -4.953  1.00  0.00    -0.003 C 
ATOM     13  C   UNL     1       6.390  -5.084  -5.724  1.00  0.00     0.004 C 
ENDBRANCH  11  12
ENDBRANCH  10  11
ENDBRANCH   9  10
ENDBRANCH   8   9
ENDBRANCH   1   8
TORSDOF 9
ENDMDL
MODEL 4
REMARK VINA RESULT:    -2.435     18.352     20.289
REMARK INTER + INTRA:          -4.035
REMARK INTER:                  -3.664
REMARK INTRA:                  -0.371
REMARK UNBOUND:                -0.318
REMARK SMILES CCCCCCCCCCC(=O)[O-]
REMARK SMILES IDX 7 1 8 2 9 3 10 4 11 5 12 6 13 7 6 8 5 9 4 10 3 11 2 12 1 13
REMARK H PARENT
REMARK Flexibility Score: inf
ROOT
ATOM      1  C   UNL     1       9.124  -5.982 -22.433  1.00  0.00     0.000 C 
ENDROOT
BRANCH   1   2
ATOM      2  C   UNL     1       8.949  -4.875 -23.489  1.00  0.00     0.000 C 
BRANCH   2   3
ATOM      3  C   UNL     1       7.772  -5.146 -24.438  1.00  0.00     0.006 C 
BRANCH   3   4
ATOM      4  C   UNL     1       6.411  -4.917 -23.768  1.00  0.00     0.053 C 
BRANCH   4   5
ATOM      5  C   UNL     1       5.501  -6.076 -24.024  1.00  0.00     0.041 C 
ATOM      6  O   UNL     1       5.807  -7.226 -23.612  1.00  0.00    -0.550 OA
ATOM      7  O   UNL     1       4.289  -5.878 -24.675  1.00  0.00    -0.550 OA
ENDBRANCH   4   5
ENDBRANCH   3   4
ENDBRANCH   2   3
ENDBRANCH   1   2
BRANCH   1   8
ATOM      8  C   UNL     1       8.825  -7.384 -22.987  1.00  0.00     0.000 C 
BRANCH   8   9
ATOM      9  C   UNL     1       8.915  -8.477 -21.907  1.00  0.00    -0.000 C 
BRANCH   9  10
ATOM     10  C   UNL     1       7.934  -8.242 -20.746  1.00  0.00    -0.000 C 
BRANCH  10  11
ATOM     11  C   UNL     1       7.240  -9.538 -20.290  1.00  0.00    -0.000 C 
BRANCH  11  12
ATOM     12  C   UNL     1       8.189 -10.476 -19.528  1.00  0.00    -0.003 C 
ATOM     13  C   UNL     1       8.842  -9.807 -18.318  1.00  0.00     0.004 C 
ENDBRANCH  11  12
ENDBRANCH  10  11
ENDBRANCH   9  10
ENDBRANCH   8   9
ENDBRANCH   1   8
TORSDOF 9
ENDMDL
MODEL 5
REMARK VINA RESULT:    -2.309      1.321      2.036
REMARK INTER + INTRA:          -3.843
REMARK INTER:                  -3.463
REMARK INTRA:                  -0.380
REMARK UNBOUND:                -0.318
REMARK SMILES CCCCCCCCCCC(=O)[O-]
REMARK SMILES IDX 7 1 8 2 9 3 10 4 11 5 12 6 13 7 6 8 5 9 4 10 3 11 2 12 1 13
REMARK H PARENT
REMARK Flexibility Score: inf
ROOT
ATOM      1  C   UNL     1      -1.594  -7.343  -5.897  1.00  0.00     0.000 C 
ENDROOT
BRANCH   1   2
ATOM      2  C   UNL     1      -0.078  -7.431  -6.151  1.00  0.00     0.000 C 
BRANCH   2   3
ATOM      3  C   UNL     1       0.742  -6.662  -5.103  1.00  0.00     0.006 C 
BRANCH   3   4
ATOM      4  C   UNL     1       2.130  -7.275  -4.875  1.00  0.00     0.053 C 
BRANCH   4   5
ATOM      5  C   UNL     1       3.186  -6.218  -4.953  1.00  0.00     0.041 C 
ATOM      6  O   UNL     1       4.404  -6.538  -4.947  1.00  0.00    -0.550 OA
ATOM      7  O   UNL     1       2.825  -4.883  -5.082  1.00  0.00    -0.550 OA
ENDBRANCH   4   5
ENDBRANCH   3   4
ENDBRANCH   2   3
ENDBRANCH   1   2
BRANCH   1   8
ATOM      8  C   UNL     1      -2.085  -8.380  -4.875  1.00  0.00     0.000 C 
BRANCH   8   9
ATOM      9  C   UNL     1      -3.536  -8.825  -5.137  1.00  0.00    -0.000 C 
BRANCH   9  10
ATOM     10  C   UNL     1      -3.762  -9.273  -6.591  1.00  0.00    -0.000 C 
BRANCH  10  11
ATOM     11  C   UNL     1      -4.553 -10.590  -6.686  1.00  0.00    -0.000 C 
BRANCH  11  12
ATOM     12  C   UNL     1      -5.361 -10.883  -5.411  1.00  0.00    -0.003 C 
ATOM     13  C   UNL     1      -6.392 -11.995  -5.604  1.00  0.00     0.004 C 
ENDBRANCH  11  12
ENDBRANCH  10  11
ENDBRANCH   9  10
ENDBRANCH   8   9
ENDBRANCH   1   8
TORSDOF 9
ENDMDL
