MODEL 1
REMARK VINA RESULT:    -4.234      0.000      0.000
REMARK INTER + INTRA:          -5.241
REMARK INTER:                  -5.101
REMARK INTRA:                  -0.140
REMARK UNBOUND:                -0.140
REMARK SMILES CC[C@@H](C)[C@@H]([NH3+])C(=O)[O-]
REMARK SMILES IDX 3 1 4 2 5 3 6 4 7 8 8 9 9 10 2 11 1 12
REMARK H PARENT 6 5 6 6 6 7
REMARK Flexibility Score: inf
ROOT
ATOM      1  C   UNL     1      20.683  12.891  38.739  1.00  0.00     0.050 C 
ATOM      2  C   UNL     1      20.487  11.712  39.708  1.00  0.00     0.014 C 
ENDROOT
BRANCH   1   3
ATOM      3  C   UNL     1      20.919  12.373  37.281  1.00  0.00     0.230 C 
BRANCH   3   4
ATOM      4  N   UNL     1      20.032  11.255  36.921  1.00  0.00    -0.350 N 
ATOM      5  H   UNL     1      20.603  10.466  36.540  1.00  0.00     0.345 HD
ATOM      6  H   UNL     1      19.526  10.902  37.765  1.00  0.00     0.345 HD
ATOM      7  H   UNL     1      19.335  11.541  36.195  1.00  0.00     0.345 HD
ENDBRANCH   3   4
BRANCH   3   8
ATOM      8  C   UNL     1      20.841  13.494  36.268  1.00  0.00     0.099 C 
ATOM      9  O   UNL     1      19.968  13.491  35.360  1.00  0.00    -0.544 OA
ATOM     10  O   UNL     1      21.766  14.529  36.315  1.00  0.00    -0.544 OA
ENDBRANCH   3   8
ENDBRANCH   1   3
BRANCH   1  11
ATOM     11  C   UNL     1      19.510  13.891  38.906  1.00  0.00     0.006 C 
ATOM     12  C   UNL     1      19.935  15.251  39.458  1.00  0.00     0.004 C 
ENDBRANCH   1  11
TORSDOF 4
ENDMDL
MODEL 2
REMARK VINA RESULT:    -4.186     20.378     21.218
REMARK INTER + INTRA:          -5.183
REMARK INTER:                  -5.120
REMARK INTRA:                  -0.063
REMARK UNBOUND:                -0.140
REMARK SMILES CC[C@@H](C)[C@@H]([NH3+])C(=O)[O-]
REMARK SMILES IDX 3 1 4 2 5 3 6 4 7 8 8 9 9 10 2 11 1 12
REMARK H PARENT 6 5 6 6 6 7
REMARK Flexibility Score: inf
ROOT
ATOM      1  C   UNL     1      36.542  25.380  33.751  1.00  0.00     0.050 C 
ATOM      2  C   UNL     1      37.293  24.586  32.668  1.00  0.00     0.014 C 
ENDROOT
BRANCH   1   3
ATOM      3  C   UNL     1      37.431  26.548  34.294  1.00  0.00     0.230 C 
BRANCH   3   4
ATOM      4  N   UNL     1      37.224  27.810  33.565  1.00  0.00    -0.350 N 
ATOM      5  H   UNL     1      36.199  27.974  33.436  1.00  0.00     0.345 HD
ATOM      6  H   UNL     1      37.608  28.615  34.109  1.00  0.00     0.345 HD
ATOM      7  H   UNL     1      37.676  27.783  32.622  1.00  0.00     0.345 HD
ENDBRANCH   3   4
BRANCH   3   8
ATOM      8  C   UNL     1      37.262  26.734  35.787  1.00  0.00     0.099 C 
ATOM      9  O   UNL     1      36.336  26.156  36.414  1.00  0.00    -0.544 OA
ATOM     10  O   UNL     1      38.121  27.582  36.475  1.00  0.00    -0.544 OA
ENDBRANCH   3   8
ENDBRANCH   1   3
BRANCH   1  11
ATOM     11  C   UNL     1      35.153  25.803  33.206  1.00  0.00     0.006 C 
ATOM     12  C   UNL     1      34.070  24.741  33.395  1.00  0.00     0.004 C 
ENDBRANCH   1  11
TORSDOF 4
ENDMDL
MODEL 3
REMARK VINA RESULT:    -4.162     21.058     21.741
REMARK INTER + INTRA:          -5.154
REMARK INTER:                  -5.064
REMARK INTRA:                  -0.090
REMARK UNBOUND:                -0.140
REMARK SMILES CC[C@@H](C)[C@@H]([NH3+])C(=O)[O-]
REMARK SMILES IDX 3 1 4 2 5 3 6 4 7 8 8 9 9 10 2 11 1 12
REMARK H PARENT 6 5 6 6 6 7
REMARK Flexibility Score: inf
ROOT
ATOM      1  C   UNL     1      37.366  26.432  35.683  1.00  0.00     0.050 C 
ATOM      2  C   UNL     1      36.552  27.132  36.785  1.00  0.00     0.014 C 
ENDROOT
BRANCH   1   3
ATOM      3  C   UNL     1      36.716  26.673  34.279  1.00  0.00     0.230 C 
BRANCH   3   4
ATOM      4  N   UNL     1      37.385  27.738  33.515  1.00  0.00    -0.350 N 
ATOM      5  H   UNL     1      36.674  28.435  33.193  1.00  0.00     0.345 HD
ATOM      6  H   UNL     1      38.075  28.243  34.116  1.00  0.00     0.345 HD
ATOM      7  H   UNL     1      37.875  27.353  32.675  1.00  0.00     0.345 HD
ENDBRANCH   3   4
BRANCH   3   8
ATOM      8  C   UNL     1      36.616  25.393  33.480  1.00  0.00     0.099 C 
ATOM      9  O   UNL     1      35.556  24.714  33.468  1.00  0.00    -0.544 OA
ATOM     10  O   UNL     1      37.721  24.936  32.772  1.00  0.00    -0.544 OA
ENDBRANCH   3   8
ENDBRANCH   1   3
BRANCH   1  11
ATOM     11  C   UNL     1      38.855  26.849  35.804  1.00  0.00     0.006 C 
ATOM     12  C   UNL     1      39.125  27.840  36.936  1.00  0.00     0.004 C 
ENDBRANCH   1  11
TORSDOF 4
ENDMDL
MODEL 4
REMARK VINA RESULT:    -4.032     20.342     21.095
REMARK INTER + INTRA:          -4.997
REMARK INTER:                  -5.071
REMARK INTRA:                   0.075
REMARK UNBOUND:                -0.140
REMARK SMILES CC[C@@H](C)[C@@H]([NH3+])C(=O)[O-]
REMARK SMILES IDX 3 1 4 2 5 3 6 4 7 8 8 9 9 10 2 11 1 12
REMARK H PARENT 6 5 6 6 6 7
REMARK Flexibility Score: inf
ROOT
ATOM      1  C   UNL     1      37.551  26.547  33.899  1.00  0.00     0.050 C 
ATOM      2  C   UNL     1      39.080  26.491  33.725  1.00  0.00     0.014 C 
ENDROOT
BRANCH   1   3
ATOM      3  C   UNL     1      36.849  25.547  32.922  1.00  0.00     0.230 C 
BRANCH   3   4
ATOM      4  N   UNL     1      37.660  24.349  32.649  1.00  0.00    -0.350 N 
ATOM      5  H   UNL     1      37.326  23.558  33.246  1.00  0.00     0.345 HD
ATOM      6  H   UNL     1      37.559  24.058  31.651  1.00  0.00     0.345 HD
ATOM      7  H   UNL     1      38.671  24.519  32.858  1.00  0.00     0.345 HD
ENDBRANCH   3   4
BRANCH   3   8
ATOM      8  C   UNL     1      35.459  25.181  33.397  1.00  0.00     0.099 C 
ATOM      9  O   UNL     1      35.267  24.182  34.139  1.00  0.00    -0.544 OA
ATOM     10  O   UNL     1      34.370  25.937  32.983  1.00  0.00    -0.544 OA
ENDBRANCH   3   8
ENDBRANCH   1   3
BRANCH   1  11
ATOM     11  C   UNL     1      37.200  26.366  35.399  1.00  0.00     0.006 C 
ATOM     12  C   UNL     1      37.647  27.533  36.279  1.00  0.00     0.004 C 
ENDBRANCH   1  11
TORSDOF 4
ENDMDL
MODEL 5
REMARK VINA RESULT:    -3.993      2.453      3.803
REMARK INTER + INTRA:          -4.951
REMARK INTER:                  -4.952
REMARK INTRA:                   0.001
REMARK UNBOUND:                -0.140
REMARK SMILES CC[C@@H](C)[C@@H]([NH3+])C(=O)[O-]
REMARK SMILES IDX 3 1 4 2 5 3 6 4 7 8 8 9 9 10 2 11 1 12
REMARK H PARENT 6 5 6 6 6 7
REMARK Flexibility Score: inf
ROOT
ATOM      1  C   UNL     1      21.100  13.552  36.723  1.00  0.00     0.050 C 
ATOM      2  C   UNL     1      21.840  14.886  36.517  1.00  0.00     0.014 C 
ENDROOT
BRANCH   1   3
ATOM      3  C   UNL     1      20.591  13.426  38.198  1.00  0.00     0.230 C 
BRANCH   3   4
ATOM      4  N   UNL     1      19.231  13.960  38.380  1.00  0.00    -0.350 N 
ATOM      5  H   UNL     1      19.264  15.006  38.377  1.00  0.00     0.345 HD
ATOM      6  H   UNL     1      18.611  13.660  37.595  1.00  0.00     0.345 HD
ATOM      7  H   UNL     1      18.817  13.645  39.287  1.00  0.00     0.345 HD
ENDBRANCH   3   4
BRANCH   3   8
ATOM      8  C   UNL     1      20.705  12.008  38.712  1.00  0.00     0.099 C 
ATOM      9  O   UNL     1      21.031  11.773  39.905  1.00  0.00    -0.544 OA
ATOM     10  O   UNL     1      20.480  10.943  37.849  1.00  0.00    -0.544 OA
ENDBRANCH   3   8
ENDBRANCH   1   3
BRANCH   1  11
ATOM     11  C   UNL     1      20.011  13.397  35.630  1.00  0.00     0.006 C 
ATOM     12  C   UNL     1      20.512  13.694  34.217  1.00  0.00     0.004 C 
ENDBRANCH   1  11
TORSDOF 4
ENDMDL
MODEL 6
REMARK VINA RESULT:    -3.934      1.119      1.772
REMARK INTER + INTRA:          -4.879
REMARK INTER:                  -4.813
REMARK INTRA:                  -0.065
REMARK UNBOUND:                -0.140
REMARK SMILES CC[C@@H](C)[C@@H]([NH3+])C(=O)[O-]
REMARK SMILES IDX 3 1 4 2 5 3 6 4 7 8 8 9 9 10 2 11 1 12
REMARK H PARENT 6 5 6 6 6 7
REMARK Flexibility Score: inf
ROOT
ATOM      1  C   UNL     1      19.555  13.858  38.926  1.00  0.00     0.050 C 
ATOM      2  C   UNL     1      19.989  15.284  39.309  1.00  0.00     0.014 C 
ENDROOT
BRANCH   1   3
ATOM      3  C   UNL     1      20.654  13.163  38.054  1.00  0.00     0.230 C 
BRANCH   3   4
ATOM      4  N   UNL     1      20.413  11.722  37.872  1.00  0.00    -0.350 N 
ATOM      5  H   UNL     1      21.264  11.187  38.160  1.00  0.00     0.345 HD
ATOM      6  H   UNL     1      19.620  11.405  38.473  1.00  0.00     0.345 HD
ATOM      7  H   UNL     1      20.201  11.496  36.873  1.00  0.00     0.345 HD
ENDBRANCH   3   4
BRANCH   3   8
ATOM      8  C   UNL     1      20.847  13.867  36.729  1.00  0.00     0.099 C 
ATOM      9  O   UNL     1      20.068  13.659  35.762  1.00  0.00    -0.544 OA
ATOM     10  O   UNL     1      21.920  14.733  36.560  1.00  0.00    -0.544 OA
ENDBRANCH   3   8
ENDBRANCH   1   3
BRANCH   1  11
ATOM     11  C   UNL     1      19.140  13.088  40.206  1.00  0.00     0.006 C 
ATOM     12  C   UNL     1      19.971  13.452  41.437  1.00  0.00     0.004 C 
ENDBRANCH   1  11
TORSDOF 4
ENDMDL
MODEL 7
REMARK VINA RESULT:    -3.797     21.423     22.128
REMARK INTER + INTRA:          -4.714
REMARK INTER:                  -4.857
REMARK INTRA:                   0.143
REMARK UNBOUND:                -0.140
REMARK SMILES CC[C@@H](C)[C@@H]([NH3+])C(=O)[O-]
REMARK SMILES IDX 3 1 4 2 5 3 6 4 7 8 8 9 9 10 2 11 1 12
REMARK H PARENT 6 5 6 6 6 7
REMARK Flexibility Score: inf
ROOT
ATOM      1  C   UNL     1      37.675  26.819  35.021  1.00  0.00     0.050 C 
ATOM      2  C   UNL     1      39.105  26.573  35.533  1.00  0.00     0.014 C 
ENDROOT
BRANCH   1   3
ATOM      3  C   UNL     1      37.369  25.912  33.783  1.00  0.00     0.230 C 
BRANCH   3   4
ATOM      4  N   UNL     1      36.107  26.267  33.111  1.00  0.00    -0.350 N 
ATOM      5  H   UNL     1      36.133  27.275  32.832  1.00  0.00     0.345 HD
ATOM      6  H   UNL     1      35.982  25.701  32.243  1.00  0.00     0.345 HD
ATOM      7  H   UNL     1      35.286  26.119  33.742  1.00  0.00     0.345 HD
ENDBRANCH   3   4
BRANCH   3   8
ATOM      8  C   UNL     1      38.527  25.881  32.810  1.00  0.00     0.099 C 
ATOM      9  O   UNL     1      39.107  26.941  32.455  1.00  0.00    -0.544 OA
ATOM     10  O   UNL     1      38.940  24.669  32.271  1.00  0.00    -0.544 OA
ENDBRANCH   3   8
ENDBRANCH   1   3
BRANCH   1  11
ATOM     11  C   UNL     1      36.679  26.686  36.202  1.00  0.00     0.006 C 
ATOM     12  C   UNL     1      36.833  27.776  37.262  1.00  0.00     0.004 C 
ENDBRANCH   1  11
TORSDOF 4
ENDMDL
MODEL 8
REMARK VINA RESULT:    -3.792     21.186     22.066
REMARK INTER + INTRA:          -4.708
REMARK INTER:                  -4.620
REMARK INTRA:                  -0.088
REMARK UNBOUND:                -0.140
REMARK SMILES CC[C@@H](C)[C@@H]([NH3+])C(=O)[O-]
REMARK SMILES IDX 3 1 4 2 5 3 6 4 7 8 8 9 9 10 2 11 1 12
REMARK H PARENT 6 5 6 6 6 7
REMARK Flexibility Score: inf
ROOT
ATOM      1  C   UNL     1      37.117  26.525  34.213  1.00  0.00     0.050 C 
ATOM      2  C   UNL     1      36.060  25.469  33.843  1.00  0.00     0.014 C 
ENDROOT
BRANCH   1   3
ATOM      3  C   UNL     1      37.653  26.283  35.664  1.00  0.00     0.230 C 
BRANCH   3   4
ATOM      4  N   UNL     1      39.123  26.298  35.741  1.00  0.00    -0.350 N 
ATOM      5  H   UNL     1      39.477  27.240  35.454  1.00  0.00     0.345 HD
ATOM      6  H   UNL     1      39.440  26.125  36.721  1.00  0.00     0.345 HD
ATOM      7  H   UNL     1      39.544  25.579  35.109  1.00  0.00     0.345 HD
ENDBRANCH   3   4
BRANCH   3   8
ATOM      8  C   UNL     1      37.034  27.241  36.658  1.00  0.00     0.099 C 
ATOM      9  O   UNL     1      37.639  28.285  37.020  1.00  0.00    -0.544 OA
ATOM     10  O   UNL     1      35.791  26.954  37.209  1.00  0.00    -0.544 OA
ENDBRANCH   3   8
ENDBRANCH   1   3
BRANCH   1  11
ATOM     11  C   UNL     1      38.202  26.573  33.106  1.00  0.00     0.006 C 
ATOM     12  C   UNL     1      38.370  25.253  32.354  1.00  0.00     0.004 C 
ENDBRANCH   1  11
TORSDOF 4
ENDMDL
MODEL 9
REMARK VINA RESULT:    -3.734      1.678      2.365
REMARK INTER + INTRA:          -4.638
REMARK INTER:                  -4.736
REMARK INTRA:                   0.098
REMARK UNBOUND:                -0.140
REMARK SMILES CC[C@@H](C)[C@@H]([NH3+])C(=O)[O-]
REMARK SMILES IDX 3 1 4 2 5 3 6 4 7 8 8 9 9 10 2 11 1 12
REMARK H PARENT 6 5 6 6 6 7
REMARK Flexibility Score: inf
ROOT
ATOM      1  C   UNL     1      20.939  12.383  38.460  1.00  0.00     0.050 C 
ATOM      2  C   UNL     1      20.697  11.146  37.578  1.00  0.00     0.014 C 
ENDROOT
BRANCH   1   3
ATOM      3  C   UNL     1      20.253  13.646  37.840  1.00  0.00     0.230 C 
BRANCH   3   4
ATOM      4  N   UNL     1      20.335  14.828  38.713  1.00  0.00    -0.350 N 
ATOM      5  H   UNL     1      19.762  15.603  38.305  1.00  0.00     0.345 HD
ATOM      6  H   UNL     1      19.949  14.612  39.659  1.00  0.00     0.345 HD
ATOM      7  H   UNL     1      21.321  15.162  38.810  1.00  0.00     0.345 HD
ENDBRANCH   3   4
BRANCH   3   8
ATOM      8  C   UNL     1      20.774  13.942  36.451  1.00  0.00     0.099 C 
ATOM      9  O   UNL     1      21.889  14.502  36.281  1.00  0.00    -0.544 OA
ATOM     10  O   UNL     1      20.000  13.624  35.343  1.00  0.00    -0.544 OA
ENDBRANCH   3   8
ENDBRANCH   1   3
BRANCH   1  11
ATOM     11  C   UNL     1      20.530  12.057  39.920  1.00  0.00     0.006 C 
ATOM     12  C   UNL     1      19.036  12.233  40.193  1.00  0.00     0.004 C 
ENDBRANCH   1  11
TORSDOF 4
ENDMDL
