MODEL 1
REMARK VINA RESULT:    -0.474      0.000      0.000
REMARK INTER + INTRA:          -0.955
REMARK INTER:                  -0.668
REMARK INTRA:                  -0.287
REMARK UNBOUND:                -0.287
REMARK SMILES CCCCCCCCC(=O)[O-]
REMARK SMILES IDX 6 1 7 2 8 3 9 4 10 5 11 6 5 7 4 8 3 9 2 10 1 11
REMARK H PARENT
REMARK Flexibility Score: inf
ROOT
ATOM      1  C   UNL     1      67.883  77.489  96.271  1.00  0.00     0.000 C 
ENDROOT
BRANCH   1   2
ATOM      2  C   UNL     1      67.877  77.803  97.777  1.00  0.00     0.006 C 
BRANCH   2   3
ATOM      3  C   UNL     1      68.256  79.262  98.066  1.00  0.00     0.053 C 
BRANCH   3   4
ATOM      4  C   UNL     1      68.970  79.405  99.375  1.00  0.00     0.041 C 
ATOM      5  O   UNL     1      70.112  78.901  99.532  1.00  0.00    -0.550 OA
ATOM      6  O   UNL     1      68.360  80.069 100.432  1.00  0.00    -0.550 OA
ENDBRANCH   3   4
ENDBRANCH   2   3
ENDBRANCH   1   2
BRANCH   1   7
ATOM      7  C   UNL     1      67.934  78.756  95.402  1.00  0.00     0.000 C 
BRANCH   7   8
ATOM      8  C   UNL     1      67.875  78.441  93.896  1.00  0.00    -0.000 C 
BRANCH   8   9
ATOM      9  C   UNL     1      67.932  76.933  93.608  1.00  0.00    -0.000 C 
BRANCH   9  10
ATOM     10  C   UNL     1      68.460  76.617  92.200  1.00  0.00    -0.003 C 
ATOM     11  C   UNL     1      68.346  75.126  91.893  1.00  0.00     0.004 C 
ENDBRANCH   9  10
ENDBRANCH   8   9
ENDBRANCH   7   8
ENDBRANCH   1   7
TORSDOF 7
ENDMDL
MODEL 2
REMARK VINA RESULT:     0.070     25.877     26.937
REMARK INTER + INTRA:          -0.188
REMARK INTER:                   0.077
REMARK INTRA:                  -0.264
REMARK UNBOUND:                -0.287
REMARK SMILES CCCCCCCCC(=O)[O-]
REMARK SMILES IDX 6 1 7 2 8 3 9 4 10 5 11 6 5 7 4 8 3 9 2 10 1 11
REMARK H PARENT
REMARK Flexibility Score: inf
ROOT
ATOM      1  C   UNL     1      85.871  66.045 110.243  1.00  0.00     0.000 C 
ENDROOT
BRANCH   1   2
ATOM      2  C   UNL     1      87.185  65.348 109.850  1.00  0.00     0.006 C 
BRANCH   2   3
ATOM      3  C   UNL     1      87.504  64.155 110.761  1.00  0.00     0.053 C 
BRANCH   3   4
ATOM      4  C   UNL     1      87.387  62.850 110.034  1.00  0.00     0.041 C 
ATOM      5  O   UNL     1      86.650  61.936 110.487  1.00  0.00    -0.550 OA
ATOM      6  O   UNL     1      88.115  62.634 108.871  1.00  0.00    -0.550 OA
ENDBRANCH   3   4
ENDBRANCH   2   3
ENDBRANCH   1   2
BRANCH   1   7
ATOM      7  C   UNL     1      86.102  67.407 110.919  1.00  0.00     0.000 C 
BRANCH   7   8
ATOM      8  C   UNL     1      87.580  67.835 110.895  1.00  0.00    -0.000 C 
BRANCH   8   9
ATOM      9  C   UNL     1      87.793  69.172 110.167  1.00  0.00    -0.000 C 
BRANCH   9  10
ATOM     10  C   UNL     1      87.784  70.376 111.122  1.00  0.00    -0.003 C 
ATOM     11  C   UNL     1      87.929  71.686 110.354  1.00  0.00     0.004 C 
ENDBRANCH   9  10
ENDBRANCH   8   9
ENDBRANCH   7   8
ENDBRANCH   1   7
TORSDOF 7
ENDMDL
MODEL 3
REMARK VINA RESULT:     0.425     16.439     18.044
REMARK INTER + INTRA:           0.312
REMARK INTER:                  -0.150
REMARK INTRA:                   0.462
REMARK UNBOUND:                -0.287
REMARK SMILES CCCCCCCCC(=O)[O-]
REMARK SMILES IDX 6 1 7 2 8 3 9 4 10 5 11 6 5 7 4 8 3 9 2 10 1 11
REMARK H PARENT
REMARK Flexibility Score: inf
ROOT
ATOM      1  C   UNL     1      75.609  62.309  98.073  1.00  0.00     0.000 C 
ENDROOT
BRANCH   1   2
ATOM      2  C   UNL     1      74.981  60.904  98.076  1.00  0.00     0.006 C 
BRANCH   2   3
ATOM      3  C   UNL     1      75.304  60.123  96.794  1.00  0.00     0.053 C 
BRANCH   3   4
ATOM      4  C   UNL     1      76.777  60.066  96.532  1.00  0.00     0.041 C 
ATOM      5  O   UNL     1      77.586  59.919  97.486  1.00  0.00    -0.550 OA
ATOM      6  O   UNL     1      77.260  60.205  95.237  1.00  0.00    -0.550 OA
ENDBRANCH   3   4
ENDBRANCH   2   3
ENDBRANCH   1   2
BRANCH   1   7
ATOM      7  C   UNL     1      75.038  63.215  99.176  1.00  0.00     0.000 C 
BRANCH   7   8
ATOM      8  C   UNL     1      74.103  64.304  98.620  1.00  0.00    -0.000 C 
BRANCH   8   9
ATOM      9  C   UNL     1      74.621  64.910  97.306  1.00  0.00    -0.000 C 
BRANCH   9  10
ATOM     10  C   UNL     1      74.299  64.038  96.083  1.00  0.00    -0.003 C 
ATOM     11  C   UNL     1      75.555  63.763  95.260  1.00  0.00     0.004 C 
ENDBRANCH   9  10
ENDBRANCH   8   9
ENDBRANCH   7   8
ENDBRANCH   1   7
TORSDOF 7
ENDMDL
MODEL 4
REMARK VINA RESULT:     0.806     15.673     17.220
REMARK INTER + INTRA:           0.849
REMARK INTER:                   0.486
REMARK INTRA:                   0.363
REMARK UNBOUND:                -0.287
REMARK SMILES CCCCCCCCC(=O)[O-]
REMARK SMILES IDX 6 1 7 2 8 3 9 4 10 5 11 6 5 7 4 8 3 9 2 10 1 11
REMARK H PARENT
REMARK Flexibility Score: inf
ROOT
ATOM      1  C   UNL     1      75.390  63.175  95.937  1.00  0.00     0.000 C 
ENDROOT
BRANCH   1   2
ATOM      2  C   UNL     1      74.252  64.137  96.320  1.00  0.00     0.006 C 
BRANCH   2   3
ATOM      3  C   UNL     1      74.610  65.000  97.539  1.00  0.00     0.053 C 
BRANCH   3   4
ATOM      4  C   UNL     1      74.141  64.379  98.819  1.00  0.00     0.041 C 
ATOM      5  O   UNL     1      72.910  64.236  99.040  1.00  0.00    -0.550 OA
ATOM      6  O   UNL     1      75.062  63.986  99.781  1.00  0.00    -0.550 OA
ENDBRANCH   3   4
ENDBRANCH   2   3
ENDBRANCH   1   2
BRANCH   1   7
ATOM      7  C   UNL     1      75.975  62.434  97.150  1.00  0.00     0.000 C 
BRANCH   7   8
ATOM      8  C   UNL     1      75.070  61.286  97.634  1.00  0.00    -0.000 C 
BRANCH   8   9
ATOM      9  C   UNL     1      75.533  59.915  97.117  1.00  0.00    -0.000 C 
BRANCH   9  10
ATOM     10  C   UNL     1      77.037  59.875  96.805  1.00  0.00    -0.003 C 
ATOM     11  C   UNL     1      77.294  60.080  95.315  1.00  0.00     0.004 C 
ENDBRANCH   9  10
ENDBRANCH   8   9
ENDBRANCH   7   8
ENDBRANCH   1   7
TORSDOF 7
ENDMDL
MODEL 5
REMARK VINA RESULT:     0.901     16.015     17.522
REMARK INTER + INTRA:           0.983
REMARK INTER:                   0.629
REMARK INTRA:                   0.354
REMARK UNBOUND:                -0.287
REMARK SMILES CCCCCCCCC(=O)[O-]
REMARK SMILES IDX 6 1 7 2 8 3 9 4 10 5 11 6 5 7 4 8 3 9 2 10 1 11
REMARK H PARENT
REMARK Flexibility Score: inf
ROOT
ATOM      1  C   UNL     1      75.249  63.196  99.110  1.00  0.00     0.000 C 
ENDROOT
BRANCH   1   2
ATOM      2  C   UNL     1      74.222  64.208  98.573  1.00  0.00     0.006 C 
BRANCH   2   3
ATOM      3  C   UNL     1      74.755  64.987  97.363  1.00  0.00     0.053 C 
BRANCH   3   4
ATOM      4  C   UNL     1      74.720  64.166  96.111  1.00  0.00     0.041 C 
ATOM      5  O   UNL     1      73.658  63.588  95.761  1.00  0.00    -0.550 OA
ATOM      6  O   UNL     1      75.870  64.014  95.346  1.00  0.00    -0.550 OA
ENDBRANCH   3   4
ENDBRANCH   2   3
ENDBRANCH   1   2
BRANCH   1   7
ATOM      7  C   UNL     1      75.733  62.213  98.030  1.00  0.00     0.000 C 
BRANCH   7   8
ATOM      8  C   UNL     1      74.947  60.889  98.043  1.00  0.00    -0.000 C 
BRANCH   8   9
ATOM      9  C   UNL     1      75.399  59.927  96.933  1.00  0.00    -0.000 C 
BRANCH   9  10
ATOM     10  C   UNL     1      76.927  59.875  96.778  1.00  0.00    -0.003 C 
ATOM     11  C   UNL     1      77.345  60.203  95.347  1.00  0.00     0.004 C 
ENDBRANCH   9  10
ENDBRANCH   8   9
ENDBRANCH   7   8
ENDBRANCH   1   7
TORSDOF 7
ENDMDL
MODEL 6
REMARK VINA RESULT:     1.420     16.576     18.278
REMARK INTER + INTRA:           1.714
REMARK INTER:                   0.701
REMARK INTRA:                   1.013
REMARK UNBOUND:                -0.287
REMARK SMILES CCCCCCCCC(=O)[O-]
REMARK SMILES IDX 6 1 7 2 8 3 9 4 10 5 11 6 5 7 4 8 3 9 2 10 1 11
REMARK H PARENT
REMARK Flexibility Score: inf
ROOT
ATOM      1  C   UNL     1      75.700  62.243  97.507  1.00  0.00     0.000 C 
ENDROOT
BRANCH   1   2
ATOM      2  C   UNL     1      75.005  60.876  97.629  1.00  0.00     0.006 C 
BRANCH   2   3
ATOM      3  C   UNL     1      75.506  59.875  96.579  1.00  0.00     0.053 C 
BRANCH   3   4
ATOM      4  C   UNL     1      76.995  59.928  96.424  1.00  0.00     0.041 C 
ATOM      5  O   UNL     1      77.738  59.949  97.440  1.00  0.00    -0.550 OA
ATOM      6  O   UNL     1      77.562  59.984  95.157  1.00  0.00    -0.550 OA
ENDBRANCH   3   4
ENDBRANCH   2   3
ENDBRANCH   1   2
BRANCH   1   7
ATOM      7  C   UNL     1      75.194  63.060  96.307  1.00  0.00     0.000 C 
BRANCH   7   8
ATOM      8  C   UNL     1      74.585  64.410  96.727  1.00  0.00    -0.000 C 
BRANCH   8   9
ATOM      9  C   UNL     1      73.606  64.273  97.905  1.00  0.00    -0.000 C 
BRANCH   9  10
ATOM     10  C   UNL     1      74.211  64.740  99.237  1.00  0.00    -0.003 C 
ATOM     11  C   UNL     1      75.344  63.817  99.679  1.00  0.00     0.004 C 
ENDBRANCH   9  10
ENDBRANCH   8   9
ENDBRANCH   7   8
ENDBRANCH   1   7
TORSDOF 7
ENDMDL
MODEL 7
REMARK VINA RESULT:     1.581     25.422     26.951
REMARK INTER + INTRA:           1.942
REMARK INTER:                   1.681
REMARK INTRA:                   0.260
REMARK UNBOUND:                -0.287
REMARK SMILES CCCCCCCCC(=O)[O-]
REMARK SMILES IDX 6 1 7 2 8 3 9 4 10 5 11 6 5 7 4 8 3 9 2 10 1 11
REMARK H PARENT
REMARK Flexibility Score: inf
ROOT
ATOM      1  C   UNL     1      86.252  65.428 109.598  1.00  0.00     0.000 C 
ENDROOT
BRANCH   1   2
ATOM      2  C   UNL     1      86.851  64.767 110.851  1.00  0.00     0.006 C 
BRANCH   2   3
ATOM      3  C   UNL     1      88.078  63.906 110.521  1.00  0.00     0.053 C 
BRANCH   3   4
ATOM      4  C   UNL     1      87.691  62.592 109.915  1.00  0.00     0.041 C 
ATOM      5  O   UNL     1      87.751  62.426 108.669  1.00  0.00    -0.550 OA
ATOM      6  O   UNL     1      87.234  61.559 110.725  1.00  0.00    -0.550 OA
ENDBRANCH   3   4
ENDBRANCH   2   3
ENDBRANCH   1   2
BRANCH   1   7
ATOM      7  C   UNL     1      85.015  66.285 109.913  1.00  0.00     0.000 C 
BRANCH   7   8
ATOM      8  C   UNL     1      85.230  67.209 111.125  1.00  0.00    -0.000 C 
BRANCH   8   9
ATOM      9  C   UNL     1      85.775  68.589 110.723  1.00  0.00    -0.000 C 
BRANCH   9  10
ATOM     10  C   UNL     1      87.244  68.787 111.125  1.00  0.00    -0.003 C 
ATOM     11  C   UNL     1      88.125  67.684 110.543  1.00  0.00     0.004 C 
ENDBRANCH   9  10
ENDBRANCH   8   9
ENDBRANCH   7   8
ENDBRANCH   1   7
TORSDOF 7
ENDMDL
MODEL 8
REMARK VINA RESULT:     2.040      4.023      6.594
REMARK INTER + INTRA:           2.587
REMARK INTER:                   2.811
REMARK INTRA:                  -0.224
REMARK UNBOUND:                -0.287
REMARK SMILES CCCCCCCCC(=O)[O-]
REMARK SMILES IDX 6 1 7 2 8 3 9 4 10 5 11 6 5 7 4 8 3 9 2 10 1 11
REMARK H PARENT
REMARK Flexibility Score: inf
ROOT
ATOM      1  C   UNL     1      68.397  75.917  95.858  1.00  0.00     0.000 C 
ENDROOT
BRANCH   1   2
ATOM      2  C   UNL     1      67.886  76.761  94.678  1.00  0.00     0.006 C 
BRANCH   2   3
ATOM      3  C   UNL     1      68.943  76.913  93.575  1.00  0.00     0.053 C 
BRANCH   3   4
ATOM      4  C   UNL     1      68.595  76.117  92.355  1.00  0.00     0.041 C 
ATOM      5  O   UNL     1      67.875  76.620  91.454  1.00  0.00    -0.550 OA
ATOM      6  O   UNL     1      69.041  74.807  92.228  1.00  0.00    -0.550 OA
ENDBRANCH   3   4
ENDBRANCH   2   3
ENDBRANCH   1   2
BRANCH   1   7
ATOM      7  C   UNL     1      67.875  76.417  97.215  1.00  0.00     0.000 C 
BRANCH   7   8
ATOM      8  C   UNL     1      68.045  77.937  97.389  1.00  0.00    -0.000 C 
BRANCH   8   9
ATOM      9  C   UNL     1      68.522  78.318  98.800  1.00  0.00    -0.000 C 
BRANCH   9  10
ATOM     10  C   UNL     1      68.452  79.830  99.062  1.00  0.00    -0.003 C 
ATOM     11  C   UNL     1      68.157  80.119 100.531  1.00  0.00     0.004 C 
ENDBRANCH   9  10
ENDBRANCH   8   9
ENDBRANCH   7   8
ENDBRANCH   1   7
TORSDOF 7
ENDMDL
