MODEL 1
REMARK VINA RESULT:    -4.694      0.000      0.000
REMARK INTER + INTRA:          -6.439
REMARK INTER:                  -6.066
REMARK INTRA:                  -0.372
REMARK UNBOUND:                -0.372
REMARK SMILES CCO[C@@H]1O[C@@H](CO)[C@H](O)[C@@H](O)[C@H]1O
REMARK SMILES IDX 4 1 13 2 11 3 9 4 6 5 5 6 3 7 2 8 1 9 14 10 12 12 7 14 8 15
REMARK SMILES IDX 10 17
REMARK H PARENT 14 11 12 13 8 16 10 18
REMARK Flexibility Score: inf
ROOT
ATOM      1  C   UNL     1      34.145   2.258  43.188  1.00  0.00     0.281 C 
ATOM      2  C   UNL     1      34.476   3.594  42.490  1.00  0.00     0.202 C 
ATOM      3  C   UNL     1      35.184   4.564  43.459  1.00  0.00     0.179 C 
ATOM      4  C   UNL     1      36.336   3.865  44.200  1.00  0.00     0.177 C 
ATOM      5  C   UNL     1      35.840   2.529  44.798  1.00  0.00     0.178 C 
ATOM      6  O   UNL     1      35.305   1.691  43.784  1.00  0.00    -0.341 OA
ENDROOT
BRANCH   1   7
ATOM      7  O   UNL     1      33.114   2.457  44.145  1.00  0.00    -0.350 OA
BRANCH   7   8
ATOM      8  C   UNL     1      32.082   1.500  43.988  1.00  0.00     0.160 C 
ATOM      9  C   UNL     1      30.845   2.156  43.386  1.00  0.00     0.035 C 
ENDBRANCH   7   8
ENDBRANCH   1   7
BRANCH   2  10
ATOM     10  O   UNL     1      35.242   3.383  41.326  1.00  0.00    -0.385 OA
ATOM     11  H   UNL     1      35.313   4.245  40.841  1.00  0.00     0.211 HD
ENDBRANCH   2  10
BRANCH   3  12
ATOM     12  O   UNL     1      35.678   5.677  42.759  1.00  0.00    -0.387 OA
ATOM     13  H   UNL     1      35.232   6.476  43.141  1.00  0.00     0.211 HD
ENDBRANCH   3  12
BRANCH   5  14
ATOM     14  C   UNL     1      36.990   1.780  45.481  1.00  0.00     0.191 C 
BRANCH  14  15
ATOM     15  O   UNL     1      37.124   2.225  46.803  1.00  0.00    -0.394 OA
ATOM     16  H   UNL     1      36.381   1.808  47.311  1.00  0.00     0.210 HD
ENDBRANCH  14  15
ENDBRANCH   5  14
BRANCH   4  17
ATOM     17  O   UNL     1      36.803   4.697  45.233  1.00  0.00    -0.387 OA
ATOM     18  H   UNL     1      37.466   4.170  45.750  1.00  0.00     0.211 HD
ENDBRANCH   4  17
TORSDOF 7
ENDMDL
MODEL 2
REMARK VINA RESULT:    -4.663      2.466      4.384
REMARK INTER + INTRA:          -6.398
REMARK INTER:                  -6.082
REMARK INTRA:                  -0.316
REMARK UNBOUND:                -0.372
REMARK SMILES CCO[C@@H]1O[C@@H](CO)[C@H](O)[C@@H](O)[C@H]1O
REMARK SMILES IDX 4 1 13 2 11 3 9 4 6 5 5 6 3 7 2 8 1 9 14 10 12 12 7 14 8 15
REMARK SMILES IDX 10 17
REMARK H PARENT 14 11 12 13 8 16 10 18
REMARK Flexibility Score: inf
ROOT
ATOM      1  C   UNL     1      36.457   1.871  44.155  1.00  0.00     0.281 C 
ATOM      2  C   UNL     1      37.224   2.182  45.458  1.00  0.00     0.202 C 
ATOM      3  C   UNL     1      37.654   0.882  46.169  1.00  0.00     0.179 C 
ATOM      4  C   UNL     1      38.324  -0.092  45.185  1.00  0.00     0.177 C 
ATOM      5  C   UNL     1      37.443  -0.253  43.926  1.00  0.00     0.178 C 
ATOM      6  O   UNL     1      37.208   1.007  43.312  1.00  0.00    -0.341 OA
ENDROOT
BRANCH   1   7
ATOM      7  O   UNL     1      35.185   1.320  44.464  1.00  0.00    -0.350 OA
BRANCH   7   8
ATOM      8  C   UNL     1      34.149   2.250  44.207  1.00  0.00     0.160 C 
ATOM      9  C   UNL     1      32.815   1.526  44.070  1.00  0.00     0.035 C 
ENDBRANCH   7   8
ENDBRANCH   1   7
BRANCH   2  10
ATOM     10  O   UNL     1      38.329   3.020  45.209  1.00  0.00    -0.385 OA
ATOM     11  H   UNL     1      38.161   3.893  45.650  1.00  0.00     0.211 HD
ENDBRANCH   2  10
BRANCH   3  12
ATOM     12  O   UNL     1      38.537   1.173  47.222  1.00  0.00    -0.387 OA
ATOM     13  H   UNL     1      39.406   1.413  46.807  1.00  0.00     0.211 HD
ENDBRANCH   3  12
BRANCH   5  14
ATOM     14  C   UNL     1      38.126  -1.165  42.900  1.00  0.00     0.191 C 
BRANCH  14  15
ATOM     15  O   UNL     1      37.621  -2.466  43.017  1.00  0.00    -0.394 OA
ATOM     16  H   UNL     1      37.350  -2.574  43.965  1.00  0.00     0.210 HD
ENDBRANCH  14  15
ENDBRANCH   5  14
BRANCH   4  17
ATOM     17  O   UNL     1      38.489  -1.344  45.805  1.00  0.00    -0.387 OA
ATOM     18  H   UNL     1      38.277  -1.220  46.767  1.00  0.00     0.211 HD
ENDBRANCH   4  17
TORSDOF 7
ENDMDL
MODEL 3
REMARK VINA RESULT:    -4.624      1.920      4.119
REMARK INTER + INTRA:          -6.349
REMARK INTER:                  -5.939
REMARK INTRA:                  -0.409
REMARK UNBOUND:                -0.372
REMARK SMILES CCO[C@@H]1O[C@@H](CO)[C@H](O)[C@@H](O)[C@H]1O
REMARK SMILES IDX 4 1 13 2 11 3 9 4 6 5 5 6 3 7 2 8 1 9 14 10 12 12 7 14 8 15
REMARK SMILES IDX 10 17
REMARK H PARENT 14 11 12 13 8 16 10 18
REMARK Flexibility Score: inf
ROOT
ATOM      1  C   UNL     1      36.129   2.729  45.257  1.00  0.00     0.281 C 
ATOM      2  C   UNL     1      37.131   1.662  45.746  1.00  0.00     0.202 C 
ATOM      3  C   UNL     1      38.377   1.615  44.836  1.00  0.00     0.179 C 
ATOM      4  C   UNL     1      38.934   3.028  44.587  1.00  0.00     0.177 C 
ATOM      5  C   UNL     1      37.792   3.971  44.147  1.00  0.00     0.178 C 
ATOM      6  O   UNL     1      36.758   3.998  45.121  1.00  0.00    -0.341 OA
ENDROOT
BRANCH   1   7
ATOM      7  O   UNL     1      35.535   2.310  44.037  1.00  0.00    -0.350 OA
BRANCH   7   8
ATOM      8  C   UNL     1      34.220   2.817  43.909  1.00  0.00     0.160 C 
ATOM      9  C   UNL     1      34.128   3.737  42.697  1.00  0.00     0.035 C 
ENDBRANCH   7   8
ENDBRANCH   1   7
BRANCH   2  10
ATOM     10  O   UNL     1      37.487   1.879  47.092  1.00  0.00    -0.385 OA
ATOM     11  H   UNL     1      37.522   0.999  47.548  1.00  0.00     0.211 HD
ENDBRANCH   2  10
BRANCH   3  12
ATOM     12  O   UNL     1      39.372   0.810  45.414  1.00  0.00    -0.387 OA
ATOM     13  H   UNL     1      39.620   1.237  46.275  1.00  0.00     0.211 HD
ENDBRANCH   3  12
BRANCH   5  14
ATOM     14  C   UNL     1      38.311   5.401  43.961  1.00  0.00     0.191 C 
BRANCH  14  15
ATOM     15  O   UNL     1      39.349   5.648  44.868  1.00  0.00    -0.394 OA
ATOM     16  H   UNL     1      38.987   6.286  45.536  1.00  0.00     0.210 HD
ENDBRANCH  14  15
ENDBRANCH   5  14
BRANCH   4  17
ATOM     17  O   UNL     1      39.912   2.974  43.578  1.00  0.00    -0.387 OA
ATOM     18  H   UNL     1      39.431   2.881  42.714  1.00  0.00     0.211 HD
ENDBRANCH   4  17
TORSDOF 7
ENDMDL
MODEL 4
REMARK VINA RESULT:    -4.587     12.622     14.246
REMARK INTER + INTRA:          -6.301
REMARK INTER:                  -5.939
REMARK INTRA:                  -0.361
REMARK UNBOUND:                -0.372
REMARK SMILES CCO[C@@H]1O[C@@H](CO)[C@H](O)[C@@H](O)[C@H]1O
REMARK SMILES IDX 4 1 13 2 11 3 9 4 6 5 5 6 3 7 2 8 1 9 14 10 12 12 7 14 8 15
REMARK SMILES IDX 10 17
REMARK H PARENT 14 11 12 13 8 16 10 18
REMARK Flexibility Score: inf
ROOT
ATOM      1  C   UNL     1      23.475   4.571  37.750  1.00  0.00     0.281 C 
ATOM      2  C   UNL     1      22.267   5.325  37.157  1.00  0.00     0.202 C 
ATOM      3  C   UNL     1      20.941   4.789  37.736  1.00  0.00     0.179 C 
ATOM      4  C   UNL     1      21.009   4.685  39.270  1.00  0.00     0.177 C 
ATOM      5  C   UNL     1      22.297   3.941  39.687  1.00  0.00     0.178 C 
ATOM      6  O   UNL     1      23.448   4.596  39.172  1.00  0.00    -0.341 OA
ENDROOT
BRANCH   1   7
ATOM      7  O   UNL     1      23.503   3.239  37.255  1.00  0.00    -0.350 OA
BRANCH   7   8
ATOM      8  C   UNL     1      24.169   3.173  36.007  1.00  0.00     0.160 C 
ATOM      9  C   UNL     1      25.571   3.757  36.129  1.00  0.00     0.035 C 
ENDBRANCH   7   8
ENDBRANCH   1   7
BRANCH   2  10
ATOM     10  O   UNL     1      22.389   6.715  37.355  1.00  0.00    -0.385 OA
ATOM     11  H   UNL     1      22.252   6.903  38.319  1.00  0.00     0.211 HD
ENDBRANCH   2  10
BRANCH   3  12
ATOM     12  O   UNL     1      19.875   5.625  37.366  1.00  0.00    -0.387 OA
ATOM     13  H   UNL     1      19.543   5.295  36.492  1.00  0.00     0.211 HD
ENDBRANCH   3  12
BRANCH   5  14
ATOM     14  C   UNL     1      22.422   3.887  41.215  1.00  0.00     0.191 C 
BRANCH  14  15
ATOM     15  O   UNL     1      22.111   5.141  41.758  1.00  0.00    -0.394 OA
ATOM     16  H   UNL     1      21.786   4.970  42.679  1.00  0.00     0.210 HD
ENDBRANCH  14  15
ENDBRANCH   5  14
BRANCH   4  17
ATOM     17  O   UNL     1      19.887   3.981  39.741  1.00  0.00    -0.387 OA
ATOM     18  H   UNL     1      20.048   3.020  39.549  1.00  0.00     0.211 HD
ENDBRANCH   4  17
TORSDOF 7
ENDMDL
MODEL 5
REMARK VINA RESULT:    -4.581     12.126     13.701
REMARK INTER + INTRA:          -6.293
REMARK INTER:                  -5.914
REMARK INTRA:                  -0.378
REMARK UNBOUND:                -0.372
REMARK SMILES CCO[C@@H]1O[C@@H](CO)[C@H](O)[C@@H](O)[C@H]1O
REMARK SMILES IDX 4 1 13 2 11 3 9 4 6 5 5 6 3 7 2 8 1 9 14 10 12 12 7 14 8 15
REMARK SMILES IDX 10 17
REMARK H PARENT 14 11 12 13 8 16 10 18
REMARK Flexibility Score: inf
ROOT
ATOM      1  C   UNL     1      20.880   3.703  42.670  1.00  0.00     0.281 C 
ATOM      2  C   UNL     1      21.684   4.808  43.387  1.00  0.00     0.202 C 
ATOM      3  C   UNL     1      23.030   5.061  42.676  1.00  0.00     0.179 C 
ATOM      4  C   UNL     1      22.834   5.219  41.159  1.00  0.00     0.177 C 
ATOM      5  C   UNL     1      21.975   4.055  40.618  1.00  0.00     0.178 C 
ATOM      6  O   UNL     1      20.724   3.998  41.288  1.00  0.00    -0.341 OA
ENDROOT
BRANCH   1   7
ATOM      7  O   UNL     1      21.509   2.444  42.866  1.00  0.00    -0.350 OA
BRANCH   7   8
ATOM      8  C   UNL     1      20.619   1.380  42.586  1.00  0.00     0.160 C 
ATOM      9  C   UNL     1      21.208   0.472  41.513  1.00  0.00     0.035 C 
ENDBRANCH   7   8
ENDBRANCH   1   7
BRANCH   2  10
ATOM     10  O   UNL     1      20.931   5.993  43.497  1.00  0.00    -0.385 OA
ATOM     11  H   UNL     1      21.458   6.648  44.024  1.00  0.00     0.211 HD
ENDBRANCH   2  10
BRANCH   3  12
ATOM     12  O   UNL     1      23.645   6.212  43.196  1.00  0.00    -0.387 OA
ATOM     13  H   UNL     1      24.280   6.533  42.504  1.00  0.00     0.211 HD
ENDBRANCH   3  12
BRANCH   5  14
ATOM     14  C   UNL     1      21.707   4.230  39.118  1.00  0.00     0.191 C 
BRANCH  14  15
ATOM     15  O   UNL     1      21.785   5.587  38.780  1.00  0.00    -0.394 OA
ATOM     16  H   UNL     1      21.129   5.728  38.050  1.00  0.00     0.210 HD
ENDBRANCH  14  15
ENDBRANCH   5  14
BRANCH   4  17
ATOM     17  O   UNL     1      24.087   5.214  40.521  1.00  0.00    -0.387 OA
ATOM     18  H   UNL     1      24.144   4.367  40.006  1.00  0.00     0.211 HD
ENDBRANCH   4  17
TORSDOF 7
ENDMDL
MODEL 6
REMARK VINA RESULT:    -4.505      2.875      4.326
REMARK INTER + INTRA:          -6.194
REMARK INTER:                  -5.817
REMARK INTRA:                  -0.377
REMARK UNBOUND:                -0.372
REMARK SMILES CCO[C@@H]1O[C@@H](CO)[C@H](O)[C@@H](O)[C@H]1O
REMARK SMILES IDX 4 1 13 2 11 3 9 4 6 5 5 6 3 7 2 8 1 9 14 10 12 12 7 14 8 15
REMARK SMILES IDX 10 17
REMARK H PARENT 14 11 12 13 8 16 10 18
REMARK Flexibility Score: inf
ROOT
ATOM      1  C   UNL     1      36.196   5.859  43.699  1.00  0.00     0.281 C 
ATOM      2  C   UNL     1      37.506   5.955  42.888  1.00  0.00     0.202 C 
ATOM      3  C   UNL     1      38.667   5.259  43.628  1.00  0.00     0.179 C 
ATOM      4  C   UNL     1      38.253   3.859  44.114  1.00  0.00     0.177 C 
ATOM      5  C   UNL     1      36.906   3.942  44.865  1.00  0.00     0.178 C 
ATOM      6  O   UNL     1      35.901   4.509  44.036  1.00  0.00    -0.341 OA
ENDROOT
BRANCH   1   7
ATOM      7  O   UNL     1      36.284   6.677  44.857  1.00  0.00    -0.350 OA
BRANCH   7   8
ATOM      8  C   UNL     1      36.392   8.045  44.509  1.00  0.00     0.160 C 
ATOM      9  C   UNL     1      35.960   8.920  45.679  1.00  0.00     0.035 C 
ENDBRANCH   7   8
ENDBRANCH   1   7
BRANCH   2  10
ATOM     10  O   UNL     1      37.339   5.434  41.590  1.00  0.00    -0.385 OA
ATOM     11  H   UNL     1      38.006   4.712  41.458  1.00  0.00     0.211 HD
ENDBRANCH   2  10
BRANCH   3  12
ATOM     12  O   UNL     1      39.788   5.155  42.788  1.00  0.00    -0.387 OA
ATOM     13  H   UNL     1      40.317   5.985  42.915  1.00  0.00     0.211 HD
ENDBRANCH   3  12
BRANCH   5  14
ATOM     14  C   UNL     1      36.438   2.547  45.297  1.00  0.00     0.191 C 
BRANCH  14  15
ATOM     15  O   UNL     1      36.992   2.229  46.544  1.00  0.00    -0.394 OA
ATOM     16  H   UNL     1      37.972   2.346  46.449  1.00  0.00     0.210 HD
ENDBRANCH  14  15
ENDBRANCH   5  14
BRANCH   4  17
ATOM     17  O   UNL     1      39.241   3.352  44.977  1.00  0.00    -0.387 OA
ATOM     18  H   UNL     1      40.096   3.790  44.726  1.00  0.00     0.211 HD
ENDBRANCH   4  17
TORSDOF 7
ENDMDL
MODEL 7
REMARK VINA RESULT:    -4.488     12.944     15.763
REMARK INTER + INTRA:          -6.172
REMARK INTER:                  -5.752
REMARK INTRA:                  -0.420
REMARK UNBOUND:                -0.372
REMARK SMILES CCO[C@@H]1O[C@@H](CO)[C@H](O)[C@@H](O)[C@H]1O
REMARK SMILES IDX 4 1 13 2 11 3 9 4 6 5 5 6 3 7 2 8 1 9 14 10 12 12 7 14 8 15
REMARK SMILES IDX 10 17
REMARK H PARENT 14 11 12 13 8 16 10 18
REMARK Flexibility Score: inf
ROOT
ATOM      1  C   UNL     1      22.457   4.221  37.436  1.00  0.00     0.281 C 
ATOM      2  C   UNL     1      21.571   5.478  37.565  1.00  0.00     0.202 C 
ATOM      3  C   UNL     1      21.361   6.149  36.191  1.00  0.00     0.179 C 
ATOM      4  C   UNL     1      20.951   5.117  35.127  1.00  0.00     0.177 C 
ATOM      5  C   UNL     1      21.917   3.912  35.167  1.00  0.00     0.178 C 
ATOM      6  O   UNL     1      21.938   3.326  36.461  1.00  0.00    -0.341 OA
ENDROOT
BRANCH   1   7
ATOM      7  O   UNL     1      23.792   4.602  37.134  1.00  0.00    -0.350 OA
BRANCH   7   8
ATOM      8  C   UNL     1      24.722   3.713  37.725  1.00  0.00     0.160 C 
ATOM      9  C   UNL     1      24.352   3.457  39.181  1.00  0.00     0.035 C 
ENDBRANCH   7   8
ENDBRANCH   1   7
BRANCH   2  10
ATOM     10  O   UNL     1      20.341   5.171  38.179  1.00  0.00    -0.385 OA
ATOM     11  H   UNL     1      20.524   4.604  38.972  1.00  0.00     0.211 HD
ENDBRANCH   2  10
BRANCH   3  12
ATOM     12  O   UNL     1      20.379   7.149  36.283  1.00  0.00    -0.387 OA
ATOM     13  H   UNL     1      19.506   6.685  36.372  1.00  0.00     0.211 HD
ENDBRANCH   3  12
BRANCH   5  14
ATOM     14  C   UNL     1      21.485   2.837  34.162  1.00  0.00     0.191 C 
BRANCH  14  15
ATOM     15  O   UNL     1      20.115   2.961  33.898  1.00  0.00    -0.394 OA
ATOM     16  H   UNL     1      19.857   3.870  34.199  1.00  0.00     0.210 HD
ENDBRANCH  14  15
ENDBRANCH   5  14
BRANCH   4  17
ATOM     17  O   UNL     1      20.996   5.712  33.854  1.00  0.00    -0.387 OA
ATOM     18  H   UNL     1      21.671   6.439  33.900  1.00  0.00     0.211 HD
ENDBRANCH   4  17
TORSDOF 7
ENDMDL
MODEL 8
REMARK VINA RESULT:    -4.446     12.229     14.236
REMARK INTER + INTRA:          -6.118
REMARK INTER:                  -5.922
REMARK INTRA:                  -0.196
REMARK UNBOUND:                -0.372
REMARK SMILES CCO[C@@H]1O[C@@H](CO)[C@H](O)[C@@H](O)[C@H]1O
REMARK SMILES IDX 4 1 13 2 11 3 9 4 6 5 5 6 3 7 2 8 1 9 14 10 12 12 7 14 8 15
REMARK SMILES IDX 10 17
REMARK H PARENT 14 11 12 13 8 16 10 18
REMARK Flexibility Score: inf
ROOT
ATOM      1  C   UNL     1      23.675   4.616  38.313  1.00  0.00     0.281 C 
ATOM      2  C   UNL     1      24.565   3.828  37.329  1.00  0.00     0.202 C 
ATOM      3  C   UNL     1      23.743   3.319  36.126  1.00  0.00     0.179 C 
ATOM      4  C   UNL     1      22.878   4.444  35.532  1.00  0.00     0.177 C 
ATOM      5  C   UNL     1      22.091   5.150  36.658  1.00  0.00     0.178 C 
ATOM      6  O   UNL     1      22.974   5.658  37.648  1.00  0.00    -0.341 OA
ENDROOT
BRANCH   1   7
ATOM      7  O   UNL     1      22.784   3.728  38.974  1.00  0.00    -0.350 OA
BRANCH   7   8
ATOM      8  C   UNL     1      23.212   3.466  40.297  1.00  0.00     0.160 C 
ATOM      9  C   UNL     1      22.995   4.694  41.173  1.00  0.00     0.035 C 
ENDBRANCH   7   8
ENDBRANCH   1   7
BRANCH   2  10
ATOM     10  O   UNL     1      25.665   4.602  36.908  1.00  0.00    -0.385 OA
ATOM     11  H   UNL     1      26.442   4.371  37.480  1.00  0.00     0.211 HD
ENDBRANCH   2  10
BRANCH   3  12
ATOM     12  O   UNL     1      24.597   2.806  35.136  1.00  0.00    -0.387 OA
ATOM     13  H   UNL     1      25.214   2.176  35.590  1.00  0.00     0.211 HD
ENDBRANCH   3  12
BRANCH   5  14
ATOM     14  C   UNL     1      21.275   6.321  36.098  1.00  0.00     0.191 C 
BRANCH  14  15
ATOM     15  O   UNL     1      21.772   7.528  36.606  1.00  0.00    -0.394 OA
ATOM     16  H   UNL     1      21.429   7.598  37.534  1.00  0.00     0.210 HD
ENDBRANCH  14  15
ENDBRANCH   5  14
BRANCH   4  17
ATOM     17  O   UNL     1      21.977   3.899  34.600  1.00  0.00    -0.387 OA
ATOM     18  H   UNL     1      22.365   3.038  34.294  1.00  0.00     0.211 HD
ENDBRANCH   4  17
TORSDOF 7
ENDMDL
MODEL 9
REMARK VINA RESULT:    -4.383      1.792      3.708
REMARK INTER + INTRA:          -6.036
REMARK INTER:                  -5.649
REMARK INTRA:                  -0.387
REMARK UNBOUND:                -0.372
REMARK SMILES CCO[C@@H]1O[C@@H](CO)[C@H](O)[C@@H](O)[C@H]1O
REMARK SMILES IDX 4 1 13 2 11 3 9 4 6 5 5 6 3 7 2 8 1 9 14 10 12 12 7 14 8 15
REMARK SMILES IDX 10 17
REMARK H PARENT 14 11 12 13 8 16 10 18
REMARK Flexibility Score: inf
ROOT
ATOM      1  C   UNL     1      35.274   3.420  44.594  1.00  0.00     0.281 C 
ATOM      2  C   UNL     1      36.563   2.674  44.999  1.00  0.00     0.202 C 
ATOM      3  C   UNL     1      37.803   3.314  44.339  1.00  0.00     0.179 C 
ATOM      4  C   UNL     1      37.799   4.841  44.519  1.00  0.00     0.177 C 
ATOM      5  C   UNL     1      36.425   5.414  44.108  1.00  0.00     0.178 C 
ATOM      6  O   UNL     1      35.382   4.812  44.862  1.00  0.00    -0.341 OA
ENDROOT
BRANCH   1   7
ATOM      7  O   UNL     1      34.986   3.176  43.224  1.00  0.00    -0.350 OA
BRANCH   7   8
ATOM      8  C   UNL     1      33.603   2.947  43.027  1.00  0.00     0.160 C 
ATOM      9  C   UNL     1      33.078   1.971  44.073  1.00  0.00     0.035 C 
ENDBRANCH   7   8
ENDBRANCH   1   7
BRANCH   2  10
ATOM     10  O   UNL     1      36.698   2.619  46.400  1.00  0.00    -0.385 OA
ATOM     11  H   UNL     1      37.061   3.489  46.711  1.00  0.00     0.211 HD
ENDBRANCH   2  10
BRANCH   3  12
ATOM     12  O   UNL     1      38.978   2.776  44.888  1.00  0.00    -0.387 OA
ATOM     13  H   UNL     1      39.487   3.535  45.274  1.00  0.00     0.211 HD
ENDBRANCH   3  12
BRANCH   5  14
ATOM     14  C   UNL     1      36.375   6.928  44.347  1.00  0.00     0.191 C 
BRANCH  14  15
ATOM     15  O   UNL     1      37.040   7.592  43.307  1.00  0.00    -0.394 OA
ATOM     16  H   UNL     1      37.857   7.985  43.709  1.00  0.00     0.210 HD
ENDBRANCH  14  15
ENDBRANCH   5  14
BRANCH   4  17
ATOM     17  O   UNL     1      38.804   5.410  43.716  1.00  0.00    -0.387 OA
ATOM     18  H   UNL     1      39.032   4.738  43.021  1.00  0.00     0.211 HD
ENDBRANCH   4  17
TORSDOF 7
ENDMDL
