MODEL 1
REMARK VINA RESULT:    -3.825      0.000      0.000
REMARK INTER + INTRA:          -5.858
REMARK INTER:                  -5.166
REMARK INTRA:                  -0.692
REMARK UNBOUND:                -0.692
REMARK SMILES CCCCCCC=CC(=O)[O-]
REMARK SMILES IDX 5 1 6 2 7 3 8 4 9 5 10 6 11 7 4 8 3 9 2 10 1 11
REMARK H PARENT
REMARK Flexibility Score: inf
ROOT
ATOM      1  C   UNL     1      32.695   9.300  29.549  1.00  0.00     0.004 C 
ENDROOT
BRANCH   1   2
ATOM      2  C   UNL     1      32.254   8.749  28.184  1.00  0.00     0.027 C 
BRANCH   2   3
ATOM      3  C   UNL     1      30.981   9.397  27.723  1.00  0.00    -0.025 C 
ATOM      4  C   UNL     1      30.317  10.262  28.497  1.00  0.00     0.020 C 
BRANCH   4   5
ATOM      5  C   UNL     1      29.075  10.919  28.060  1.00  0.00     0.064 C 
ATOM      6  O   UNL     1      28.816  11.077  26.837  1.00  0.00    -0.545 OA
ATOM      7  O   UNL     1      28.171  11.373  29.012  1.00  0.00    -0.545 OA
ENDBRANCH   4   5
ENDBRANCH   2   3
ENDBRANCH   1   2
BRANCH   1   8
ATOM      8  C   UNL     1      32.718   8.224  30.645  1.00  0.00     0.000 C 
BRANCH   8   9
ATOM      9  C   UNL     1      31.338   8.013  31.294  1.00  0.00    -0.000 C 
BRANCH   9  10
ATOM     10  C   UNL     1      30.807   6.585  31.096  1.00  0.00    -0.003 C 
ATOM     11  C   UNL     1      29.860   6.464  29.902  1.00  0.00     0.004 C 
ENDBRANCH   9  10
ENDBRANCH   8   9
ENDBRANCH   1   8
TORSDOF 6
ENDMDL
MODEL 2
REMARK VINA RESULT:    -3.735      0.763      1.121
REMARK INTER + INTRA:          -5.737
REMARK INTER:                  -5.270
REMARK INTRA:                  -0.467
REMARK UNBOUND:                -0.692
REMARK SMILES CCCCCCC=CC(=O)[O-]
REMARK SMILES IDX 5 1 6 2 7 3 8 4 9 5 10 6 11 7 4 8 3 9 2 10 1 11
REMARK H PARENT
REMARK Flexibility Score: inf
ROOT
ATOM      1  C   UNL     1      32.621   8.223  30.024  1.00  0.00     0.004 C 
ENDROOT
BRANCH   1   2
ATOM      2  C   UNL     1      32.326   8.691  28.590  1.00  0.00     0.027 C 
BRANCH   2   3
ATOM      3  C   UNL     1      31.310   9.796  28.579  1.00  0.00    -0.025 C 
ATOM      4  C   UNL     1      30.277   9.787  27.730  1.00  0.00     0.020 C 
BRANCH   4   5
ATOM      5  C   UNL     1      29.262  10.852  27.710  1.00  0.00     0.064 C 
ATOM      6  O   UNL     1      28.545  11.050  26.692  1.00  0.00    -0.545 OA
ATOM      7  O   UNL     1      29.089  11.652  28.831  1.00  0.00    -0.545 OA
ENDBRANCH   4   5
ENDBRANCH   2   3
ENDBRANCH   1   2
BRANCH   1   8
ATOM      8  C   UNL     1      31.354   8.124  30.889  1.00  0.00     0.000 C 
BRANCH   8   9
ATOM      9  C   UNL     1      30.835   6.681  31.009  1.00  0.00    -0.000 C 
BRANCH   9  10
ATOM     10  C   UNL     1      29.789   6.341  29.936  1.00  0.00    -0.003 C 
ATOM     11  C   UNL     1      29.477   4.846  29.863  1.00  0.00     0.004 C 
ENDBRANCH   9  10
ENDBRANCH   8   9
ENDBRANCH   1   8
TORSDOF 6
ENDMDL
MODEL 3
REMARK VINA RESULT:    -3.685      1.689      2.301
REMARK INTER + INTRA:          -5.669
REMARK INTER:                  -5.168
REMARK INTRA:                  -0.501
REMARK UNBOUND:                -0.692
REMARK SMILES CCCCCCC=CC(=O)[O-]
REMARK SMILES IDX 5 1 6 2 7 3 8 4 9 5 10 6 11 7 4 8 3 9 2 10 1 11
REMARK H PARENT
REMARK Flexibility Score: inf
ROOT
ATOM      1  C   UNL     1      31.625   9.285  28.035  1.00  0.00     0.004 C 
ENDROOT
BRANCH   1   2
ATOM      2  C   UNL     1      30.225   9.702  27.561  1.00  0.00     0.027 C 
BRANCH   2   3
ATOM      3  C   UNL     1      29.736  10.909  28.309  1.00  0.00    -0.025 C 
ATOM      4  C   UNL     1      28.922  10.795  29.364  1.00  0.00     0.020 C 
BRANCH   4   5
ATOM      5  C   UNL     1      28.442  11.962  30.120  1.00  0.00     0.064 C 
ATOM      6  O   UNL     1      29.163  12.985  30.267  1.00  0.00    -0.545 OA
ATOM      7  O   UNL     1      27.171  11.937  30.680  1.00  0.00    -0.545 OA
ENDBRANCH   4   5
ENDBRANCH   2   3
ENDBRANCH   1   2
BRANCH   1   8
ATOM      8  C   UNL     1      31.601   8.045  28.943  1.00  0.00     0.000 C 
BRANCH   8   9
ATOM      9  C   UNL     1      30.309   7.224  28.784  1.00  0.00    -0.000 C 
BRANCH   9  10
ATOM     10  C   UNL     1      29.921   6.485  30.074  1.00  0.00    -0.003 C 
ATOM     11  C   UNL     1      30.899   6.737  31.220  1.00  0.00     0.004 C 
ENDBRANCH   9  10
ENDBRANCH   8   9
ENDBRANCH   1   8
TORSDOF 6
ENDMDL
MODEL 4
REMARK VINA RESULT:    -3.627      2.998      4.669
REMARK INTER + INTRA:          -5.591
REMARK INTER:                  -4.981
REMARK INTRA:                  -0.610
REMARK UNBOUND:                -0.692
REMARK SMILES CCCCCCC=CC(=O)[O-]
REMARK SMILES IDX 5 1 6 2 7 3 8 4 9 5 10 6 11 7 4 8 3 9 2 10 1 11
REMARK H PARENT
REMARK Flexibility Score: inf
ROOT
ATOM      1  C   UNL     1      29.953   9.966  27.700  1.00  0.00     0.004 C 
ENDROOT
BRANCH   1   2
ATOM      2  C   UNL     1      31.315   9.651  28.337  1.00  0.00     0.027 C 
BRANCH   2   3
ATOM      3  C   UNL     1      31.206   8.517  29.315  1.00  0.00    -0.025 C 
ATOM      4  C   UNL     1      30.295   7.550  29.167  1.00  0.00     0.020 C 
BRANCH   4   5
ATOM      5  C   UNL     1      30.179   6.423  30.105  1.00  0.00     0.064 C 
ATOM      6  O   UNL     1      29.467   5.419  29.832  1.00  0.00    -0.545 OA
ATOM      7  O   UNL     1      30.866   6.465  31.311  1.00  0.00    -0.545 OA
ENDBRANCH   4   5
ENDBRANCH   2   3
ENDBRANCH   1   2
BRANCH   1   8
ATOM      8  C   UNL     1      29.378  11.315  28.162  1.00  0.00     0.000 C 
BRANCH   8   9
ATOM      9  C   UNL     1      28.089  11.155  28.985  1.00  0.00    -0.000 C 
BRANCH   9  10
ATOM     10  C   UNL     1      28.190  11.814  30.370  1.00  0.00    -0.003 C 
ATOM     11  C   UNL     1      29.284  11.199  31.242  1.00  0.00     0.004 C 
ENDBRANCH   9  10
ENDBRANCH   8   9
ENDBRANCH   1   8
TORSDOF 6
ENDMDL
MODEL 5
REMARK VINA RESULT:    -3.611      1.442      2.306
REMARK INTER + INTRA:          -5.570
REMARK INTER:                  -4.872
REMARK INTRA:                  -0.698
REMARK UNBOUND:                -0.692
REMARK SMILES CCCCCCC=CC(=O)[O-]
REMARK SMILES IDX 5 1 6 2 7 3 8 4 9 5 10 6 11 7 4 8 3 9 2 10 1 11
REMARK H PARENT
REMARK Flexibility Score: inf
ROOT
ATOM      1  C   UNL     1      32.905  10.432  30.728  1.00  0.00     0.004 C 
ENDROOT
BRANCH   1   2
ATOM      2  C   UNL     1      31.749  11.399  31.025  1.00  0.00     0.027 C 
BRANCH   2   3
ATOM      3  C   UNL     1      30.524  11.037  30.237  1.00  0.00    -0.025 C 
ATOM      4  C   UNL     1      30.271  11.589  29.045  1.00  0.00     0.020 C 
BRANCH   4   5
ATOM      5  C   UNL     1      29.084  11.240  28.249  1.00  0.00     0.064 C 
ATOM      6  O   UNL     1      29.169  11.033  27.009  1.00  0.00    -0.545 OA
ATOM      7  O   UNL     1      27.849  11.135  28.875  1.00  0.00    -0.545 OA
ENDBRANCH   4   5
ENDBRANCH   2   3
ENDBRANCH   1   2
BRANCH   1   8
ATOM      8  C   UNL     1      32.420   9.037  30.304  1.00  0.00     0.000 C 
BRANCH   8   9
ATOM      9  C   UNL     1      33.031   8.581  28.968  1.00  0.00    -0.000 C 
BRANCH   9  10
ATOM     10  C   UNL     1      31.966   8.329  27.889  1.00  0.00    -0.003 C 
ATOM     11  C   UNL     1      30.638   7.844  28.469  1.00  0.00     0.004 C 
ENDBRANCH   9  10
ENDBRANCH   8   9
ENDBRANCH   1   8
TORSDOF 6
ENDMDL
MODEL 6
REMARK VINA RESULT:    -3.588      9.967     11.554
REMARK INTER + INTRA:          -5.539
REMARK INTER:                  -4.822
REMARK INTRA:                  -0.717
REMARK UNBOUND:                -0.692
REMARK SMILES CCCCCCC=CC(=O)[O-]
REMARK SMILES IDX 5 1 6 2 7 3 8 4 9 5 10 6 11 7 4 8 3 9 2 10 1 11
REMARK H PARENT
REMARK Flexibility Score: inf
ROOT
ATOM      1  C   UNL     1      21.247   3.140  23.653  1.00  0.00     0.004 C 
ENDROOT
BRANCH   1   2
ATOM      2  C   UNL     1      22.363   4.184  23.812  1.00  0.00     0.027 C 
BRANCH   2   3
ATOM      3  C   UNL     1      22.716   4.383  25.258  1.00  0.00    -0.025 C 
ATOM      4  C   UNL     1      21.789   4.318  26.219  1.00  0.00     0.020 C 
BRANCH   4   5
ATOM      5  C   UNL     1      22.115   4.498  27.643  1.00  0.00     0.064 C 
ATOM      6  O   UNL     1      21.221   4.429  28.529  1.00  0.00    -0.545 OA
ATOM      7  O   UNL     1      23.428   4.745  28.017  1.00  0.00    -0.545 OA
ENDBRANCH   4   5
ENDBRANCH   2   3
ENDBRANCH   1   2
BRANCH   1   8
ATOM      8  C   UNL     1      21.721   1.870  22.928  1.00  0.00     0.000 C 
BRANCH   8   9
ATOM      9  C   UNL     1      21.811   0.655  23.867  1.00  0.00    -0.000 C 
BRANCH   9  10
ATOM     10  C   UNL     1      23.121   0.628  24.670  1.00  0.00    -0.003 C 
ATOM     11  C   UNL     1      22.895   0.721  26.178  1.00  0.00     0.004 C 
ENDBRANCH   9  10
ENDBRANCH   8   9
ENDBRANCH   1   8
TORSDOF 6
ENDMDL
MODEL 7
REMARK VINA RESULT:    -3.573      9.815     11.775
REMARK INTER + INTRA:          -5.519
REMARK INTER:                  -4.819
REMARK INTRA:                  -0.700
REMARK UNBOUND:                -0.692
REMARK SMILES CCCCCCC=CC(=O)[O-]
REMARK SMILES IDX 5 1 6 2 7 3 8 4 9 5 10 6 11 7 4 8 3 9 2 10 1 11
REMARK H PARENT
REMARK Flexibility Score: inf
ROOT
ATOM      1  C   UNL     1      22.892   0.452  24.701  1.00  0.00     0.004 C 
ENDROOT
BRANCH   1   2
ATOM      2  C   UNL     1      22.409   0.218  26.141  1.00  0.00     0.027 C 
BRANCH   2   3
ATOM      3  C   UNL     1      22.806   1.355  27.037  1.00  0.00    -0.025 C 
ATOM      4  C   UNL     1      23.664   2.297  26.633  1.00  0.00     0.020 C 
BRANCH   4   5
ATOM      5  C   UNL     1      24.057   3.427  27.489  1.00  0.00     0.064 C 
ATOM      6  O   UNL     1      24.892   3.278  28.421  1.00  0.00    -0.545 OA
ATOM      7  O   UNL     1      23.499   4.679  27.267  1.00  0.00    -0.545 OA
ENDBRANCH   4   5
ENDBRANCH   2   3
ENDBRANCH   1   2
BRANCH   1   8
ATOM      8  C   UNL     1      21.734   0.564  23.697  1.00  0.00     0.000 C 
BRANCH   8   9
ATOM      9  C   UNL     1      21.772   1.878  22.898  1.00  0.00    -0.000 C 
BRANCH   9  10
ATOM     10  C   UNL     1      21.388   3.097  23.752  1.00  0.00    -0.003 C 
ATOM     11  C   UNL     1      22.449   4.197  23.729  1.00  0.00     0.004 C 
ENDBRANCH   9  10
ENDBRANCH   8   9
ENDBRANCH   1   8
TORSDOF 6
ENDMDL
MODEL 8
REMARK VINA RESULT:    -3.555      1.360      2.439
REMARK INTER + INTRA:          -5.494
REMARK INTER:                  -5.083
REMARK INTRA:                  -0.411
REMARK UNBOUND:                -0.692
REMARK SMILES CCCCCCC=CC(=O)[O-]
REMARK SMILES IDX 5 1 6 2 7 3 8 4 9 5 10 6 11 7 4 8 3 9 2 10 1 11
REMARK H PARENT
REMARK Flexibility Score: inf
ROOT
ATOM      1  C   UNL     1      32.603   8.445  28.346  1.00  0.00     0.004 C 
ENDROOT
BRANCH   1   2
ATOM      2  C   UNL     1      31.285   8.047  29.027  1.00  0.00     0.027 C 
BRANCH   2   3
ATOM      3  C   UNL     1      30.143   8.886  28.530  1.00  0.00    -0.025 C 
ATOM      4  C   UNL     1      30.226  10.219  28.478  1.00  0.00     0.020 C 
BRANCH   4   5
ATOM      5  C   UNL     1      29.125  11.060  27.982  1.00  0.00     0.064 C 
ATOM      6  O   UNL     1      28.802  11.058  26.764  1.00  0.00    -0.545 OA
ATOM      7  O   UNL     1      28.429  11.868  28.871  1.00  0.00    -0.545 OA
ENDBRANCH   4   5
ENDBRANCH   2   3
ENDBRANCH   1   2
BRANCH   1   8
ATOM      8  C   UNL     1      33.729   8.732  29.351  1.00  0.00     0.000 C 
BRANCH   8   9
ATOM      9  C   UNL     1      33.309   8.448  30.803  1.00  0.00    -0.000 C 
BRANCH   9  10
ATOM     10  C   UNL     1      34.433   7.793  31.623  1.00  0.00    -0.003 C 
ATOM     11  C   UNL     1      35.743   7.675  30.845  1.00  0.00     0.004 C 
ENDBRANCH   9  10
ENDBRANCH   8   9
ENDBRANCH   1   8
TORSDOF 6
ENDMDL
MODEL 9
REMARK VINA RESULT:    -3.442      4.250      5.175
REMARK INTER + INTRA:          -5.342
REMARK INTER:                  -4.800
REMARK INTRA:                  -0.542
REMARK UNBOUND:                -0.692
REMARK SMILES CCCCCCC=CC(=O)[O-]
REMARK SMILES IDX 5 1 6 2 7 3 8 4 9 5 10 6 11 7 4 8 3 9 2 10 1 11
REMARK H PARENT
REMARK Flexibility Score: inf
ROOT
ATOM      1  C   UNL     1      32.093   8.151  28.247  1.00  0.00     0.004 C 
ENDROOT
BRANCH   1   2
ATOM      2  C   UNL     1      32.817   9.155  29.157  1.00  0.00     0.027 C 
BRANCH   2   3
ATOM      3  C   UNL     1      34.104   8.584  29.679  1.00  0.00    -0.025 C 
ATOM      4  C   UNL     1      34.194   8.078  30.913  1.00  0.00     0.020 C 
BRANCH   4   5
ATOM      5  C   UNL     1      35.441   7.501  31.440  1.00  0.00     0.064 C 
ATOM      6  O   UNL     1      36.522   7.592  30.800  1.00  0.00    -0.545 OA
ATOM      7  O   UNL     1      35.426   6.846  32.665  1.00  0.00    -0.545 OA
ENDBRANCH   4   5
ENDBRANCH   2   3
ENDBRANCH   1   2
BRANCH   1   8
ATOM      8  C   UNL     1      30.592   8.045  28.556  1.00  0.00     0.000 C 
BRANCH   8   9
ATOM      9  C   UNL     1      30.298   8.058  30.066  1.00  0.00    -0.000 C 
BRANCH   9  10
ATOM     10  C   UNL     1      30.486   6.678  30.713  1.00  0.00    -0.003 C 
ATOM     11  C   UNL     1      29.700   5.576  30.003  1.00  0.00     0.004 C 
ENDBRANCH   9  10
ENDBRANCH   8   9
ENDBRANCH   1   8
TORSDOF 6
ENDMDL
