MODEL 1
REMARK VINA RESULT:    -4.974      0.000      0.000
REMARK INTER + INTRA:          -5.772
REMARK INTER:                  -5.556
REMARK INTRA:                  -0.217
REMARK UNBOUND:                -0.217
REMARK SMILES CC(C)c1ccc(C(=O)[O-])cc1
REMARK SMILES IDX 7 1 6 2 11 3 5 4 12 5 4 6 8 7 9 8 10 9 2 10 1 11 3 12
REMARK H PARENT
REMARK Flexibility Score: inf
ROOT
ATOM      1  C   UNL     1       3.949 -25.844  24.248  1.00  0.00    -0.003 A 
ATOM      2  C   UNL     1       4.651 -24.627  24.233  1.00  0.00     0.010 A 
ATOM      3  C   UNL     1       2.545 -25.818  24.265  1.00  0.00     0.010 A 
ATOM      4  C   UNL     1       3.964 -23.410  24.234  1.00  0.00     0.004 A 
ATOM      5  C   UNL     1       1.857 -24.602  24.266  1.00  0.00     0.004 A 
ATOM      6  C   UNL     1       2.557 -23.384  24.250  1.00  0.00    -0.045 A 
ENDROOT
BRANCH   1   7
ATOM      7  C   UNL     1       4.673 -27.134  24.247  1.00  0.00     0.071 C 
ATOM      8  O   UNL     1       5.892 -27.186  24.562  1.00  0.00    -0.545 OA
ATOM      9  O   UNL     1       4.018 -28.309  23.898  1.00  0.00    -0.545 OA
ENDBRANCH   1   7
BRANCH   6  10
ATOM     10  C   UNL     1       1.798 -22.070  24.252  1.00  0.00     0.013 C 
ATOM     11  C   UNL     1       2.759 -20.877  24.199  1.00  0.00     0.012 C 
ATOM     12  C   UNL     1       0.863 -21.973  25.463  1.00  0.00     0.012 C 
ENDBRANCH   6  10
TORSDOF 2
ENDMDL
MODEL 2
REMARK VINA RESULT:    -4.922      2.997      5.078
REMARK INTER + INTRA:          -5.714
REMARK INTER:                  -5.498
REMARK INTRA:                  -0.217
REMARK UNBOUND:                -0.217
REMARK SMILES CC(C)c1ccc(C(=O)[O-])cc1
REMARK SMILES IDX 7 1 6 2 11 3 5 4 12 5 4 6 8 7 9 8 10 9 2 10 1 11 3 12
REMARK H PARENT
REMARK Flexibility Score: inf
ROOT
ATOM      1  C   UNL     1       2.856 -23.265  24.181  1.00  0.00    -0.003 A 
ATOM      2  C   UNL     1       4.251 -23.288  24.344  1.00  0.00     0.010 A 
ATOM      3  C   UNL     1       2.159 -24.483  24.110  1.00  0.00     0.010 A 
ATOM      4  C   UNL     1       4.936 -24.503  24.437  1.00  0.00     0.004 A 
ATOM      5  C   UNL     1       2.843 -25.699  24.203  1.00  0.00     0.004 A 
ATOM      6  C   UNL     1       4.238 -25.724  24.368  1.00  0.00    -0.045 A 
ENDROOT
BRANCH   1   7
ATOM      7  C   UNL     1       2.128 -21.981  24.082  1.00  0.00     0.071 C 
ATOM      8  O   UNL     1       0.895 -21.922  24.330  1.00  0.00    -0.545 OA
ATOM      9  O   UNL     1       2.796 -20.819  23.714  1.00  0.00    -0.545 OA
ENDBRANCH   1   7
BRANCH   6  10
ATOM     10  C   UNL     1       4.968 -27.050  24.467  1.00  0.00     0.013 C 
ATOM     11  C   UNL     1       3.991 -28.227  24.370  1.00  0.00     0.012 C 
ATOM     12  C   UNL     1       5.802 -27.129  25.751  1.00  0.00     0.012 C 
ENDBRANCH   6  10
TORSDOF 2
ENDMDL
MODEL 3
REMARK VINA RESULT:    -4.898      2.994      5.266
REMARK INTER + INTRA:          -5.687
REMARK INTER:                  -5.471
REMARK INTRA:                  -0.216
REMARK UNBOUND:                -0.217
REMARK SMILES CC(C)c1ccc(C(=O)[O-])cc1
REMARK SMILES IDX 7 1 6 2 11 3 5 4 12 5 4 6 8 7 9 8 10 9 2 10 1 11 3 12
REMARK H PARENT
REMARK Flexibility Score: inf
ROOT
ATOM      1  C   UNL     1       2.676 -23.336  24.192  1.00  0.00    -0.003 A 
ATOM      2  C   UNL     1       2.003 -24.569  24.182  1.00  0.00     0.010 A 
ATOM      3  C   UNL     1       4.079 -23.328  24.275  1.00  0.00     0.010 A 
ATOM      4  C   UNL     1       2.716 -25.769  24.253  1.00  0.00     0.004 A 
ATOM      5  C   UNL     1       4.792 -24.527  24.346  1.00  0.00     0.004 A 
ATOM      6  C   UNL     1       4.121 -25.761  24.335  1.00  0.00    -0.045 A 
ENDROOT
BRANCH   1   7
ATOM      7  C   UNL     1       1.925 -22.064  24.117  1.00  0.00     0.071 C 
ATOM      8  O   UNL     1       0.702 -22.023  24.418  1.00  0.00    -0.545 OA
ATOM      9  O   UNL     1       2.558 -20.894  23.714  1.00  0.00    -0.545 OA
ENDBRANCH   1   7
BRANCH   6  10
ATOM     10  C   UNL     1       4.908 -27.056  24.413  1.00  0.00     0.013 C 
ATOM     11  C   UNL     1       3.975 -28.273  24.374  1.00  0.00     0.012 C 
ATOM     12  C   UNL     1       5.802 -27.086  25.658  1.00  0.00     0.012 C 
ENDBRANCH   6  10
TORSDOF 2
ENDMDL
MODEL 4
REMARK VINA RESULT:    -4.792      1.026      1.863
REMARK INTER + INTRA:          -5.569
REMARK INTER:                  -5.357
REMARK INTRA:                  -0.212
REMARK UNBOUND:                -0.217
REMARK SMILES CC(C)c1ccc(C(=O)[O-])cc1
REMARK SMILES IDX 7 1 6 2 11 3 5 4 12 5 4 6 8 7 9 8 10 9 2 10 1 11 3 12
REMARK H PARENT
REMARK Flexibility Score: inf
ROOT
ATOM      1  C   UNL     1       3.405 -26.583  24.567  1.00  0.00    -0.003 A 
ATOM      2  C   UNL     1       2.055 -26.276  24.330  1.00  0.00     0.010 A 
ATOM      3  C   UNL     1       4.345 -25.539  24.599  1.00  0.00     0.010 A 
ATOM      4  C   UNL     1       1.652 -24.953  24.132  1.00  0.00     0.004 A 
ATOM      5  C   UNL     1       3.942 -24.215  24.400  1.00  0.00     0.004 A 
ATOM      6  C   UNL     1       2.592 -23.906  24.165  1.00  0.00    -0.045 A 
ENDROOT
BRANCH   1   7
ATOM      7  C   UNL     1       3.836 -27.982  24.778  1.00  0.00     0.071 C 
ATOM      8  O   UNL     1       3.843 -28.802  23.821  1.00  0.00    -0.545 OA
ATOM      9  O   UNL     1       4.239 -28.414  26.036  1.00  0.00    -0.545 OA
ENDBRANCH   1   7
BRANCH   6  10
ATOM     10  C   UNL     1       2.169 -22.465  23.950  1.00  0.00     0.013 C 
ATOM     11  C   UNL     1       3.320 -21.500  24.256  1.00  0.00     0.012 C 
ATOM     12  C   UNL     1       0.926 -22.124  24.781  1.00  0.00     0.012 C 
ENDBRANCH   6  10
TORSDOF 2
ENDMDL
MODEL 5
REMARK VINA RESULT:    -4.756      2.605      3.716
REMARK INTER + INTRA:          -5.529
REMARK INTER:                  -5.322
REMARK INTRA:                  -0.207
REMARK UNBOUND:                -0.217
REMARK SMILES CC(C)c1ccc(C(=O)[O-])cc1
REMARK SMILES IDX 7 1 6 2 11 3 5 4 12 5 4 6 8 7 9 8 10 9 2 10 1 11 3 12
REMARK H PARENT
REMARK Flexibility Score: inf
ROOT
ATOM      1  C   UNL     1       1.707 -26.134  24.189  1.00  0.00    -0.003 A 
ATOM      2  C   UNL     1       2.938 -26.809  24.250  1.00  0.00     0.010 A 
ATOM      3  C   UNL     1       1.696 -24.732  24.265  1.00  0.00     0.010 A 
ATOM      4  C   UNL     1       4.133 -26.096  24.382  1.00  0.00     0.004 A 
ATOM      5  C   UNL     1       2.890 -24.018  24.397  1.00  0.00     0.004 A 
ATOM      6  C   UNL     1       4.123 -24.691  24.457  1.00  0.00    -0.045 A 
ENDROOT
BRANCH   1   7
ATOM      7  C   UNL     1       0.440 -26.885  24.050  1.00  0.00     0.071 C 
ATOM      8  O   UNL     1       0.074 -27.323  22.927  1.00  0.00    -0.545 OA
ATOM      9  O   UNL     1      -0.366 -27.120  25.158  1.00  0.00    -0.545 OA
ENDBRANCH   1   7
BRANCH   6  10
ATOM     10  C   UNL     1       5.412 -23.905  24.601  1.00  0.00     0.013 C 
ATOM     11  C   UNL     1       6.071 -24.168  25.960  1.00  0.00     0.012 C 
ATOM     12  C   UNL     1       5.173 -22.406  24.384  1.00  0.00     0.012 C 
ENDBRANCH   6  10
TORSDOF 2
ENDMDL
MODEL 6
REMARK VINA RESULT:    -4.740      2.861      4.103
REMARK INTER + INTRA:          -5.510
REMARK INTER:                  -5.301
REMARK INTRA:                  -0.209
REMARK UNBOUND:                -0.217
REMARK SMILES CC(C)c1ccc(C(=O)[O-])cc1
REMARK SMILES IDX 7 1 6 2 11 3 5 4 12 5 4 6 8 7 9 8 10 9 2 10 1 11 3 12
REMARK H PARENT
REMARK Flexibility Score: inf
ROOT
ATOM      1  C   UNL     1       5.018 -23.041  24.311  1.00  0.00    -0.003 A 
ATOM      2  C   UNL     1       3.774 -22.405  24.455  1.00  0.00     0.010 A 
ATOM      3  C   UNL     1       5.057 -24.440  24.191  1.00  0.00     0.010 A 
ATOM      4  C   UNL     1       2.593 -23.152  24.476  1.00  0.00     0.004 A 
ATOM      5  C   UNL     1       3.876 -25.188  24.212  1.00  0.00     0.004 A 
ATOM      6  C   UNL     1       2.631 -24.553  24.354  1.00  0.00    -0.045 A 
ENDROOT
BRANCH   1   7
ATOM      7  C   UNL     1       6.270 -22.254  24.289  1.00  0.00     0.071 C 
ATOM      8  O   UNL     1       6.763 -21.863  23.197  1.00  0.00    -0.545 OA
ATOM      9  O   UNL     1       6.923 -21.933  25.474  1.00  0.00    -0.545 OA
ENDBRANCH   1   7
BRANCH   6  10
ATOM     10  C   UNL     1       1.357 -25.377  24.376  1.00  0.00     0.013 C 
ATOM     11  C   UNL     1       0.556 -25.122  25.658  1.00  0.00     0.012 C 
ATOM     12  C   UNL     1       1.660 -26.870  24.202  1.00  0.00     0.012 C 
ENDBRANCH   6  10
TORSDOF 2
ENDMDL
MODEL 7
REMARK VINA RESULT:    -4.715      4.238      5.882
REMARK INTER + INTRA:          -5.483
REMARK INTER:                  -5.275
REMARK INTRA:                  -0.208
REMARK UNBOUND:                -0.217
REMARK SMILES CC(C)c1ccc(C(=O)[O-])cc1
REMARK SMILES IDX 7 1 6 2 11 3 5 4 12 5 4 6 8 7 9 8 10 9 2 10 1 11 3 12
REMARK H PARENT
REMARK Flexibility Score: inf
ROOT
ATOM      1  C   UNL     1       3.049 -20.333  25.936  1.00  0.00    -0.003 A 
ATOM      2  C   UNL     1       2.763 -20.690  24.608  1.00  0.00     0.010 A 
ATOM      3  C   UNL     1       3.350 -21.344  26.863  1.00  0.00     0.010 A 
ATOM      4  C   UNL     1       2.781 -22.031  24.214  1.00  0.00     0.004 A 
ATOM      5  C   UNL     1       3.367 -22.685  26.470  1.00  0.00     0.004 A 
ATOM      6  C   UNL     1       3.084 -23.045  25.142  1.00  0.00    -0.045 A 
ENDROOT
BRANCH   1   7
ATOM      7  C   UNL     1       3.031 -18.915  26.357  1.00  0.00     0.071 C 
ATOM      8  O   UNL     1       2.369 -18.061  25.710  1.00  0.00    -0.545 OA
ATOM      9  O   UNL     1       3.748 -18.502  27.475  1.00  0.00    -0.545 OA
ENDBRANCH   1   7
BRANCH   6  10
ATOM     10  C   UNL     1       3.105 -24.504  24.728  1.00  0.00     0.013 C 
ATOM     11  C   UNL     1       4.422 -24.861  24.029  1.00  0.00     0.012 C 
ATOM     12  C   UNL     1       1.900 -24.847  23.844  1.00  0.00     0.012 C 
ENDBRANCH   6  10
TORSDOF 2
ENDMDL
MODEL 8
REMARK VINA RESULT:    -4.698      2.460      3.449
REMARK INTER + INTRA:          -5.464
REMARK INTER:                  -5.253
REMARK INTRA:                  -0.211
REMARK UNBOUND:                -0.217
REMARK SMILES CC(C)c1ccc(C(=O)[O-])cc1
REMARK SMILES IDX 7 1 6 2 11 3 5 4 12 5 4 6 8 7 9 8 10 9 2 10 1 11 3 12
REMARK H PARENT
REMARK Flexibility Score: inf
ROOT
ATOM      1  C   UNL     1       3.336 -28.431  26.103  1.00  0.00    -0.003 A 
ATOM      2  C   UNL     1       3.925 -28.327  24.831  1.00  0.00     0.010 A 
ATOM      3  C   UNL     1       2.762 -27.287  26.682  1.00  0.00     0.010 A 
ATOM      4  C   UNL     1       3.937 -27.105  24.152  1.00  0.00     0.004 A 
ATOM      5  C   UNL     1       2.774 -26.065  26.004  1.00  0.00     0.004 A 
ATOM      6  C   UNL     1       3.361 -25.959  24.731  1.00  0.00    -0.045 A 
ENDROOT
BRANCH   1   7
ATOM      7  C   UNL     1       3.321 -29.722  26.825  1.00  0.00     0.071 C 
ATOM      8  O   UNL     1       4.079 -30.664  26.471  1.00  0.00    -0.545 OA
ATOM      9  O   UNL     1       2.469 -29.915  27.906  1.00  0.00    -0.545 OA
ENDBRANCH   1   7
BRANCH   6  10
ATOM     10  C   UNL     1       3.368 -24.627  24.006  1.00  0.00     0.013 C 
ATOM     11  C   UNL     1       4.489 -23.720  24.526  1.00  0.00     0.012 C 
ATOM     12  C   UNL     1       2.004 -23.933  24.110  1.00  0.00     0.012 C 
ENDBRANCH   6  10
TORSDOF 2
ENDMDL
MODEL 9
REMARK VINA RESULT:    -4.697      4.094      5.801
REMARK INTER + INTRA:          -5.463
REMARK INTER:                  -5.257
REMARK INTRA:                  -0.206
REMARK UNBOUND:                -0.217
REMARK SMILES CC(C)c1ccc(C(=O)[O-])cc1
REMARK SMILES IDX 7 1 6 2 11 3 5 4 12 5 4 6 8 7 9 8 10 9 2 10 1 11 3 12
REMARK H PARENT
REMARK Flexibility Score: inf
ROOT
ATOM      1  C   UNL     1       3.030 -20.542  25.911  1.00  0.00    -0.003 A 
ATOM      2  C   UNL     1       3.289 -21.709  26.650  1.00  0.00     0.010 A 
ATOM      3  C   UNL     1       2.724 -20.655  24.545  1.00  0.00     0.010 A 
ATOM      4  C   UNL     1       3.241 -22.963  26.035  1.00  0.00     0.004 A 
ATOM      5  C   UNL     1       2.676 -21.909  23.930  1.00  0.00     0.004 A 
ATOM      6  C   UNL     1       2.933 -23.077  24.667  1.00  0.00    -0.045 A 
ENDROOT
BRANCH   1   7
ATOM      7  C   UNL     1       3.080 -19.212  26.558  1.00  0.00     0.071 C 
ATOM      8  O   UNL     1       2.421 -18.246  26.091  1.00  0.00    -0.545 OA
ATOM      9  O   UNL     1       3.856 -19.010  27.694  1.00  0.00    -0.545 OA
ENDBRANCH   1   7
BRANCH   6  10
ATOM     10  C   UNL     1       2.878 -24.432  23.987  1.00  0.00     0.013 C 
ATOM     11  C   UNL     1       1.744 -25.292  24.558  1.00  0.00     0.012 C 
ATOM     12  C   UNL     1       4.225 -25.158  24.088  1.00  0.00     0.012 C 
ENDBRANCH   6  10
TORSDOF 2
ENDMDL
