MODEL 1
REMARK VINA RESULT:    -3.977      0.000      0.000
REMARK INTER + INTRA:          -4.155
REMARK INTER:                  -4.907
REMARK INTRA:                   0.751
REMARK UNBOUND:                 0.751
REMARK SMILES CC1=CC=CC(C)(C)CC1=O
REMARK SMILES IDX 1 1 2 2 3 3 10 4 11 5 9 6 4 8 5 9 6 10 7 11 8 12
REMARK H PARENT
REMARK Flexibility Score: 80.00
ROOT
ATOM      1  C   UNL     1       5.246  -1.498   2.033  1.00  0.00     0.048 C 
ATOM      2  C   UNL     1       5.388  -1.627   0.535  1.00  0.00    -0.008 C 
ATOM      3  C   UNL     1       4.791  -0.692  -0.234  1.00  0.00     0.007 C 
ENDROOT
BRANCH   2   4
ATOM      4  C   UNL     1       6.111  -2.820   0.025  1.00  0.00     0.159 C 
ATOM      5  O   UNL     1       6.386  -3.754   0.828  1.00  0.00    -0.295 OA
BRANCH   4   6
ATOM      6  C   UNL     1       6.550  -2.974  -1.399  1.00  0.00     0.091 CG0
ATOM      7  G   UNL     1       5.378  -2.940  -2.404  1.00  0.00     0.000 G0
ENDBRANCH   4   6
ENDBRANCH   2   4
BRANCH   3   8
ATOM      8  C   UNL     1       4.732  -0.568  -1.710  1.00  0.00    -0.003 C 
ATOM      9  C   UNL     1       4.961  -1.500  -2.645  1.00  0.00    -0.020 C 
BRANCH   9  10
ATOM     10  C   UNL     1       5.375  -2.932  -2.402  1.00  0.00    -0.010 CG0
ATOM     11  C   UNL     1       4.155  -3.763  -1.943  1.00  0.00     0.016 C 
ATOM     12  C   UNL     1       5.878  -3.524  -3.738  1.00  0.00     0.016 C 
ATOM     13  G   UNL     1       6.539  -2.973  -1.388  1.00  0.00     0.000 G0
ENDBRANCH   9  10
ENDBRANCH   3   8
TORSDOF 0
ENDMDL
MODEL 2
REMARK VINA RESULT:    -3.526      1.739      2.982
REMARK INTER + INTRA:          -3.599
REMARK INTER:                  -4.351
REMARK INTRA:                   0.752
REMARK UNBOUND:                 0.751
REMARK SMILES CC1=CC=CC(C)(C)CC1=O
REMARK SMILES IDX 1 1 2 2 3 3 10 4 11 5 9 6 4 8 5 9 6 10 7 11 8 12
REMARK H PARENT
REMARK Flexibility Score: 80.00
ROOT
ATOM      1  C   UNL     1       4.667   0.392  -1.468  1.00  0.00     0.048 C 
ATOM      2  C   UNL     1       4.919  -1.009  -0.964  1.00  0.00    -0.008 C 
ATOM      3  C   UNL     1       5.007  -1.188   0.371  1.00  0.00     0.007 C 
ENDROOT
BRANCH   2   4
ATOM      4  C   UNL     1       5.126  -2.068  -1.985  1.00  0.00     0.159 C 
ATOM      5  O   UNL     1       5.276  -1.728  -3.191  1.00  0.00    -0.295 OA
BRANCH   4   6
ATOM      6  C   UNL     1       5.153  -3.531  -1.664  1.00  0.00     0.091 CG0
ATOM      7  G   UNL     1       6.262  -3.914  -0.660  1.00  0.00     0.000 G0
ENDBRANCH   4   6
ENDBRANCH   2   4
BRANCH   3   8
ATOM      8  C   UNL     1       5.271  -2.421   1.151  1.00  0.00    -0.003 C 
ATOM      9  C   UNL     1       5.807  -3.578   0.745  1.00  0.00    -0.020 C 
BRANCH   9  10
ATOM     10  C   UNL     1       6.258  -3.915  -0.656  1.00  0.00    -0.010 CG0
ATOM     11  C   UNL     1       7.615  -3.236  -0.953  1.00  0.00     0.016 C 
ATOM     12  C   UNL     1       6.463  -5.445  -0.745  1.00  0.00     0.016 C 
ATOM     13  G   UNL     1       5.160  -3.517  -1.667  1.00  0.00     0.000 G0
ENDBRANCH   9  10
ENDBRANCH   3   8
TORSDOF 0
ENDMDL
MODEL 3
REMARK VINA RESULT:    -3.322      1.937      2.691
REMARK INTER + INTRA:          -3.348
REMARK INTER:                  -4.094
REMARK INTRA:                   0.746
REMARK UNBOUND:                 0.751
REMARK SMILES CC1=CC=CC(C)(C)CC1=O
REMARK SMILES IDX 1 1 2 2 3 3 10 4 11 5 9 6 4 8 5 9 6 10 7 11 8 12
REMARK H PARENT
REMARK Flexibility Score: 80.00
ROOT
ATOM      1  C   UNL     1       9.083  -1.216  -1.703  1.00  0.00     0.048 C 
ATOM      2  C   UNL     1       7.624  -1.582  -1.845  1.00  0.00    -0.008 C 
ATOM      3  C   UNL     1       6.734  -0.915  -1.080  1.00  0.00     0.007 C 
ENDROOT
BRANCH   2   4
ATOM      4  C   UNL     1       7.295  -2.704  -2.761  1.00  0.00     0.159 C 
ATOM      5  O   UNL     1       8.234  -3.417  -3.210  1.00  0.00    -0.295 OA
BRANCH   4   6
ATOM      6  C   UNL     1       5.901  -3.031  -3.198  1.00  0.00     0.091 CG0
ATOM      7  G   UNL     1       4.960  -3.378  -2.023  1.00  0.00     0.000 G0
ENDBRANCH   4   6
ENDBRANCH   2   4
BRANCH   3   8
ATOM      8  C   UNL     1       5.263  -1.068  -0.979  1.00  0.00    -0.003 C 
ATOM      9  C   UNL     1       4.493  -2.096  -1.357  1.00  0.00    -0.020 C 
BRANCH   9  10
ATOM     10  C   UNL     1       4.960  -3.370  -2.022  1.00  0.00    -0.010 CG0
ATOM     11  C   UNL     1       5.601  -4.308  -0.974  1.00  0.00     0.016 C 
ATOM     12  C   UNL     1       3.725  -4.088  -2.612  1.00  0.00     0.016 C 
ATOM     13  G   UNL     1       5.919  -3.029  -3.184  1.00  0.00     0.000 G0
ENDBRANCH   9  10
ENDBRANCH   3   8
TORSDOF 0
ENDMDL
MODEL 4
REMARK VINA RESULT:    -3.289      1.515      2.502
REMARK INTER + INTRA:          -3.307
REMARK INTER:                  -4.071
REMARK INTRA:                   0.765
REMARK UNBOUND:                 0.751
REMARK SMILES CC1=CC=CC(C)(C)CC1=O
REMARK SMILES IDX 1 1 2 2 3 3 10 4 11 5 9 6 4 8 5 9 6 10 7 11 8 12
REMARK H PARENT
REMARK Flexibility Score: 80.00
ROOT
ATOM      1  C   UNL     1       5.165  -1.725   2.002  1.00  0.00     0.048 C 
ATOM      2  C   UNL     1       5.324  -2.328   0.626  1.00  0.00    -0.008 C 
ATOM      3  C   UNL     1       5.792  -3.592   0.546  1.00  0.00     0.007 C 
ENDROOT
BRANCH   2   4
ATOM      4  C   UNL     1       5.022  -1.453  -0.535  1.00  0.00     0.159 C 
ATOM      5  O   UNL     1       4.866  -0.216  -0.339  1.00  0.00    -0.295 OA
BRANCH   4   6
ATOM      6  C   UNL     1       4.879  -1.960  -1.937  1.00  0.00     0.091 CG0
ATOM      7  G   UNL     1       6.152  -2.656  -2.466  1.00  0.00     0.000 G0
ENDBRANCH   4   6
ENDBRANCH   2   4
BRANCH   3   8
ATOM      8  C   UNL     1       6.075  -4.429  -0.643  1.00  0.00    -0.003 C 
ATOM      9  C   UNL     1       6.243  -4.055  -1.918  1.00  0.00    -0.020 C 
BRANCH   9  10
ATOM     10  C   UNL     1       6.152  -2.648  -2.460  1.00  0.00    -0.010 CG0
ATOM     11  C   UNL     1       7.435  -1.862  -2.108  1.00  0.00     0.016 C 
ATOM     12  C   UNL     1       6.050  -2.728  -4.000  1.00  0.00     0.016 C 
ATOM     13  G   UNL     1       4.871  -1.968  -1.928  1.00  0.00     0.000 G0
ENDBRANCH   9  10
ENDBRANCH   3   8
TORSDOF 0
ENDMDL
MODEL 5
REMARK VINA RESULT:    -3.093      1.475      3.014
REMARK INTER + INTRA:          -3.065
REMARK INTER:                  -3.827
REMARK INTRA:                   0.762
REMARK UNBOUND:                 0.751
REMARK SMILES CC1=CC=CC(C)(C)CC1=O
REMARK SMILES IDX 1 1 2 2 3 3 10 4 11 5 9 6 4 8 5 9 6 10 7 11 8 12
REMARK H PARENT
REMARK Flexibility Score: 80.00
ROOT
ATOM      1  C   UNL     1       6.553  -5.717  -0.750  1.00  0.00     0.048 C 
ATOM      2  C   UNL     1       5.938  -4.398  -1.152  1.00  0.00    -0.008 C 
ATOM      3  C   UNL     1       5.614  -4.227  -2.451  1.00  0.00     0.007 C 
ENDROOT
BRANCH   2   4
ATOM      4  C   UNL     1       5.808  -3.362  -0.095  1.00  0.00     0.159 C 
ATOM      5  O   UNL     1       6.378  -3.553   1.015  1.00  0.00    -0.295 OA
BRANCH   4   6
ATOM      6  C   UNL     1       5.022  -2.100  -0.267  1.00  0.00     0.091 CG0
ATOM      7  G   UNL     1       5.519  -1.228  -1.442  1.00  0.00     0.000 G0
ENDBRANCH   4   6
ENDBRANCH   2   4
BRANCH   3   8
ATOM      8  C   UNL     1       5.029  -3.052  -3.141  1.00  0.00    -0.003 C 
ATOM      9  C   UNL     1       4.982  -1.775  -2.740  1.00  0.00    -0.020 C 
BRANCH   9  10
ATOM     10  C   UNL     1       5.508  -1.225  -1.435  1.00  0.00    -0.010 CG0
ATOM     11  C   UNL     1       7.048  -1.110  -1.492  1.00  0.00     0.016 C 
ATOM     12  C   UNL     1       4.932   0.197  -1.243  1.00  0.00     0.016 C 
ATOM     13  G   UNL     1       5.018  -2.105  -0.264  1.00  0.00     0.000 G0
ENDBRANCH   9  10
ENDBRANCH   3   8
TORSDOF 0
ENDMDL
MODEL 6
REMARK VINA RESULT:    -3.090     11.468     12.757
REMARK INTER + INTRA:          -3.061
REMARK INTER:                  -3.810
REMARK INTRA:                   0.749
REMARK UNBOUND:                 0.751
REMARK SMILES CC1=CC=CC(C)(C)CC1=O
REMARK SMILES IDX 1 1 2 2 3 3 10 4 11 5 9 6 4 8 5 9 6 10 7 11 8 12
REMARK H PARENT
REMARK Flexibility Score: 80.00
ROOT
ATOM      1  C   UNL     1      -3.112  -5.491   0.721  1.00  0.00     0.048 C 
ATOM      2  C   UNL     1      -4.141  -6.593   0.645  1.00  0.00    -0.008 C 
ATOM      3  C   UNL     1      -4.391  -7.135  -0.566  1.00  0.00     0.007 C 
ENDROOT
BRANCH   2   4
ATOM      4  C   UNL     1      -4.853  -6.941   1.901  1.00  0.00     0.159 C 
ATOM      5  O   UNL     1      -4.726  -6.182   2.902  1.00  0.00    -0.295 OA
BRANCH   4   6
ATOM      6  C   UNL     1      -5.711  -8.159   2.055  1.00  0.00     0.091 CG0
ATOM      7  G   UNL     1      -6.896  -8.198   1.064  1.00  0.00     0.000 G0
ENDBRANCH   4   6
ENDBRANCH   2   4
BRANCH   3   8
ATOM      8  C   UNL     1      -5.349  -8.197  -0.955  1.00  0.00    -0.003 C 
ATOM      9  C   UNL     1      -6.417  -8.654  -0.290  1.00  0.00    -0.020 C 
BRANCH   9  10
ATOM     10  C   UNL     1      -6.892  -8.197   1.069  1.00  0.00    -0.010 CG0
ATOM     11  C   UNL     1      -7.611  -6.834   0.947  1.00  0.00     0.016 C 
ATOM     12  C   UNL     1      -7.914  -9.229   1.598  1.00  0.00     0.016 C 
ATOM     13  G   UNL     1      -5.699  -8.155   2.050  1.00  0.00     0.000 G0
ENDBRANCH   9  10
ENDBRANCH   3   8
TORSDOF 0
ENDMDL
MODEL 7
REMARK VINA RESULT:    -2.969     14.486     15.651
REMARK INTER + INTRA:          -2.912
REMARK INTER:                  -3.674
REMARK INTRA:                   0.762
REMARK UNBOUND:                 0.751
REMARK SMILES CC1=CC=CC(C)(C)CC1=O
REMARK SMILES IDX 1 1 2 2 3 3 10 4 11 5 9 6 4 8 5 9 6 10 7 11 8 12
REMARK H PARENT
REMARK Flexibility Score: 80.00
ROOT
ATOM      1  C   UNL     1      -6.542   2.167   0.370  1.00  0.00     0.048 C 
ATOM      2  C   UNL     1      -7.309   3.418   0.729  1.00  0.00    -0.008 C 
ATOM      3  C   UNL     1      -8.555   3.554   0.228  1.00  0.00     0.007 C 
ENDROOT
BRANCH   2   4
ATOM      4  C   UNL     1      -6.598   4.435   1.545  1.00  0.00     0.159 C 
ATOM      5  O   UNL     1      -5.355   4.312   1.722  1.00  0.00    -0.295 OA
BRANCH   4   6
ATOM      6  C   UNL     1      -7.282   5.602   2.189  1.00  0.00     0.091 CG0
ATOM      7  G   UNL     1      -7.989   6.528   1.175  1.00  0.00     0.000 G0
ENDBRANCH   4   6
ENDBRANCH   2   4
BRANCH   3   8
ATOM      8  C   UNL     1      -9.526   4.664   0.379  1.00  0.00    -0.003 C 
ATOM      9  C   UNL     1      -9.310   5.927   0.767  1.00  0.00    -0.020 C 
BRANCH   9  10
ATOM     10  C   UNL     1      -7.985   6.525   1.180  1.00  0.00    -0.010 CG0
ATOM     11  C   UNL     1      -7.117   6.800  -0.069  1.00  0.00     0.016 C 
ATOM     12  C   UNL     1      -8.261   7.878   1.876  1.00  0.00     0.016 C 
ATOM     13  G   UNL     1      -7.288   5.595   2.197  1.00  0.00     0.000 G0
ENDBRANCH   9  10
ENDBRANCH   3   8
TORSDOF 0
ENDMDL
MODEL 8
REMARK VINA RESULT:    -2.955      1.700      3.663
REMARK INTER + INTRA:          -2.895
REMARK INTER:                  -3.650
REMARK INTRA:                   0.756
REMARK UNBOUND:                 0.751
REMARK SMILES CC1=CC=CC(C)(C)CC1=O
REMARK SMILES IDX 1 1 2 2 3 3 10 4 11 5 9 6 4 8 5 9 6 10 7 11 8 12
REMARK H PARENT
REMARK Flexibility Score: 80.00
ROOT
ATOM      1  C   UNL     1       6.670  -4.804  -3.754  1.00  0.00     0.048 C 
ATOM      2  C   UNL     1       6.435  -3.586  -2.892  1.00  0.00    -0.008 C 
ATOM      3  C   UNL     1       7.501  -2.813  -2.596  1.00  0.00     0.007 C 
ENDROOT
BRANCH   2   4
ATOM      4  C   UNL     1       5.058  -3.379  -2.375  1.00  0.00     0.159 C 
ATOM      5  O   UNL     1       4.209  -4.302  -2.521  1.00  0.00    -0.295 OA
BRANCH   4   6
ATOM      6  C   UNL     1       4.611  -2.122  -1.696  1.00  0.00     0.091 CG0
ATOM      7  G   UNL     1       5.436  -1.785  -0.434  1.00  0.00     0.000 G0
ENDBRANCH   4   6
ENDBRANCH   2   4
BRANCH   3   8
ATOM      8  C   UNL     1       7.589  -1.589  -1.764  1.00  0.00    -0.003 C 
ATOM      9  C   UNL     1       6.737  -1.138  -0.836  1.00  0.00    -0.020 C 
BRANCH   9  10
ATOM     10  C   UNL     1       5.432  -1.779  -0.427  1.00  0.00    -0.010 CG0
ATOM     11  C   UNL     1       5.705  -3.004   0.475  1.00  0.00     0.016 C 
ATOM     12  C   UNL     1       4.624  -0.751   0.398  1.00  0.00     0.016 C 
ATOM     13  G   UNL     1       4.611  -2.137  -1.686  1.00  0.00     0.000 G0
ENDBRANCH   9  10
ENDBRANCH   3   8
TORSDOF 0
ENDMDL
MODEL 9
REMARK VINA RESULT:    -2.881      1.882      2.974
REMARK INTER + INTRA:          -2.803
REMARK INTER:                  -3.563
REMARK INTRA:                   0.761
REMARK UNBOUND:                 0.751
REMARK SMILES CC1=CC=CC(C)(C)CC1=O
REMARK SMILES IDX 1 1 2 2 3 3 10 4 11 5 9 6 4 8 5 9 6 10 7 11 8 12
REMARK H PARENT
REMARK Flexibility Score: 80.00
ROOT
ATOM      1  C   UNL     1       3.404  -4.114  -2.254  1.00  0.00     0.048 C 
ATOM      2  C   UNL     1       4.648  -3.386  -1.802  1.00  0.00    -0.008 C 
ATOM      3  C   UNL     1       4.529  -2.078  -1.489  1.00  0.00     0.007 C 
ENDROOT
BRANCH   2   4
ATOM      4  C   UNL     1       5.921  -4.151  -1.812  1.00  0.00     0.159 C 
ATOM      5  O   UNL     1       5.946  -5.282  -2.373  1.00  0.00    -0.295 OA
BRANCH   4   6
ATOM      6  C   UNL     1       7.185  -3.659  -1.178  1.00  0.00     0.091 CG0
ATOM      7  G   UNL     1       7.691  -2.330  -1.779  1.00  0.00     0.000 G0
ENDBRANCH   4   6
ENDBRANCH   2   4
BRANCH   3   8
ATOM      8  C   UNL     1       5.558  -1.107  -1.047  1.00  0.00    -0.003 C 
ATOM      9  C   UNL     1       6.890  -1.180  -1.159  1.00  0.00    -0.020 C 
BRANCH   9  10
ATOM     10  C   UNL     1       7.679  -2.321  -1.758  1.00  0.00    -0.010 CG0
ATOM     11  C   UNL     1       7.594  -2.269  -3.301  1.00  0.00     0.016 C 
ATOM     12  C   UNL     1       9.162  -2.147  -1.357  1.00  0.00     0.016 C 
ATOM     13  G   UNL     1       7.178  -3.661  -1.178  1.00  0.00     0.000 G0
ENDBRANCH   9  10
ENDBRANCH   3   8
TORSDOF 0
ENDMDL
