MODEL 1
REMARK VINA RESULT:    31.867      0.000      0.000
REMARK INTER + INTRA:          51.865
REMARK INTER:                  52.360
REMARK INTRA:                  -0.495
REMARK UNBOUND:                -0.495
REMARK SMILES C[C@@H]1O[C@H](OC[C@@H]2O[C@H](Oc3c(-c4ccc(O)c(O)c4)oc4cc(O)cc(O)c4c3=O)[C@H](O)[C@H](O)[C@H]2O)[C@H](O)[C@H](O)[C@@H]1O
REMARK SMILES IDX 7 1 36 2 34 3 32 4 9 5 8 6 6 7 5 8 4 9 1 10 2 11 42 12 3 13
REMARK SMILES IDX 40 14 38 15 43 16 41 18 39 20 37 22 35 24 10 26 11 27 12 28
REMARK SMILES IDX 30 29 21 30 29 31 31 32 22 33 27 34 23 35 26 36 24 37 13 38
REMARK SMILES IDX 20 39 14 40 18 41 15 42 16 43 19 44 17 46 28 48 25 50 33 52
REMARK H PARENT 43 17 41 19 39 21 37 23 35 25 19 45 17 47 28 49 25 51 33 53
REMARK Flexibility Score: inf
ROOT
ATOM      1  C   UNL     1     -11.154  -4.292  17.187  1.00  0.00     0.180 C 
ATOM      2  C   UNL     1     -11.504  -4.540  15.693  1.00  0.00     0.177 C 
ATOM      3  C   UNL     1     -12.865  -3.940  15.323  1.00  0.00     0.180 C 
ATOM      4  C   UNL     1     -12.912  -2.476  15.774  1.00  0.00     0.214 C 
ATOM      5  C   UNL     1     -12.546  -2.342  17.264  1.00  0.00     0.339 C 
ATOM      6  O   UNL     1     -11.291  -2.933  17.587  1.00  0.00    -0.332 OA
ENDROOT
BRANCH   1   7
ATOM      7  C   UNL     1     -11.825  -5.271  18.172  1.00  0.00     0.198 C 
BRANCH   7   8
ATOM      8  O   UNL     1     -10.823  -6.009  18.855  1.00  0.00    -0.347 OA
BRANCH   8   9
ATOM      9  C   UNL     1     -11.374  -7.031  19.664  1.00  0.00     0.281 C 
ATOM     10  C   UNL     1      -8.965  -8.147  17.991  1.00  0.00     0.041 C 
ATOM     11  C   UNL     1      -9.800  -8.758  19.130  1.00  0.00     0.150 C 
ATOM     12  C   UNL     1      -9.149  -8.667  20.533  1.00  0.00     0.174 C 
ATOM     13  O   UNL     1     -11.158  -8.322  19.102  1.00  0.00    -0.344 OA
ATOM     14  C   UNL     1      -9.351  -7.287  21.173  1.00  0.00     0.179 C 
ATOM     15  C   UNL     1     -10.838  -6.919  21.106  1.00  0.00     0.202 C 
BRANCH  12  16
ATOM     16  O   UNL     1      -7.784  -8.994  20.465  1.00  0.00    -0.388 OA
ATOM     17  H   UNL     1      -7.728  -9.981  20.362  1.00  0.00     0.211 HD
ENDBRANCH  12  16
BRANCH  14  18
ATOM     18  O   UNL     1      -8.560  -6.323  20.525  1.00  0.00    -0.387 OA
ATOM     19  H   UNL     1      -8.288  -5.655  21.211  1.00  0.00     0.211 HD
ENDBRANCH  14  18
BRANCH  15  20
ATOM     20  O   UNL     1     -11.028  -5.614  21.594  1.00  0.00    -0.385 OA
ATOM     21  H   UNL     1     -10.140  -5.169  21.584  1.00  0.00     0.211 HD
ENDBRANCH  15  20
ENDBRANCH   8   9
ENDBRANCH   7   8
ENDBRANCH   1   7
BRANCH   2  22
ATOM     22  O   UNL     1     -10.516  -3.962  14.875  1.00  0.00    -0.387 OA
ATOM     23  H   UNL     1      -9.719  -4.552  14.923  1.00  0.00     0.211 HD
ENDBRANCH   2  22
BRANCH   3  24
ATOM     24  O   UNL     1     -13.913  -4.668  15.913  1.00  0.00    -0.387 OA
ATOM     25  H   UNL     1     -14.748  -4.152  15.769  1.00  0.00     0.211 HD
ENDBRANCH   3  24
BRANCH   5  26
ATOM     26  O   UNL     1     -13.596  -2.852  18.087  1.00  0.00    -0.454 OA
BRANCH  26  27
ATOM     27  C   UNL     1     -13.948  -2.339  19.347  1.00  0.00     0.214 A 
ATOM     28  C   UNL     1     -14.995  -1.402  19.435  1.00  0.00     0.180 A 
ATOM     29  C   UNL     1     -13.277  -2.714  20.525  1.00  0.00     0.239 A 
ATOM     30  O   UNL     1     -15.286  -0.837  20.602  1.00  0.00    -0.452 OA
ATOM     31  C   UNL     1     -13.618  -2.097  21.747  1.00  0.00     0.111 A 
ATOM     32  O   UNL     1     -12.392  -3.611  20.482  1.00  0.00    -0.285 OA
ATOM     33  C   UNL     1     -14.655  -1.133  21.732  1.00  0.00     0.146 A 
ATOM     34  C   UNL     1     -12.974  -2.396  22.971  1.00  0.00     0.134 A 
ATOM     35  C   UNL     1     -15.031  -0.484  22.912  1.00  0.00     0.094 A 
ATOM     36  C   UNL     1     -13.369  -1.734  24.144  1.00  0.00     0.093 A 
ATOM     37  C   UNL     1     -14.388  -0.782  24.118  1.00  0.00     0.123 A 
BRANCH  28  38
ATOM     38  C   UNL     1     -15.773  -0.996  18.244  1.00  0.00     0.025 A 
ATOM     39  C   UNL     1     -16.133  -1.953  17.283  1.00  0.00     0.062 A 
ATOM     40  C   UNL     1     -16.136   0.346  18.043  1.00  0.00     0.016 A 
ATOM     41  C   UNL     1     -16.888  -1.583  16.160  1.00  0.00     0.158 A 
ATOM     42  C   UNL     1     -16.886   0.717  16.927  1.00  0.00     0.051 A 
ATOM     43  C   UNL     1     -17.271  -0.246  15.985  1.00  0.00     0.157 A 
BRANCH  41  44
ATOM     44  O   UNL     1     -17.262  -2.539  15.218  1.00  0.00    -0.504 OA
ATOM     45  H   UNL     1     -18.235  -2.714  14.996  1.00  0.00     0.293 HD
ENDBRANCH  41  44
BRANCH  43  46
ATOM     46  O   UNL     1     -18.031   0.117  14.875  1.00  0.00    -0.504 OA
ATOM     47  H   UNL     1     -18.530   0.998  14.845  1.00  0.00     0.293 HD
ENDBRANCH  43  46
ENDBRANCH  28  38
BRANCH  34  48
ATOM     48  O   UNL     1     -11.947  -3.338  23.031  1.00  0.00    -0.507 OA
ATOM     49  H   UNL     1     -12.102  -4.310  22.787  1.00  0.00     0.293 HD
ENDBRANCH  34  48
BRANCH  37  50
ATOM     50  O   UNL     1     -14.759  -0.142  25.298  1.00  0.00    -0.508 OA
ATOM     51  H   UNL     1     -15.632  -0.355  25.765  1.00  0.00     0.293 HD
ENDBRANCH  37  50
ENDBRANCH  26  27
ENDBRANCH   5  26
BRANCH   4  52
ATOM     52  O   UNL     1     -14.193  -1.943  15.554  1.00  0.00    -0.384 OA
ATOM     53  H   UNL     1     -14.766  -2.262  16.299  1.00  0.00     0.211 HD
ENDBRANCH   4  52
TORSDOF 16
ENDMDL
MODEL 2
REMARK VINA RESULT:    33.164      0.715      1.474
REMARK INTER + INTRA:          53.996
REMARK INTER:                  53.487
REMARK INTRA:                   0.510
REMARK UNBOUND:                -0.495
REMARK SMILES C[C@@H]1O[C@H](OC[C@@H]2O[C@H](Oc3c(-c4ccc(O)c(O)c4)oc4cc(O)cc(O)c4c3=O)[C@H](O)[C@H](O)[C@H]2O)[C@H](O)[C@H](O)[C@@H]1O
REMARK SMILES IDX 7 1 36 2 34 3 32 4 9 5 8 6 6 7 5 8 4 9 1 10 2 11 42 12 3 13
REMARK SMILES IDX 40 14 38 15 43 16 41 18 39 20 37 22 35 24 10 26 11 27 12 28
REMARK SMILES IDX 30 29 21 30 29 31 31 32 22 33 27 34 23 35 26 36 24 37 13 38
REMARK SMILES IDX 20 39 14 40 18 41 15 42 16 43 19 44 17 46 28 48 25 50 33 52
REMARK H PARENT 43 17 41 19 39 21 37 23 35 25 19 45 17 47 28 49 25 51 33 53
REMARK Flexibility Score: inf
ROOT
ATOM      1  C   UNL     1     -11.181  -4.308  17.174  1.00  0.00     0.180 C 
ATOM      2  C   UNL     1     -11.549  -4.476  15.674  1.00  0.00     0.177 C 
ATOM      3  C   UNL     1     -12.893  -3.817  15.343  1.00  0.00     0.180 C 
ATOM      4  C   UNL     1     -12.890  -2.375  15.861  1.00  0.00     0.214 C 
ATOM      5  C   UNL     1     -12.510  -2.321  17.352  1.00  0.00     0.339 C 
ATOM      6  O   UNL     1     -11.273  -2.965  17.639  1.00  0.00    -0.332 OA
ENDROOT
BRANCH   1   7
ATOM      7  C   UNL     1     -11.876  -5.311  18.119  1.00  0.00     0.198 C 
BRANCH   7   8
ATOM      8  O   UNL     1     -10.958  -5.728  19.118  1.00  0.00    -0.347 OA
BRANCH   8   9
ATOM      9  C   UNL     1      -9.843  -6.403  18.567  1.00  0.00     0.281 C 
ATOM     10  C   UNL     1      -9.631  -6.325  21.697  1.00  0.00     0.041 C 
ATOM     11  C   UNL     1      -8.806  -7.059  20.626  1.00  0.00     0.150 C 
ATOM     12  C   UNL     1      -9.198  -8.541  20.408  1.00  0.00     0.174 C 
ATOM     13  O   UNL     1      -8.702  -6.312  19.415  1.00  0.00    -0.344 OA
ATOM     14  C   UNL     1     -10.430  -8.685  19.505  1.00  0.00     0.179 C 
ATOM     15  C   UNL     1     -10.213  -7.861  18.230  1.00  0.00     0.202 C 
BRANCH  12  16
ATOM     16  O   UNL     1      -9.401  -9.185  21.641  1.00  0.00    -0.388 OA
ATOM     17  H   UNL     1      -9.228 -10.152  21.495  1.00  0.00     0.211 HD
ENDBRANCH  12  16
BRANCH  14  18
ATOM     18  O   UNL     1     -11.589  -8.272  20.185  1.00  0.00    -0.387 OA
ATOM     19  H   UNL     1     -12.313  -8.181  19.506  1.00  0.00     0.211 HD
ENDBRANCH  14  18
BRANCH  15  20
ATOM     20  O   UNL     1     -11.374  -7.896  17.437  1.00  0.00    -0.385 OA
ATOM     21  H   UNL     1     -11.678  -8.842  17.412  1.00  0.00     0.211 HD
ENDBRANCH  15  20
ENDBRANCH   8   9
ENDBRANCH   7   8
ENDBRANCH   1   7
BRANCH   2  22
ATOM     22  O   UNL     1     -10.549  -3.891  14.875  1.00  0.00    -0.387 OA
ATOM     23  H   UNL     1     -10.924  -3.803  13.961  1.00  0.00     0.211 HD
ENDBRANCH   2  22
BRANCH   3  24
ATOM     24  O   UNL     1     -13.959  -4.539  15.907  1.00  0.00    -0.387 OA
ATOM     25  H   UNL     1     -13.570  -5.331  16.361  1.00  0.00     0.211 HD
ENDBRANCH   3  24
BRANCH   5  26
ATOM     26  O   UNL     1     -13.571  -2.836  18.160  1.00  0.00    -0.454 OA
BRANCH  26  27
ATOM     27  C   UNL     1     -13.946  -2.322  19.413  1.00  0.00     0.214 A 
ATOM     28  C   UNL     1     -15.011  -1.403  19.483  1.00  0.00     0.180 A 
ATOM     29  C   UNL     1     -13.282  -2.678  20.601  1.00  0.00     0.239 A 
ATOM     30  O   UNL     1     -15.326  -0.838  20.643  1.00  0.00    -0.452 OA
ATOM     31  C   UNL     1     -13.649  -2.060  21.815  1.00  0.00     0.111 A 
ATOM     32  O   UNL     1     -12.381  -3.560  20.574  1.00  0.00    -0.285 OA
ATOM     33  C   UNL     1     -14.703  -1.115  21.782  1.00  0.00     0.146 A 
ATOM     34  C   UNL     1     -13.014  -2.340  23.048  1.00  0.00     0.134 A 
ATOM     35  C   UNL     1     -15.104  -0.466  22.954  1.00  0.00     0.094 A 
ATOM     36  C   UNL     1     -13.434  -1.679  24.213  1.00  0.00     0.093 A 
ATOM     37  C   UNL     1     -14.470  -0.746  24.169  1.00  0.00     0.123 A 
BRANCH  28  38
ATOM     38  C   UNL     1     -15.783  -1.019  18.281  1.00  0.00     0.025 A 
ATOM     39  C   UNL     1     -16.122  -1.990  17.327  1.00  0.00     0.062 A 
ATOM     40  C   UNL     1     -16.158   0.316  18.063  1.00  0.00     0.016 A 
ATOM     41  C   UNL     1     -16.871  -1.640  16.193  1.00  0.00     0.158 A 
ATOM     42  C   UNL     1     -16.902   0.668  16.936  1.00  0.00     0.051 A 
ATOM     43  C   UNL     1     -17.268  -0.309  16.001  1.00  0.00     0.157 A 
BRANCH  41  44
ATOM     44  O   UNL     1     -17.225  -2.609  15.256  1.00  0.00    -0.504 OA
ATOM     45  H   UNL     1     -16.609  -3.381  15.032  1.00  0.00     0.293 HD
ENDBRANCH  41  44
BRANCH  43  46
ATOM     46  O   UNL     1     -18.021   0.035  14.880  1.00  0.00    -0.504 OA
ATOM     47  H   UNL     1     -18.484   0.932  14.812  1.00  0.00     0.293 HD
ENDBRANCH  43  46
ENDBRANCH  28  38
BRANCH  34  48
ATOM     48  O   UNL     1     -11.971  -3.264  23.125  1.00  0.00    -0.507 OA
ATOM     49  H   UNL     1     -11.869  -4.010  22.447  1.00  0.00     0.293 HD
ENDBRANCH  34  48
BRANCH  37  50
ATOM     50  O   UNL     1     -14.867  -0.106  25.341  1.00  0.00    -0.508 OA
ATOM     51  H   UNL     1     -14.205   0.394  25.922  1.00  0.00     0.293 HD
ENDBRANCH  37  50
ENDBRANCH  26  27
ENDBRANCH   5  26
BRANCH   4  52
ATOM     52  O   UNL     1     -14.155  -1.792  15.677  1.00  0.00    -0.384 OA
ATOM     53  H   UNL     1     -14.826  -2.499  15.869  1.00  0.00     0.211 HD
ENDBRANCH   4  52
TORSDOF 16
ENDMDL
