MODEL 1
REMARK VINA RESULT:    -8.010      0.000      0.000
REMARK INTER + INTRA:         -12.767
REMARK INTER:                 -11.288
REMARK INTRA:                  -1.479
REMARK UNBOUND:                -1.479
REMARK SMILES COc1c(O[C@@H]2O[C@@H](C(=O)[O-])[C@@H](O)[C@H](O)[C@H]2O)cc(O)c2c(=O)cc(-c3ccccc3)oc12
REMARK SMILES IDX 5 1 6 2 8 3 12 4 7 5 14 6 16 7 9 8 10 9 11 10 13 11 15 13
REMARK SMILES IDX 17 15 4 17 3 18 18 19 33 20 19 21 21 22 32 23 22 24 25 25
REMARK SMILES IDX 24 26 23 27 2 28 1 29 20 30 26 32 27 33 31 34 28 35 30 36
REMARK SMILES IDX 29 37
REMARK H PARENT 13 12 15 14 17 16 20 31
REMARK Flexibility Score: inf
ROOT
ATOM      1  O   UNL     1      -8.517   4.695  -3.194  1.00  0.00    -0.458 OA
ENDROOT
BRANCH   1   2
ATOM      2  C   UNL     1      -8.321   3.279  -3.126  1.00  0.00     0.339 C 
ATOM      3  C   UNL     1      -6.936   3.248  -5.022  1.00  0.00     0.199 C 
ATOM      4  C   UNL     1      -7.930   2.433  -5.875  1.00  0.00     0.180 C 
ATOM      5  O   UNL     1      -7.055   2.902  -3.651  1.00  0.00    -0.328 OA
ATOM      6  C   UNL     1      -9.373   2.681  -5.382  1.00  0.00     0.181 C 
ATOM      7  C   UNL     1      -9.475   2.544  -3.848  1.00  0.00     0.214 C 
BRANCH   3   8
ATOM      8  C   UNL     1      -5.519   3.012  -5.467  1.00  0.00     0.073 C 
ATOM      9  O   UNL     1      -4.861   2.044  -4.999  1.00  0.00    -0.547 OA
ATOM     10  O   UNL     1      -4.946   3.814  -6.447  1.00  0.00    -0.547 OA
ENDBRANCH   3   8
BRANCH   4  11
ATOM     11  O   UNL     1      -7.613   1.066  -5.802  1.00  0.00    -0.387 OA
ATOM     12  H   UNL     1      -8.200   0.600  -6.455  1.00  0.00     0.211 HD
ENDBRANCH   4  11
BRANCH   6  13
ATOM     13  O   UNL     1      -9.788   3.971  -5.756  1.00  0.00    -0.387 OA
ATOM     14  H   UNL     1      -8.967   4.496  -5.943  1.00  0.00     0.211 HD
ENDBRANCH   6  13
BRANCH   7  15
ATOM     15  O   UNL     1      -9.538   1.189  -3.469  1.00  0.00    -0.384 OA
ATOM     16  H   UNL     1     -10.470   0.874  -3.589  1.00  0.00     0.211 HD
ENDBRANCH   7  15
ENDBRANCH   1   2
BRANCH   1  17
ATOM     17  C   UNL     1      -8.174   5.655  -2.221  1.00  0.00     0.172 A 
ATOM     18  C   UNL     1      -6.955   6.377  -2.206  1.00  0.00     0.205 A 
ATOM     19  C   UNL     1      -9.124   5.888  -1.229  1.00  0.00     0.097 A 
ATOM     20  C   UNL     1      -6.737   7.345  -1.190  1.00  0.00     0.188 A 
ATOM     21  C   UNL     1      -8.940   6.850  -0.240  1.00  0.00     0.134 A 
ATOM     22  C   UNL     1      -7.717   7.570  -0.181  1.00  0.00     0.111 A 
ATOM     23  O   UNL     1      -5.611   8.055  -1.185  1.00  0.00    -0.452 OA
ATOM     24  C   UNL     1      -7.393   8.493   0.844  1.00  0.00     0.197 A 
ATOM     25  C   UNL     1      -5.317   8.979  -0.277  1.00  0.00     0.138 A 
ATOM     26  C   UNL     1      -6.203   9.212   0.778  1.00  0.00     0.100 A 
ATOM     27  O   UNL     1      -8.135   8.667   1.845  1.00  0.00    -0.289 OA
BRANCH  18  28
ATOM     28  O   UNL     1      -6.001   6.091  -3.201  1.00  0.00    -0.490 OA
ATOM     29  C   UNL     1      -5.812   6.774  -4.435  1.00  0.00     0.278 C 
ENDBRANCH  18  28
BRANCH  21  30
ATOM     30  O   UNL     1     -10.017   7.066   0.625  1.00  0.00    -0.507 OA
ATOM     31  H   UNL     1     -10.988   6.935   0.378  1.00  0.00     0.293 HD
ENDBRANCH  21  30
BRANCH  25  32
ATOM     32  C   UNL     1      -4.044   9.731  -0.398  1.00  0.00     0.017 A 
ATOM     33  C   UNL     1      -3.415   9.907  -1.646  1.00  0.00     0.012 A 
ATOM     34  C   UNL     1      -3.429  10.254   0.752  1.00  0.00     0.012 A 
ATOM     35  C   UNL     1      -2.198  10.589  -1.733  1.00  0.00     0.001 A 
ATOM     36  C   UNL     1      -2.216  10.943   0.658  1.00  0.00     0.001 A 
ATOM     37  C   UNL     1      -1.598  11.105  -0.582  1.00  0.00     0.000 A 
ENDBRANCH  25  32
ENDBRANCH   1  17
TORSDOF 9
ENDMDL
MODEL 2
REMARK VINA RESULT:    -7.957      1.545      3.256
REMARK INTER + INTRA:         -12.692
REMARK INTER:                 -11.513
REMARK INTRA:                  -1.180
REMARK UNBOUND:                -1.479
REMARK SMILES COc1c(O[C@@H]2O[C@@H](C(=O)[O-])[C@@H](O)[C@H](O)[C@H]2O)cc(O)c2c(=O)cc(-c3ccccc3)oc12
REMARK SMILES IDX 5 1 6 2 8 3 12 4 7 5 14 6 16 7 9 8 10 9 11 10 13 11 15 13
REMARK SMILES IDX 17 15 4 17 3 18 18 19 33 20 19 21 21 22 32 23 22 24 25 25
REMARK SMILES IDX 24 26 23 27 2 28 1 29 20 30 26 32 27 33 31 34 28 35 30 36
REMARK SMILES IDX 29 37
REMARK H PARENT 13 12 15 14 17 16 20 31
REMARK Flexibility Score: inf
ROOT
ATOM      1  O   UNL     1      -8.203   4.848  -3.412  1.00  0.00    -0.458 OA
ENDROOT
BRANCH   1   2
ATOM      2  C   UNL     1      -8.081   3.431  -3.243  1.00  0.00     0.339 C 
ATOM      3  C   UNL     1      -6.841   3.170  -5.220  1.00  0.00     0.199 C 
ATOM      4  C   UNL     1      -7.938   2.354  -5.935  1.00  0.00     0.180 C 
ATOM      5  O   UNL     1      -6.880   2.938  -3.820  1.00  0.00    -0.328 OA
ATOM      6  C   UNL     1      -9.325   2.727  -5.366  1.00  0.00     0.181 C 
ATOM      7  C   UNL     1      -9.324   2.716  -3.823  1.00  0.00     0.214 C 
BRANCH   3   8
ATOM      8  C   UNL     1      -5.475   2.813  -5.738  1.00  0.00     0.073 C 
ATOM      9  O   UNL     1      -4.880   3.582  -6.539  1.00  0.00    -0.547 OA
ATOM     10  O   UNL     1      -4.828   1.668  -5.286  1.00  0.00    -0.547 OA
ENDBRANCH   3   8
BRANCH   4  11
ATOM     11  O   UNL     1      -7.693   0.979  -5.772  1.00  0.00    -0.387 OA
ATOM     12  H   UNL     1      -8.545   0.510  -5.977  1.00  0.00     0.211 HD
ENDBRANCH   4  11
BRANCH   6  13
ATOM     13  O   UNL     1      -9.693   4.007  -5.815  1.00  0.00    -0.387 OA
ATOM     14  H   UNL     1     -10.330   4.375  -5.149  1.00  0.00     0.211 HD
ENDBRANCH   6  13
BRANCH   7  15
ATOM     15  O   UNL     1      -9.435   1.401  -3.332  1.00  0.00    -0.384 OA
ATOM     16  H   UNL     1      -9.218   0.772  -4.068  1.00  0.00     0.211 HD
ENDBRANCH   7  15
ENDBRANCH   1   2
BRANCH   1  17
ATOM     17  C   UNL     1      -7.269   5.838  -3.047  1.00  0.00     0.172 A 
ATOM     18  C   UNL     1      -7.031   6.259  -1.715  1.00  0.00     0.205 A 
ATOM     19  C   UNL     1      -6.546   6.411  -4.090  1.00  0.00     0.097 A 
ATOM     20  C   UNL     1      -6.038   7.244  -1.469  1.00  0.00     0.188 A 
ATOM     21  C   UNL     1      -5.551   7.359  -3.866  1.00  0.00     0.134 A 
ATOM     22  C   UNL     1      -5.308   7.823  -2.546  1.00  0.00     0.111 A 
ATOM     23  O   UNL     1      -5.780   7.623  -0.219  1.00  0.00    -0.452 OA
ATOM     24  C   UNL     1      -4.392   8.856  -2.229  1.00  0.00     0.197 A 
ATOM     25  C   UNL     1      -4.873   8.536   0.110  1.00  0.00     0.138 A 
ATOM     26  C   UNL     1      -4.161   9.191  -0.897  1.00  0.00     0.100 A 
ATOM     27  O   UNL     1      -3.794   9.515  -3.118  1.00  0.00    -0.289 OA
BRANCH  18  28
ATOM     28  O   UNL     1      -7.805   5.686  -0.688  1.00  0.00    -0.490 OA
ATOM     29  C   UNL     1      -9.030   6.177  -0.157  1.00  0.00     0.278 C 
ENDBRANCH  18  28
BRANCH  21  30
ATOM     30  O   UNL     1      -4.820   7.769  -4.986  1.00  0.00    -0.507 OA
ATOM     31  H   UNL     1      -4.524   7.159  -5.735  1.00  0.00     0.293 HD
ENDBRANCH  21  30
BRANCH  25  32
ATOM     32  C   UNL     1      -4.650   8.849   1.543  1.00  0.00     0.017 A 
ATOM     33  C   UNL     1      -3.602   9.696   1.952  1.00  0.00     0.012 A 
ATOM     34  C   UNL     1      -5.474   8.268   2.521  1.00  0.00     0.012 A 
ATOM     35  C   UNL     1      -3.389   9.950   3.310  1.00  0.00     0.001 A 
ATOM     36  C   UNL     1      -5.261   8.530   3.878  1.00  0.00     0.001 A 
ATOM     37  C   UNL     1      -4.217   9.367   4.272  1.00  0.00     0.000 A 
ENDBRANCH  25  32
ENDBRANCH   1  17
TORSDOF 9
ENDMDL
MODEL 3
REMARK VINA RESULT:    -6.681      1.399      2.067
REMARK INTER + INTRA:         -10.893
REMARK INTER:                  -9.981
REMARK INTRA:                  -0.912
REMARK UNBOUND:                -1.479
REMARK SMILES COc1c(O[C@@H]2O[C@@H](C(=O)[O-])[C@@H](O)[C@H](O)[C@H]2O)cc(O)c2c(=O)cc(-c3ccccc3)oc12
REMARK SMILES IDX 5 1 6 2 8 3 12 4 7 5 14 6 16 7 9 8 10 9 11 10 13 11 15 13
REMARK SMILES IDX 17 15 4 17 3 18 18 19 33 20 19 21 21 22 32 23 22 24 25 25
REMARK SMILES IDX 24 26 23 27 2 28 1 29 20 30 26 32 27 33 31 34 28 35 30 36
REMARK SMILES IDX 29 37
REMARK H PARENT 13 12 15 14 17 16 20 31
REMARK Flexibility Score: inf
ROOT
ATOM      1  O   UNL     1      -8.518   4.772  -3.453  1.00  0.00    -0.458 OA
ENDROOT
BRANCH   1   2
ATOM      2  C   UNL     1      -8.561   3.358  -3.227  1.00  0.00     0.339 C 
ATOM      3  C   UNL     1      -7.271   2.884  -5.132  1.00  0.00     0.199 C 
ATOM      4  C   UNL     1      -8.418   2.163  -5.869  1.00  0.00     0.180 C 
ATOM      5  O   UNL     1      -7.397   2.714  -3.728  1.00  0.00    -0.328 OA
ATOM      6  C   UNL     1      -9.779   2.707  -5.382  1.00  0.00     0.181 C 
ATOM      7  C   UNL     1      -9.847   2.759  -3.841  1.00  0.00     0.214 C 
BRANCH   3   8
ATOM      8  C   UNL     1      -5.931   2.360  -5.570  1.00  0.00     0.073 C 
ATOM      9  O   UNL     1      -5.424   1.357  -5.000  1.00  0.00    -0.547 OA
ATOM     10  O   UNL     1      -5.271   2.933  -6.652  1.00  0.00    -0.547 OA
ENDBRANCH   3   8
BRANCH   4  11
ATOM     11  O   UNL     1      -8.334   0.778  -5.646  1.00  0.00    -0.387 OA
ATOM     12  H   UNL     1      -8.073   0.363  -6.510  1.00  0.00     0.211 HD
ENDBRANCH   4  11
BRANCH   6  13
ATOM     13  O   UNL     1      -9.984   4.001  -5.894  1.00  0.00    -0.387 OA
ATOM     14  H   UNL     1      -9.879   4.631  -5.135  1.00  0.00     0.211 HD
ENDBRANCH   6  13
BRANCH   7  15
ATOM     15  O   UNL     1     -10.124   1.484  -3.310  1.00  0.00    -0.384 OA
ATOM     16  H   UNL     1     -10.474   0.910  -4.039  1.00  0.00     0.211 HD
ENDBRANCH   7  15
ENDBRANCH   1   2
BRANCH   1  17
ATOM     17  C   UNL     1      -7.748   5.727  -2.760  1.00  0.00     0.172 A 
ATOM     18  C   UNL     1      -6.642   6.417  -3.315  1.00  0.00     0.205 A 
ATOM     19  C   UNL     1      -8.133   5.987  -1.447  1.00  0.00     0.097 A 
ATOM     20  C   UNL     1      -5.963   7.383  -2.526  1.00  0.00     0.188 A 
ATOM     21  C   UNL     1      -7.497   6.948  -0.666  1.00  0.00     0.134 A 
ATOM     22  C   UNL     1      -6.368   7.638  -1.184  1.00  0.00     0.111 A 
ATOM     23  O   UNL     1      -4.945   8.065  -3.047  1.00  0.00    -0.452 OA
ATOM     24  C   UNL     1      -5.592   8.556  -0.435  1.00  0.00     0.197 A 
ATOM     25  C   UNL     1      -4.249   8.984  -2.388  1.00  0.00     0.138 A 
ATOM     26  C   UNL     1      -4.550   9.244  -1.049  1.00  0.00     0.100 A 
ATOM     27  O   UNL     1      -5.790   8.753   0.791  1.00  0.00    -0.289 OA
BRANCH  18  28
ATOM     28  O   UNL     1      -6.255   6.103  -4.631  1.00  0.00    -0.490 OA
ATOM     29  C   UNL     1      -4.995   5.604  -5.063  1.00  0.00     0.278 C 
ENDBRANCH  18  28
BRANCH  21  30
ATOM     30  O   UNL     1      -8.054   7.196   0.592  1.00  0.00    -0.507 OA
ATOM     31  H   UNL     1      -7.963   6.585   1.392  1.00  0.00     0.293 HD
ENDBRANCH  21  30
BRANCH  25  32
ATOM     32  C   UNL     1      -3.158   9.703  -3.090  1.00  0.00     0.017 A 
ATOM     33  C   UNL     1      -2.091  10.286  -2.379  1.00  0.00     0.012 A 
ATOM     34  C   UNL     1      -3.196   9.840  -4.488  1.00  0.00     0.012 A 
ATOM     35  C   UNL     1      -1.090  10.988  -3.057  1.00  0.00     0.001 A 
ATOM     36  C   UNL     1      -2.189  10.537  -5.162  1.00  0.00     0.001 A 
ATOM     37  C   UNL     1      -1.140  11.115  -4.447  1.00  0.00     0.000 A 
ENDBRANCH  25  32
ENDBRANCH   1  17
TORSDOF 9
ENDMDL
MODEL 4
REMARK VINA RESULT:    -6.619      2.685      4.586
REMARK INTER + INTRA:         -10.807
REMARK INTER:                  -9.758
REMARK INTRA:                  -1.049
REMARK UNBOUND:                -1.479
REMARK SMILES COc1c(O[C@@H]2O[C@@H](C(=O)[O-])[C@@H](O)[C@H](O)[C@H]2O)cc(O)c2c(=O)cc(-c3ccccc3)oc12
REMARK SMILES IDX 5 1 6 2 8 3 12 4 7 5 14 6 16 7 9 8 10 9 11 10 13 11 15 13
REMARK SMILES IDX 17 15 4 17 3 18 18 19 33 20 19 21 21 22 32 23 22 24 25 25
REMARK SMILES IDX 24 26 23 27 2 28 1 29 20 30 26 32 27 33 31 34 28 35 30 36
REMARK SMILES IDX 29 37
REMARK H PARENT 13 12 15 14 17 16 20 31
REMARK Flexibility Score: inf
ROOT
ATOM      1  O   UNL     1      -6.806   7.288  -2.149  1.00  0.00    -0.458 OA
ENDROOT
BRANCH   1   2
ATOM      2  C   UNL     1      -7.283   5.980  -1.819  1.00  0.00     0.339 C 
ATOM      3  C   UNL     1      -6.619   5.075  -3.882  1.00  0.00     0.199 C 
ATOM      4  C   UNL     1      -8.061   4.793  -4.352  1.00  0.00     0.180 C 
ATOM      5  O   UNL     1      -6.525   4.968  -2.469  1.00  0.00    -0.328 OA
ATOM      6  C   UNL     1      -9.037   5.779  -3.673  1.00  0.00     0.181 C 
ATOM      7  C   UNL     1      -8.789   5.861  -2.152  1.00  0.00     0.214 C 
BRANCH   3   8
ATOM      8  C   UNL     1      -5.646   4.115  -4.511  1.00  0.00     0.073 C 
ATOM      9  O   UNL     1      -5.235   3.114  -3.865  1.00  0.00    -0.547 OA
ATOM     10  O   UNL     1      -5.246   4.285  -5.832  1.00  0.00    -0.547 OA
ENDBRANCH   3   8
BRANCH   4  11
ATOM     11  O   UNL     1      -8.412   3.466  -4.048  1.00  0.00    -0.387 OA
ATOM     12  H   UNL     1      -8.115   2.908  -4.814  1.00  0.00     0.211 HD
ENDBRANCH   4  11
BRANCH   6  13
ATOM     13  O   UNL     1      -8.883   7.060  -4.232  1.00  0.00    -0.387 OA
ATOM     14  H   UNL     1      -8.719   7.686  -3.479  1.00  0.00     0.211 HD
ENDBRANCH   6  13
BRANCH   7  15
ATOM     15  O   UNL     1      -9.376   4.765  -1.490  1.00  0.00    -0.384 OA
ATOM     16  H   UNL     1     -10.009   5.113  -0.810  1.00  0.00     0.211 HD
ENDBRANCH   7  15
ENDBRANCH   1   2
BRANCH   1  17
ATOM     17  C   UNL     1      -5.818   8.035  -1.477  1.00  0.00     0.172 A 
ATOM     18  C   UNL     1      -5.779   8.228  -0.074  1.00  0.00     0.205 A 
ATOM     19  C   UNL     1      -4.826   8.598  -2.277  1.00  0.00     0.097 A 
ATOM     20  C   UNL     1      -4.711   8.975   0.492  1.00  0.00     0.188 A 
ATOM     21  C   UNL     1      -3.758   9.311  -1.739  1.00  0.00     0.134 A 
ATOM     22  C   UNL     1      -3.706   9.546  -0.339  1.00  0.00     0.111 A 
ATOM     23  O   UNL     1      -4.644   9.134   1.812  1.00  0.00    -0.452 OA
ATOM     24  C   UNL     1      -2.719  10.344   0.291  1.00  0.00     0.197 A 
ATOM     25  C   UNL     1      -3.687   9.815   2.432  1.00  0.00     0.138 A 
ATOM     26  C   UNL     1      -2.701  10.455   1.678  1.00  0.00     0.100 A 
ATOM     27  O   UNL     1      -1.866  10.993  -0.367  1.00  0.00    -0.289 OA
BRANCH  18  28
ATOM     28  O   UNL     1      -6.817   7.677   0.702  1.00  0.00    -0.490 OA
ATOM     29  C   UNL     1      -8.046   8.297   1.062  1.00  0.00     0.278 C 
ENDBRANCH  18  28
BRANCH  21  30
ATOM     30  O   UNL     1      -2.770   9.723  -2.638  1.00  0.00    -0.507 OA
ATOM     31  H   UNL     1      -2.884  10.460  -3.320  1.00  0.00     0.293 HD
ENDBRANCH  21  30
BRANCH  25  32
ATOM     32  C   UNL     1      -3.700   9.892   3.914  1.00  0.00     0.017 A 
ATOM     33  C   UNL     1      -3.191   8.844   4.705  1.00  0.00     0.012 A 
ATOM     34  C   UNL     1      -4.258  11.013   4.551  1.00  0.00     0.012 A 
ATOM     35  C   UNL     1      -3.244   8.922   6.099  1.00  0.00     0.001 A 
ATOM     36  C   UNL     1      -4.301  11.089   5.946  1.00  0.00     0.001 A 
ATOM     37  C   UNL     1      -3.800  10.043   6.720  1.00  0.00     0.000 A 
ENDBRANCH  25  32
ENDBRANCH   1  17
TORSDOF 9
ENDMDL
MODEL 5
REMARK VINA RESULT:    -6.439      2.076      4.553
REMARK INTER + INTRA:         -10.553
REMARK INTER:                  -9.618
REMARK INTRA:                  -0.935
REMARK UNBOUND:                -1.479
REMARK SMILES COc1c(O[C@@H]2O[C@@H](C(=O)[O-])[C@@H](O)[C@H](O)[C@H]2O)cc(O)c2c(=O)cc(-c3ccccc3)oc12
REMARK SMILES IDX 5 1 6 2 8 3 12 4 7 5 14 6 16 7 9 8 10 9 11 10 13 11 15 13
REMARK SMILES IDX 17 15 4 17 3 18 18 19 33 20 19 21 21 22 32 23 22 24 25 25
REMARK SMILES IDX 24 26 23 27 2 28 1 29 20 30 26 32 27 33 31 34 28 35 30 36
REMARK SMILES IDX 29 37
REMARK H PARENT 13 12 15 14 17 16 20 31
REMARK Flexibility Score: inf
ROOT
ATOM      1  O   UNL     1      -6.621   5.258  -3.170  1.00  0.00    -0.458 OA
ENDROOT
BRANCH   1   2
ATOM      2  C   UNL     1      -6.854   4.992  -4.557  1.00  0.00     0.339 C 
ATOM      3  C   UNL     1      -7.789   2.880  -4.131  1.00  0.00     0.199 C 
ATOM      4  C   UNL     1      -6.647   2.108  -4.824  1.00  0.00     0.180 C 
ATOM      5  O   UNL     1      -7.980   4.145  -4.745  1.00  0.00    -0.328 OA
ATOM      6  C   UNL     1      -5.344   2.936  -4.768  1.00  0.00     0.181 C 
ATOM      7  C   UNL     1      -5.583   4.396  -5.207  1.00  0.00     0.214 C 
BRANCH   3   8
ATOM      8  C   UNL     1      -9.078   2.108  -4.187  1.00  0.00     0.073 C 
ATOM      9  O   UNL     1     -10.039   2.421  -3.434  1.00  0.00    -0.547 OA
ATOM     10  O   UNL     1      -9.247   1.087  -5.117  1.00  0.00    -0.547 OA
ENDBRANCH   3   8
BRANCH   4  11
ATOM     11  O   UNL     1      -6.997   1.832  -6.157  1.00  0.00    -0.387 OA
ATOM     12  H   UNL     1      -7.326   2.683  -6.550  1.00  0.00     0.211 HD
ENDBRANCH   4  11
BRANCH   6  13
ATOM     13  O   UNL     1      -4.833   2.929  -3.458  1.00  0.00    -0.387 OA
ATOM     14  H   UNL     1      -3.851   3.047  -3.530  1.00  0.00     0.211 HD
ENDBRANCH   6  13
BRANCH   7  15
ATOM     15  O   UNL     1      -5.630   4.494  -6.611  1.00  0.00    -0.384 OA
ATOM     16  H   UNL     1      -4.707   4.405  -6.962  1.00  0.00     0.211 HD
ENDBRANCH   7  15
ENDBRANCH   1   2
BRANCH   1  17
ATOM     17  C   UNL     1      -6.334   6.501  -2.572  1.00  0.00     0.172 A 
ATOM     18  C   UNL     1      -6.939   6.974  -1.382  1.00  0.00     0.205 A 
ATOM     19  C   UNL     1      -5.382   7.285  -3.220  1.00  0.00     0.097 A 
ATOM     20  C   UNL     1      -6.541   8.233  -0.858  1.00  0.00     0.188 A 
ATOM     21  C   UNL     1      -4.960   8.509  -2.708  1.00  0.00     0.134 A 
ATOM     22  C   UNL     1      -5.567   9.024  -1.532  1.00  0.00     0.111 A 
ATOM     23  O   UNL     1      -7.075   8.674   0.279  1.00  0.00    -0.452 OA
ATOM     24  C   UNL     1      -5.282  10.302  -0.992  1.00  0.00     0.197 A 
ATOM     25  C   UNL     1      -6.769   9.836   0.845  1.00  0.00     0.138 A 
ATOM     26  C   UNL     1      -5.868  10.692   0.210  1.00  0.00     0.100 A 
ATOM     27  O   UNL     1      -4.535  11.125  -1.581  1.00  0.00    -0.289 OA
BRANCH  18  28
ATOM     28  O   UNL     1      -7.924   6.174  -0.773  1.00  0.00    -0.490 OA
ATOM     29  C   UNL     1      -9.282   6.029  -1.171  1.00  0.00     0.278 C 
ENDBRANCH  18  28
BRANCH  21  30
ATOM     30  O   UNL     1      -3.916   9.142  -3.391  1.00  0.00    -0.507 OA
ATOM     31  H   UNL     1      -3.071   9.486  -2.957  1.00  0.00     0.293 HD
ENDBRANCH  21  30
BRANCH  25  32
ATOM     32  C   UNL     1      -7.406  10.201   2.134  1.00  0.00     0.017 A 
ATOM     33  C   UNL     1      -6.634  10.567   3.254  1.00  0.00     0.012 A 
ATOM     34  C   UNL     1      -8.805  10.153   2.260  1.00  0.00     0.012 A 
ATOM     35  C   UNL     1      -7.254  10.874   4.469  1.00  0.00     0.001 A 
ATOM     36  C   UNL     1      -9.420  10.469   3.476  1.00  0.00     0.001 A 
ATOM     37  C   UNL     1      -8.645  10.824   4.580  1.00  0.00     0.000 A 
ENDBRANCH  25  32
ENDBRANCH   1  17
TORSDOF 9
ENDMDL
MODEL 6
REMARK VINA RESULT:    -6.181     12.005     14.852
REMARK INTER + INTRA:         -10.190
REMARK INTER:                  -9.021
REMARK INTRA:                  -1.169
REMARK UNBOUND:                -1.479
REMARK SMILES COc1c(O[C@@H]2O[C@@H](C(=O)[O-])[C@@H](O)[C@H](O)[C@H]2O)cc(O)c2c(=O)cc(-c3ccccc3)oc12
REMARK SMILES IDX 5 1 6 2 8 3 12 4 7 5 14 6 16 7 9 8 10 9 11 10 13 11 15 13
REMARK SMILES IDX 17 15 4 17 3 18 18 19 33 20 19 21 21 22 32 23 22 24 25 25
REMARK SMILES IDX 24 26 23 27 2 28 1 29 20 30 26 32 27 33 31 34 28 35 30 36
REMARK SMILES IDX 29 37
REMARK H PARENT 13 12 15 14 17 16 20 31
REMARK Flexibility Score: inf
ROOT
ATOM      1  O   UNL     1      -1.831  -6.831  -6.256  1.00  0.00    -0.458 OA
ENDROOT
BRANCH   1   2
ATOM      2  C   UNL     1      -1.023  -5.899  -5.528  1.00  0.00     0.339 C 
ATOM      3  C   UNL     1      -1.041  -4.324  -7.270  1.00  0.00     0.199 C 
ATOM      4  C   UNL     1       0.471  -4.448  -7.550  1.00  0.00     0.180 C 
ATOM      5  O   UNL     1      -1.314  -4.557  -5.897  1.00  0.00    -0.328 OA
ATOM      6  C   UNL     1       0.969  -5.850  -7.134  1.00  0.00     0.181 C 
ATOM      7  C   UNL     1       0.476  -6.227  -5.721  1.00  0.00     0.214 C 
BRANCH   3   8
ATOM      8  C   UNL     1      -1.552  -2.960  -7.646  1.00  0.00     0.073 C 
ATOM      9  O   UNL     1      -2.300  -2.818  -8.650  1.00  0.00    -0.547 OA
ATOM     10  O   UNL     1      -1.261  -1.856  -6.852  1.00  0.00    -0.547 OA
ENDBRANCH   3   8
BRANCH   4  11
ATOM     11  O   UNL     1       1.171  -3.449  -6.850  1.00  0.00    -0.387 OA
ATOM     12  H   UNL     1       1.578  -3.887  -6.057  1.00  0.00     0.211 HD
ENDBRANCH   4  11
BRANCH   6  13
ATOM     13  O   UNL     1       0.509  -6.809  -8.053  1.00  0.00    -0.387 OA
ATOM     14  H   UNL     1       1.180  -6.857  -8.782  1.00  0.00     0.211 HD
ENDBRANCH   6  13
BRANCH   7  15
ATOM     15  O   UNL     1       1.268  -5.611  -4.734  1.00  0.00    -0.384 OA
ATOM     16  H   UNL     1       0.666  -5.156  -4.089  1.00  0.00     0.211 HD
ENDBRANCH   7  15
ENDBRANCH   1   2
BRANCH   1  17
ATOM     17  C   UNL     1      -3.238  -6.879  -6.317  1.00  0.00     0.172 A 
ATOM     18  C   UNL     1      -4.086  -6.929  -5.183  1.00  0.00     0.205 A 
ATOM     19  C   UNL     1      -3.795  -6.868  -7.594  1.00  0.00     0.097 A 
ATOM     20  C   UNL     1      -5.494  -6.942  -5.373  1.00  0.00     0.188 A 
ATOM     21  C   UNL     1      -5.172  -6.854  -7.800  1.00  0.00     0.134 A 
ATOM     22  C   UNL     1      -6.049  -6.932  -6.685  1.00  0.00     0.111 A 
ATOM     23  O   UNL     1      -6.302  -6.953  -4.316  1.00  0.00    -0.452 OA
ATOM     24  C   UNL     1      -7.458  -7.028  -6.794  1.00  0.00     0.197 A 
ATOM     25  C   UNL     1      -7.628  -6.968  -4.392  1.00  0.00     0.138 A 
ATOM     26  C   UNL     1      -8.243  -7.020  -5.645  1.00  0.00     0.100 A 
ATOM     27  O   UNL     1      -8.034  -7.154  -7.905  1.00  0.00    -0.289 OA
BRANCH  18  28
ATOM     28  O   UNL     1      -3.490  -6.977  -3.909  1.00  0.00    -0.490 OA
ATOM     29  C   UNL     1      -3.097  -8.137  -3.185  1.00  0.00     0.278 C 
ENDBRANCH  18  28
BRANCH  21  30
ATOM     30  O   UNL     1      -5.601  -6.725  -9.124  1.00  0.00    -0.507 OA
ATOM     31  H   UNL     1      -6.563  -6.794  -9.427  1.00  0.00     0.293 HD
ENDBRANCH  21  30
BRANCH  25  32
ATOM     32  C   UNL     1      -8.424  -6.942  -3.140  1.00  0.00     0.017 A 
ATOM     33  C   UNL     1      -8.332  -5.865  -2.237  1.00  0.00     0.012 A 
ATOM     34  C   UNL     1      -9.264  -8.023  -2.824  1.00  0.00     0.012 A 
ATOM     35  C   UNL     1      -9.064  -5.878  -1.046  1.00  0.00     0.001 A 
ATOM     36  C   UNL     1     -10.000  -8.027  -1.635  1.00  0.00     0.001 A 
ATOM     37  C   UNL     1      -9.896  -6.958  -0.745  1.00  0.00     0.000 A 
ENDBRANCH  25  32
ENDBRANCH   1  17
TORSDOF 9
ENDMDL
MODEL 7
REMARK VINA RESULT:    -6.019      3.867      8.696
REMARK INTER + INTRA:          -9.961
REMARK INTER:                  -8.695
REMARK INTRA:                  -1.265
REMARK UNBOUND:                -1.479
REMARK SMILES COc1c(O[C@@H]2O[C@@H](C(=O)[O-])[C@@H](O)[C@H](O)[C@H]2O)cc(O)c2c(=O)cc(-c3ccccc3)oc12
REMARK SMILES IDX 5 1 6 2 8 3 12 4 7 5 14 6 16 7 9 8 10 9 11 10 13 11 15 13
REMARK SMILES IDX 17 15 4 17 3 18 18 19 33 20 19 21 21 22 32 23 22 24 25 25
REMARK SMILES IDX 24 26 23 27 2 28 1 29 20 30 26 32 27 33 31 34 28 35 30 36
REMARK SMILES IDX 29 37
REMARK H PARENT 13 12 15 14 17 16 20 31
REMARK Flexibility Score: inf
ROOT
ATOM      1  O   UNL     1      -5.157   8.966   2.770  1.00  0.00    -0.458 OA
ENDROOT
BRANCH   1   2
ATOM      2  C   UNL     1      -4.583   8.114   3.767  1.00  0.00     0.339 C 
ATOM      3  C   UNL     1      -6.129   8.773   5.407  1.00  0.00     0.199 C 
ATOM      4  C   UNL     1      -5.070   9.463   6.291  1.00  0.00     0.180 C 
ATOM      5  O   UNL     1      -5.557   7.680   4.706  1.00  0.00    -0.328 OA
ATOM      6  C   UNL     1      -3.889   9.943   5.418  1.00  0.00     0.181 C 
ATOM      7  C   UNL     1      -3.403   8.830   4.466  1.00  0.00     0.214 C 
BRANCH   3   8
ATOM      8  C   UNL     1      -7.284   8.276   6.233  1.00  0.00     0.073 C 
ATOM      9  O   UNL     1      -8.446   8.718   6.029  1.00  0.00    -0.547 OA
ATOM     10  O   UNL     1      -7.093   7.276   7.181  1.00  0.00    -0.547 OA
ENDBRANCH   3   8
BRANCH   4  11
ATOM     11  O   UNL     1      -4.620   8.573   7.281  1.00  0.00    -0.387 OA
ATOM     12  H   UNL     1      -4.775   9.015   8.157  1.00  0.00     0.211 HD
ENDBRANCH   4  11
BRANCH   6  13
ATOM     13  O   UNL     1      -4.283  11.058   4.657  1.00  0.00    -0.387 OA
ATOM     14  H   UNL     1      -3.460  11.436   4.252  1.00  0.00     0.211 HD
ENDBRANCH   6  13
BRANCH   7  15
ATOM     15  O   UNL     1      -2.578   7.914   5.146  1.00  0.00    -0.384 OA
ATOM     16  H   UNL     1      -1.639   8.074   4.870  1.00  0.00     0.211 HD
ENDBRANCH   7  15
ENDBRANCH   1   2
BRANCH   1  17
ATOM     17  C   UNL     1      -5.302   8.698   1.394  1.00  0.00     0.172 A 
ATOM     18  C   UNL     1      -4.340   9.033   0.409  1.00  0.00     0.205 A 
ATOM     19  C   UNL     1      -6.477   8.052   1.017  1.00  0.00     0.097 A 
ATOM     20  C   UNL     1      -4.586   8.681  -0.945  1.00  0.00     0.188 A 
ATOM     21  C   UNL     1      -6.724   7.676  -0.300  1.00  0.00     0.134 A 
ATOM     22  C   UNL     1      -5.793   8.023  -1.315  1.00  0.00     0.111 A 
ATOM     23  O   UNL     1      -3.675   8.959  -1.875  1.00  0.00    -0.452 OA
ATOM     24  C   UNL     1      -6.001   7.776  -2.694  1.00  0.00     0.197 A 
ATOM     25  C   UNL     1      -3.814   8.670  -3.164  1.00  0.00     0.138 A 
ATOM     26  C   UNL     1      -4.998   8.080  -3.611  1.00  0.00     0.100 A 
ATOM     27  O   UNL     1      -7.087   7.317  -3.135  1.00  0.00    -0.289 OA
BRANCH  18  28
ATOM     28  O   UNL     1      -3.181   9.718   0.818  1.00  0.00    -0.490 OA
ATOM     29  C   UNL     1      -2.942  11.119   0.758  1.00  0.00     0.278 C 
ENDBRANCH  18  28
BRANCH  21  30
ATOM     30  O   UNL     1      -7.887   6.932  -0.526  1.00  0.00    -0.507 OA
ATOM     31  H   UNL     1      -7.903   5.958  -0.794  1.00  0.00     0.293 HD
ENDBRANCH  21  30
BRANCH  25  32
ATOM     32  C   UNL     1      -2.712   8.998  -4.100  1.00  0.00     0.017 A 
ATOM     33  C   UNL     1      -1.424   8.450  -3.935  1.00  0.00     0.012 A 
ATOM     34  C   UNL     1      -2.935   9.896  -5.157  1.00  0.00     0.012 A 
ATOM     35  C   UNL     1      -0.391   8.799  -4.809  1.00  0.00     0.001 A 
ATOM     36  C   UNL     1      -1.900  10.236  -6.033  1.00  0.00     0.001 A 
ATOM     37  C   UNL     1      -0.628   9.692  -5.856  1.00  0.00     0.000 A 
ENDBRANCH  25  32
ENDBRANCH   1  17
TORSDOF 9
ENDMDL
MODEL 8
REMARK VINA RESULT:    -5.954      3.587      6.573
REMARK INTER + INTRA:          -9.870
REMARK INTER:                  -8.648
REMARK INTRA:                  -1.222
REMARK UNBOUND:                -1.479
REMARK SMILES COc1c(O[C@@H]2O[C@@H](C(=O)[O-])[C@@H](O)[C@H](O)[C@H]2O)cc(O)c2c(=O)cc(-c3ccccc3)oc12
REMARK SMILES IDX 5 1 6 2 8 3 12 4 7 5 14 6 16 7 9 8 10 9 11 10 13 11 15 13
REMARK SMILES IDX 17 15 4 17 3 18 18 19 33 20 19 21 21 22 32 23 22 24 25 25
REMARK SMILES IDX 24 26 23 27 2 28 1 29 20 30 26 32 27 33 31 34 28 35 30 36
REMARK SMILES IDX 29 37
REMARK H PARENT 13 12 15 14 17 16 20 31
REMARK Flexibility Score: inf
ROOT
ATOM      1  O   UNL     1      -5.450   7.664  -0.861  1.00  0.00    -0.458 OA
ENDROOT
BRANCH   1   2
ATOM      2  C   UNL     1      -6.319   8.096  -1.914  1.00  0.00     0.339 C 
ATOM      3  C   UNL     1      -5.924   6.174  -3.205  1.00  0.00     0.199 C 
ATOM      4  C   UNL     1      -5.210   6.942  -4.336  1.00  0.00     0.180 C 
ATOM      5  O   UNL     1      -6.907   6.993  -2.590  1.00  0.00    -0.328 OA
ATOM      6  C   UNL     1      -4.563   8.227  -3.772  1.00  0.00     0.181 C 
ATOM      7  C   UNL     1      -5.555   9.018  -2.893  1.00  0.00     0.214 C 
BRANCH   3   8
ATOM      8  C   UNL     1      -6.582   4.927  -3.728  1.00  0.00     0.073 C 
ATOM      9  O   UNL     1      -7.709   4.991  -4.288  1.00  0.00    -0.547 OA
ATOM     10  O   UNL     1      -5.924   3.703  -3.660  1.00  0.00    -0.547 OA
ENDBRANCH   3   8
BRANCH   4  11
ATOM     11  O   UNL     1      -6.127   7.259  -5.352  1.00  0.00    -0.387 OA
ATOM     12  H   UNL     1      -6.152   6.481  -5.970  1.00  0.00     0.211 HD
ENDBRANCH   4  11
BRANCH   6  13
ATOM     13  O   UNL     1      -3.435   7.892  -3.003  1.00  0.00    -0.387 OA
ATOM     14  H   UNL     1      -3.769   7.491  -2.159  1.00  0.00     0.211 HD
ENDBRANCH   6  13
BRANCH   7  15
ATOM     15  O   UNL     1      -6.441   9.768  -3.689  1.00  0.00    -0.384 OA
ATOM     16  H   UNL     1      -5.951  10.552  -4.049  1.00  0.00     0.211 HD
ENDBRANCH   7  15
ENDBRANCH   1   2
BRANCH   1  17
ATOM     17  C   UNL     1      -5.249   8.280   0.390  1.00  0.00     0.172 A 
ATOM     18  C   UNL     1      -6.211   8.310   1.430  1.00  0.00     0.205 A 
ATOM     19  C   UNL     1      -4.008   8.882   0.583  1.00  0.00     0.097 A 
ATOM     20  C   UNL     1      -5.878   8.934   2.662  1.00  0.00     0.188 A 
ATOM     21  C   UNL     1      -3.654   9.477   1.791  1.00  0.00     0.134 A 
ATOM     22  C   UNL     1      -4.606   9.548   2.843  1.00  0.00     0.111 A 
ATOM     23  O   UNL     1      -6.760   8.939   3.659  1.00  0.00    -0.452 OA
ATOM     24  C   UNL     1      -4.378  10.220   4.069  1.00  0.00     0.197 A 
ATOM     25  C   UNL     1      -6.541   9.498   4.844  1.00  0.00     0.138 A 
ATOM     26  C   UNL     1      -5.340  10.171   5.075  1.00  0.00     0.100 A 
ATOM     27  O   UNL     1      -3.339  10.898   4.276  1.00  0.00    -0.289 OA
BRANCH  18  28
ATOM     28  O   UNL     1      -7.468   7.725   1.189  1.00  0.00    -0.490 OA
ATOM     29  C   UNL     1      -8.653   8.379   0.750  1.00  0.00     0.278 C 
ENDBRANCH  18  28
BRANCH  21  30
ATOM     30  O   UNL     1      -2.339   9.941   1.894  1.00  0.00    -0.507 OA
ATOM     31  H   UNL     1      -1.839  10.420   1.158  1.00  0.00     0.293 HD
ENDBRANCH  21  30
BRANCH  25  32
ATOM     32  C   UNL     1      -7.589   9.405   5.890  1.00  0.00     0.017 A 
ATOM     33  C   UNL     1      -8.939   9.688   5.600  1.00  0.00     0.012 A 
ATOM     34  C   UNL     1      -7.235   9.062   7.206  1.00  0.00     0.012 A 
ATOM     35  C   UNL     1      -9.905   9.628   6.609  1.00  0.00     0.001 A 
ATOM     36  C   UNL     1      -8.207   8.996   8.209  1.00  0.00     0.001 A 
ATOM     37  C   UNL     1      -9.539   9.284   7.912  1.00  0.00     0.000 A 
ENDBRANCH  25  32
ENDBRANCH   1  17
TORSDOF 9
ENDMDL
MODEL 9
REMARK VINA RESULT:    -5.713      5.263     10.546
REMARK INTER + INTRA:          -9.530
REMARK INTER:                  -8.188
REMARK INTRA:                  -1.341
REMARK UNBOUND:                -1.479
REMARK SMILES COc1c(O[C@@H]2O[C@@H](C(=O)[O-])[C@@H](O)[C@H](O)[C@H]2O)cc(O)c2c(=O)cc(-c3ccccc3)oc12
REMARK SMILES IDX 5 1 6 2 8 3 12 4 7 5 14 6 16 7 9 8 10 9 11 10 13 11 15 13
REMARK SMILES IDX 17 15 4 17 3 18 18 19 33 20 19 21 21 22 32 23 22 24 25 25
REMARK SMILES IDX 24 26 23 27 2 28 1 29 20 30 26 32 27 33 31 34 28 35 30 36
REMARK SMILES IDX 29 37
REMARK H PARENT 13 12 15 14 17 16 20 31
REMARK Flexibility Score: inf
ROOT
ATOM      1  O   UNL     1      -4.453   9.245   6.101  1.00  0.00    -0.458 OA
ENDROOT
BRANCH   1   2
ATOM      2  C   UNL     1      -3.495   8.638   6.976  1.00  0.00     0.339 C 
ATOM      3  C   UNL     1      -5.028   7.041   7.760  1.00  0.00     0.199 C 
ATOM      4  C   UNL     1      -5.046   7.599   9.199  1.00  0.00     0.180 C 
ATOM      5  O   UNL     1      -3.760   7.254   7.160  1.00  0.00    -0.328 OA
ATOM      6  C   UNL     1      -4.705   9.106   9.183  1.00  0.00     0.181 C 
ATOM      7  C   UNL     1      -3.453   9.391   8.326  1.00  0.00     0.214 C 
BRANCH   3   8
ATOM      8  C   UNL     1      -5.337   5.569   7.746  1.00  0.00     0.073 C 
ATOM      9  O   UNL     1      -6.399   5.150   7.214  1.00  0.00    -0.547 OA
ATOM     10  O   UNL     1      -4.422   4.653   8.255  1.00  0.00    -0.547 OA
ENDBRANCH   3   8
BRANCH   4  11
ATOM     11  O   UNL     1      -4.127   6.895   9.996  1.00  0.00    -0.387 OA
ATOM     12  H   UNL     1      -4.659   6.315  10.603  1.00  0.00     0.211 HD
ENDBRANCH   4  11
BRANCH   6  13
ATOM     13  O   UNL     1      -5.791   9.833   8.664  1.00  0.00    -0.387 OA
ATOM     14  H   UNL     1      -5.596  10.793   8.820  1.00  0.00     0.211 HD
ENDBRANCH   6  13
BRANCH   7  15
ATOM     15  O   UNL     1      -2.278   9.094   9.043  1.00  0.00    -0.384 OA
ATOM     16  H   UNL     1      -2.191   8.108   9.106  1.00  0.00     0.211 HD
ENDBRANCH   7  15
ENDBRANCH   1   2
BRANCH   1  17
ATOM     17  C   UNL     1      -4.502   9.163   4.696  1.00  0.00     0.172 A 
ATOM     18  C   UNL     1      -5.594   8.636   3.964  1.00  0.00     0.205 A 
ATOM     19  C   UNL     1      -3.387   9.648   4.015  1.00  0.00     0.097 A 
ATOM     20  C   UNL     1      -5.540   8.637   2.544  1.00  0.00     0.188 A 
ATOM     21  C   UNL     1      -3.326   9.681   2.625  1.00  0.00     0.134 A 
ATOM     22  C   UNL     1      -4.393   9.135   1.863  1.00  0.00     0.111 A 
ATOM     23  O   UNL     1      -6.575   8.177   1.844  1.00  0.00    -0.452 OA
ATOM     24  C   UNL     1      -4.380   9.028   0.450  1.00  0.00     0.197 A 
ATOM     25  C   UNL     1      -6.616   8.136   0.517  1.00  0.00     0.138 A 
ATOM     26  C   UNL     1      -5.504   8.551  -0.219  1.00  0.00     0.100 A 
ATOM     27  O   UNL     1      -3.365   9.321  -0.232  1.00  0.00    -0.289 OA
BRANCH  18  28
ATOM     28  O   UNL     1      -6.689   8.119   4.682  1.00  0.00    -0.490 OA
ATOM     29  C   UNL     1      -7.660   8.854   5.418  1.00  0.00     0.278 C 
ENDBRANCH  18  28
BRANCH  21  30
ATOM     30  O   UNL     1      -2.203  10.299   2.067  1.00  0.00    -0.507 OA
ATOM     31  H   UNL     1      -1.981  11.281   2.160  1.00  0.00     0.293 HD
ENDBRANCH  21  30
BRANCH  25  32
ATOM     32  C   UNL     1      -7.842   7.634  -0.152  1.00  0.00     0.017 A 
ATOM     33  C   UNL     1      -8.985   7.276   0.589  1.00  0.00     0.012 A 
ATOM     34  C   UNL     1      -7.863   7.478  -1.548  1.00  0.00     0.012 A 
ATOM     35  C   UNL     1     -10.117   6.774  -0.058  1.00  0.00     0.001 A 
ATOM     36  C   UNL     1      -9.001   6.982  -2.191  1.00  0.00     0.001 A 
ATOM     37  C   UNL     1     -10.125   6.625  -1.446  1.00  0.00     0.000 A 
ENDBRANCH  25  32
ENDBRANCH   1  17
TORSDOF 9
ENDMDL
