MODEL 1
REMARK VINA RESULT:    -8.113      0.000      0.000
REMARK INTER + INTRA:          -8.994
REMARK INTER:                  -8.825
REMARK INTRA:                  -0.169
REMARK UNBOUND:                -0.169
REMARK SMILES CC(=O)[C@H]1CC[C@@H]2[C@@H]3CC=C4C[C@@H](O)CC[C@]4(C)[C@H]3CC[C@]12C
REMARK SMILES IDX 4 1 5 2 6 3 7 4 22 5 21 6 20 7 19 8 8 9 9 10 10 11 11 12
REMARK SMILES IDX 17 13 16 14 15 15 13 16 12 17 18 18 23 19 2 20 1 21 3 22
REMARK SMILES IDX 14 23
REMARK H PARENT 14 24
REMARK Flexibility Score: inf
ROOT
ATOM      1  C   UNL     1      18.750 -11.297  68.569  1.00  0.00     0.062 C 
ATOM      2  C   UNL     1      19.239  -9.852  68.509  1.00  0.00     0.012 C 
ATOM      3  C   UNL     1      18.746  -9.346  67.169  1.00  0.00     0.005 C 
ATOM      4  C   UNL     1      18.932 -10.534  66.217  1.00  0.00    -0.001 C 
ATOM      5  C   UNL     1      18.821 -11.824  67.095  1.00  0.00    -0.020 C 
ATOM      6  C   UNL     1      17.556 -12.667  66.745  1.00  0.00     0.008 C 
ATOM      7  C   UNL     1      16.307 -11.808  66.485  1.00  0.00     0.005 C 
ATOM      8  C   UNL     1      16.500 -10.759  65.348  1.00  0.00     0.003 C 
ATOM      9  C   UNL     1      17.991 -10.546  64.983  1.00  0.00     0.000 C 
ATOM     10  C   UNL     1      18.132  -9.284  64.124  1.00  0.00     0.031 C 
ATOM     11  C   UNL     1      17.167  -9.286  62.968  1.00  0.00    -0.027 C 
ATOM     12  C   UNL     1      15.997  -9.969  62.968  1.00  0.00    -0.065 C 
ATOM     13  C   UNL     1      15.636 -11.005  64.052  1.00  0.00    -0.008 C 
ATOM     14  C   UNL     1      14.124 -10.841  64.412  1.00  0.00     0.014 C 
ATOM     15  C   UNL     1      13.193 -10.757  63.193  1.00  0.00     0.033 C 
ATOM     16  C   UNL     1      13.622  -9.626  62.246  1.00  0.00     0.118 C 
ATOM     17  C   UNL     1      15.070  -9.818  61.777  1.00  0.00     0.063 C 
ATOM     18  C   UNL     1      15.885 -12.424  63.468  1.00  0.00     0.016 C 
ATOM     19  C   UNL     1      20.074 -12.704  66.853  1.00  0.00     0.012 C 
ENDROOT
BRANCH   1  20
ATOM     20  C   UNL     1      19.435 -12.168  69.613  1.00  0.00     0.133 C 
ATOM     21  C   UNL     1      18.793 -13.397  70.194  1.00  0.00     0.088 C 
ATOM     22  O   UNL     1      20.559 -11.865  69.983  1.00  0.00    -0.300 OA
ENDBRANCH   1  20
BRANCH  16  23
ATOM     23  O   UNL     1      12.751  -9.542  61.147  1.00  0.00    -0.393 OA
ATOM     24  H   UNL     1      12.020 -10.198  61.290  1.00  0.00     0.210 HD
ENDBRANCH  16  23
TORSDOF 2
ENDMDL
MODEL 2
REMARK VINA RESULT:    -8.047      1.342      7.018
REMARK INTER + INTRA:          -8.922
REMARK INTER:                  -8.747
REMARK INTRA:                  -0.175
REMARK UNBOUND:                -0.169
REMARK SMILES CC(=O)[C@H]1CC[C@@H]2[C@@H]3CC=C4C[C@@H](O)CC[C@]4(C)[C@H]3CC[C@]12C
REMARK SMILES IDX 4 1 5 2 6 3 7 4 22 5 21 6 20 7 19 8 8 9 9 10 10 11 11 12
REMARK SMILES IDX 17 13 16 14 15 15 13 16 12 17 18 18 23 19 2 20 1 21 3 22
REMARK SMILES IDX 14 23
REMARK H PARENT 14 24
REMARK Flexibility Score: inf
ROOT
ATOM      1  C   UNL     1      16.176 -10.919  62.794  1.00  0.00     0.062 C 
ATOM      2  C   UNL     1      16.723  -9.493  62.796  1.00  0.00     0.012 C 
ATOM      3  C   UNL     1      17.419  -9.363  64.135  1.00  0.00     0.005 C 
ATOM      4  C   UNL     1      16.513 -10.117  65.115  1.00  0.00    -0.001 C 
ATOM      5  C   UNL     1      15.778 -11.217  64.280  1.00  0.00    -0.020 C 
ATOM      6  C   UNL     1      16.211 -12.657  64.693  1.00  0.00     0.008 C 
ATOM      7  C   UNL     1      17.719 -12.783  64.965  1.00  0.00     0.005 C 
ATOM      8  C   UNL     1      18.236 -11.806  66.064  1.00  0.00     0.003 C 
ATOM      9  C   UNL     1      17.223 -10.675  66.377  1.00  0.00     0.000 C 
ATOM     10  C   UNL     1      17.917  -9.579  67.195  1.00  0.00     0.031 C 
ATOM     11  C   UNL     1      18.653 -10.148  68.379  1.00  0.00    -0.027 C 
ATOM     12  C   UNL     1      19.117 -11.420  68.435  1.00  0.00    -0.065 C 
ATOM     13  C   UNL     1      18.737 -12.492  67.393  1.00  0.00    -0.008 C 
ATOM     14  C   UNL     1      20.008 -13.346  67.074  1.00  0.00     0.014 C 
ATOM     15  C   UNL     1      20.771 -13.824  68.319  1.00  0.00     0.033 C 
ATOM     16  C   UNL     1      21.159 -12.641  69.218  1.00  0.00     0.118 C 
ATOM     17  C   UNL     1      19.920 -11.845  69.649  1.00  0.00     0.063 C 
ATOM     18  C   UNL     1      17.636 -13.400  68.011  1.00  0.00     0.016 C 
ATOM     19  C   UNL     1      14.250 -11.084  64.509  1.00  0.00     0.012 C 
ENDROOT
BRANCH   1  20
ATOM     20  C   UNL     1      15.098 -11.196  61.755  1.00  0.00     0.133 C 
ATOM     21  C   UNL     1      14.260 -10.108  61.143  1.00  0.00     0.088 C 
ATOM     22  O   UNL     1      14.918 -12.348  61.391  1.00  0.00    -0.300 OA
ENDBRANCH   1  20
BRANCH  16  23
ATOM     23  O   UNL     1      21.878 -13.086  70.340  1.00  0.00    -0.393 OA
ATOM     24  H   UNL     1      22.544 -12.386  70.570  1.00  0.00     0.210 HD
ENDBRANCH  16  23
TORSDOF 2
ENDMDL
MODEL 3
REMARK VINA RESULT:    -7.920      1.480      6.962
REMARK INTER + INTRA:          -8.783
REMARK INTER:                  -8.631
REMARK INTRA:                  -0.152
REMARK UNBOUND:                -0.169
REMARK SMILES CC(=O)[C@H]1CC[C@@H]2[C@@H]3CC=C4C[C@@H](O)CC[C@]4(C)[C@H]3CC[C@]12C
REMARK SMILES IDX 4 1 5 2 6 3 7 4 22 5 21 6 20 7 19 8 8 9 9 10 10 11 11 12
REMARK SMILES IDX 17 13 16 14 15 15 13 16 12 17 18 18 23 19 2 20 1 21 3 22
REMARK SMILES IDX 14 23
REMARK H PARENT 14 24
REMARK Flexibility Score: inf
ROOT
ATOM      1  C   UNL     1      13.951 -11.782  62.572  1.00  0.00     0.062 C 
ATOM      2  C   UNL     1      14.983 -12.148  61.508  1.00  0.00     0.012 C 
ATOM      3  C   UNL     1      16.317 -11.896  62.179  1.00  0.00     0.005 C 
ATOM      4  C   UNL     1      16.098 -10.621  63.003  1.00  0.00    -0.001 C 
ATOM      5  C   UNL     1      14.578 -10.589  63.370  1.00  0.00    -0.020 C 
ATOM      6  C   UNL     1      14.339 -10.758  64.902  1.00  0.00     0.008 C 
ATOM      7  C   UNL     1      15.259 -11.806  65.548  1.00  0.00     0.005 C 
ATOM      8  C   UNL     1      16.776 -11.512  65.341  1.00  0.00     0.003 C 
ATOM      9  C   UNL     1      17.032 -10.460  64.232  1.00  0.00     0.000 C 
ATOM     10  C   UNL     1      18.516 -10.472  63.850  1.00  0.00     0.031 C 
ATOM     11  C   UNL     1      19.405 -10.378  65.061  1.00  0.00    -0.027 C 
ATOM     12  C   UNL     1      19.031 -10.777  66.300  1.00  0.00    -0.065 C 
ATOM     13  C   UNL     1      17.576 -11.150  66.651  1.00  0.00    -0.008 C 
ATOM     14  C   UNL     1      17.598 -12.399  67.593  1.00  0.00     0.014 C 
ATOM     15  C   UNL     1      18.589 -12.287  68.762  1.00  0.00     0.033 C 
ATOM     16  C   UNL     1      20.011 -12.000  68.255  1.00  0.00     0.118 C 
ATOM     17  C   UNL     1      20.051 -10.713  67.421  1.00  0.00     0.063 C 
ATOM     18  C   UNL     1      16.932  -9.945  67.393  1.00  0.00     0.016 C 
ATOM     19  C   UNL     1      13.986  -9.224  62.933  1.00  0.00     0.012 C 
ENDROOT
BRANCH   1  20
ATOM     20  C   UNL     1      12.538 -11.557  62.051  1.00  0.00     0.133 C 
ATOM     21  C   UNL     1      12.221 -11.437  60.587  1.00  0.00     0.088 C 
ATOM     22  O   UNL     1      11.622 -11.487  62.856  1.00  0.00    -0.300 OA
ENDBRANCH   1  20
BRANCH  16  23
ATOM     23  O   UNL     1      20.914 -11.924  69.329  1.00  0.00    -0.393 OA
ATOM     24  H   UNL     1      21.819 -12.132  68.978  1.00  0.00     0.210 HD
ENDBRANCH  16  23
TORSDOF 2
ENDMDL
MODEL 4
REMARK VINA RESULT:    -7.879      1.397      2.244
REMARK INTER + INTRA:          -8.739
REMARK INTER:                  -8.633
REMARK INTRA:                  -0.106
REMARK UNBOUND:                -0.169
REMARK SMILES CC(=O)[C@H]1CC[C@@H]2[C@@H]3CC=C4C[C@@H](O)CC[C@]4(C)[C@H]3CC[C@]12C
REMARK SMILES IDX 4 1 5 2 6 3 7 4 22 5 21 6 20 7 19 8 8 9 9 10 10 11 11 12
REMARK SMILES IDX 17 13 16 14 15 15 13 16 12 17 18 18 23 19 2 20 1 21 3 22
REMARK SMILES IDX 14 23
REMARK H PARENT 14 24
REMARK Flexibility Score: inf
ROOT
ATOM      1  C   UNL     1      19.400 -11.502  67.712  1.00  0.00     0.062 C 
ATOM      2  C   UNL     1      20.394 -12.161  66.758  1.00  0.00     0.012 C 
ATOM      3  C   UNL     1      19.595 -12.400  65.494  1.00  0.00     0.005 C 
ATOM      4  C   UNL     1      18.208 -12.827  65.989  1.00  0.00    -0.001 C 
ATOM      5  C   UNL     1      18.013 -12.155  67.388  1.00  0.00    -0.020 C 
ATOM      6  C   UNL     1      16.883 -11.079  67.372  1.00  0.00     0.008 C 
ATOM      7  C   UNL     1      16.887 -10.214  66.101  1.00  0.00     0.005 C 
ATOM      8  C   UNL     1      16.764 -11.042  64.785  1.00  0.00     0.003 C 
ATOM      9  C   UNL     1      17.040 -12.551  65.005  1.00  0.00     0.000 C 
ATOM     10  C   UNL     1      17.239 -13.237  63.648  1.00  0.00     0.031 C 
ATOM     11  C   UNL     1      16.128 -12.905  62.688  1.00  0.00    -0.027 C 
ATOM     12  C   UNL     1      15.379 -11.779  62.765  1.00  0.00    -0.065 C 
ATOM     13  C   UNL     1      15.426 -10.829  63.979  1.00  0.00    -0.008 C 
ATOM     14  C   UNL     1      15.377  -9.355  63.459  1.00  0.00     0.014 C 
ATOM     15  C   UNL     1      14.281  -9.095  62.413  1.00  0.00     0.033 C 
ATOM     16  C   UNL     1      14.414 -10.057  61.222  1.00  0.00     0.118 C 
ATOM     17  C   UNL     1      14.349 -11.519  61.683  1.00  0.00     0.063 C 
ATOM     18  C   UNL     1      14.180 -11.114  64.865  1.00  0.00     0.016 C 
ATOM     19  C   UNL     1      17.630 -13.247  68.420  1.00  0.00     0.012 C 
ENDROOT
BRANCH   1  20
ATOM     20  C   UNL     1      19.807 -11.514  69.179  1.00  0.00     0.133 C 
ATOM     21  C   UNL     1      20.624 -12.621  69.787  1.00  0.00     0.088 C 
ATOM     22  O   UNL     1      19.471 -10.578  69.888  1.00  0.00    -0.300 OA
ENDBRANCH   1  20
BRANCH  16  23
ATOM     23  O   UNL     1      13.424  -9.795  60.260  1.00  0.00    -0.393 OA
ATOM     24  H   UNL     1      12.986 -10.657  60.035  1.00  0.00     0.210 HD
ENDBRANCH  16  23
TORSDOF 2
ENDMDL
MODEL 5
REMARK VINA RESULT:    -7.601      1.605      2.967
REMARK INTER + INTRA:          -8.437
REMARK INTER:                  -8.337
REMARK INTRA:                  -0.100
REMARK UNBOUND:                -0.169
REMARK SMILES CC(=O)[C@H]1CC[C@@H]2[C@@H]3CC=C4C[C@@H](O)CC[C@]4(C)[C@H]3CC[C@]12C
REMARK SMILES IDX 4 1 5 2 6 3 7 4 22 5 21 6 20 7 19 8 8 9 9 10 10 11 11 12
REMARK SMILES IDX 17 13 16 14 15 15 13 16 12 17 18 18 23 19 2 20 1 21 3 22
REMARK SMILES IDX 14 23
REMARK H PARENT 14 24
REMARK Flexibility Score: inf
ROOT
ATOM      1  C   UNL     1      19.848 -13.183  68.634  1.00  0.00     0.062 C 
ATOM      2  C   UNL     1      18.687 -13.549  69.556  1.00  0.00     0.012 C 
ATOM      3  C   UNL     1      17.451 -13.183  68.762  1.00  0.00     0.005 C 
ATOM      4  C   UNL     1      17.823 -11.878  68.047  1.00  0.00    -0.001 C 
ATOM      5  C   UNL     1      19.375 -11.913  67.848  1.00  0.00    -0.020 C 
ATOM      6  C   UNL     1      19.773 -12.009  66.344  1.00  0.00     0.008 C 
ATOM      7  C   UNL     1      18.878 -12.965  65.538  1.00  0.00     0.005 C 
ATOM      8  C   UNL     1      17.364 -12.597  65.599  1.00  0.00     0.003 C 
ATOM      9  C   UNL     1      17.041 -11.595  66.737  1.00  0.00     0.000 C 
ATOM     10  C   UNL     1      15.525 -11.544  66.956  1.00  0.00     0.031 C 
ATOM     11  C   UNL     1      14.781 -11.331  65.664  1.00  0.00    -0.027 C 
ATOM     12  C   UNL     1      15.270 -11.681  64.450  1.00  0.00    -0.065 C 
ATOM     13  C   UNL     1      16.734 -12.117  64.235  1.00  0.00    -0.008 C 
ATOM     14  C   UNL     1      16.753 -13.307  63.221  1.00  0.00     0.014 C 
ATOM     15  C   UNL     1      15.905 -13.073  61.962  1.00  0.00     0.033 C 
ATOM     16  C   UNL     1      14.452 -12.734  62.330  1.00  0.00     0.118 C 
ATOM     17  C   UNL     1      14.385 -11.496  63.233  1.00  0.00     0.063 C 
ATOM     18  C   UNL     1      17.516 -10.911  63.644  1.00  0.00     0.016 C 
ATOM     19  C   UNL     1      19.983 -10.610  68.430  1.00  0.00     0.012 C 
ENDROOT
BRANCH   1  20
ATOM     20  C   UNL     1      21.204 -13.069  69.316  1.00  0.00     0.133 C 
ATOM     21  C   UNL     1      22.492 -13.438  68.634  1.00  0.00     0.088 C 
ATOM     22  O   UNL     1      21.249 -12.643  70.460  1.00  0.00    -0.300 OA
ENDBRANCH   1  20
BRANCH  16  23
ATOM     23  O   UNL     1      13.678 -12.546  61.171  1.00  0.00    -0.393 OA
ATOM     24  H   UNL     1      13.853 -11.628  60.837  1.00  0.00     0.210 HD
ENDBRANCH  16  23
TORSDOF 2
ENDMDL
MODEL 6
REMARK VINA RESULT:    -7.527      1.188      7.072
REMARK INTER + INTRA:          -8.356
REMARK INTER:                  -8.194
REMARK INTRA:                  -0.162
REMARK UNBOUND:                -0.169
REMARK SMILES CC(=O)[C@H]1CC[C@@H]2[C@@H]3CC=C4C[C@@H](O)CC[C@]4(C)[C@H]3CC[C@]12C
REMARK SMILES IDX 4 1 5 2 6 3 7 4 22 5 21 6 20 7 19 8 8 9 9 10 10 11 11 12
REMARK SMILES IDX 17 13 16 14 15 15 13 16 12 17 18 18 23 19 2 20 1 21 3 22
REMARK SMILES IDX 14 23
REMARK H PARENT 14 24
REMARK Flexibility Score: inf
ROOT
ATOM      1  C   UNL     1      14.320 -10.367  63.978  1.00  0.00     0.062 C 
ATOM      2  C   UNL     1      13.738 -11.777  64.058  1.00  0.00     0.012 C 
ATOM      3  C   UNL     1      14.831 -12.595  64.713  1.00  0.00     0.005 C 
ATOM      4  C   UNL     1      16.133 -12.053  64.110  1.00  0.00    -0.001 C 
ATOM      5  C   UNL     1      15.855 -10.561  63.730  1.00  0.00    -0.020 C 
ATOM      6  C   UNL     1      16.688  -9.568  64.597  1.00  0.00     0.008 C 
ATOM      7  C   UNL     1      16.772  -9.977  66.077  1.00  0.00     0.005 C 
ATOM      8  C   UNL     1      17.368 -11.401  66.294  1.00  0.00     0.003 C 
ATOM      9  C   UNL     1      17.397 -12.238  64.991  1.00  0.00     0.000 C 
ATOM     10  C   UNL     1      17.666 -13.708  65.334  1.00  0.00     0.031 C 
ATOM     11  C   UNL     1      18.858 -13.861  66.239  1.00  0.00    -0.027 C 
ATOM     12  C   UNL     1      19.297 -12.888  67.074  1.00  0.00    -0.065 C 
ATOM     13  C   UNL     1      18.769 -11.440  67.017  1.00  0.00    -0.008 C 
ATOM     14  C   UNL     1      18.599 -10.916  68.481  1.00  0.00     0.014 C 
ATOM     15  C   UNL     1      19.812 -11.179  69.387  1.00  0.00     0.033 C 
ATOM     16  C   UNL     1      20.167 -12.674  69.414  1.00  0.00     0.118 C 
ATOM     17  C   UNL     1      20.457 -13.199  68.001  1.00  0.00     0.063 C 
ATOM     18  C   UNL     1      19.817 -10.572  66.267  1.00  0.00     0.016 C 
ATOM     19  C   UNL     1      16.235 -10.344  62.242  1.00  0.00     0.012 C 
ENDROOT
BRANCH   1  20
ATOM     20  C   UNL     1      13.610  -9.429  63.011  1.00  0.00     0.133 C 
ATOM     21  C   UNL     1      13.793  -7.937  63.044  1.00  0.00     0.088 C 
ATOM     22  O   UNL     1      12.874  -9.910  62.163  1.00  0.00    -0.300 OA
ENDBRANCH   1  20
BRANCH  16  23
ATOM     23  O   UNL     1      21.262 -12.908  70.264  1.00  0.00    -0.393 OA
ATOM     24  H   UNL     1      21.784 -13.662  69.884  1.00  0.00     0.210 HD
ENDBRANCH  16  23
TORSDOF 2
ENDMDL
MODEL 7
REMARK VINA RESULT:    -7.428      1.822      7.224
REMARK INTER + INTRA:          -8.249
REMARK INTER:                  -8.085
REMARK INTRA:                  -0.164
REMARK UNBOUND:                -0.169
REMARK SMILES CC(=O)[C@H]1CC[C@@H]2[C@@H]3CC=C4C[C@@H](O)CC[C@]4(C)[C@H]3CC[C@]12C
REMARK SMILES IDX 4 1 5 2 6 3 7 4 22 5 21 6 20 7 19 8 8 9 9 10 10 11 11 12
REMARK SMILES IDX 17 13 16 14 15 15 13 16 12 17 18 18 23 19 2 20 1 21 3 22
REMARK SMILES IDX 14 23
REMARK H PARENT 14 24
REMARK Flexibility Score: inf
ROOT
ATOM      1  C   UNL     1      13.769 -11.137  61.359  1.00  0.00     0.062 C 
ATOM      2  C   UNL     1      12.599 -10.685  62.228  1.00  0.00     0.012 C 
ATOM      3  C   UNL     1      13.158 -10.686  63.636  1.00  0.00     0.005 C 
ATOM      4  C   UNL     1      14.061 -11.923  63.691  1.00  0.00    -0.001 C 
ATOM      5  C   UNL     1      14.566 -12.166  62.231  1.00  0.00    -0.020 C 
ATOM      6  C   UNL     1      16.103 -11.938  62.094  1.00  0.00     0.008 C 
ATOM      7  C   UNL     1      16.609 -10.721  62.885  1.00  0.00     0.005 C 
ATOM      8  C   UNL     1      16.280 -10.791  64.408  1.00  0.00     0.003 C 
ATOM      9  C   UNL     1      15.207 -11.860  64.736  1.00  0.00     0.000 C 
ATOM     10  C   UNL     1      14.691 -11.644  66.163  1.00  0.00     0.031 C 
ATOM     11  C   UNL     1      15.820 -11.522  67.152  1.00  0.00    -0.027 C 
ATOM     12  C   UNL     1      17.066 -11.106  66.822  1.00  0.00    -0.065 C 
ATOM     13  C   UNL     1      17.529 -10.940  65.360  1.00  0.00    -0.008 C 
ATOM     14  C   UNL     1      18.400  -9.646  65.259  1.00  0.00     0.014 C 
ATOM     15  C   UNL     1      19.479  -9.529  66.348  1.00  0.00     0.033 C 
ATOM     16  C   UNL     1      18.860  -9.625  67.751  1.00  0.00     0.118 C 
ATOM     17  C   UNL     1      18.091 -10.941  67.927  1.00  0.00     0.063 C 
ATOM     18  C   UNL     1      18.385 -12.180  64.978  1.00  0.00     0.016 C 
ATOM     19  C   UNL     1      14.254 -13.631  61.829  1.00  0.00     0.012 C 
ENDROOT
BRANCH   1  20
ATOM     20  C   UNL     1      13.391 -11.610  59.961  1.00  0.00     0.133 C 
ATOM     21  C   UNL     1      12.028 -12.146  59.626  1.00  0.00     0.088 C 
ATOM     22  O   UNL     1      14.226 -11.535  59.072  1.00  0.00    -0.300 OA
ENDBRANCH   1  20
BRANCH  16  23
ATOM     23  O   UNL     1      19.850  -9.492  68.740  1.00  0.00    -0.393 OA
ATOM     24  H   UNL     1      20.156 -10.404  68.985  1.00  0.00     0.210 HD
ENDBRANCH  16  23
TORSDOF 2
ENDMDL
MODEL 8
REMARK VINA RESULT:    -7.415     15.838     17.500
REMARK INTER + INTRA:          -8.234
REMARK INTER:                  -8.077
REMARK INTRA:                  -0.157
REMARK UNBOUND:                -0.169
REMARK SMILES CC(=O)[C@H]1CC[C@@H]2[C@@H]3CC=C4C[C@@H](O)CC[C@]4(C)[C@H]3CC[C@]12C
REMARK SMILES IDX 4 1 5 2 6 3 7 4 22 5 21 6 20 7 19 8 8 9 9 10 10 11 11 12
REMARK SMILES IDX 17 13 16 14 15 15 13 16 12 17 18 18 23 19 2 20 1 21 3 22
REMARK SMILES IDX 14 23
REMARK H PARENT 14 24
REMARK Flexibility Score: inf
ROOT
ATOM      1  C   UNL     1       6.451   2.921  63.163  1.00  0.00     0.062 C 
ATOM      2  C   UNL     1       6.320   4.439  63.264  1.00  0.00     0.012 C 
ATOM      3  C   UNL     1       7.435   4.969  62.388  1.00  0.00     0.005 C 
ATOM      4  C   UNL     1       8.612   4.020  62.645  1.00  0.00    -0.001 C 
ATOM      5  C   UNL     1       7.988   2.641  63.040  1.00  0.00    -0.020 C 
ATOM      6  C   UNL     1       8.268   1.540  61.971  1.00  0.00     0.008 C 
ATOM      7  C   UNL     1       8.142   2.051  60.526  1.00  0.00     0.005 C 
ATOM      8  C   UNL     1       9.076   3.258  60.211  1.00  0.00     0.003 C 
ATOM      9  C   UNL     1       9.646   3.920  61.492  1.00  0.00     0.000 C 
ATOM     10  C   UNL     1      10.262   5.278  61.134  1.00  0.00     0.031 C 
ATOM     11  C   UNL     1      11.214   5.169  59.973  1.00  0.00    -0.027 C 
ATOM     12  C   UNL     1      11.142   4.199  59.031  1.00  0.00    -0.065 C 
ATOM     13  C   UNL     1      10.228   2.965  59.173  1.00  0.00    -0.008 C 
ATOM     14  C   UNL     1       9.588   2.658  57.780  1.00  0.00     0.014 C 
ATOM     15  C   UNL     1      10.591   2.649  56.616  1.00  0.00     0.033 C 
ATOM     16  C   UNL     1      11.367   3.974  56.546  1.00  0.00     0.118 C 
ATOM     17  C   UNL     1      12.106   4.253  57.861  1.00  0.00     0.063 C 
ATOM     18  C   UNL     1      11.103   1.763  59.625  1.00  0.00     0.016 C 
ATOM     19  C   UNL     1       8.604   2.180  64.386  1.00  0.00     0.012 C 
ENDROOT
BRANCH   1  20
ATOM     20  C   UNL     1       5.723   2.136  64.246  1.00  0.00     0.133 C 
ATOM     21  C   UNL     1       5.458   0.660  64.141  1.00  0.00     0.088 C 
ATOM     22  O   UNL     1       5.355   2.727  65.250  1.00  0.00    -0.300 OA
ENDBRANCH   1  20
BRANCH  16  23
ATOM     23  O   UNL     1      12.264   3.966  55.464  1.00  0.00    -0.393 OA
ATOM     24  H   UNL     1      12.444   4.910  55.215  1.00  0.00     0.210 HD
ENDBRANCH  16  23
TORSDOF 2
ENDMDL
MODEL 9
REMARK VINA RESULT:    -7.353      1.790      3.470
REMARK INTER + INTRA:          -8.166
REMARK INTER:                  -7.988
REMARK INTRA:                  -0.178
REMARK UNBOUND:                -0.169
REMARK SMILES CC(=O)[C@H]1CC[C@@H]2[C@@H]3CC=C4C[C@@H](O)CC[C@]4(C)[C@H]3CC[C@]12C
REMARK SMILES IDX 4 1 5 2 6 3 7 4 22 5 21 6 20 7 19 8 8 9 9 10 10 11 11 12
REMARK SMILES IDX 17 13 16 14 15 15 13 16 12 17 18 18 23 19 2 20 1 21 3 22
REMARK SMILES IDX 14 23
REMARK H PARENT 14 24
REMARK Flexibility Score: inf
ROOT
ATOM      1  C   UNL     1      18.914 -11.187  65.686  1.00  0.00     0.062 C 
ATOM      2  C   UNL     1      18.601 -12.670  65.868  1.00  0.00     0.012 C 
ATOM      3  C   UNL     1      17.201 -12.828  65.313  1.00  0.00     0.005 C 
ATOM      4  C   UNL     1      16.464 -11.560  65.760  1.00  0.00    -0.001 C 
ATOM      5  C   UNL     1      17.551 -10.443  65.896  1.00  0.00    -0.020 C 
ATOM      6  C   UNL     1      17.367  -9.311  64.840  1.00  0.00     0.008 C 
ATOM      7  C   UNL     1      16.981  -9.836  63.448  1.00  0.00     0.005 C 
ATOM      8  C   UNL     1      15.678 -10.693  63.447  1.00  0.00     0.003 C 
ATOM      9  C   UNL     1      15.263 -11.144  64.870  1.00  0.00     0.000 C 
ATOM     10  C   UNL     1      14.198 -12.243  64.767  1.00  0.00     0.031 C 
ATOM     11  C   UNL     1      13.073 -11.845  63.850  1.00  0.00    -0.027 C 
ATOM     12  C   UNL     1      13.205 -10.946  62.845  1.00  0.00    -0.065 C 
ATOM     13  C   UNL     1      14.455 -10.057  62.681  1.00  0.00    -0.008 C 
ATOM     14  C   UNL     1      14.802  -9.966  61.159  1.00  0.00     0.014 C 
ATOM     15  C   UNL     1      13.598  -9.646  60.259  1.00  0.00     0.033 C 
ATOM     16  C   UNL     1      12.466 -10.664  60.468  1.00  0.00     0.118 C 
ATOM     17  C   UNL     1      12.017 -10.698  61.935  1.00  0.00     0.063 C 
ATOM     18  C   UNL     1      14.119  -8.642  63.229  1.00  0.00     0.016 C 
ATOM     19  C   UNL     1      17.446  -9.812  67.309  1.00  0.00     0.012 C 
ENDROOT
BRANCH   1  20
ATOM     20  C   UNL     1      20.083 -10.666  66.511  1.00  0.00     0.133 C 
ATOM     21  C   UNL     1      20.612 -11.389  67.718  1.00  0.00     0.088 C 
ATOM     22  O   UNL     1      20.624  -9.626  66.167  1.00  0.00    -0.300 OA
ENDBRANCH   1  20
BRANCH  16  23
ATOM     23  O   UNL     1      11.380 -10.378  59.623  1.00  0.00    -0.393 OA
ATOM     24  H   UNL     1      11.738 -10.245  58.707  1.00  0.00     0.210 HD
ENDBRANCH  16  23
TORSDOF 2
ENDMDL
