MODEL 1
REMARK VINA RESULT:    -3.346      0.000      0.000
REMARK INTER + INTRA:          -6.187
REMARK INTER:                  -5.107
REMARK INTRA:                  -1.081
REMARK UNBOUND:                -1.081
REMARK SMILES CCCCCCCCCCC(=O)[O-]
REMARK SMILES IDX 7 1 8 2 9 3 10 4 11 5 12 6 13 7 6 8 5 9 4 10 3 11 2 12 1 13
REMARK H PARENT
REMARK Flexibility Score: inf
ROOT
ATOM      1  C   UNL     1      58.055  22.189  22.499  1.00  0.00     0.000 C 
ENDROOT
BRANCH   1   2
ATOM      2  C   UNL     1      58.845  20.876  22.345  1.00  0.00     0.000 C 
BRANCH   2   3
ATOM      3  C   UNL     1      60.272  21.038  21.792  1.00  0.00     0.006 C 
BRANCH   3   4
ATOM      4  C   UNL     1      60.474  22.358  21.036  1.00  0.00     0.053 C 
BRANCH   4   5
ATOM      5  C   UNL     1      61.695  22.285  20.175  1.00  0.00     0.041 C 
ATOM      6  O   UNL     1      62.839  22.418  20.685  1.00  0.00    -0.550 OA
ATOM      7  O   UNL     1      61.569  22.119  18.802  1.00  0.00    -0.550 OA
ENDBRANCH   4   5
ENDBRANCH   3   4
ENDBRANCH   2   3
ENDBRANCH   1   2
BRANCH   1   8
ATOM      8  C   UNL     1      57.384  22.327  23.873  1.00  0.00     0.000 C 
BRANCH   8   9
ATOM      9  C   UNL     1      58.096  23.382  24.729  1.00  0.00    -0.000 C 
BRANCH   9  10
ATOM     10  C   UNL     1      59.316  22.784  25.441  1.00  0.00    -0.000 C 
BRANCH  10  11
ATOM     11  C   UNL     1      60.616  23.422  24.932  1.00  0.00    -0.000 C 
BRANCH  11  12
ATOM     12  C   UNL     1      60.362  24.597  23.973  1.00  0.00    -0.003 C 
ATOM     13  C   UNL     1      61.644  25.333  23.587  1.00  0.00     0.004 C 
ENDBRANCH  11  12
ENDBRANCH  10  11
ENDBRANCH   9  10
ENDBRANCH   8   9
ENDBRANCH   1   8
TORSDOF 9
ENDMDL
MODEL 2
REMARK VINA RESULT:    -3.335      1.223      3.378
REMARK INTER + INTRA:          -6.170
REMARK INTER:                  -5.333
REMARK INTRA:                  -0.837
REMARK UNBOUND:                -1.081
REMARK SMILES CCCCCCCCCCC(=O)[O-]
REMARK SMILES IDX 7 1 8 2 9 3 10 4 11 5 12 6 13 7 6 8 5 9 4 10 3 11 2 12 1 13
REMARK H PARENT
REMARK Flexibility Score: inf
ROOT
ATOM      1  C   UNL     1      60.694  24.396  23.304  1.00  0.00     0.000 C 
ENDROOT
BRANCH   1   2
ATOM      2  C   UNL     1      61.763  23.654  22.479  1.00  0.00     0.000 C 
BRANCH   2   3
ATOM      3  C   UNL     1      61.366  22.237  22.026  1.00  0.00     0.006 C 
BRANCH   3   4
ATOM      4  C   UNL     1      60.847  22.195  20.583  1.00  0.00     0.053 C 
BRANCH   4   5
ATOM      5  C   UNL     1      61.986  22.064  19.622  1.00  0.00     0.041 C 
ATOM      6  O   UNL     1      61.879  22.508  18.449  1.00  0.00    -0.550 OA
ATOM      7  O   UNL     1      63.148  21.408  20.006  1.00  0.00    -0.550 OA
ENDBRANCH   4   5
ENDBRANCH   3   4
ENDBRANCH   2   3
ENDBRANCH   1   2
BRANCH   1   8
ATOM      8  C   UNL     1      60.216  23.595  24.524  1.00  0.00     0.000 C 
BRANCH   8   9
ATOM      9  C   UNL     1      58.684  23.578  24.603  1.00  0.00    -0.000 C 
BRANCH   9  10
ATOM     10  C   UNL     1      58.122  22.233  24.128  1.00  0.00    -0.000 C 
BRANCH  10  11
ATOM     11  C   UNL     1      57.641  22.322  22.672  1.00  0.00    -0.000 C 
BRANCH  11  12
ATOM     12  C   UNL     1      56.170  22.751  22.561  1.00  0.00    -0.003 C 
ATOM     13  C   UNL     1      55.222  21.814  23.307  1.00  0.00     0.004 C 
ENDBRANCH  11  12
ENDBRANCH  10  11
ENDBRANCH   9  10
ENDBRANCH   8   9
ENDBRANCH   1   8
TORSDOF 9
ENDMDL
MODEL 3
REMARK VINA RESULT:    -3.312      2.334      4.314
REMARK INTER + INTRA:          -6.136
REMARK INTER:                  -5.099
REMARK INTRA:                  -1.036
REMARK UNBOUND:                -1.081
REMARK SMILES CCCCCCCCCCC(=O)[O-]
REMARK SMILES IDX 7 1 8 2 9 3 10 4 11 5 12 6 13 7 6 8 5 9 4 10 3 11 2 12 1 13
REMARK H PARENT
REMARK Flexibility Score: inf
ROOT
ATOM      1  C   UNL     1      57.718  22.189  22.690  1.00  0.00     0.000 C 
ENDROOT
BRANCH   1   2
ATOM      2  C   UNL     1      57.297  22.704  24.079  1.00  0.00     0.000 C 
BRANCH   2   3
ATOM      3  C   UNL     1      58.451  22.893  25.079  1.00  0.00     0.006 C 
BRANCH   3   4
ATOM      4  C   UNL     1      59.285  24.150  24.799  1.00  0.00     0.053 C 
BRANCH   4   5
ATOM      5  C   UNL     1      60.745  23.847  24.923  1.00  0.00     0.041 C 
ATOM      6  O   UNL     1      61.137  22.656  25.033  1.00  0.00    -0.550 OA
ATOM      7  O   UNL     1      61.669  24.883  24.966  1.00  0.00    -0.550 OA
ENDBRANCH   4   5
ENDBRANCH   3   4
ENDBRANCH   2   3
ENDBRANCH   1   2
BRANCH   1   8
ATOM      8  C   UNL     1      58.510  20.875  22.752  1.00  0.00     0.000 C 
BRANCH   8   9
ATOM      9  C   UNL     1      59.863  21.014  22.042  1.00  0.00    -0.000 C 
BRANCH   9  10
ATOM     10  C   UNL     1      60.014  22.404  21.412  1.00  0.00    -0.000 C 
BRANCH  10  11
ATOM     11  C   UNL     1      61.474  22.877  21.468  1.00  0.00    -0.000 C 
BRANCH  11  12
ATOM     12  C   UNL     1      62.351  22.214  20.393  1.00  0.00    -0.003 C 
ATOM     13  C   UNL     1      61.721  22.265  19.002  1.00  0.00     0.004 C 
ENDBRANCH  11  12
ENDBRANCH  10  11
ENDBRANCH   9  10
ENDBRANCH   8   9
ENDBRANCH   1   8
TORSDOF 9
ENDMDL
MODEL 4
REMARK VINA RESULT:    -3.286      1.843      3.896
REMARK INTER + INTRA:          -6.095
REMARK INTER:                  -4.864
REMARK INTRA:                  -1.232
REMARK UNBOUND:                -1.081
REMARK SMILES CCCCCCCCCCC(=O)[O-]
REMARK SMILES IDX 7 1 8 2 9 3 10 4 11 5 12 6 13 7 6 8 5 9 4 10 3 11 2 12 1 13
REMARK H PARENT
REMARK Flexibility Score: inf
ROOT
ATOM      1  C   UNL     1      58.202  23.616  24.849  1.00  0.00     0.000 C 
ENDROOT
BRANCH   1   2
ATOM      2  C   UNL     1      59.521  23.052  25.407  1.00  0.00     0.000 C 
BRANCH   2   3
ATOM      3  C   UNL     1      60.786  23.477  24.640  1.00  0.00     0.006 C 
BRANCH   3   4
ATOM      4  C   UNL     1      60.560  24.704  23.748  1.00  0.00     0.053 C 
BRANCH   4   5
ATOM      5  C   UNL     1      61.836  25.467  23.577  1.00  0.00     0.041 C 
ATOM      6  O   UNL     1      62.233  25.785  22.426  1.00  0.00    -0.550 OA
ATOM      7  O   UNL     1      62.610  25.785  24.685  1.00  0.00    -0.550 OA
ENDBRANCH   4   5
ENDBRANCH   3   4
ENDBRANCH   2   3
ENDBRANCH   1   2
BRANCH   1   8
ATOM      8  C   UNL     1      57.325  22.546  24.183  1.00  0.00     0.000 C 
BRANCH   8   9
ATOM      9  C   UNL     1      57.744  22.320  22.725  1.00  0.00    -0.000 C 
BRANCH   9  10
ATOM     10  C   UNL     1      58.342  20.921  22.533  1.00  0.00    -0.000 C 
BRANCH  10  11
ATOM     11  C   UNL     1      59.800  21.007  22.058  1.00  0.00    -0.000 C 
BRANCH  11  12
ATOM     12  C   UNL     1      60.070  22.255  21.203  1.00  0.00    -0.003 C 
ATOM     13  C   UNL     1      61.544  22.413  20.834  1.00  0.00     0.004 C 
ENDBRANCH  11  12
ENDBRANCH  10  11
ENDBRANCH   9  10
ENDBRANCH   8   9
ENDBRANCH   1   8
TORSDOF 9
ENDMDL
MODEL 5
REMARK VINA RESULT:    -3.262      3.004      4.743
REMARK INTER + INTRA:          -6.058
REMARK INTER:                  -4.954
REMARK INTRA:                  -1.104
REMARK UNBOUND:                -1.081
REMARK SMILES CCCCCCCCCCC(=O)[O-]
REMARK SMILES IDX 7 1 8 2 9 3 10 4 11 5 12 6 13 7 6 8 5 9 4 10 3 11 2 12 1 13
REMARK H PARENT
REMARK Flexibility Score: inf
ROOT
ATOM      1  C   UNL     1      60.742  22.136  20.386  1.00  0.00     0.000 C 
ENDROOT
BRANCH   1   2
ATOM      2  C   UNL     1      60.644  20.943  21.354  1.00  0.00     0.000 C 
BRANCH   2   3
ATOM      3  C   UNL     1      59.479  21.013  22.357  1.00  0.00     0.006 C 
BRANCH   3   4
ATOM      4  C   UNL     1      58.849  22.410  22.445  1.00  0.00     0.053 C 
BRANCH   4   5
ATOM      5  C   UNL     1      57.525  22.344  23.138  1.00  0.00     0.041 C 
ATOM      6  O   UNL     1      57.308  23.052  24.156  1.00  0.00    -0.550 OA
ATOM      7  O   UNL     1      56.549  21.464  22.690  1.00  0.00    -0.550 OA
ENDBRANCH   4   5
ENDBRANCH   3   4
ENDBRANCH   2   3
ENDBRANCH   1   2
BRANCH   1   8
ATOM      8  C   UNL     1      61.938  22.035  19.429  1.00  0.00     0.000 C 
BRANCH   8   9
ATOM      9  C   UNL     1      63.200  21.580  20.172  1.00  0.00    -0.000 C 
BRANCH   9  10
ATOM     10  C   UNL     1      63.855  22.751  20.915  1.00  0.00    -0.000 C 
BRANCH  10  11
ATOM     11  C   UNL     1      63.913  22.480  22.425  1.00  0.00    -0.000 C 
BRANCH  11  12
ATOM     12  C   UNL     1      62.920  23.344  23.219  1.00  0.00    -0.003 C 
ATOM     13  C   UNL     1      62.529  24.624  22.482  1.00  0.00     0.004 C 
ENDBRANCH  11  12
ENDBRANCH  10  11
ENDBRANCH   9  10
ENDBRANCH   8   9
ENDBRANCH   1   8
TORSDOF 9
ENDMDL
MODEL 6
REMARK VINA RESULT:    -3.225      3.215      5.066
REMARK INTER + INTRA:          -6.002
REMARK INTER:                  -5.261
REMARK INTRA:                  -0.741
REMARK UNBOUND:                -1.081
REMARK SMILES CCCCCCCCCCC(=O)[O-]
REMARK SMILES IDX 7 1 8 2 9 3 10 4 11 5 12 6 13 7 6 8 5 9 4 10 3 11 2 12 1 13
REMARK H PARENT
REMARK Flexibility Score: inf
ROOT
ATOM      1  C   UNL     1      59.750  23.111  22.724  1.00  0.00     0.000 C 
ENDROOT
BRANCH   1   2
ATOM      2  C   UNL     1      59.651  21.583  22.882  1.00  0.00     0.000 C 
BRANCH   2   3
ATOM      3  C   UNL     1      58.339  21.077  23.508  1.00  0.00     0.006 C 
BRANCH   3   4
ATOM      4  C   UNL     1      57.395  22.215  23.917  1.00  0.00     0.053 C 
BRANCH   4   5
ATOM      5  C   UNL     1      56.115  22.136  23.146  1.00  0.00     0.041 C 
ATOM      6  O   UNL     1      55.223  21.313  23.483  1.00  0.00    -0.550 OA
ATOM      7  O   UNL     1      55.927  22.934  22.026  1.00  0.00    -0.550 OA
ENDBRANCH   4   5
ENDBRANCH   3   4
ENDBRANCH   2   3
ENDBRANCH   1   2
BRANCH   1   8
ATOM      8  C   UNL     1      61.118  23.670  23.139  1.00  0.00     0.000 C 
BRANCH   8   9
ATOM      9  C   UNL     1      62.054  23.785  21.930  1.00  0.00    -0.000 C 
BRANCH   9  10
ATOM     10  C   UNL     1      63.221  22.796  22.039  1.00  0.00    -0.000 C 
BRANCH  10  11
ATOM     11  C   UNL     1      63.376  21.984  20.745  1.00  0.00    -0.000 C 
BRANCH  11  12
ATOM     12  C   UNL     1      62.031  21.713  20.053  1.00  0.00    -0.003 C 
ATOM     13  C   UNL     1      61.955  22.317  18.652  1.00  0.00     0.004 C 
ENDBRANCH  11  12
ENDBRANCH  10  11
ENDBRANCH   9  10
ENDBRANCH   8   9
ENDBRANCH   1   8
TORSDOF 9
ENDMDL
MODEL 7
REMARK VINA RESULT:    -3.216      3.216      4.828
REMARK INTER + INTRA:          -5.988
REMARK INTER:                  -5.213
REMARK INTRA:                  -0.775
REMARK UNBOUND:                -1.081
REMARK SMILES CCCCCCCCCCC(=O)[O-]
REMARK SMILES IDX 7 1 8 2 9 3 10 4 11 5 12 6 13 7 6 8 5 9 4 10 3 11 2 12 1 13
REMARK H PARENT
REMARK Flexibility Score: inf
ROOT
ATOM      1  C   UNL     1      59.372  23.725  24.657  1.00  0.00     0.000 C 
ENDROOT
BRANCH   1   2
ATOM      2  C   UNL     1      58.936  22.263  24.448  1.00  0.00     0.000 C 
BRANCH   2   3
ATOM      3  C   UNL     1      58.342  21.955  23.062  1.00  0.00     0.006 C 
BRANCH   3   4
ATOM      4  C   UNL     1      57.157  20.982  23.123  1.00  0.00     0.053 C 
BRANCH   4   5
ATOM      5  C   UNL     1      55.863  21.734  23.120  1.00  0.00     0.041 C 
ATOM      6  O   UNL     1      54.806  21.175  23.513  1.00  0.00    -0.550 OA
ATOM      7  O   UNL     1      55.816  23.035  22.638  1.00  0.00    -0.550 OA
ENDBRANCH   4   5
ENDBRANCH   3   4
ENDBRANCH   2   3
ENDBRANCH   1   2
BRANCH   1   8
ATOM      8  C   UNL     1      60.880  23.936  24.457  1.00  0.00     0.000 C 
BRANCH   8   9
ATOM      9  C   UNL     1      61.148  25.074  23.464  1.00  0.00    -0.000 C 
BRANCH   9  10
ATOM     10  C   UNL     1      62.063  24.607  22.324  1.00  0.00    -0.000 C 
BRANCH  10  11
ATOM     11  C   UNL     1      61.953  23.090  22.119  1.00  0.00    -0.000 C 
BRANCH  11  12
ATOM     12  C   UNL     1      61.144  22.720  20.865  1.00  0.00    -0.003 C 
ATOM     13  C   UNL     1      61.967  21.945  19.837  1.00  0.00     0.004 C 
ENDBRANCH  11  12
ENDBRANCH  10  11
ENDBRANCH   9  10
ENDBRANCH   8   9
ENDBRANCH   1   8
TORSDOF 9
ENDMDL
MODEL 8
REMARK VINA RESULT:    -3.209      1.460      2.006
REMARK INTER + INTRA:          -5.978
REMARK INTER:                  -5.050
REMARK INTRA:                  -0.927
REMARK UNBOUND:                -1.081
REMARK SMILES CCCCCCCCCCC(=O)[O-]
REMARK SMILES IDX 7 1 8 2 9 3 10 4 11 5 12 6 13 7 6 8 5 9 4 10 3 11 2 12 1 13
REMARK H PARENT
REMARK Flexibility Score: inf
ROOT
ATOM      1  C   UNL     1      58.854  22.402  22.239  1.00  0.00     0.000 C 
ENDROOT
BRANCH   1   2
ATOM      2  C   UNL     1      59.491  21.021  22.003  1.00  0.00     0.000 C 
BRANCH   2   3
ATOM      3  C   UNL     1      60.906  21.053  21.397  1.00  0.00     0.006 C 
BRANCH   3   4
ATOM      4  C   UNL     1      61.037  22.050  20.237  1.00  0.00     0.053 C 
BRANCH   4   5
ATOM      5  C   UNL     1      62.470  22.191  19.830  1.00  0.00     0.041 C 
ATOM      6  O   UNL     1      62.803  22.035  18.626  1.00  0.00    -0.550 OA
ATOM      7  O   UNL     1      63.443  22.447  20.786  1.00  0.00    -0.550 OA
ENDBRANCH   4   5
ENDBRANCH   3   4
ENDBRANCH   2   3
ENDBRANCH   1   2
BRANCH   1   8
ATOM      8  C   UNL     1      57.420  22.317  22.782  1.00  0.00     0.000 C 
BRANCH   8   9
ATOM      9  C   UNL     1      57.357  22.781  24.242  1.00  0.00    -0.000 C 
BRANCH   9  10
ATOM     10  C   UNL     1      58.672  23.445  24.668  1.00  0.00    -0.000 C 
BRANCH  10  11
ATOM     11  C   UNL     1      59.208  22.821  25.965  1.00  0.00    -0.000 C 
BRANCH  11  12
ATOM     12  C   UNL     1      59.905  21.472  25.727  1.00  0.00    -0.003 C 
ATOM     13  C   UNL     1      61.336  21.627  25.216  1.00  0.00     0.004 C 
ENDBRANCH  11  12
ENDBRANCH  10  11
ENDBRANCH   9  10
ENDBRANCH   8   9
ENDBRANCH   1   8
TORSDOF 9
ENDMDL
MODEL 9
REMARK VINA RESULT:    -3.122      1.054      2.949
REMARK INTER + INTRA:          -5.844
REMARK INTER:                  -4.606
REMARK INTRA:                  -1.239
REMARK UNBOUND:                -1.081
REMARK SMILES CCCCCCCCCCC(=O)[O-]
REMARK SMILES IDX 7 1 8 2 9 3 10 4 11 5 12 6 13 7 6 8 5 9 4 10 3 11 2 12 1 13
REMARK H PARENT
REMARK Flexibility Score: inf
ROOT
ATOM      1  C   UNL     1      61.039  24.923  23.541  1.00  0.00     0.000 C 
ENDROOT
BRANCH   1   2
ATOM      2  C   UNL     1      61.553  24.275  22.242  1.00  0.00     0.000 C 
BRANCH   2   3
ATOM      3  C   UNL     1      61.624  22.737  22.268  1.00  0.00     0.006 C 
BRANCH   3   4
ATOM      4  C   UNL     1      61.105  22.093  20.975  1.00  0.00     0.053 C 
BRANCH   4   5
ATOM      5  C   UNL     1      62.150  22.150  19.907  1.00  0.00     0.041 C 
ATOM      6  O   UNL     1      63.362  21.971  20.197  1.00  0.00    -0.550 OA
ATOM      7  O   UNL     1      61.792  22.448  18.599  1.00  0.00    -0.550 OA
ENDBRANCH   4   5
ENDBRANCH   3   4
ENDBRANCH   2   3
ENDBRANCH   1   2
BRANCH   1   8
ATOM      8  C   UNL     1      61.442  24.143  24.801  1.00  0.00     0.000 C 
BRANCH   8   9
ATOM      9  C   UNL     1      60.249  23.978  25.750  1.00  0.00    -0.000 C 
BRANCH   9  10
ATOM     10  C   UNL     1      59.048  23.360  25.023  1.00  0.00    -0.000 C 
BRANCH  10  11
ATOM     11  C   UNL     1      59.206  21.838  24.896  1.00  0.00    -0.000 C 
BRANCH  11  12
ATOM     12  C   UNL     1      58.455  21.266  23.683  1.00  0.00    -0.003 C 
ATOM     13  C   UNL     1      57.913  22.352  22.756  1.00  0.00     0.004 C 
ENDBRANCH  11  12
ENDBRANCH  10  11
ENDBRANCH   9  10
ENDBRANCH   8   9
ENDBRANCH   1   8
TORSDOF 9
ENDMDL
