MODEL 1
REMARK VINA RESULT:    25.149      0.000      0.000
REMARK INTER + INTRA:          66.521
REMARK INTER:                  66.314
REMARK INTRA:                   0.208
REMARK UNBOUND:                 0.208
REMARK SMILES CCCCCCCCCCCCCCCCCCCCCCCCCCCCCC(=O)[O-]
REMARK SMILES IDX 16 1 17 2 18 3 19 4 20 5 21 6 22 7 23 8 24 9 25 10 26 11
REMARK SMILES IDX 27 12 28 13 29 14 30 15 31 16 32 17 15 18 14 19 13 20 12 21
REMARK SMILES IDX 11 22 10 23 9 24 8 25 7 26 6 27 5 28 4 29 3 30 2 31 1 32
REMARK H PARENT
REMARK Flexibility Score: inf
ROOT
ATOM      1  C   UNL     1       4.489  43.085   6.479  1.00  0.00     0.000 C 
ENDROOT
BRANCH   1   2
ATOM      2  C   UNL     1       5.702  43.659   5.721  1.00  0.00     0.000 C 
BRANCH   2   3
ATOM      3  C   UNL     1       7.048  42.963   6.001  1.00  0.00     0.000 C 
BRANCH   3   4
ATOM      4  C   UNL     1       8.228  43.942   6.214  1.00  0.00     0.000 C 
BRANCH   4   5
ATOM      5  C   UNL     1       9.577  43.223   6.376  1.00  0.00     0.000 C 
BRANCH   5   6
ATOM      6  C   UNL     1       9.796  42.704   7.808  1.00  0.00     0.000 C 
BRANCH   6   7
ATOM      7  C   UNL     1       9.407  41.224   7.962  1.00  0.00     0.000 C 
BRANCH   7   8
ATOM      8  C   UNL     1       8.495  40.723   6.828  1.00  0.00     0.000 C 
BRANCH   8   9
ATOM      9  C   UNL     1       8.678  39.227   6.530  1.00  0.00     0.000 C 
BRANCH   9  10
ATOM     10  C   UNL     1       9.818  38.631   7.366  1.00  0.00     0.000 C 
BRANCH  10  11
ATOM     11  C   UNL     1      10.830  37.903   6.470  1.00  0.00     0.000 C 
BRANCH  11  12
ATOM     12  C   UNL     1      10.565  38.112   4.970  1.00  0.00     0.000 C 
BRANCH  12  13
ATOM     13  C   UNL     1      10.070  39.519   4.579  1.00  0.00     0.006 C 
BRANCH  13  14
ATOM     14  C   UNL     1      10.745  40.096   3.322  1.00  0.00     0.053 C 
BRANCH  14  15
ATOM     15  C   UNL     1       9.806  40.927   2.501  1.00  0.00     0.041 C 
ATOM     16  O   UNL     1       8.875  41.569   3.054  1.00  0.00    -0.550 OA
ATOM     17  O   UNL     1       9.936  40.963   1.117  1.00  0.00    -0.550 OA
ENDBRANCH  14  15
ENDBRANCH  13  14
ENDBRANCH  12  13
ENDBRANCH  11  12
ENDBRANCH  10  11
ENDBRANCH   9  10
ENDBRANCH   8   9
ENDBRANCH   7   8
ENDBRANCH   6   7
ENDBRANCH   5   6
ENDBRANCH   4   5
ENDBRANCH   3   4
ENDBRANCH   2   3
ENDBRANCH   1   2
BRANCH   1  18
ATOM     18  C   UNL     1       4.013  43.957   7.662  1.00  0.00     0.000 C 
BRANCH  18  19
ATOM     19  C   UNL     1       3.534  43.123   8.858  1.00  0.00     0.000 C 
BRANCH  19  20
ATOM     20  C   UNL     1       4.677  42.273   9.435  1.00  0.00     0.000 C 
BRANCH  20  21
ATOM     21  C   UNL     1       6.055  42.954   9.316  1.00  0.00     0.000 C 
BRANCH  21  22
ATOM     22  C   UNL     1       7.087  42.553  10.390  1.00  0.00     0.000 C 
BRANCH  22  23
ATOM     23  C   UNL     1       6.583  41.494  11.403  1.00  0.00     0.000 C 
BRANCH  23  24
ATOM     24  C   UNL     1       7.394  41.454  12.722  1.00  0.00    -0.000 C 
BRANCH  24  25
ATOM     25  C   UNL     1       7.364  40.085  13.427  1.00  0.00    -0.000 C 
BRANCH  25  26
ATOM     26  C   UNL     1       8.449  39.881  14.504  1.00  0.00    -0.000 C 
BRANCH  26  27
ATOM     27  C   UNL     1       7.959  39.218  15.806  1.00  0.00    -0.000 C 
BRANCH  27  28
ATOM     28  C   UNL     1       6.433  39.300  15.976  1.00  0.00    -0.000 C 
BRANCH  28  29
ATOM     29  C   UNL     1       5.748  37.923  15.911  1.00  0.00    -0.000 C 
BRANCH  29  30
ATOM     30  C   UNL     1       4.434  37.881  15.112  1.00  0.00    -0.000 C 
BRANCH  30  31
ATOM     31  C   UNL     1       3.284  38.625  15.805  1.00  0.00    -0.003 C 
ATOM     32  C   UNL     1       2.023  38.608  14.946  1.00  0.00     0.004 C 
ENDBRANCH  30  31
ENDBRANCH  29  30
ENDBRANCH  28  29
ENDBRANCH  27  28
ENDBRANCH  26  27
ENDBRANCH  25  26
ENDBRANCH  24  25
ENDBRANCH  23  24
ENDBRANCH  22  23
ENDBRANCH  21  22
ENDBRANCH  20  21
ENDBRANCH  19  20
ENDBRANCH  18  19
ENDBRANCH   1  18
TORSDOF 28
ENDMDL
MODEL 2
REMARK VINA RESULT:    26.200      8.271     12.148
REMARK INTER + INTRA:          69.293
REMARK INTER:                  69.936
REMARK INTRA:                  -0.643
REMARK UNBOUND:                 0.208
REMARK SMILES CCCCCCCCCCCCCCCCCCCCCCCCCCCCCC(=O)[O-]
REMARK SMILES IDX 16 1 17 2 18 3 19 4 20 5 21 6 22 7 23 8 24 9 25 10 26 11
REMARK SMILES IDX 27 12 28 13 29 14 30 15 31 16 32 17 15 18 14 19 13 20 12 21
REMARK SMILES IDX 11 22 10 23 9 24 8 25 7 26 6 27 5 28 4 29 3 30 2 31 1 32
REMARK H PARENT
REMARK Flexibility Score: inf
ROOT
ATOM      1  C   UNL     1      -0.494  45.659   4.089  1.00  0.00     0.000 C 
ENDROOT
BRANCH   1   2
ATOM      2  C   UNL     1      -1.065  45.953   2.688  1.00  0.00     0.000 C 
BRANCH   2   3
ATOM      3  C   UNL     1      -2.364  46.781   2.662  1.00  0.00     0.000 C 
BRANCH   3   4
ATOM      4  C   UNL     1      -3.329  46.397   1.514  1.00  0.00     0.000 C 
BRANCH   4   5
ATOM      5  C   UNL     1      -3.289  47.396   0.345  1.00  0.00     0.000 C 
BRANCH   5   6
ATOM      6  C   UNL     1      -4.458  47.195  -0.636  1.00  0.00     0.000 C 
BRANCH   6   7
ATOM      7  C   UNL     1      -4.063  46.342  -1.854  1.00  0.00     0.000 C 
BRANCH   7   8
ATOM      8  C   UNL     1      -4.930  46.630  -3.092  1.00  0.00     0.000 C 
BRANCH   8   9
ATOM      9  C   UNL     1      -4.375  47.771  -3.958  1.00  0.00     0.000 C 
BRANCH   9  10
ATOM     10  C   UNL     1      -2.844  47.724  -4.022  1.00  0.00     0.000 C 
BRANCH  10  11
ATOM     11  C   UNL     1      -2.237  49.079  -3.627  1.00  0.00     0.000 C 
BRANCH  11  12
ATOM     12  C   UNL     1      -0.704  49.043  -3.520  1.00  0.00     0.000 C 
BRANCH  12  13
ATOM     13  C   UNL     1      -0.149  48.387  -2.240  1.00  0.00     0.006 C 
BRANCH  13  14
ATOM     14  C   UNL     1       1.295  48.799  -1.899  1.00  0.00     0.053 C 
BRANCH  14  15
ATOM     15  C   UNL     1       1.588  48.690  -0.433  1.00  0.00     0.041 C 
ATOM     16  O   UNL     1       2.744  48.933   0.004  1.00  0.00    -0.550 OA
ATOM     17  O   UNL     1       0.593  48.283   0.449  1.00  0.00    -0.550 OA
ENDBRANCH  14  15
ENDBRANCH  13  14
ENDBRANCH  12  13
ENDBRANCH  11  12
ENDBRANCH  10  11
ENDBRANCH   9  10
ENDBRANCH   8   9
ENDBRANCH   7   8
ENDBRANCH   6   7
ENDBRANCH   5   6
ENDBRANCH   4   5
ENDBRANCH   3   4
ENDBRANCH   2   3
ENDBRANCH   1   2
BRANCH   1  18
ATOM     18  C   UNL     1       0.830  44.863   4.077  1.00  0.00     0.000 C 
BRANCH  18  19
ATOM     19  C   UNL     1       0.900  43.812   5.194  1.00  0.00     0.000 C 
BRANCH  19  20
ATOM     20  C   UNL     1       2.300  43.771   5.829  1.00  0.00     0.000 C 
BRANCH  20  21
ATOM     21  C   UNL     1       2.313  43.103   7.218  1.00  0.00     0.000 C 
BRANCH  21  22
ATOM     22  C   UNL     1       3.035  43.895   8.327  1.00  0.00     0.000 C 
BRANCH  22  23
ATOM     23  C   UNL     1       3.894  43.029   9.282  1.00  0.00     0.000 C 
BRANCH  23  24
ATOM     24  C   UNL     1       5.414  43.095   8.992  1.00  0.00    -0.000 C 
BRANCH  24  25
ATOM     25  C   UNL     1       5.757  43.131   7.491  1.00  0.00    -0.000 C 
BRANCH  25  26
ATOM     26  C   UNL     1       7.054  42.393   7.099  1.00  0.00    -0.000 C 
BRANCH  26  27
ATOM     27  C   UNL     1       7.953  41.982   8.281  1.00  0.00    -0.000 C 
BRANCH  27  28
ATOM     28  C   UNL     1       9.450  42.152   7.974  1.00  0.00    -0.000 C 
BRANCH  28  29
ATOM     29  C   UNL     1       9.711  43.041   6.744  1.00  0.00    -0.000 C 
BRANCH  29  30
ATOM     30  C   UNL     1       8.990  42.607   5.457  1.00  0.00    -0.000 C 
BRANCH  30  31
ATOM     31  C   UNL     1       9.618  41.369   4.802  1.00  0.00    -0.003 C 
ATOM     32  C   UNL     1       8.731  40.141   4.986  1.00  0.00     0.004 C 
ENDBRANCH  30  31
ENDBRANCH  29  30
ENDBRANCH  28  29
ENDBRANCH  27  28
ENDBRANCH  26  27
ENDBRANCH  25  26
ENDBRANCH  24  25
ENDBRANCH  23  24
ENDBRANCH  22  23
ENDBRANCH  21  22
ENDBRANCH  20  21
ENDBRANCH  19  20
ENDBRANCH  18  19
ENDBRANCH   1  18
TORSDOF 28
ENDMDL
MODEL 3
REMARK VINA RESULT:    26.575      7.133     12.274
REMARK INTER + INTRA:          70.283
REMARK INTER:                  70.645
REMARK INTRA:                  -0.362
REMARK UNBOUND:                 0.208
REMARK SMILES CCCCCCCCCCCCCCCCCCCCCCCCCCCCCC(=O)[O-]
REMARK SMILES IDX 16 1 17 2 18 3 19 4 20 5 21 6 22 7 23 8 24 9 25 10 26 11
REMARK SMILES IDX 27 12 28 13 29 14 30 15 31 16 32 17 15 18 14 19 13 20 12 21
REMARK SMILES IDX 11 22 10 23 9 24 8 25 7 26 6 27 5 28 4 29 3 30 2 31 1 32
REMARK H PARENT
REMARK Flexibility Score: inf
ROOT
ATOM      1  C   UNL     1       2.862  43.108   6.586  1.00  0.00     0.000 C 
ENDROOT
BRANCH   1   2
ATOM      2  C   UNL     1       2.398  43.831   7.865  1.00  0.00     0.000 C 
BRANCH   2   3
ATOM      3  C   UNL     1       3.136  43.430   9.158  1.00  0.00     0.000 C 
BRANCH   3   4
ATOM      4  C   UNL     1       4.661  43.689   9.115  1.00  0.00     0.000 C 
BRANCH   4   5
ATOM      5  C   UNL     1       5.479  42.398   8.944  1.00  0.00     0.000 C 
BRANCH   5   6
ATOM      6  C   UNL     1       6.938  42.564   9.404  1.00  0.00     0.000 C 
BRANCH   6   7
ATOM      7  C   UNL     1       7.939  41.925   8.426  1.00  0.00     0.000 C 
BRANCH   7   8
ATOM      8  C   UNL     1       9.362  42.496   8.568  1.00  0.00     0.000 C 
BRANCH   8   9
ATOM      9  C   UNL     1      10.086  42.637   7.221  1.00  0.00     0.000 C 
BRANCH   9  10
ATOM     10  C   UNL     1       9.459  43.746   6.367  1.00  0.00     0.000 C 
BRANCH  10  11
ATOM     11  C   UNL     1       7.949  43.520   6.200  1.00  0.00     0.000 C 
BRANCH  11  12
ATOM     12  C   UNL     1       7.607  42.601   5.015  1.00  0.00     0.000 C 
BRANCH  12  13
ATOM     13  C   UNL     1       8.358  41.255   4.989  1.00  0.00     0.006 C 
BRANCH  13  14
ATOM     14  C   UNL     1       8.646  40.725   3.572  1.00  0.00     0.053 C 
BRANCH  14  15
ATOM     15  C   UNL     1      10.010  40.115   3.457  1.00  0.00     0.041 C 
ATOM     16  O   UNL     1      10.422  39.309   4.333  1.00  0.00    -0.550 OA
ATOM     17  O   UNL     1      10.844  40.466   2.401  1.00  0.00    -0.550 OA
ENDBRANCH  14  15
ENDBRANCH  13  14
ENDBRANCH  12  13
ENDBRANCH  11  12
ENDBRANCH  10  11
ENDBRANCH   9  10
ENDBRANCH   8   9
ENDBRANCH   7   8
ENDBRANCH   6   7
ENDBRANCH   5   6
ENDBRANCH   4   5
ENDBRANCH   3   4
ENDBRANCH   2   3
ENDBRANCH   1   2
BRANCH   1  18
ATOM     18  C   UNL     1       2.017  43.435   5.334  1.00  0.00     0.000 C 
BRANCH  18  19
ATOM     19  C   UNL     1       0.753  44.241   5.666  1.00  0.00     0.000 C 
BRANCH  19  20
ATOM     20  C   UNL     1      -0.440  43.778   4.815  1.00  0.00     0.000 C 
BRANCH  20  21
ATOM     21  C   UNL     1      -0.540  44.514   3.465  1.00  0.00     0.000 C 
BRANCH  21  22
ATOM     22  C   UNL     1      -1.309  45.851   3.496  1.00  0.00     0.000 C 
BRANCH  22  23
ATOM     23  C   UNL     1      -1.513  46.508   2.107  1.00  0.00     0.000 C 
BRANCH  23  24
ATOM     24  C   UNL     1      -2.677  45.895   1.290  1.00  0.00    -0.000 C 
BRANCH  24  25
ATOM     25  C   UNL     1      -3.848  46.867   1.053  1.00  0.00    -0.000 C 
BRANCH  25  26
ATOM     26  C   UNL     1      -4.680  46.591  -0.216  1.00  0.00    -0.000 C 
BRANCH  26  27
ATOM     27  C   UNL     1      -4.116  47.205  -1.513  1.00  0.00    -0.000 C 
BRANCH  27  28
ATOM     28  C   UNL     1      -4.773  46.627  -2.777  1.00  0.00    -0.000 C 
BRANCH  28  29
ATOM     29  C   UNL     1      -3.897  46.788  -4.033  1.00  0.00    -0.000 C 
BRANCH  29  30
ATOM     30  C   UNL     1      -3.120  48.112  -4.124  1.00  0.00    -0.000 C 
BRANCH  30  31
ATOM     31  C   UNL     1      -1.597  47.919  -4.112  1.00  0.00    -0.003 C 
ATOM     32  C   UNL     1      -0.905  49.056  -3.364  1.00  0.00     0.004 C 
ENDBRANCH  30  31
ENDBRANCH  29  30
ENDBRANCH  28  29
ENDBRANCH  27  28
ENDBRANCH  26  27
ENDBRANCH  25  26
ENDBRANCH  24  25
ENDBRANCH  23  24
ENDBRANCH  22  23
ENDBRANCH  21  22
ENDBRANCH  20  21
ENDBRANCH  19  20
ENDBRANCH  18  19
ENDBRANCH   1  18
TORSDOF 28
ENDMDL
MODEL 4
REMARK VINA RESULT:    26.806      7.761     13.045
REMARK INTER + INTRA:          70.891
REMARK INTER:                  72.581
REMARK INTRA:                  -1.690
REMARK UNBOUND:                 0.208
REMARK SMILES CCCCCCCCCCCCCCCCCCCCCCCCCCCCCC(=O)[O-]
REMARK SMILES IDX 16 1 17 2 18 3 19 4 20 5 21 6 22 7 23 8 24 9 25 10 26 11
REMARK SMILES IDX 27 12 28 13 29 14 30 15 31 16 32 17 15 18 14 19 13 20 12 21
REMARK SMILES IDX 11 22 10 23 9 24 8 25 7 26 6 27 5 28 4 29 3 30 2 31 1 32
REMARK H PARENT
REMARK Flexibility Score: inf
ROOT
ATOM      1  C   UNL     1      -1.403  44.677   4.546  1.00  0.00     0.000 C 
ENDROOT
BRANCH   1   2
ATOM      2  C   UNL     1      -0.359  43.764   5.219  1.00  0.00     0.000 C 
BRANCH   2   3
ATOM      3  C   UNL     1       1.108  44.207   5.061  1.00  0.00     0.000 C 
BRANCH   3   4
ATOM      4  C   UNL     1       2.131  43.218   5.671  1.00  0.00     0.000 C 
BRANCH   4   5
ATOM      5  C   UNL     1       2.285  43.384   7.192  1.00  0.00     0.000 C 
BRANCH   5   6
ATOM      6  C   UNL     1       3.741  43.659   7.607  1.00  0.00     0.000 C 
BRANCH   6   7
ATOM      7  C   UNL     1       3.888  43.884   9.121  1.00  0.00     0.000 C 
BRANCH   7   8
ATOM      8  C   UNL     1       5.084  43.126   9.725  1.00  0.00     0.000 C 
BRANCH   8   9
ATOM      9  C   UNL     1       5.697  42.106   8.754  1.00  0.00     0.000 C 
BRANCH   9  10
ATOM     10  C   UNL     1       7.191  42.375   8.536  1.00  0.00     0.000 C 
BRANCH  10  11
ATOM     11  C   UNL     1       7.561  42.237   7.052  1.00  0.00     0.000 C 
BRANCH  11  12
ATOM     12  C   UNL     1       9.076  42.112   6.819  1.00  0.00     0.000 C 
BRANCH  12  13
ATOM     13  C   UNL     1       9.511  42.040   5.342  1.00  0.00     0.006 C 
BRANCH  13  14
ATOM     14  C   UNL     1       8.888  40.869   4.561  1.00  0.00     0.053 C 
BRANCH  14  15
ATOM     15  C   UNL     1       9.810  40.330   3.509  1.00  0.00     0.041 C 
ATOM     16  O   UNL     1      10.607  39.393   3.782  1.00  0.00    -0.550 OA
ATOM     17  O   UNL     1       9.817  40.886   2.235  1.00  0.00    -0.550 OA
ENDBRANCH  14  15
ENDBRANCH  13  14
ENDBRANCH  12  13
ENDBRANCH  11  12
ENDBRANCH  10  11
ENDBRANCH   9  10
ENDBRANCH   8   9
ENDBRANCH   7   8
ENDBRANCH   6   7
ENDBRANCH   5   6
ENDBRANCH   4   5
ENDBRANCH   3   4
ENDBRANCH   2   3
ENDBRANCH   1   2
BRANCH   1  18
ATOM     18  C   UNL     1      -0.795  45.866   3.770  1.00  0.00     0.000 C 
BRANCH  18  19
ATOM     19  C   UNL     1      -1.511  46.133   2.438  1.00  0.00     0.000 C 
BRANCH  19  20
ATOM     20  C   UNL     1      -2.949  46.623   2.671  1.00  0.00     0.000 C 
BRANCH  20  21
ATOM     21  C   UNL     1      -3.578  47.264   1.418  1.00  0.00     0.000 C 
BRANCH  21  22
ATOM     22  C   UNL     1      -4.659  46.419   0.714  1.00  0.00     0.000 C 
BRANCH  22  23
ATOM     23  C   UNL     1      -4.329  46.044  -0.753  1.00  0.00     0.000 C 
BRANCH  23  24
ATOM     24  C   UNL     1      -3.719  47.206  -1.574  1.00  0.00    -0.000 C 
BRANCH  24  25
ATOM     25  C   UNL     1      -4.266  47.305  -3.010  1.00  0.00    -0.000 C 
BRANCH  25  26
ATOM     26  C   UNL     1      -3.195  47.303  -4.120  1.00  0.00    -0.000 C 
BRANCH  26  27
ATOM     27  C   UNL     1      -1.742  47.448  -3.625  1.00  0.00    -0.000 C 
BRANCH  27  28
ATOM     28  C   UNL     1      -1.263  48.909  -3.613  1.00  0.00    -0.000 C 
BRANCH  28  29
ATOM     29  C   UNL     1      -0.294  49.211  -2.456  1.00  0.00    -0.000 C 
BRANCH  29  30
ATOM     30  C   UNL     1       0.971  48.336  -2.414  1.00  0.00    -0.000 C 
BRANCH  30  31
ATOM     31  C   UNL     1       1.636  48.304  -1.031  1.00  0.00    -0.003 C 
ATOM     32  C   UNL     1       0.675  48.793   0.051  1.00  0.00     0.004 C 
ENDBRANCH  30  31
ENDBRANCH  29  30
ENDBRANCH  28  29
ENDBRANCH  27  28
ENDBRANCH  26  27
ENDBRANCH  25  26
ENDBRANCH  24  25
ENDBRANCH  23  24
ENDBRANCH  22  23
ENDBRANCH  21  22
ENDBRANCH  20  21
ENDBRANCH  19  20
ENDBRANCH  18  19
ENDBRANCH   1  18
TORSDOF 28
ENDMDL
MODEL 5
REMARK VINA RESULT:    27.057      3.594      9.689
REMARK INTER + INTRA:          71.552
REMARK INTER:                  71.335
REMARK INTRA:                   0.218
REMARK UNBOUND:                 0.208
REMARK SMILES CCCCCCCCCCCCCCCCCCCCCCCCCCCCCC(=O)[O-]
REMARK SMILES IDX 16 1 17 2 18 3 19 4 20 5 21 6 22 7 23 8 24 9 25 10 26 11
REMARK SMILES IDX 27 12 28 13 29 14 30 15 31 16 32 17 15 18 14 19 13 20 12 21
REMARK SMILES IDX 11 22 10 23 9 24 8 25 7 26 6 27 5 28 4 29 3 30 2 31 1 32
REMARK H PARENT
REMARK Flexibility Score: inf
ROOT
ATOM      1  C   UNL     1       6.338  42.318   8.906  1.00  0.00     0.000 C 
ENDROOT
BRANCH   1   2
ATOM      2  C   UNL     1       5.499  43.076   7.858  1.00  0.00     0.000 C 
BRANCH   2   3
ATOM      3  C   UNL     1       4.141  43.609   8.355  1.00  0.00     0.000 C 
BRANCH   3   4
ATOM      4  C   UNL     1       3.509  42.759   9.484  1.00  0.00     0.000 C 
BRANCH   4   5
ATOM      5  C   UNL     1       4.318  42.810  10.791  1.00  0.00     0.000 C 
BRANCH   5   6
ATOM      6  C   UNL     1       4.644  41.407  11.333  1.00  0.00     0.000 C 
BRANCH   6   7
ATOM      7  C   UNL     1       4.752  41.380  12.867  1.00  0.00     0.000 C 
BRANCH   7   8
ATOM      8  C   UNL     1       3.391  41.184  13.559  1.00  0.00     0.000 C 
BRANCH   8   9
ATOM      9  C   UNL     1       3.422  40.094  14.640  1.00  0.00     0.000 C 
BRANCH   9  10
ATOM     10  C   UNL     1       4.549  39.086  14.380  1.00  0.00     0.000 C 
BRANCH  10  11
ATOM     11  C   UNL     1       5.552  39.076  15.543  1.00  0.00     0.000 C 
BRANCH  11  12
ATOM     12  C   UNL     1       6.694  38.065  15.342  1.00  0.00     0.000 C 
BRANCH  12  13
ATOM     13  C   UNL     1       7.997  38.386  16.101  1.00  0.00     0.006 C 
BRANCH  13  14
ATOM     14  C   UNL     1       9.275  37.925  15.376  1.00  0.00     0.053 C 
BRANCH  14  15
ATOM     15  C   UNL     1      10.138  39.076  14.956  1.00  0.00     0.041 C 
ATOM     16  O   UNL     1       9.691  40.253  14.991  1.00  0.00    -0.550 OA
ATOM     17  O   UNL     1      11.428  38.846  14.489  1.00  0.00    -0.550 OA
ENDBRANCH  14  15
ENDBRANCH  13  14
ENDBRANCH  12  13
ENDBRANCH  11  12
ENDBRANCH  10  11
ENDBRANCH   9  10
ENDBRANCH   8   9
ENDBRANCH   7   8
ENDBRANCH   6   7
ENDBRANCH   5   6
ENDBRANCH   4   5
ENDBRANCH   3   4
ENDBRANCH   2   3
ENDBRANCH   1   2
BRANCH   1  18
ATOM     18  C   UNL     1       7.185  43.233   9.818  1.00  0.00     0.000 C 
BRANCH  18  19
ATOM     19  C   UNL     1       8.658  42.804   9.884  1.00  0.00     0.000 C 
BRANCH  19  20
ATOM     20  C   UNL     1       9.067  42.027   8.622  1.00  0.00     0.000 C 
BRANCH  20  21
ATOM     21  C   UNL     1      10.370  42.551   7.987  1.00  0.00     0.000 C 
BRANCH  21  22
ATOM     22  C   UNL     1      10.203  43.279   6.637  1.00  0.00     0.000 C 
BRANCH  22  23
ATOM     23  C   UNL     1       8.740  43.645   6.280  1.00  0.00     0.000 C 
BRANCH  23  24
ATOM     24  C   UNL     1       8.023  42.583   5.410  1.00  0.00    -0.000 C 
BRANCH  24  25
ATOM     25  C   UNL     1       8.010  41.175   6.036  1.00  0.00    -0.000 C 
BRANCH  25  26
ATOM     26  C   UNL     1       8.859  40.123   5.294  1.00  0.00    -0.000 C 
BRANCH  26  27
ATOM     27  C   UNL     1       9.777  40.684   4.191  1.00  0.00    -0.000 C 
BRANCH  27  28
ATOM     28  C   UNL     1       9.743  39.841   2.905  1.00  0.00    -0.000 C 
BRANCH  28  29
ATOM     29  C   UNL     1      10.035  40.668   1.640  1.00  0.00    -0.000 C 
BRANCH  29  30
ATOM     30  C   UNL     1       9.579  42.136   1.697  1.00  0.00    -0.000 C 
BRANCH  30  31
ATOM     31  C   UNL     1       8.052  42.293   1.682  1.00  0.00    -0.003 C 
ATOM     32  C   UNL     1       7.582  43.187   2.827  1.00  0.00     0.004 C 
ENDBRANCH  30  31
ENDBRANCH  29  30
ENDBRANCH  28  29
ENDBRANCH  27  28
ENDBRANCH  26  27
ENDBRANCH  25  26
ENDBRANCH  24  25
ENDBRANCH  23  24
ENDBRANCH  22  23
ENDBRANCH  21  22
ENDBRANCH  20  21
ENDBRANCH  19  20
ENDBRANCH  18  19
ENDBRANCH   1  18
TORSDOF 28
ENDMDL
MODEL 6
REMARK VINA RESULT:    27.213      7.577     11.826
REMARK INTER + INTRA:          71.966
REMARK INTER:                  73.686
REMARK INTRA:                  -1.720
REMARK UNBOUND:                 0.208
REMARK SMILES CCCCCCCCCCCCCCCCCCCCCCCCCCCCCC(=O)[O-]
REMARK SMILES IDX 16 1 17 2 18 3 19 4 20 5 21 6 22 7 23 8 24 9 25 10 26 11
REMARK SMILES IDX 27 12 28 13 29 14 30 15 31 16 32 17 15 18 14 19 13 20 12 21
REMARK SMILES IDX 11 22 10 23 9 24 8 25 7 26 6 27 5 28 4 29 3 30 2 31 1 32
REMARK H PARENT
REMARK Flexibility Score: inf
ROOT
ATOM      1  C   UNL     1       1.679  45.367   4.227  1.00  0.00     0.000 C 
ENDROOT
BRANCH   1   2
ATOM      2  C   UNL     1       0.177  45.164   3.952  1.00  0.00     0.000 C 
BRANCH   2   3
ATOM      3  C   UNL     1      -0.312  45.622   2.565  1.00  0.00     0.000 C 
BRANCH   3   4
ATOM      4  C   UNL     1      -1.716  46.273   2.578  1.00  0.00     0.000 C 
BRANCH   4   5
ATOM      5  C   UNL     1      -2.347  46.356   1.178  1.00  0.00     0.000 C 
BRANCH   5   6
ATOM      6  C   UNL     1      -3.876  46.520   1.234  1.00  0.00     0.000 C 
BRANCH   6   7
ATOM      7  C   UNL     1      -4.464  47.009  -0.100  1.00  0.00     0.000 C 
BRANCH   7   8
ATOM      8  C   UNL     1      -3.648  46.543  -1.320  1.00  0.00     0.000 C 
BRANCH   8   9
ATOM      9  C   UNL     1      -4.259  46.995  -2.655  1.00  0.00     0.000 C 
BRANCH   9  10
ATOM     10  C   UNL     1      -3.184  47.554  -3.595  1.00  0.00     0.000 C 
BRANCH  10  11
ATOM     11  C   UNL     1      -2.192  48.440  -2.827  1.00  0.00     0.000 C 
BRANCH  11  12
ATOM     12  C   UNL     1      -0.771  48.398  -3.412  1.00  0.00     0.000 C 
BRANCH  12  13
ATOM     13  C   UNL     1       0.328  48.999  -2.514  1.00  0.00     0.006 C 
BRANCH  13  14
ATOM     14  C   UNL     1       0.481  48.296  -1.153  1.00  0.00     0.053 C 
BRANCH  14  15
ATOM     15  C   UNL     1       1.796  48.596  -0.500  1.00  0.00     0.041 C 
ATOM     16  O   UNL     1       2.216  49.782  -0.432  1.00  0.00    -0.550 OA
ATOM     17  O   UNL     1       2.578  47.562   0.002  1.00  0.00    -0.550 OA
ENDBRANCH  14  15
ENDBRANCH  13  14
ENDBRANCH  12  13
ENDBRANCH  11  12
ENDBRANCH  10  11
ENDBRANCH   9  10
ENDBRANCH   8   9
ENDBRANCH   7   8
ENDBRANCH   6   7
ENDBRANCH   5   6
ENDBRANCH   4   5
ENDBRANCH   3   4
ENDBRANCH   2   3
ENDBRANCH   1   2
BRANCH   1  18
ATOM     18  C   UNL     1       2.386  44.129   4.821  1.00  0.00     0.000 C 
BRANCH  18  19
ATOM     19  C   UNL     1       1.454  43.277   5.695  1.00  0.00     0.000 C 
BRANCH  19  20
ATOM     20  C   UNL     1       1.917  43.276   7.161  1.00  0.00     0.000 C 
BRANCH  20  21
ATOM     21  C   UNL     1       3.450  43.306   7.310  1.00  0.00     0.000 C 
BRANCH  21  22
ATOM     22  C   UNL     1       3.972  43.762   8.688  1.00  0.00     0.000 C 
BRANCH  22  23
ATOM     23  C   UNL     1       4.647  42.645   9.524  1.00  0.00     0.000 C 
BRANCH  23  24
ATOM     24  C   UNL     1       6.155  42.882   9.785  1.00  0.00    -0.000 C 
BRANCH  24  25
ATOM     25  C   UNL     1       7.079  42.149   8.795  1.00  0.00    -0.000 C 
BRANCH  25  26
ATOM     26  C   UNL     1       7.050  42.689   7.350  1.00  0.00    -0.000 C 
BRANCH  26  27
ATOM     27  C   UNL     1       7.478  41.680   6.267  1.00  0.00    -0.000 C 
BRANCH  27  28
ATOM     28  C   UNL     1       9.005  41.521   6.175  1.00  0.00    -0.000 C 
BRANCH  28  29
ATOM     29  C   UNL     1       9.520  41.522   4.725  1.00  0.00    -0.000 C 
BRANCH  29  30
ATOM     30  C   UNL     1      10.067  40.175   4.222  1.00  0.00    -0.000 C 
BRANCH  30  31
ATOM     31  C   UNL     1      10.069  40.060   2.691  1.00  0.00    -0.003 C 
ATOM     32  C   UNL     1       9.442  41.293   2.047  1.00  0.00     0.004 C 
ENDBRANCH  30  31
ENDBRANCH  29  30
ENDBRANCH  28  29
ENDBRANCH  27  28
ENDBRANCH  26  27
ENDBRANCH  25  26
ENDBRANCH  24  25
ENDBRANCH  23  24
ENDBRANCH  22  23
ENDBRANCH  21  22
ENDBRANCH  20  21
ENDBRANCH  19  20
ENDBRANCH  18  19
ENDBRANCH   1  18
TORSDOF 28
ENDMDL
MODEL 7
REMARK VINA RESULT:    27.469      6.902     11.969
REMARK INTER + INTRA:          72.640
REMARK INTER:                  70.531
REMARK INTRA:                   2.108
REMARK UNBOUND:                 0.208
REMARK SMILES CCCCCCCCCCCCCCCCCCCCCCCCCCCCCC(=O)[O-]
REMARK SMILES IDX 16 1 17 2 18 3 19 4 20 5 21 6 22 7 23 8 24 9 25 10 26 11
REMARK SMILES IDX 27 12 28 13 29 14 30 15 31 16 32 17 15 18 14 19 13 20 12 21
REMARK SMILES IDX 11 22 10 23 9 24 8 25 7 26 6 27 5 28 4 29 3 30 2 31 1 32
REMARK H PARENT
REMARK Flexibility Score: inf
ROOT
ATOM      1  C   UNL     1       0.771  42.827   5.571  1.00  0.00     0.000 C 
ENDROOT
BRANCH   1   2
ATOM      2  C   UNL     1       2.144  43.337   6.049  1.00  0.00     0.000 C 
BRANCH   2   3
ATOM      3  C   UNL     1       2.439  43.139   7.549  1.00  0.00     0.000 C 
BRANCH   3   4
ATOM      4  C   UNL     1       3.040  44.387   8.239  1.00  0.00     0.000 C 
BRANCH   4   5
ATOM      5  C   UNL     1       4.111  44.032   9.284  1.00  0.00     0.000 C 
BRANCH   5   6
ATOM      6  C   UNL     1       4.750  42.656   9.022  1.00  0.00     0.000 C 
BRANCH   6   7
ATOM      7  C   UNL     1       6.274  42.743   8.831  1.00  0.00     0.000 C 
BRANCH   7   8
ATOM      8  C   UNL     1       6.716  42.414   7.394  1.00  0.00     0.000 C 
BRANCH   8   9
ATOM      9  C   UNL     1       8.106  41.764   7.331  1.00  0.00     0.000 C 
BRANCH   9  10
ATOM     10  C   UNL     1       9.158  42.634   8.029  1.00  0.00     0.000 C 
BRANCH  10  11
ATOM     11  C   UNL     1      10.259  43.058   7.045  1.00  0.00     0.000 C 
BRANCH  11  12
ATOM     12  C   UNL     1      10.106  42.412   5.658  1.00  0.00     0.000 C 
BRANCH  12  13
ATOM     13  C   UNL     1       8.706  41.846   5.347  1.00  0.00     0.006 C 
BRANCH  13  14
ATOM     14  C   UNL     1       8.724  40.499   4.601  1.00  0.00     0.053 C 
BRANCH  14  15
ATOM     15  C   UNL     1       9.754  40.464   3.513  1.00  0.00     0.041 C 
ATOM     16  O   UNL     1      10.774  39.733   3.626  1.00  0.00    -0.550 OA
ATOM     17  O   UNL     1       9.608  41.268   2.388  1.00  0.00    -0.550 OA
ENDBRANCH  14  15
ENDBRANCH  13  14
ENDBRANCH  12  13
ENDBRANCH  11  12
ENDBRANCH  10  11
ENDBRANCH   9  10
ENDBRANCH   8   9
ENDBRANCH   7   8
ENDBRANCH   6   7
ENDBRANCH   5   6
ENDBRANCH   4   5
ENDBRANCH   3   4
ENDBRANCH   2   3
ENDBRANCH   1   2
BRANCH   1  18
ATOM     18  C   UNL     1      -0.282  43.941   5.375  1.00  0.00     0.000 C 
BRANCH  18  19
ATOM     19  C   UNL     1      -1.722  43.427   5.518  1.00  0.00     0.000 C 
BRANCH  19  20
ATOM     20  C   UNL     1      -2.565  44.374   6.387  1.00  0.00     0.000 C 
BRANCH  20  21
ATOM     21  C   UNL     1      -3.456  45.320   5.559  1.00  0.00     0.000 C 
BRANCH  21  22
ATOM     22  C   UNL     1      -2.770  46.608   5.060  1.00  0.00     0.000 C 
BRANCH  22  23
ATOM     23  C   UNL     1      -2.862  46.835   3.529  1.00  0.00     0.000 C 
BRANCH  23  24
ATOM     24  C   UNL     1      -1.526  46.606   2.781  1.00  0.00    -0.000 C 
BRANCH  24  25
ATOM     25  C   UNL     1      -1.275  47.608   1.639  1.00  0.00    -0.000 C 
BRANCH  25  26
ATOM     26  C   UNL     1      -2.468  47.827   0.686  1.00  0.00    -0.000 C 
BRANCH  26  27
ATOM     27  C   UNL     1      -2.666  49.279   0.209  1.00  0.00    -0.000 C 
BRANCH  27  28
ATOM     28  C   UNL     1      -2.482  49.435  -1.309  1.00  0.00    -0.000 C 
BRANCH  28  29
ATOM     29  C   UNL     1      -3.076  48.260  -2.107  1.00  0.00    -0.000 C 
BRANCH  29  30
ATOM     30  C   UNL     1      -2.870  48.330  -3.630  1.00  0.00    -0.000 C 
BRANCH  30  31
ATOM     31  C   UNL     1      -1.454  47.928  -4.065  1.00  0.00    -0.003 C 
ATOM     32  C   UNL     1      -0.404  48.822  -3.409  1.00  0.00     0.004 C 
ENDBRANCH  30  31
ENDBRANCH  29  30
ENDBRANCH  28  29
ENDBRANCH  27  28
ENDBRANCH  26  27
ENDBRANCH  25  26
ENDBRANCH  24  25
ENDBRANCH  23  24
ENDBRANCH  22  23
ENDBRANCH  21  22
ENDBRANCH  20  21
ENDBRANCH  19  20
ENDBRANCH  18  19
ENDBRANCH   1  18
TORSDOF 28
ENDMDL
MODEL 8
REMARK VINA RESULT:    27.831      6.996     12.290
REMARK INTER + INTRA:          73.595
REMARK INTER:                  74.793
REMARK INTRA:                  -1.198
REMARK UNBOUND:                 0.208
REMARK SMILES CCCCCCCCCCCCCCCCCCCCCCCCCCCCCC(=O)[O-]
REMARK SMILES IDX 16 1 17 2 18 3 19 4 20 5 21 6 22 7 23 8 24 9 25 10 26 11
REMARK SMILES IDX 27 12 28 13 29 14 30 15 31 16 32 17 15 18 14 19 13 20 12 21
REMARK SMILES IDX 11 22 10 23 9 24 8 25 7 26 6 27 5 28 4 29 3 30 2 31 1 32
REMARK H PARENT
REMARK Flexibility Score: inf
ROOT
ATOM      1  C   UNL     1      -0.322  43.876   5.270  1.00  0.00     0.000 C 
ENDROOT
BRANCH   1   2
ATOM      2  C   UNL     1       1.217  43.812   5.311  1.00  0.00     0.000 C 
BRANCH   2   3
ATOM      3  C   UNL     1       1.815  42.965   6.451  1.00  0.00     0.000 C 
BRANCH   3   4
ATOM      4  C   UNL     1       3.026  43.624   7.153  1.00  0.00     0.000 C 
BRANCH   4   5
ATOM      5  C   UNL     1       3.099  43.291   8.653  1.00  0.00     0.000 C 
BRANCH   5   6
ATOM      6  C   UNL     1       4.529  42.953   9.109  1.00  0.00     0.000 C 
BRANCH   6   7
ATOM      7  C   UNL     1       5.599  43.566   8.191  1.00  0.00     0.000 C 
BRANCH   7   8
ATOM      8  C   UNL     1       6.839  42.668   8.034  1.00  0.00     0.000 C 
BRANCH   8   9
ATOM      9  C   UNL     1       7.184  42.378   6.565  1.00  0.00     0.000 C 
BRANCH   9  10
ATOM     10  C   UNL     1       8.677  42.596   6.293  1.00  0.00     0.000 C 
BRANCH  10  11
ATOM     11  C   UNL     1       9.394  41.255   6.074  1.00  0.00     0.000 C 
BRANCH  11  12
ATOM     12  C   UNL     1       9.015  40.580   4.746  1.00  0.00     0.000 C 
BRANCH  12  13
ATOM     13  C   UNL     1      10.156  40.468   3.715  1.00  0.00     0.006 C 
BRANCH  13  14
ATOM     14  C   UNL     1       9.681  40.455   2.251  1.00  0.00     0.053 C 
BRANCH  14  15
ATOM     15  C   UNL     1       9.079  41.763   1.835  1.00  0.00     0.041 C 
ATOM     16  O   UNL     1       8.271  42.361   2.594  1.00  0.00    -0.550 OA
ATOM     17  O   UNL     1       9.382  42.306   0.591  1.00  0.00    -0.550 OA
ENDBRANCH  14  15
ENDBRANCH  13  14
ENDBRANCH  12  13
ENDBRANCH  11  12
ENDBRANCH  10  11
ENDBRANCH   9  10
ENDBRANCH   8   9
ENDBRANCH   7   8
ENDBRANCH   6   7
ENDBRANCH   5   6
ENDBRANCH   4   5
ENDBRANCH   3   4
ENDBRANCH   2   3
ENDBRANCH   1   2
BRANCH   1  18
ATOM     18  C   UNL     1      -0.899  44.314   3.905  1.00  0.00     0.000 C 
BRANCH  18  19
ATOM     19  C   UNL     1      -0.551  45.767   3.553  1.00  0.00     0.000 C 
BRANCH  19  20
ATOM     20  C   UNL     1      -1.209  46.190   2.230  1.00  0.00     0.000 C 
BRANCH  20  21
ATOM     21  C   UNL     1      -2.451  47.080   2.432  1.00  0.00     0.000 C 
BRANCH  21  22
ATOM     22  C   UNL     1      -3.629  46.799   1.476  1.00  0.00     0.000 C 
BRANCH  22  23
ATOM     23  C   UNL     1      -3.454  47.378   0.050  1.00  0.00     0.000 C 
BRANCH  23  24
ATOM     24  C   UNL     1      -2.349  48.457  -0.056  1.00  0.00    -0.000 C 
BRANCH  24  25
ATOM     25  C   UNL     1      -2.649  49.554  -1.095  1.00  0.00    -0.000 C 
BRANCH  25  26
ATOM     26  C   UNL     1      -2.701  49.071  -2.559  1.00  0.00    -0.000 C 
BRANCH  26  27
ATOM     27  C   UNL     1      -1.465  48.279  -3.029  1.00  0.00    -0.000 C 
BRANCH  27  28
ATOM     28  C   UNL     1      -0.152  49.053  -2.823  1.00  0.00    -0.000 C 
BRANCH  28  29
ATOM     29  C   UNL     1       0.993  48.162  -2.308  1.00  0.00    -0.000 C 
BRANCH  29  30
ATOM     30  C   UNL     1       1.298  48.289  -0.806  1.00  0.00    -0.000 C 
BRANCH  30  31
ATOM     31  C   UNL     1       2.245  49.452  -0.479  1.00  0.00    -0.003 C 
ATOM     32  C   UNL     1       3.393  48.990   0.414  1.00  0.00     0.004 C 
ENDBRANCH  30  31
ENDBRANCH  29  30
ENDBRANCH  28  29
ENDBRANCH  27  28
ENDBRANCH  26  27
ENDBRANCH  25  26
ENDBRANCH  24  25
ENDBRANCH  23  24
ENDBRANCH  22  23
ENDBRANCH  21  22
ENDBRANCH  20  21
ENDBRANCH  19  20
ENDBRANCH  18  19
ENDBRANCH   1  18
TORSDOF 28
ENDMDL
MODEL 9
REMARK VINA RESULT:    28.076      6.231     11.135
REMARK INTER + INTRA:          74.240
REMARK INTER:                  75.792
REMARK INTRA:                  -1.552
REMARK UNBOUND:                 0.208
REMARK SMILES CCCCCCCCCCCCCCCCCCCCCCCCCCCCCC(=O)[O-]
REMARK SMILES IDX 16 1 17 2 18 3 19 4 20 5 21 6 22 7 23 8 24 9 25 10 26 11
REMARK SMILES IDX 27 12 28 13 29 14 30 15 31 16 32 17 15 18 14 19 13 20 12 21
REMARK SMILES IDX 11 22 10 23 9 24 8 25 7 26 6 27 5 28 4 29 3 30 2 31 1 32
REMARK H PARENT
REMARK Flexibility Score: inf
ROOT
ATOM      1  C   UNL     1       2.265  43.125   6.189  1.00  0.00     0.000 C 
ENDROOT
BRANCH   1   2
ATOM      2  C   UNL     1       3.073  43.857   7.278  1.00  0.00     0.000 C 
BRANCH   2   3
ATOM      3  C   UNL     1       3.141  43.146   8.644  1.00  0.00     0.000 C 
BRANCH   3   4
ATOM      4  C   UNL     1       4.543  43.176   9.297  1.00  0.00     0.000 C 
BRANCH   4   5
ATOM      5  C   UNL     1       5.645  43.622   8.322  1.00  0.00     0.000 C 
BRANCH   5   6
ATOM      6  C   UNL     1       6.301  42.434   7.596  1.00  0.00     0.000 C 
BRANCH   6   7
ATOM      7  C   UNL     1       6.919  42.837   6.247  1.00  0.00     0.000 C 
BRANCH   7   8
ATOM      8  C   UNL     1       7.933  43.989   6.374  1.00  0.00     0.000 C 
BRANCH   8   9
ATOM      9  C   UNL     1       9.373  43.496   6.583  1.00  0.00     0.000 C 
BRANCH   9  10
ATOM     10  C   UNL     1       9.510  42.727   7.902  1.00  0.00     0.000 C 
BRANCH  10  11
ATOM     11  C   UNL     1       9.620  41.217   7.647  1.00  0.00     0.000 C 
BRANCH  11  12
ATOM     12  C   UNL     1       9.926  40.877   6.179  1.00  0.00     0.000 C 
BRANCH  12  13
ATOM     13  C   UNL     1       8.790  40.164   5.418  1.00  0.00     0.006 C 
BRANCH  13  14
ATOM     14  C   UNL     1       8.626  40.626   3.958  1.00  0.00     0.053 C 
BRANCH  14  15
ATOM     15  C   UNL     1       9.832  40.317   3.123  1.00  0.00     0.041 C 
ATOM     16  O   UNL     1      10.645  39.426   3.485  1.00  0.00    -0.550 OA
ATOM     17  O   UNL     1      10.079  41.040   1.961  1.00  0.00    -0.550 OA
ENDBRANCH  14  15
ENDBRANCH  13  14
ENDBRANCH  12  13
ENDBRANCH  11  12
ENDBRANCH  10  11
ENDBRANCH   9  10
ENDBRANCH   8   9
ENDBRANCH   7   8
ENDBRANCH   6   7
ENDBRANCH   5   6
ENDBRANCH   4   5
ENDBRANCH   3   4
ENDBRANCH   2   3
ENDBRANCH   1   2
BRANCH   1  18
ATOM     18  C   UNL     1       0.753  43.442   6.204  1.00  0.00     0.000 C 
BRANCH  18  19
ATOM     19  C   UNL     1       0.164  43.591   4.794  1.00  0.00     0.000 C 
BRANCH  19  20
ATOM     20  C   UNL     1      -1.372  43.644   4.838  1.00  0.00     0.000 C 
BRANCH  20  21
ATOM     21  C   UNL     1      -1.934  43.700   6.272  1.00  0.00     0.000 C 
BRANCH  21  22
ATOM     22  C   UNL     1      -3.319  44.363   6.415  1.00  0.00     0.000 C 
BRANCH  22  23
ATOM     23  C   UNL     1      -3.306  45.910   6.319  1.00  0.00     0.000 C 
BRANCH  23  24
ATOM     24  C   UNL     1      -3.618  46.452   4.902  1.00  0.00    -0.000 C 
BRANCH  24  25
ATOM     25  C   UNL     1      -2.380  46.981   4.154  1.00  0.00    -0.000 C 
BRANCH  25  26
ATOM     26  C   UNL     1      -2.364  46.701   2.638  1.00  0.00    -0.000 C 
BRANCH  26  27
ATOM     27  C   UNL     1      -1.682  47.786   1.781  1.00  0.00    -0.000 C 
BRANCH  27  28
ATOM     28  C   UNL     1      -2.620  48.378   0.716  1.00  0.00    -0.000 C 
BRANCH  28  29
ATOM     29  C   UNL     1      -1.866  48.900  -0.520  1.00  0.00    -0.000 C 
BRANCH  29  30
ATOM     30  C   UNL     1      -2.730  49.106  -1.776  1.00  0.00    -0.000 C 
BRANCH  30  31
ATOM     31  C   UNL     1      -2.224  48.315  -2.991  1.00  0.00    -0.003 C 
ATOM     32  C   UNL     1      -0.772  48.664  -3.307  1.00  0.00     0.004 C 
ENDBRANCH  30  31
ENDBRANCH  29  30
ENDBRANCH  28  29
ENDBRANCH  27  28
ENDBRANCH  26  27
ENDBRANCH  25  26
ENDBRANCH  24  25
ENDBRANCH  23  24
ENDBRANCH  22  23
ENDBRANCH  21  22
ENDBRANCH  20  21
ENDBRANCH  19  20
ENDBRANCH  18  19
ENDBRANCH   1  18
TORSDOF 28
ENDMDL
