MODEL 1
REMARK VINA RESULT:    -6.491      0.000      0.000
REMARK INTER + INTRA:          -7.135
REMARK INTER:                  -6.870
REMARK INTRA:                  -0.266
REMARK UNBOUND:                -0.266
REMARK SMILES CC1=C[C@H]2C(=C(C)CC[C@H]2C(C)C)CC1
REMARK SMILES IDX 1 1 2 2 3 3 4 4 10 5 9 6 8 7 6 8 5 9 14 10 15 11 7 12 11 13
REMARK SMILES IDX 12 14 13 15
REMARK H PARENT
REMARK Flexibility Score: inf
ROOT
ATOM      1  C   UNL     1     -42.092 -50.732  31.794  1.00  0.00     0.039 C 
ATOM      2  C   UNL     1     -41.806 -50.435  30.348  1.00  0.00    -0.076 C 
ATOM      3  C   UNL     1     -40.967 -49.433  30.016  1.00  0.00    -0.020 C 
ATOM      4  C   UNL     1     -40.719 -49.139  28.550  1.00  0.00     0.041 C 
ATOM      5  C   UNL     1     -39.818 -47.906  28.235  1.00  0.00     0.003 C 
ATOM      6  C   UNL     1     -40.663 -46.632  28.087  1.00  0.00     0.009 C 
ATOM      7  C   UNL     1     -41.659 -46.813  26.943  1.00  0.00     0.031 C 
ATOM      8  C   UNL     1     -42.517 -48.048  27.124  1.00  0.00    -0.073 C 
ATOM      9  C   UNL     1     -42.084 -49.117  27.853  1.00  0.00    -0.064 C 
ATOM     10  C   UNL     1     -43.026 -50.283  28.153  1.00  0.00     0.036 C 
ATOM     11  C   UNL     1     -42.473 -51.226  29.240  1.00  0.00     0.035 C 
ATOM     12  C   UNL     1     -43.854 -48.069  26.421  1.00  0.00     0.039 C 
ENDROOT
BRANCH   5  13
ATOM     13  C   UNL     1     -38.562 -47.749  29.167  1.00  0.00    -0.013 C 
ATOM     14  C   UNL     1     -38.034 -46.304  29.294  1.00  0.00     0.007 C 
ATOM     15  C   UNL     1     -37.412 -48.658  28.699  1.00  0.00     0.007 C 
ENDBRANCH   5  13
TORSDOF 1
ENDMDL
MODEL 2
REMARK VINA RESULT:    -6.234     10.686     13.939
REMARK INTER + INTRA:          -6.864
REMARK INTER:                  -6.600
REMARK INTRA:                  -0.264
REMARK UNBOUND:                -0.266
REMARK SMILES CC1=C[C@H]2C(=C(C)CC[C@H]2C(C)C)CC1
REMARK SMILES IDX 1 1 2 2 3 3 4 4 10 5 9 6 8 7 6 8 5 9 14 10 15 11 7 12 11 13
REMARK SMILES IDX 12 14 13 15
REMARK H PARENT
REMARK Flexibility Score: inf
ROOT
ATOM      1  C   UNL     1     -50.167 -49.147  19.495  1.00  0.00     0.039 C 
ATOM      2  C   UNL     1     -50.905 -49.191  20.804  1.00  0.00    -0.076 C 
ATOM      3  C   UNL     1     -52.044 -48.488  20.962  1.00  0.00    -0.020 C 
ATOM      4  C   UNL     1     -52.752 -48.530  22.302  1.00  0.00     0.041 C 
ATOM      5  C   UNL     1     -54.009 -47.616  22.449  1.00  0.00     0.003 C 
ATOM      6  C   UNL     1     -53.620 -46.230  22.982  1.00  0.00     0.009 C 
ATOM      7  C   UNL     1     -52.961 -46.379  24.353  1.00  0.00     0.031 C 
ATOM      8  C   UNL     1     -51.782 -47.327  24.319  1.00  0.00    -0.073 C 
ATOM      9  C   UNL     1     -51.689 -48.318  23.385  1.00  0.00    -0.064 C 
ATOM     10  C   UNL     1     -50.418 -49.160  23.272  1.00  0.00     0.036 C 
ATOM     11  C   UNL     1     -50.374 -49.993  21.976  1.00  0.00     0.035 C 
ATOM     12  C   UNL     1     -50.733 -47.164  25.395  1.00  0.00     0.039 C 
ENDROOT
BRANCH   5  13
ATOM     13  C   UNL     1     -54.957 -47.589  21.196  1.00  0.00    -0.013 C 
ATOM     14  C   UNL     1     -55.647 -46.232  20.943  1.00  0.00     0.007 C 
ATOM     15  C   UNL     1     -56.034 -48.683  21.297  1.00  0.00     0.007 C 
ENDBRANCH   5  13
TORSDOF 1
ENDMDL
MODEL 3
REMARK VINA RESULT:    -6.206     11.244     14.112
REMARK INTER + INTRA:          -6.835
REMARK INTER:                  -6.612
REMARK INTRA:                  -0.223
REMARK UNBOUND:                -0.266
REMARK SMILES CC1=C[C@H]2C(=C(C)CC[C@H]2C(C)C)CC1
REMARK SMILES IDX 1 1 2 2 3 3 4 4 10 5 9 6 8 7 6 8 5 9 14 10 15 11 7 12 11 13
REMARK SMILES IDX 12 14 13 15
REMARK H PARENT
REMARK Flexibility Score: inf
ROOT
ATOM      1  C   UNL     1     -56.435 -48.666  21.243  1.00  0.00     0.039 C 
ATOM      2  C   UNL     1     -55.063 -48.059  21.347  1.00  0.00    -0.076 C 
ATOM      3  C   UNL     1     -53.974 -48.791  21.036  1.00  0.00    -0.020 C 
ATOM      4  C   UNL     1     -52.602 -48.161  21.176  1.00  0.00     0.041 C 
ATOM      5  C   UNL     1     -51.383 -49.093  20.896  1.00  0.00     0.003 C 
ATOM      6  C   UNL     1     -50.916 -49.789  22.183  1.00  0.00     0.009 C 
ATOM      7  C   UNL     1     -50.501 -48.735  23.209  1.00  0.00     0.031 C 
ATOM      8  C   UNL     1     -51.603 -47.730  23.471  1.00  0.00    -0.073 C 
ATOM      9  C   UNL     1     -52.561 -47.460  22.538  1.00  0.00    -0.064 C 
ATOM     10  C   UNL     1     -53.749 -46.562  22.884  1.00  0.00     0.036 C 
ATOM     11  C   UNL     1     -54.871 -46.635  21.830  1.00  0.00     0.035 C 
ATOM     12  C   UNL     1     -51.568 -46.998  24.793  1.00  0.00     0.039 C 
ENDROOT
BRANCH   5  13
ATOM     13  C   UNL     1     -51.552 -50.052  19.662  1.00  0.00    -0.013 C 
ATOM     14  C   UNL     1     -51.882 -51.514  20.027  1.00  0.00     0.007 C 
ATOM     15  C   UNL     1     -50.296 -50.033  18.774  1.00  0.00     0.007 C 
ENDBRANCH   5  13
TORSDOF 1
ENDMDL
MODEL 4
REMARK VINA RESULT:    -5.859      1.095      4.251
REMARK INTER + INTRA:          -6.467
REMARK INTER:                  -6.231
REMARK INTRA:                  -0.236
REMARK UNBOUND:                -0.266
REMARK SMILES CC1=C[C@H]2C(=C(C)CC[C@H]2C(C)C)CC1
REMARK SMILES IDX 1 1 2 2 3 3 4 4 10 5 9 6 8 7 6 8 5 9 14 10 15 11 7 12 11 13
REMARK SMILES IDX 12 14 13 15
REMARK H PARENT
REMARK Flexibility Score: inf
ROOT
ATOM      1  C   UNL     1     -37.800 -48.507  28.870  1.00  0.00     0.039 C 
ATOM      2  C   UNL     1     -39.207 -47.985  28.775  1.00  0.00    -0.076 C 
ATOM      3  C   UNL     1     -40.251 -48.819  28.949  1.00  0.00    -0.020 C 
ATOM      4  C   UNL     1     -41.658 -48.269  28.820  1.00  0.00     0.041 C 
ATOM      5  C   UNL     1     -42.818 -49.306  28.935  1.00  0.00     0.003 C 
ATOM      6  C   UNL     1     -43.185 -49.875  27.557  1.00  0.00     0.009 C 
ATOM      7  C   UNL     1     -43.635 -48.737  26.641  1.00  0.00     0.031 C 
ATOM      8  C   UNL     1     -42.599 -47.637  26.547  1.00  0.00    -0.073 C 
ATOM      9  C   UNL     1     -41.698 -47.416  27.547  1.00  0.00    -0.064 C 
ATOM     10  C   UNL     1     -40.565 -46.407  27.362  1.00  0.00     0.036 C 
ATOM     11  C   UNL     1     -39.480 -46.529  28.451  1.00  0.00     0.035 C 
ATOM     12  C   UNL     1     -42.636 -46.758  25.318  1.00  0.00     0.039 C 
ENDROOT
BRANCH   5  13
ATOM     13  C   UNL     1     -42.628 -50.390  30.057  1.00  0.00    -0.013 C 
ATOM     14  C   UNL     1     -42.224 -51.786  29.537  1.00  0.00     0.007 C 
ATOM     15  C   UNL     1     -43.899 -50.527  30.912  1.00  0.00     0.007 C 
ENDBRANCH   5  13
TORSDOF 1
ENDMDL
MODEL 5
REMARK VINA RESULT:    -5.786     10.356     12.864
REMARK INTER + INTRA:          -6.389
REMARK INTER:                  -6.123
REMARK INTRA:                  -0.266
REMARK UNBOUND:                -0.266
REMARK SMILES CC1=C[C@H]2C(=C(C)CC[C@H]2C(C)C)CC1
REMARK SMILES IDX 1 1 2 2 3 3 4 4 10 5 9 6 8 7 6 8 5 9 14 10 15 11 7 12 11 13
REMARK SMILES IDX 12 14 13 15
REMARK H PARENT
REMARK Flexibility Score: inf
ROOT
ATOM      1  C   UNL     1     -54.982 -47.875  21.287  1.00  0.00     0.039 C 
ATOM      2  C   UNL     1     -53.607 -47.669  21.860  1.00  0.00    -0.076 C 
ATOM      3  C   UNL     1     -52.524 -48.133  21.205  1.00  0.00    -0.020 C 
ATOM      4  C   UNL     1     -51.153 -47.934  21.821  1.00  0.00     0.041 C 
ATOM      5  C   UNL     1     -49.954 -48.581  21.061  1.00  0.00     0.003 C 
ATOM      6  C   UNL     1     -49.694 -50.010  21.561  1.00  0.00     0.009 C 
ATOM      7  C   UNL     1     -49.365 -49.974  23.053  1.00  0.00     0.031 C 
ATOM      8  C   UNL     1     -50.441 -49.276  23.857  1.00  0.00    -0.073 C 
ATOM      9  C   UNL     1     -51.255 -48.336  23.297  1.00  0.00    -0.064 C 
ATOM     10  C   UNL     1     -52.433 -47.761  24.084  1.00  0.00     0.036 C 
ATOM     11  C   UNL     1     -53.411 -46.971  23.192  1.00  0.00     0.035 C 
ATOM     12  C   UNL     1     -50.543 -49.627  25.324  1.00  0.00     0.039 C 
ENDROOT
BRANCH   5  13
ATOM     13  C   UNL     1     -50.008 -48.439  19.497  1.00  0.00    -0.013 C 
ATOM     14  C   UNL     1     -50.224 -49.766  18.739  1.00  0.00     0.007 C 
ATOM     15  C   UNL     1     -48.734 -47.763  18.962  1.00  0.00     0.007 C 
ENDBRANCH   5  13
TORSDOF 1
ENDMDL
MODEL 6
REMARK VINA RESULT:    -5.722      9.993     13.155
REMARK INTER + INTRA:          -6.322
REMARK INTER:                  -6.133
REMARK INTRA:                  -0.190
REMARK UNBOUND:                -0.266
REMARK SMILES CC1=C[C@H]2C(=C(C)CC[C@H]2C(C)C)CC1
REMARK SMILES IDX 1 1 2 2 3 3 4 4 10 5 9 6 8 7 6 8 5 9 14 10 15 11 7 12 11 13
REMARK SMILES IDX 12 14 13 15
REMARK H PARENT
REMARK Flexibility Score: inf
ROOT
ATOM      1  C   UNL     1     -50.373 -49.892  25.375  1.00  0.00     0.039 C 
ATOM      2  C   UNL     1     -50.360 -49.296  23.994  1.00  0.00    -0.076 C 
ATOM      3  C   UNL     1     -51.507 -48.872  23.429  1.00  0.00    -0.020 C 
ATOM      4  C   UNL     1     -51.466 -48.302  22.025  1.00  0.00     0.041 C 
ATOM      5  C   UNL     1     -52.841 -47.921  21.394  1.00  0.00     0.003 C 
ATOM      6  C   UNL     1     -53.439 -49.108  20.623  1.00  0.00     0.009 C 
ATOM      7  C   UNL     1     -52.483 -49.519  19.503  1.00  0.00     0.031 C 
ATOM      8  C   UNL     1     -51.092 -49.817  20.021  1.00  0.00    -0.073 C 
ATOM      9  C   UNL     1     -50.622 -49.254  21.172  1.00  0.00    -0.064 C 
ATOM     10  C   UNL     1     -49.280 -49.692  21.757  1.00  0.00     0.036 C 
ATOM     11  C   UNL     1     -49.072 -49.192  23.200  1.00  0.00     0.035 C 
ATOM     12  C   UNL     1     -50.224 -50.728  19.183  1.00  0.00     0.039 C 
ENDROOT
BRANCH   5  13
ATOM     13  C   UNL     1     -53.845 -47.210  22.372  1.00  0.00    -0.013 C 
ATOM     14  C   UNL     1     -55.247 -46.955  21.779  1.00  0.00     0.007 C 
ATOM     15  C   UNL     1     -53.269 -45.875  22.876  1.00  0.00     0.007 C 
ENDBRANCH   5  13
TORSDOF 1
ENDMDL
MODEL 7
REMARK VINA RESULT:    -5.704      1.218      4.735
REMARK INTER + INTRA:          -6.303
REMARK INTER:                  -6.039
REMARK INTRA:                  -0.264
REMARK UNBOUND:                -0.266
REMARK SMILES CC1=C[C@H]2C(=C(C)CC[C@H]2C(C)C)CC1
REMARK SMILES IDX 1 1 2 2 3 3 4 4 10 5 9 6 8 7 6 8 5 9 14 10 15 11 7 12 11 13
REMARK SMILES IDX 12 14 13 15
REMARK H PARENT
REMARK Flexibility Score: inf
ROOT
ATOM      1  C   UNL     1     -44.397 -45.968  27.805  1.00  0.00     0.039 C 
ATOM      2  C   UNL     1     -43.101 -46.720  27.672  1.00  0.00    -0.076 C 
ATOM      3  C   UNL     1     -42.867 -47.805  28.438  1.00  0.00    -0.020 C 
ATOM      4  C   UNL     1     -41.540 -48.526  28.301  1.00  0.00     0.041 C 
ATOM      5  C   UNL     1     -41.294 -49.712  29.285  1.00  0.00     0.003 C 
ATOM      6  C   UNL     1     -40.610 -49.226  30.571  1.00  0.00     0.009 C 
ATOM      7  C   UNL     1     -39.264 -48.593  30.222  1.00  0.00     0.031 C 
ATOM      8  C   UNL     1     -39.402 -47.487  29.197  1.00  0.00    -0.073 C 
ATOM      9  C   UNL     1     -40.440 -47.460  28.311  1.00  0.00    -0.064 C 
ATOM     10  C   UNL     1     -40.644 -46.254  27.394  1.00  0.00     0.036 C 
ATOM     11  C   UNL     1     -42.025 -46.260  26.708  1.00  0.00     0.035 C 
ATOM     12  C   UNL     1     -38.313 -46.439  29.161  1.00  0.00     0.039 C 
ENDROOT
BRANCH   5  13
ATOM     13  C   UNL     1     -42.538 -50.644  29.521  1.00  0.00    -0.013 C 
ATOM     14  C   UNL     1     -43.142 -50.559  30.938  1.00  0.00     0.007 C 
ATOM     15  C   UNL     1     -42.191 -52.111  29.216  1.00  0.00     0.007 C 
ENDBRANCH   5  13
TORSDOF 1
ENDMDL
MODEL 8
REMARK VINA RESULT:    -5.635      2.596      5.071
REMARK INTER + INTRA:          -6.230
REMARK INTER:                  -5.962
REMARK INTRA:                  -0.268
REMARK UNBOUND:                -0.266
REMARK SMILES CC1=C[C@H]2C(=C(C)CC[C@H]2C(C)C)CC1
REMARK SMILES IDX 1 1 2 2 3 3 4 4 10 5 9 6 8 7 6 8 5 9 14 10 15 11 7 12 11 13
REMARK SMILES IDX 12 14 13 15
REMARK H PARENT
REMARK Flexibility Score: inf
ROOT
ATOM      1  C   UNL     1     -46.661 -50.221  24.750  1.00  0.00     0.039 C 
ATOM      2  C   UNL     1     -45.268 -50.167  25.315  1.00  0.00    -0.076 C 
ATOM      3  C   UNL     1     -45.079 -49.945  26.631  1.00  0.00    -0.020 C 
ATOM      4  C   UNL     1     -43.663 -49.869  27.167  1.00  0.00     0.041 C 
ATOM      5  C   UNL     1     -43.515 -49.512  28.678  1.00  0.00     0.003 C 
ATOM      6  C   UNL     1     -43.402 -47.993  28.875  1.00  0.00     0.009 C 
ATOM      7  C   UNL     1     -42.175 -47.473  28.127  1.00  0.00     0.031 C 
ATOM      8  C   UNL     1     -42.194 -47.859  26.663  1.00  0.00    -0.073 C 
ATOM      9  C   UNL     1     -42.869 -48.960  26.223  1.00  0.00    -0.064 C 
ATOM     10  C   UNL     1     -43.005 -49.239  24.726  1.00  0.00     0.036 C 
ATOM     11  C   UNL     1     -44.054 -50.326  24.420  1.00  0.00     0.035 C 
ATOM     12  C   UNL     1     -41.391 -47.000  25.713  1.00  0.00     0.039 C 
ENDROOT
BRANCH   5  13
ATOM     13  C   UNL     1     -44.549 -50.216  29.629  1.00  0.00    -0.013 C 
ATOM     14  C   UNL     1     -45.486 -49.251  30.385  1.00  0.00     0.007 C 
ATOM     15  C   UNL     1     -43.833 -51.115  30.652  1.00  0.00     0.007 C 
ENDBRANCH   5  13
TORSDOF 1
ENDMDL
MODEL 9
REMARK VINA RESULT:    -5.616      1.315      3.802
REMARK INTER + INTRA:          -6.210
REMARK INTER:                  -5.978
REMARK INTRA:                  -0.232
REMARK UNBOUND:                -0.266
REMARK SMILES CC1=C[C@H]2C(=C(C)CC[C@H]2C(C)C)CC1
REMARK SMILES IDX 1 1 2 2 3 3 4 4 10 5 9 6 8 7 6 8 5 9 14 10 15 11 7 12 11 13
REMARK SMILES IDX 12 14 13 15
REMARK H PARENT
REMARK Flexibility Score: inf
ROOT
ATOM      1  C   UNL     1     -43.619 -49.716  24.736  1.00  0.00     0.039 C 
ATOM      2  C   UNL     1     -43.648 -49.248  26.165  1.00  0.00    -0.076 C 
ATOM      3  C   UNL     1     -42.508 -48.870  26.776  1.00  0.00    -0.020 C 
ATOM      4  C   UNL     1     -42.563 -48.430  28.226  1.00  0.00     0.041 C 
ATOM      5  C   UNL     1     -41.196 -48.101  28.901  1.00  0.00     0.003 C 
ATOM      6  C   UNL     1     -40.597 -49.349  29.566  1.00  0.00     0.009 C 
ATOM      7  C   UNL     1     -41.559 -49.865  30.635  1.00  0.00     0.031 C 
ATOM      8  C   UNL     1     -42.944 -50.124  30.081  1.00  0.00    -0.073 C 
ATOM      9  C   UNL     1     -43.408 -49.461  28.982  1.00  0.00    -0.064 C 
ATOM     10  C   UNL     1     -44.743 -49.851  28.348  1.00  0.00     0.036 C 
ATOM     11  C   UNL     1     -44.942 -49.224  26.954  1.00  0.00     0.035 C 
ATOM     12  C   UNL     1     -43.813 -51.111  30.825  1.00  0.00     0.039 C 
ENDROOT
BRANCH   5  13
ATOM     13  C   UNL     1     -40.190 -47.298  28.000  1.00  0.00    -0.013 C 
ATOM     14  C   UNL     1     -38.756 -47.207  28.564  1.00  0.00     0.007 C 
ATOM     15  C   UNL     1     -40.708 -45.875  27.729  1.00  0.00     0.007 C 
ENDBRANCH   5  13
TORSDOF 1
ENDMDL
