MODEL 1
REMARK VINA RESULT:    -3.247      0.000      0.000
REMARK INTER + INTRA:          -5.319
REMARK INTER:                  -4.575
REMARK INTRA:                  -0.744
REMARK UNBOUND:                -0.744
REMARK SMILES CCCCCCCCC(=O)[O-]
REMARK SMILES IDX 6 1 7 2 8 3 9 4 10 5 11 6 5 7 4 8 3 9 2 10 1 11
REMARK H PARENT
REMARK Flexibility Score: inf
ROOT
ATOM      1  C   UNL     1      12.751  21.630  16.236  1.00  0.00     0.000 C 
ENDROOT
BRANCH   1   2
ATOM      2  C   UNL     1      11.771  20.464  16.015  1.00  0.00     0.006 C 
BRANCH   2   3
ATOM      3  C   UNL     1      10.314  20.924  15.878  1.00  0.00     0.053 C 
BRANCH   3   4
ATOM      4  C   UNL     1       9.429  20.134  16.791  1.00  0.00     0.041 C 
ATOM      5  O   UNL     1       9.822  19.033  17.258  1.00  0.00    -0.550 OA
ATOM      6  O   UNL     1       8.150  20.590  17.085  1.00  0.00    -0.550 OA
ENDBRANCH   3   4
ENDBRANCH   2   3
ENDBRANCH   1   2
BRANCH   1   7
ATOM      7  C   UNL     1      12.249  22.737  17.181  1.00  0.00     0.000 C 
BRANCH   7   8
ATOM      8  C   UNL     1      13.195  22.985  18.369  1.00  0.00    -0.000 C 
BRANCH   8   9
ATOM      9  C   UNL     1      12.557  22.616  19.718  1.00  0.00    -0.000 C 
BRANCH   9  10
ATOM     10  C   UNL     1      11.181  21.954  19.560  1.00  0.00    -0.003 C 
ATOM     11  C   UNL     1      11.167  20.562  20.185  1.00  0.00     0.004 C 
ENDBRANCH   9  10
ENDBRANCH   8   9
ENDBRANCH   7   8
ENDBRANCH   1   7
TORSDOF 7
ENDMDL
MODEL 2
REMARK VINA RESULT:    -3.155     11.883     13.381
REMARK INTER + INTRA:          -5.190
REMARK INTER:                  -4.924
REMARK INTRA:                  -0.266
REMARK UNBOUND:                -0.744
REMARK SMILES CCCCCCCCC(=O)[O-]
REMARK SMILES IDX 6 1 7 2 8 3 9 4 10 5 11 6 5 7 4 8 3 9 2 10 1 11
REMARK H PARENT
REMARK Flexibility Score: inf
ROOT
ATOM      1  C   UNL     1      14.359  22.852  30.062  1.00  0.00     0.000 C 
ENDROOT
BRANCH   1   2
ATOM      2  C   UNL     1      13.025  22.834  29.295  1.00  0.00     0.006 C 
BRANCH   2   3
ATOM      3  C   UNL     1      11.811  23.093  30.197  1.00  0.00     0.053 C 
BRANCH   3   4
ATOM      4  C   UNL     1      10.729  22.099  29.916  1.00  0.00     0.041 C 
ATOM      5  O   UNL     1       9.835  21.876  30.774  1.00  0.00    -0.550 OA
ATOM      6  O   UNL     1      10.735  21.382  28.726  1.00  0.00    -0.550 OA
ENDBRANCH   3   4
ENDBRANCH   2   3
ENDBRANCH   1   2
BRANCH   1   7
ATOM      7  C   UNL     1      15.595  22.455  29.235  1.00  0.00     0.000 C 
BRANCH   7   8
ATOM      8  C   UNL     1      16.916  22.657  29.997  1.00  0.00    -0.000 C 
BRANCH   8   9
ATOM      9  C   UNL     1      16.706  22.794  31.514  1.00  0.00    -0.000 C 
BRANCH   9  10
ATOM     10  C   UNL     1      17.469  21.729  32.315  1.00  0.00    -0.003 C 
ATOM     11  C   UNL     1      18.969  21.809  32.044  1.00  0.00     0.004 C 
ENDBRANCH   9  10
ENDBRANCH   8   9
ENDBRANCH   7   8
ENDBRANCH   1   7
TORSDOF 7
ENDMDL
MODEL 3
REMARK VINA RESULT:    -3.120      1.991      3.719
REMARK INTER + INTRA:          -5.142
REMARK INTER:                  -4.434
REMARK INTRA:                  -0.708
REMARK UNBOUND:                -0.744
REMARK SMILES CCCCCCCCC(=O)[O-]
REMARK SMILES IDX 6 1 7 2 8 3 9 4 10 5 11 6 5 7 4 8 3 9 2 10 1 11
REMARK H PARENT
REMARK Flexibility Score: inf
ROOT
ATOM      1  C   UNL     1      12.692  21.787  16.451  1.00  0.00     0.000 C 
ENDROOT
BRANCH   1   2
ATOM      2  C   UNL     1      12.115  22.712  17.538  1.00  0.00     0.006 C 
BRANCH   2   3
ATOM      3  C   UNL     1      12.611  22.363  18.947  1.00  0.00     0.053 C 
BRANCH   3   4
ATOM      4  C   UNL     1      11.462  21.987  19.828  1.00  0.00     0.041 C 
ATOM      5  O   UNL     1      11.650  21.263  20.841  1.00  0.00    -0.550 OA
ATOM      6  O   UNL     1      10.175  22.396  19.504  1.00  0.00    -0.550 OA
ENDBRANCH   3   4
ENDBRANCH   2   3
ENDBRANCH   1   2
BRANCH   1   7
ATOM      7  C   UNL     1      11.791  20.603  16.054  1.00  0.00     0.000 C 
BRANCH   7   8
ATOM      8  C   UNL     1      10.317  21.006  15.875  1.00  0.00    -0.000 C 
BRANCH   8   9
ATOM      9  C   UNL     1       9.372  20.206  16.787  1.00  0.00    -0.000 C 
BRANCH   9  10
ATOM     10  C   UNL     1      10.124  19.256  17.730  1.00  0.00    -0.003 C 
ATOM     11  C   UNL     1       9.452  17.886  17.780  1.00  0.00     0.004 C 
ENDBRANCH   9  10
ENDBRANCH   8   9
ENDBRANCH   7   8
ENDBRANCH   1   7
TORSDOF 7
ENDMDL
MODEL 4
REMARK VINA RESULT:    -3.111      2.345      3.947
REMARK INTER + INTRA:          -5.129
REMARK INTER:                  -4.418
REMARK INTRA:                  -0.711
REMARK UNBOUND:                -0.744
REMARK SMILES CCCCCCCCC(=O)[O-]
REMARK SMILES IDX 6 1 7 2 8 3 9 4 10 5 11 6 5 7 4 8 3 9 2 10 1 11
REMARK H PARENT
REMARK Flexibility Score: inf
ROOT
ATOM      1  C   UNL     1      12.269  22.832  17.385  1.00  0.00     0.000 C 
ENDROOT
BRANCH   1   2
ATOM      2  C   UNL     1      12.391  22.180  18.773  1.00  0.00     0.006 C 
BRANCH   2   3
ATOM      3  C   UNL     1      11.094  22.260  19.589  1.00  0.00     0.053 C 
BRANCH   3   4
ATOM      4  C   UNL     1      11.289  21.651  20.942  1.00  0.00     0.041 C 
ATOM      5  O   UNL     1      12.330  21.902  21.605  1.00  0.00    -0.550 OA
ATOM      6  O   UNL     1      10.345  20.768  21.451  1.00  0.00    -0.550 OA
ENDBRANCH   3   4
ENDBRANCH   2   3
ENDBRANCH   1   2
BRANCH   1   7
ATOM      7  C   UNL     1      12.659  21.928  16.201  1.00  0.00     0.000 C 
BRANCH   7   8
ATOM      8  C   UNL     1      11.891  20.596  16.186  1.00  0.00    -0.000 C 
BRANCH   8   9
ATOM      9  C   UNL     1      10.388  20.785  15.922  1.00  0.00    -0.000 C 
BRANCH   9  10
ATOM     10  C   UNL     1       9.524  19.749  16.655  1.00  0.00    -0.003 C 
ATOM     11  C   UNL     1      10.286  19.124  17.820  1.00  0.00     0.004 C 
ENDBRANCH   9  10
ENDBRANCH   8   9
ENDBRANCH   7   8
ENDBRANCH   1   7
TORSDOF 7
ENDMDL
MODEL 5
REMARK VINA RESULT:    -3.106      1.270      2.845
REMARK INTER + INTRA:          -5.122
REMARK INTER:                  -4.266
REMARK INTRA:                  -0.856
REMARK UNBOUND:                -0.744
REMARK SMILES CCCCCCCCC(=O)[O-]
REMARK SMILES IDX 6 1 7 2 8 3 9 4 10 5 11 6 5 7 4 8 3 9 2 10 1 11
REMARK H PARENT
REMARK Flexibility Score: inf
ROOT
ATOM      1  C   UNL     1      10.572  21.055  19.534  1.00  0.00     0.000 C 
ENDROOT
BRANCH   1   2
ATOM      2  C   UNL     1      10.642  19.535  19.308  1.00  0.00     0.006 C 
BRANCH   2   3
ATOM      3  C   UNL     1      10.327  19.128  17.862  1.00  0.00     0.053 C 
BRANCH   3   4
ATOM      4  C   UNL     1       9.032  19.731  17.420  1.00  0.00     0.041 C 
ATOM      5  O   UNL     1       7.949  19.361  17.945  1.00  0.00    -0.550 OA
ATOM      6  O   UNL     1       9.014  20.666  16.392  1.00  0.00    -0.550 OA
ENDBRANCH   3   4
ENDBRANCH   2   3
ENDBRANCH   1   2
BRANCH   1   7
ATOM      7  C   UNL     1      11.909  21.724  19.905  1.00  0.00     0.000 C 
BRANCH   7   8
ATOM      8  C   UNL     1      12.578  22.428  18.713  1.00  0.00    -0.000 C 
BRANCH   8   9
ATOM      9  C   UNL     1      11.570  22.829  17.624  1.00  0.00    -0.000 C 
BRANCH   9  10
ATOM     10  C   UNL     1      12.092  22.558  16.205  1.00  0.00    -0.003 C 
ATOM     11  C   UNL     1      12.886  21.256  16.153  1.00  0.00     0.004 C 
ENDBRANCH   9  10
ENDBRANCH   8   9
ENDBRANCH   7   8
ENDBRANCH   1   7
TORSDOF 7
ENDMDL
MODEL 6
REMARK VINA RESULT:    -3.095     22.084     24.002
REMARK INTER + INTRA:          -5.105
REMARK INTER:                  -4.291
REMARK INTRA:                  -0.815
REMARK UNBOUND:                -0.744
REMARK SMILES CCCCCCCCC(=O)[O-]
REMARK SMILES IDX 6 1 7 2 8 3 9 4 10 5 11 6 5 7 4 8 3 9 2 10 1 11
REMARK H PARENT
REMARK Flexibility Score: inf
ROOT
ATOM      1  C   UNL     1      11.721   5.262  36.125  1.00  0.00     0.000 C 
ENDROOT
BRANCH   1   2
ATOM      2  C   UNL     1      10.216   4.964  36.004  1.00  0.00     0.006 C 
BRANCH   2   3
ATOM      3  C   UNL     1       9.503   5.876  34.997  1.00  0.00     0.053 C 
BRANCH   3   4
ATOM      4  C   UNL     1       8.449   5.115  34.257  1.00  0.00     0.041 C 
ATOM      5  O   UNL     1       7.726   5.699  33.407  1.00  0.00    -0.550 OA
ATOM      6  O   UNL     1       8.231   3.773  34.541  1.00  0.00    -0.550 OA
ENDBRANCH   3   4
ENDBRANCH   2   3
ENDBRANCH   1   2
BRANCH   1   7
ATOM      7  C   UNL     1      12.636   4.023  36.108  1.00  0.00     0.000 C 
BRANCH   7   8
ATOM      8  C   UNL     1      12.159   2.939  35.126  1.00  0.00    -0.000 C 
BRANCH   8   9
ATOM      9  C   UNL     1      12.555   3.245  33.673  1.00  0.00    -0.000 C 
BRANCH   9  10
ATOM     10  C   UNL     1      11.343   3.318  32.732  1.00  0.00    -0.003 C 
ATOM     11  C   UNL     1      11.344   4.620  31.937  1.00  0.00     0.004 C 
ENDBRANCH   9  10
ENDBRANCH   8   9
ENDBRANCH   7   8
ENDBRANCH   1   7
TORSDOF 7
ENDMDL
