MODEL 1
REMARK VINA RESULT:    -4.165      0.000      0.000
REMARK INTER + INTRA:         -10.298
REMARK INTER:                  -8.062
REMARK INTRA:                  -2.236
REMARK UNBOUND:                -2.236
REMARK SMILES CCCCCCCCCCCCCCCCCC(=O)[O-]
REMARK SMILES IDX 10 1 11 2 12 3 13 4 14 5 15 6 16 7 17 8 18 9 19 10 20 11
REMARK SMILES IDX 9 12 8 13 7 14 6 15 5 16 4 17 3 18 2 19 1 20
REMARK H PARENT
REMARK Flexibility Score: inf
ROOT
ATOM      1  C   UNL     1    -111.087 -43.406 -63.897  1.00  0.00     0.000 C 
ENDROOT
BRANCH   1   2
ATOM      2  C   UNL     1    -112.435 -42.722 -64.196  1.00  0.00     0.000 C 
BRANCH   2   3
ATOM      3  C   UNL     1    -112.374 -41.618 -65.266  1.00  0.00     0.000 C 
BRANCH   3   4
ATOM      4  C   UNL     1    -113.765 -41.127 -65.704  1.00  0.00     0.000 C 
BRANCH   4   5
ATOM      5  C   UNL     1    -114.026 -41.389 -67.204  1.00  0.00     0.000 C 
BRANCH   5   6
ATOM      6  C   UNL     1    -113.767 -42.845 -67.631  1.00  0.00     0.000 C 
BRANCH   6   7
ATOM      7  C   UNL     1    -112.874 -42.954 -68.874  1.00  0.00     0.006 C 
BRANCH   7   8
ATOM      8  C   UNL     1    -111.478 -43.466 -68.511  1.00  0.00     0.053 C 
BRANCH   8   9
ATOM      9  C   UNL     1    -110.475 -42.361 -68.614  1.00  0.00     0.041 C 
ATOM     10  O   UNL     1    -109.245 -42.606 -68.489  1.00  0.00    -0.550 OA
ATOM     11  O   UNL     1    -110.900 -41.050 -68.790  1.00  0.00    -0.550 OA
ENDBRANCH   8   9
ENDBRANCH   7   8
ENDBRANCH   6   7
ENDBRANCH   5   6
ENDBRANCH   4   5
ENDBRANCH   3   4
ENDBRANCH   2   3
ENDBRANCH   1   2
BRANCH   1  12
ATOM     12  C   UNL     1    -110.045 -43.191 -65.005  1.00  0.00     0.000 C 
BRANCH  12  13
ATOM     13  C   UNL     1    -108.631 -43.099 -64.419  1.00  0.00    -0.000 C 
BRANCH  13  14
ATOM     14  C   UNL     1    -108.669 -43.136 -62.883  1.00  0.00    -0.000 C 
BRANCH  14  15
ATOM     15  C   UNL     1    -107.628 -42.204 -62.244  1.00  0.00    -0.000 C 
BRANCH  15  16
ATOM     16  C   UNL     1    -106.962 -41.274 -63.268  1.00  0.00    -0.000 C 
BRANCH  16  17
ATOM     17  C   UNL     1    -107.326 -39.806 -62.999  1.00  0.00    -0.000 C 
BRANCH  17  18
ATOM     18  C   UNL     1    -107.375 -38.961 -64.282  1.00  0.00    -0.000 C 
BRANCH  18  19
ATOM     19  C   UNL     1    -108.556 -39.331 -65.193  1.00  0.00    -0.003 C 
ATOM     20  C   UNL     1    -108.068 -39.890 -66.527  1.00  0.00     0.004 C 
ENDBRANCH  18  19
ENDBRANCH  17  18
ENDBRANCH  16  17
ENDBRANCH  15  16
ENDBRANCH  14  15
ENDBRANCH  13  14
ENDBRANCH  12  13
ENDBRANCH   1  12
TORSDOF 16
ENDMDL
MODEL 2
REMARK VINA RESULT:    -4.132      1.448      3.874
REMARK INTER + INTRA:         -10.234
REMARK INTER:                  -7.727
REMARK INTRA:                  -2.507
REMARK UNBOUND:                -2.236
REMARK SMILES CCCCCCCCCCCCCCCCCC(=O)[O-]
REMARK SMILES IDX 10 1 11 2 12 3 13 4 14 5 15 6 16 7 17 8 18 9 19 10 20 11
REMARK SMILES IDX 9 12 8 13 7 14 6 15 5 16 4 17 3 18 2 19 1 20
REMARK H PARENT
REMARK Flexibility Score: inf
ROOT
ATOM      1  C   UNL     1    -113.211 -40.807 -66.250  1.00  0.00     0.000 C 
ENDROOT
BRANCH   1   2
ATOM      2  C   UNL     1    -113.770 -41.275 -67.607  1.00  0.00     0.000 C 
BRANCH   2   3
ATOM      3  C   UNL     1    -113.789 -42.800 -67.806  1.00  0.00     0.000 C 
BRANCH   3   4
ATOM      4  C   UNL     1    -112.761 -43.285 -68.843  1.00  0.00     0.000 C 
BRANCH   4   5
ATOM      5  C   UNL     1    -111.335 -43.364 -68.253  1.00  0.00     0.000 C 
BRANCH   5   6
ATOM      6  C   UNL     1    -110.328 -42.430 -68.946  1.00  0.00     0.000 C 
BRANCH   6   7
ATOM      7  C   UNL     1    -110.070 -41.138 -68.159  1.00  0.00     0.006 C 
BRANCH   7   8
ATOM      8  C   UNL     1    -108.570 -40.898 -67.964  1.00  0.00     0.053 C 
BRANCH   8   9
ATOM      9  C   UNL     1    -108.319 -40.202 -66.663  1.00  0.00     0.041 C 
ATOM     10  O   UNL     1    -107.145 -39.898 -66.324  1.00  0.00    -0.550 OA
ATOM     11  O   UNL     1    -109.375 -39.943 -65.798  1.00  0.00    -0.550 OA
ENDBRANCH   8   9
ENDBRANCH   7   8
ENDBRANCH   6   7
ENDBRANCH   5   6
ENDBRANCH   4   5
ENDBRANCH   3   4
ENDBRANCH   2   3
ENDBRANCH   1   2
BRANCH   1  12
ATOM     12  C   UNL     1    -113.906 -41.472 -65.052  1.00  0.00     0.000 C 
BRANCH  12  13
ATOM     13  C   UNL     1    -112.971 -42.471 -64.360  1.00  0.00    -0.000 C 
BRANCH  13  14
ATOM     14  C   UNL     1    -111.528 -42.313 -64.864  1.00  0.00    -0.000 C 
BRANCH  14  15
ATOM     15  C   UNL     1    -110.598 -43.423 -64.349  1.00  0.00    -0.000 C 
BRANCH  15  16
ATOM     16  C   UNL     1    -109.317 -43.554 -65.185  1.00  0.00    -0.000 C 
BRANCH  16  17
ATOM     17  C   UNL     1    -108.079 -43.173 -64.358  1.00  0.00    -0.000 C 
BRANCH  17  18
ATOM     18  C   UNL     1    -108.323 -43.271 -62.843  1.00  0.00    -0.000 C 
BRANCH  18  19
ATOM     19  C   UNL     1    -107.627 -42.151 -62.055  1.00  0.00    -0.003 C 
ATOM     20  C   UNL     1    -107.339 -40.948 -62.949  1.00  0.00     0.004 C 
ENDBRANCH  18  19
ENDBRANCH  17  18
ENDBRANCH  16  17
ENDBRANCH  15  16
ENDBRANCH  14  15
ENDBRANCH  13  14
ENDBRANCH  12  13
ENDBRANCH   1  12
TORSDOF 16
ENDMDL
MODEL 3
REMARK VINA RESULT:    -4.100      1.370      3.363
REMARK INTER + INTRA:         -10.170
REMARK INTER:                  -7.669
REMARK INTRA:                  -2.502
REMARK UNBOUND:                -2.236
REMARK SMILES CCCCCCCCCCCCCCCCCC(=O)[O-]
REMARK SMILES IDX 10 1 11 2 12 3 13 4 14 5 15 6 16 7 17 8 18 9 19 10 20 11
REMARK SMILES IDX 9 12 8 13 7 14 6 15 5 16 4 17 3 18 2 19 1 20
REMARK H PARENT
REMARK Flexibility Score: inf
ROOT
ATOM      1  C   UNL     1    -113.305 -40.967 -66.263  1.00  0.00     0.000 C 
ENDROOT
BRANCH   1   2
ATOM      2  C   UNL     1    -114.091 -41.544 -67.455  1.00  0.00     0.000 C 
BRANCH   2   3
ATOM      3  C   UNL     1    -113.724 -42.990 -67.830  1.00  0.00     0.000 C 
BRANCH   3   4
ATOM      4  C   UNL     1    -113.374 -43.155 -69.319  1.00  0.00     0.000 C 
BRANCH   4   5
ATOM      5  C   UNL     1    -111.992 -43.814 -69.520  1.00  0.00     0.000 C 
BRANCH   5   6
ATOM      6  C   UNL     1    -111.035 -43.618 -68.330  1.00  0.00     0.000 C 
BRANCH   6   7
ATOM      7  C   UNL     1    -109.896 -42.636 -68.634  1.00  0.00     0.006 C 
BRANCH   7   8
ATOM      8  C   UNL     1    -110.316 -41.192 -68.344  1.00  0.00     0.053 C 
BRANCH   8   9
ATOM      9  C   UNL     1    -110.681 -40.490 -69.614  1.00  0.00     0.041 C 
ATOM     10  O   UNL     1    -109.815 -40.310 -70.510  1.00  0.00    -0.550 OA
ATOM     11  O   UNL     1    -111.963 -39.982 -69.784  1.00  0.00    -0.550 OA
ENDBRANCH   8   9
ENDBRANCH   7   8
ENDBRANCH   6   7
ENDBRANCH   5   6
ENDBRANCH   4   5
ENDBRANCH   3   4
ENDBRANCH   2   3
ENDBRANCH   1   2
BRANCH   1  12
ATOM     12  C   UNL     1    -113.792 -41.500 -64.906  1.00  0.00     0.000 C 
BRANCH  12  13
ATOM     13  C   UNL     1    -112.787 -42.495 -64.314  1.00  0.00    -0.000 C 
BRANCH  13  14
ATOM     14  C   UNL     1    -111.412 -42.352 -64.984  1.00  0.00    -0.000 C 
BRANCH  14  15
ATOM     15  C   UNL     1    -110.438 -43.469 -64.576  1.00  0.00    -0.000 C 
BRANCH  15  16
ATOM     16  C   UNL     1    -108.968 -43.037 -64.685  1.00  0.00    -0.000 C 
BRANCH  16  17
ATOM     17  C   UNL     1    -108.854 -41.527 -64.946  1.00  0.00    -0.000 C 
BRANCH  17  18
ATOM     18  C   UNL     1    -107.450 -40.977 -64.647  1.00  0.00    -0.000 C 
BRANCH  18  19
ATOM     19  C   UNL     1    -107.419 -40.066 -63.410  1.00  0.00    -0.003 C 
ATOM     20  C   UNL     1    -106.637 -40.714 -62.270  1.00  0.00     0.004 C 
ENDBRANCH  18  19
ENDBRANCH  17  18
ENDBRANCH  16  17
ENDBRANCH  15  16
ENDBRANCH  14  15
ENDBRANCH  13  14
ENDBRANCH  12  13
ENDBRANCH   1  12
TORSDOF 16
ENDMDL
MODEL 4
REMARK VINA RESULT:    -4.083      1.597      2.993
REMARK INTER + INTRA:         -10.138
REMARK INTER:                  -7.668
REMARK INTRA:                  -2.470
REMARK UNBOUND:                -2.236
REMARK SMILES CCCCCCCCCCCCCCCCCC(=O)[O-]
REMARK SMILES IDX 10 1 11 2 12 3 13 4 14 5 15 6 16 7 17 8 18 9 19 10 20 11
REMARK SMILES IDX 9 12 8 13 7 14 6 15 5 16 4 17 3 18 2 19 1 20
REMARK H PARENT
REMARK Flexibility Score: inf
ROOT
ATOM      1  C   UNL     1    -109.592 -43.791 -65.544  1.00  0.00     0.000 C 
ENDROOT
BRANCH   1   2
ATOM      2  C   UNL     1    -110.727 -43.410 -64.576  1.00  0.00     0.000 C 
BRANCH   2   3
ATOM      3  C   UNL     1    -111.469 -42.110 -64.932  1.00  0.00     0.000 C 
BRANCH   3   4
ATOM      4  C   UNL     1    -112.984 -42.192 -64.673  1.00  0.00     0.000 C 
BRANCH   4   5
ATOM      5  C   UNL     1    -113.779 -41.226 -65.579  1.00  0.00     0.000 C 
BRANCH   5   6
ATOM      6  C   UNL     1    -114.322 -41.886 -66.859  1.00  0.00     0.000 C 
BRANCH   6   7
ATOM      7  C   UNL     1    -113.251 -42.056 -67.945  1.00  0.00     0.006 C 
BRANCH   7   8
ATOM      8  C   UNL     1    -113.380 -43.413 -68.643  1.00  0.00     0.053 C 
BRANCH   8   9
ATOM      9  C   UNL     1    -112.913 -43.316 -70.061  1.00  0.00     0.041 C 
ATOM     10  O   UNL     1    -111.711 -43.040 -70.316  1.00  0.00    -0.550 OA
ATOM     11  O   UNL     1    -113.819 -43.472 -71.103  1.00  0.00    -0.550 OA
ENDBRANCH   8   9
ENDBRANCH   7   8
ENDBRANCH   6   7
ENDBRANCH   5   6
ENDBRANCH   4   5
ENDBRANCH   3   4
ENDBRANCH   2   3
ENDBRANCH   1   2
BRANCH   1  12
ATOM     12  C   UNL     1    -110.013 -43.726 -67.021  1.00  0.00     0.000 C 
BRANCH  12  13
ATOM     13  C   UNL     1    -109.205 -42.665 -67.776  1.00  0.00    -0.000 C 
BRANCH  13  14
ATOM     14  C   UNL     1    -108.186 -41.986 -66.848  1.00  0.00    -0.000 C 
BRANCH  14  15
ATOM     15  C   UNL     1    -108.534 -40.516 -66.564  1.00  0.00    -0.000 C 
BRANCH  15  16
ATOM     16  C   UNL     1    -108.318 -40.132 -65.094  1.00  0.00    -0.000 C 
BRANCH  16  17
ATOM     17  C   UNL     1    -107.289 -41.058 -64.427  1.00  0.00    -0.000 C 
BRANCH  17  18
ATOM     18  C   UNL     1    -107.422 -41.090 -62.896  1.00  0.00    -0.000 C 
BRANCH  18  19
ATOM     19  C   UNL     1    -107.879 -42.458 -62.368  1.00  0.00    -0.003 C 
ATOM     20  C   UNL     1    -107.009 -43.581 -62.927  1.00  0.00     0.004 C 
ENDBRANCH  18  19
ENDBRANCH  17  18
ENDBRANCH  16  17
ENDBRANCH  15  16
ENDBRANCH  14  15
ENDBRANCH  13  14
ENDBRANCH  12  13
ENDBRANCH   1  12
TORSDOF 16
ENDMDL
MODEL 5
REMARK VINA RESULT:    -4.066      2.066      5.358
REMARK INTER + INTRA:         -10.106
REMARK INTER:                  -7.365
REMARK INTRA:                  -2.741
REMARK UNBOUND:                -2.236
REMARK SMILES CCCCCCCCCCCCCCCCCC(=O)[O-]
REMARK SMILES IDX 10 1 11 2 12 3 13 4 14 5 15 6 16 7 17 8 18 9 19 10 20 11
REMARK SMILES IDX 9 12 8 13 7 14 6 15 5 16 4 17 3 18 2 19 1 20
REMARK H PARENT
REMARK Flexibility Score: inf
ROOT
ATOM      1  C   UNL     1    -113.665 -41.141 -67.255  1.00  0.00     0.000 C 
ENDROOT
BRANCH   1   2
ATOM      2  C   UNL     1    -112.920 -40.893 -65.930  1.00  0.00     0.000 C 
BRANCH   2   3
ATOM      3  C   UNL     1    -113.558 -41.556 -64.697  1.00  0.00     0.000 C 
BRANCH   3   4
ATOM      4  C   UNL     1    -112.646 -42.606 -64.039  1.00  0.00     0.000 C 
BRANCH   4   5
ATOM      5  C   UNL     1    -111.436 -42.963 -64.930  1.00  0.00     0.000 C 
BRANCH   5   6
ATOM      6  C   UNL     1    -110.159 -43.291 -64.136  1.00  0.00     0.000 C 
BRANCH   6   7
ATOM      7  C   UNL     1    -108.896 -42.671 -64.749  1.00  0.00     0.006 C 
BRANCH   7   8
ATOM      8  C   UNL     1    -109.223 -41.377 -65.500  1.00  0.00     0.053 C 
BRANCH   8   9
ATOM      9  C   UNL     1    -108.357 -40.259 -65.011  1.00  0.00     0.041 C 
ATOM     10  O   UNL     1    -107.791 -40.338 -63.888  1.00  0.00    -0.550 OA
ATOM     11  O   UNL     1    -108.221 -39.102 -65.770  1.00  0.00    -0.550 OA
ENDBRANCH   8   9
ENDBRANCH   7   8
ENDBRANCH   6   7
ENDBRANCH   5   6
ENDBRANCH   4   5
ENDBRANCH   3   4
ENDBRANCH   2   3
ENDBRANCH   1   2
BRANCH   1  12
ATOM     12  C   UNL     1    -113.765 -42.631 -67.619  1.00  0.00     0.000 C 
BRANCH  12  13
ATOM     13  C   UNL     1    -113.516 -42.849 -69.116  1.00  0.00    -0.000 C 
BRANCH  13  14
ATOM     14  C   UNL     1    -112.301 -43.762 -69.344  1.00  0.00    -0.000 C 
BRANCH  14  15
ATOM     15  C   UNL     1    -111.206 -43.561 -68.284  1.00  0.00    -0.000 C 
BRANCH  15  16
ATOM     16  C   UNL     1    -109.816 -43.358 -68.905  1.00  0.00    -0.000 C 
BRANCH  16  17
ATOM     17  C   UNL     1    -109.792 -42.116 -69.809  1.00  0.00    -0.000 C 
BRANCH  17  18
ATOM     18  C   UNL     1    -110.250 -40.842 -69.081  1.00  0.00    -0.000 C 
BRANCH  18  19
ATOM     19  C   UNL     1    -111.239 -40.006 -69.908  1.00  0.00    -0.003 C 
ATOM     20  C   UNL     1    -111.457 -40.621 -71.288  1.00  0.00     0.004 C 
ENDBRANCH  18  19
ENDBRANCH  17  18
ENDBRANCH  16  17
ENDBRANCH  15  16
ENDBRANCH  14  15
ENDBRANCH  13  14
ENDBRANCH  12  13
ENDBRANCH   1  12
TORSDOF 16
ENDMDL
MODEL 6
REMARK VINA RESULT:    -4.065      2.469      6.261
REMARK INTER + INTRA:         -10.102
REMARK INTER:                  -7.511
REMARK INTRA:                  -2.592
REMARK UNBOUND:                -2.236
REMARK SMILES CCCCCCCCCCCCCCCCCC(=O)[O-]
REMARK SMILES IDX 10 1 11 2 12 3 13 4 14 5 15 6 16 7 17 8 18 9 19 10 20 11
REMARK SMILES IDX 9 12 8 13 7 14 6 15 5 16 4 17 3 18 2 19 1 20
REMARK H PARENT
REMARK Flexibility Score: inf
ROOT
ATOM      1  C   UNL     1    -109.043 -42.898 -65.425  1.00  0.00     0.000 C 
ENDROOT
BRANCH   1   2
ATOM      2  C   UNL     1    -108.596 -42.125 -66.680  1.00  0.00     0.000 C 
BRANCH   2   3
ATOM      3  C   UNL     1    -109.233 -40.734 -66.842  1.00  0.00     0.000 C 
BRANCH   3   4
ATOM      4  C   UNL     1    -109.302 -39.946 -65.522  1.00  0.00     0.000 C 
BRANCH   4   5
ATOM      5  C   UNL     1    -108.114 -38.972 -65.365  1.00  0.00     0.000 C 
BRANCH   5   6
ATOM      6  C   UNL     1    -107.415 -39.066 -63.998  1.00  0.00     0.000 C 
BRANCH   6   7
ATOM      7  C   UNL     1    -106.713 -40.412 -63.775  1.00  0.00     0.006 C 
BRANCH   7   8
ATOM      8  C   UNL     1    -107.344 -41.180 -62.610  1.00  0.00     0.053 C 
BRANCH   8   9
ATOM      9  C   UNL     1    -106.800 -42.572 -62.548  1.00  0.00     0.041 C 
ATOM     10  O   UNL     1    -107.414 -43.465 -61.904  1.00  0.00    -0.550 OA
ATOM     11  O   UNL     1    -105.585 -42.872 -63.152  1.00  0.00    -0.550 OA
ENDBRANCH   8   9
ENDBRANCH   7   8
ENDBRANCH   6   7
ENDBRANCH   5   6
ENDBRANCH   4   5
ENDBRANCH   3   4
ENDBRANCH   2   3
ENDBRANCH   1   2
BRANCH   1  12
ATOM     12  C   UNL     1    -110.490 -43.408 -65.516  1.00  0.00     0.000 C 
BRANCH  12  13
ATOM     13  C   UNL     1    -111.252 -43.132 -64.214  1.00  0.00    -0.000 C 
BRANCH  13  14
ATOM     14  C   UNL     1    -112.661 -42.594 -64.506  1.00  0.00    -0.000 C 
BRANCH  14  15
ATOM     15  C   UNL     1    -112.638 -41.297 -65.330  1.00  0.00    -0.000 C 
BRANCH  15  16
ATOM     16  C   UNL     1    -113.632 -41.324 -66.500  1.00  0.00    -0.000 C 
BRANCH  16  17
ATOM     17  C   UNL     1    -113.811 -42.752 -67.038  1.00  0.00    -0.000 C 
BRANCH  17  18
ATOM     18  C   UNL     1    -113.434 -42.879 -68.523  1.00  0.00    -0.000 C 
BRANCH  18  19
ATOM     19  C   UNL     1    -111.949 -42.586 -68.786  1.00  0.00    -0.003 C 
ATOM     20  C   UNL     1    -111.180 -43.871 -69.084  1.00  0.00     0.004 C 
ENDBRANCH  18  19
ENDBRANCH  17  18
ENDBRANCH  16  17
ENDBRANCH  15  16
ENDBRANCH  14  15
ENDBRANCH  13  14
ENDBRANCH  12  13
ENDBRANCH   1  12
TORSDOF 16
ENDMDL
MODEL 7
REMARK VINA RESULT:    -4.047      1.745      3.159
REMARK INTER + INTRA:         -10.068
REMARK INTER:                  -7.445
REMARK INTRA:                  -2.623
REMARK UNBOUND:                -2.236
REMARK SMILES CCCCCCCCCCCCCCCCCC(=O)[O-]
REMARK SMILES IDX 10 1 11 2 12 3 13 4 14 5 15 6 16 7 17 8 18 9 19 10 20 11
REMARK SMILES IDX 9 12 8 13 7 14 6 15 5 16 4 17 3 18 2 19 1 20
REMARK H PARENT
REMARK Flexibility Score: inf
ROOT
ATOM      1  C   UNL     1    -111.792 -40.718 -65.731  1.00  0.00     0.000 C 
ENDROOT
BRANCH   1   2
ATOM      2  C   UNL     1    -112.987 -41.439 -65.081  1.00  0.00     0.000 C 
BRANCH   2   3
ATOM      3  C   UNL     1    -114.147 -41.761 -66.040  1.00  0.00     0.000 C 
BRANCH   3   4
ATOM      4  C   UNL     1    -113.786 -41.531 -67.518  1.00  0.00     0.000 C 
BRANCH   4   5
ATOM      5  C   UNL     1    -113.748 -42.851 -68.318  1.00  0.00     0.000 C 
BRANCH   5   6
ATOM      6  C   UNL     1    -112.333 -43.435 -68.479  1.00  0.00     0.000 C 
BRANCH   6   7
ATOM      7  C   UNL     1    -111.369 -42.480 -69.195  1.00  0.00     0.006 C 
BRANCH   7   8
ATOM      8  C   UNL     1    -111.835 -42.192 -70.625  1.00  0.00     0.053 C 
BRANCH   8   9
ATOM      9  C   UNL     1    -112.108 -40.732 -70.800  1.00  0.00     0.041 C 
ATOM     10  O   UNL     1    -111.650 -39.898 -69.975  1.00  0.00    -0.550 OA
ATOM     11  O   UNL     1    -112.917 -40.296 -71.842  1.00  0.00    -0.550 OA
ENDBRANCH   8   9
ENDBRANCH   7   8
ENDBRANCH   6   7
ENDBRANCH   5   6
ENDBRANCH   4   5
ENDBRANCH   3   4
ENDBRANCH   2   3
ENDBRANCH   1   2
BRANCH   1  12
ATOM     12  C   UNL     1    -110.502 -41.553 -65.709  1.00  0.00     0.000 C 
BRANCH  12  13
ATOM     13  C   UNL     1    -110.753 -42.936 -65.097  1.00  0.00    -0.000 C 
BRANCH  13  14
ATOM     14  C   UNL     1    -109.843 -43.995 -65.741  1.00  0.00    -0.000 C 
BRANCH  14  15
ATOM     15  C   UNL     1    -108.580 -43.384 -66.368  1.00  0.00    -0.000 C 
BRANCH  15  16
ATOM     16  C   UNL     1    -107.290 -44.039 -65.851  1.00  0.00    -0.000 C 
BRANCH  16  17
ATOM     17  C   UNL     1    -106.660 -43.202 -64.727  1.00  0.00    -0.000 C 
BRANCH  17  18
ATOM     18  C   UNL     1    -107.110 -43.653 -63.328  1.00  0.00    -0.000 C 
BRANCH  18  19
ATOM     19  C   UNL     1    -107.974 -42.602 -62.614  1.00  0.00    -0.003 C 
ATOM     20  C   UNL     1    -107.420 -41.196 -62.833  1.00  0.00     0.004 C 
ENDBRANCH  18  19
ENDBRANCH  17  18
ENDBRANCH  16  17
ENDBRANCH  15  16
ENDBRANCH  14  15
ENDBRANCH  13  14
ENDBRANCH  12  13
ENDBRANCH   1  12
TORSDOF 16
ENDMDL
MODEL 8
REMARK VINA RESULT:    -4.045      1.841      6.087
REMARK INTER + INTRA:         -10.065
REMARK INTER:                  -7.656
REMARK INTRA:                  -2.409
REMARK UNBOUND:                -2.236
REMARK SMILES CCCCCCCCCCCCCCCCCC(=O)[O-]
REMARK SMILES IDX 10 1 11 2 12 3 13 4 14 5 15 6 16 7 17 8 18 9 19 10 20 11
REMARK SMILES IDX 9 12 8 13 7 14 6 15 5 16 4 17 3 18 2 19 1 20
REMARK H PARENT
REMARK Flexibility Score: inf
ROOT
ATOM      1  C   UNL     1    -112.078 -42.688 -64.276  1.00  0.00     0.000 C 
ENDROOT
BRANCH   1   2
ATOM      2  C   UNL     1    -110.872 -42.400 -65.190  1.00  0.00     0.000 C 
BRANCH   2   3
ATOM      3  C   UNL     1    -109.886 -43.571 -65.345  1.00  0.00     0.000 C 
BRANCH   3   4
ATOM      4  C   UNL     1    -108.492 -43.265 -64.769  1.00  0.00     0.000 C 
BRANCH   4   5
ATOM      5  C   UNL     1    -108.498 -43.231 -63.225  1.00  0.00     0.000 C 
BRANCH   5   6
ATOM      6  C   UNL     1    -107.662 -42.083 -62.630  1.00  0.00     0.000 C 
BRANCH   6   7
ATOM      7  C   UNL     1    -107.030 -41.185 -63.701  1.00  0.00     0.006 C 
BRANCH   7   8
ATOM      8  C   UNL     1    -107.333 -39.708 -63.434  1.00  0.00     0.053 C 
BRANCH   8   9
ATOM      9  C   UNL     1    -107.760 -39.026 -64.696  1.00  0.00     0.041 C 
ATOM     10  O   UNL     1    -108.729 -39.476 -65.363  1.00  0.00    -0.550 OA
ATOM     11  O   UNL     1    -107.050 -37.929 -65.168  1.00  0.00    -0.550 OA
ENDBRANCH   8   9
ENDBRANCH   7   8
ENDBRANCH   6   7
ENDBRANCH   5   6
ENDBRANCH   4   5
ENDBRANCH   3   4
ENDBRANCH   2   3
ENDBRANCH   1   2
BRANCH   1  12
ATOM     12  C   UNL     1    -113.379 -42.042 -64.776  1.00  0.00     0.000 C 
BRANCH  12  13
ATOM     13  C   UNL     1    -113.083 -40.860 -65.707  1.00  0.00    -0.000 C 
BRANCH  13  14
ATOM     14  C   UNL     1    -113.723 -41.075 -67.088  1.00  0.00    -0.000 C 
BRANCH  14  15
ATOM     15  C   UNL     1    -113.943 -42.561 -67.411  1.00  0.00    -0.000 C 
BRANCH  15  16
ATOM     16  C   UNL     1    -113.334 -42.967 -68.761  1.00  0.00    -0.000 C 
BRANCH  16  17
ATOM     17  C   UNL     1    -111.853 -43.346 -68.606  1.00  0.00    -0.000 C 
BRANCH  17  18
ATOM     18  C   UNL     1    -110.920 -42.440 -69.427  1.00  0.00    -0.000 C 
BRANCH  18  19
ATOM     19  C   UNL     1    -110.344 -41.278 -68.604  1.00  0.00    -0.003 C 
ATOM     20  C   UNL     1    -108.863 -41.496 -68.306  1.00  0.00     0.004 C 
ENDBRANCH  18  19
ENDBRANCH  17  18
ENDBRANCH  16  17
ENDBRANCH  15  16
ENDBRANCH  14  15
ENDBRANCH  13  14
ENDBRANCH  12  13
ENDBRANCH   1  12
TORSDOF 16
ENDMDL
MODEL 9
REMARK VINA RESULT:    -4.038      1.508      4.501
REMARK INTER + INTRA:         -10.050
REMARK INTER:                  -7.149
REMARK INTRA:                  -2.901
REMARK UNBOUND:                -2.236
REMARK SMILES CCCCCCCCCCCCCCCCCC(=O)[O-]
REMARK SMILES IDX 10 1 11 2 12 3 13 4 14 5 15 6 16 7 17 8 18 9 19 10 20 11
REMARK SMILES IDX 9 12 8 13 7 14 6 15 5 16 4 17 3 18 2 19 1 20
REMARK H PARENT
REMARK Flexibility Score: inf
ROOT
ATOM      1  C   UNL     1    -107.573 -41.920 -62.604  1.00  0.00     0.000 C 
ENDROOT
BRANCH   1   2
ATOM      2  C   UNL     1    -108.228 -43.251 -63.019  1.00  0.00     0.000 C 
BRANCH   2   3
ATOM      3  C   UNL     1    -108.169 -43.557 -64.526  1.00  0.00     0.000 C 
BRANCH   3   4
ATOM      4  C   UNL     1    -109.560 -43.722 -65.162  1.00  0.00     0.000 C 
BRANCH   4   5
ATOM      5  C   UNL     1    -110.627 -42.858 -64.455  1.00  0.00     0.000 C 
BRANCH   5   6
ATOM      6  C   UNL     1    -111.921 -42.685 -65.270  1.00  0.00     0.000 C 
BRANCH   6   7
ATOM      7  C   UNL     1    -112.375 -41.223 -65.371  1.00  0.00     0.006 C 
BRANCH   7   8
ATOM      8  C   UNL     1    -113.784 -41.119 -65.961  1.00  0.00     0.053 C 
BRANCH   8   9
ATOM      9  C   UNL     1    -113.741 -41.294 -67.447  1.00  0.00     0.041 C 
ATOM     10  O   UNL     1    -113.392 -40.337 -68.188  1.00  0.00    -0.550 OA
ATOM     11  O   UNL     1    -114.143 -42.495 -68.017  1.00  0.00    -0.550 OA
ENDBRANCH   8   9
ENDBRANCH   7   8
ENDBRANCH   6   7
ENDBRANCH   5   6
ENDBRANCH   4   5
ENDBRANCH   3   4
ENDBRANCH   2   3
ENDBRANCH   1   2
BRANCH   1  12
ATOM     12  C   UNL     1    -106.940 -41.167 -63.785  1.00  0.00     0.000 C 
BRANCH  12  13
ATOM     13  C   UNL     1    -107.702 -39.870 -64.081  1.00  0.00    -0.000 C 
BRANCH  13  14
ATOM     14  C   UNL     1    -108.477 -39.978 -65.404  1.00  0.00    -0.000 C 
BRANCH  14  15
ATOM     15  C   UNL     1    -107.558 -39.905 -66.633  1.00  0.00    -0.000 C 
BRANCH  15  16
ATOM     16  C   UNL     1    -108.076 -40.749 -67.807  1.00  0.00    -0.000 C 
BRANCH  16  17
ATOM     17  C   UNL     1    -109.570 -41.067 -67.640  1.00  0.00    -0.000 C 
BRANCH  17  18
ATOM     18  C   UNL     1    -110.197 -41.659 -68.914  1.00  0.00    -0.000 C 
BRANCH  18  19
ATOM     19  C   UNL     1    -110.693 -43.099 -68.718  1.00  0.00    -0.003 C 
ATOM     20  C   UNL     1    -109.543 -44.097 -68.830  1.00  0.00     0.004 C 
ENDBRANCH  18  19
ENDBRANCH  17  18
ENDBRANCH  16  17
ENDBRANCH  15  16
ENDBRANCH  14  15
ENDBRANCH  13  14
ENDBRANCH  12  13
ENDBRANCH   1  12
TORSDOF 16
ENDMDL
