MODEL 1
REMARK VINA RESULT:    -7.053      0.000      0.000
REMARK INTER + INTRA:          -7.498
REMARK INTER:                  -7.466
REMARK INTRA:                  -0.032
REMARK UNBOUND:                -0.032
REMARK SMILES COc1ccc2ccc(=O)oc2c1
REMARK SMILES IDX 3 1 13 2 12 3 6 4 5 5 4 6 7 7 8 8 9 9 10 10 11 11 2 12 1 13
REMARK H PARENT
REMARK Flexibility Score: inf
ROOT
ATOM      1  C   UNL     1      14.171 -14.285  28.089  1.00  0.00     0.122 A 
ATOM      2  C   UNL     1      14.073 -13.155  28.924  1.00  0.00     0.094 A 
ATOM      3  C   UNL     1      12.991 -12.276  28.797  1.00  0.00     0.142 A 
ATOM      4  C   UNL     1      11.995 -12.524  27.829  1.00  0.00     0.018 A 
ATOM      5  C   UNL     1      12.092 -13.647  26.998  1.00  0.00     0.016 A 
ATOM      6  C   UNL     1      13.176 -14.520  27.131  1.00  0.00     0.047 A 
ATOM      7  C   UNL     1      10.927 -11.627  27.726  1.00  0.00     0.019 A 
ATOM      8  C   UNL     1      10.876 -10.524  28.576  1.00  0.00     0.094 A 
ATOM      9  C   UNL     1      11.898 -10.341  29.513  1.00  0.00     0.336 A 
ATOM     10  O   UNL     1      11.871  -9.351  30.290  1.00  0.00    -0.246 OA
ATOM     11  O   UNL     1      12.904 -11.210  29.589  1.00  0.00    -0.423 OA
ENDROOT
BRANCH   1  12
ATOM     12  O   UNL     1      15.236 -15.195  28.178  1.00  0.00    -0.497 OA
ATOM     13  C   UNL     1      15.090 -16.576  28.490  1.00  0.00     0.278 C 
ENDBRANCH   1  12
TORSDOF 1
ENDMDL
MODEL 2
REMARK VINA RESULT:    -6.573      1.377      2.154
REMARK INTER + INTRA:          -6.989
REMARK INTER:                  -6.955
REMARK INTRA:                  -0.034
REMARK UNBOUND:                -0.032
REMARK SMILES COc1ccc2ccc(=O)oc2c1
REMARK SMILES IDX 3 1 13 2 12 3 6 4 5 5 4 6 7 7 8 8 9 9 10 10 11 11 2 12 1 13
REMARK H PARENT
REMARK Flexibility Score: inf
ROOT
ATOM      1  C   UNL     1      13.909 -14.049  28.137  1.00  0.00     0.122 A 
ATOM      2  C   UNL     1      12.599 -13.558  27.967  1.00  0.00     0.094 A 
ATOM      3  C   UNL     1      12.214 -12.354  28.568  1.00  0.00     0.142 A 
ATOM      4  C   UNL     1      13.140 -11.630  29.348  1.00  0.00     0.018 A 
ATOM      5  C   UNL     1      14.442 -12.118  29.518  1.00  0.00     0.016 A 
ATOM      6  C   UNL     1      14.820 -13.321  28.914  1.00  0.00     0.047 A 
ATOM      7  C   UNL     1      12.725 -10.430  29.936  1.00  0.00     0.019 A 
ATOM      8  C   UNL     1      11.419  -9.987  29.736  1.00  0.00     0.094 A 
ATOM      9  C   UNL     1      10.554 -10.757  28.950  1.00  0.00     0.336 A 
ATOM     10  O   UNL     1       9.370 -10.375  28.758  1.00  0.00    -0.246 OA
ATOM     11  O   UNL     1      10.975 -11.895  28.403  1.00  0.00    -0.423 OA
ENDROOT
BRANCH   1  12
ATOM     12  O   UNL     1      14.342 -15.250  27.556  1.00  0.00    -0.497 OA
ATOM     13  C   UNL     1      15.003 -16.293  28.263  1.00  0.00     0.278 C 
ENDBRANCH   1  12
TORSDOF 1
ENDMDL
MODEL 3
REMARK VINA RESULT:    -5.749      1.430      4.569
REMARK INTER + INTRA:          -6.117
REMARK INTER:                  -6.080
REMARK INTRA:                  -0.037
REMARK UNBOUND:                -0.032
REMARK SMILES COc1ccc2ccc(=O)oc2c1
REMARK SMILES IDX 3 1 13 2 12 3 6 4 5 5 4 6 7 7 8 8 9 9 10 10 11 11 2 12 1 13
REMARK H PARENT
REMARK Flexibility Score: inf
ROOT
ATOM      1  C   UNL     1      12.578 -10.728  30.409  1.00  0.00     0.122 A 
ATOM      2  C   UNL     1      13.560 -11.653  30.002  1.00  0.00     0.094 A 
ATOM      3  C   UNL     1      13.320 -12.504  28.917  1.00  0.00     0.142 A 
ATOM      4  C   UNL     1      12.091 -12.437  28.229  1.00  0.00     0.018 A 
ATOM      5  C   UNL     1      11.114 -11.519  28.633  1.00  0.00     0.016 A 
ATOM      6  C   UNL     1      11.360 -10.671  29.718  1.00  0.00     0.047 A 
ATOM      7  C   UNL     1      11.881 -13.302  27.150  1.00  0.00     0.019 A 
ATOM      8  C   UNL     1      12.886 -14.198  26.787  1.00  0.00     0.094 A 
ATOM      9  C   UNL     1      14.080 -14.209  27.514  1.00  0.00     0.336 A 
ATOM     10  O   UNL     1      14.999 -15.010  27.203  1.00  0.00    -0.246 OA
ATOM     11  O   UNL     1      14.253 -13.376  28.537  1.00  0.00    -0.423 OA
ENDROOT
BRANCH   1  12
ATOM     12  O   UNL     1      12.770  -9.854  31.489  1.00  0.00    -0.497 OA
ATOM     13  C   UNL     1      13.535 -10.165  32.649  1.00  0.00     0.278 C 
ENDBRANCH   1  12
TORSDOF 1
ENDMDL
MODEL 4
REMARK VINA RESULT:    -5.227      1.664      5.185
REMARK INTER + INTRA:          -5.565
REMARK INTER:                  -5.525
REMARK INTRA:                  -0.040
REMARK UNBOUND:                -0.032
REMARK SMILES COc1ccc2ccc(=O)oc2c1
REMARK SMILES IDX 3 1 13 2 12 3 6 4 5 5 4 6 7 7 8 8 9 9 10 10 11 11 2 12 1 13
REMARK H PARENT
REMARK Flexibility Score: inf
ROOT
ATOM      1  C   UNL     1      11.522 -11.768  28.586  1.00  0.00     0.122 A 
ATOM      2  C   UNL     1      12.166 -12.464  27.544  1.00  0.00     0.094 A 
ATOM      3  C   UNL     1      13.192 -13.371  27.832  1.00  0.00     0.142 A 
ATOM      4  C   UNL     1      13.583 -13.588  29.170  1.00  0.00     0.018 A 
ATOM      5  C   UNL     1      12.943 -12.896  30.206  1.00  0.00     0.016 A 
ATOM      6  C   UNL     1      11.919 -11.991  29.911  1.00  0.00     0.047 A 
ATOM      7  C   UNL     1      14.612 -14.500  29.425  1.00  0.00     0.019 A 
ATOM      8  C   UNL     1      15.217 -15.165  28.359  1.00  0.00     0.094 A 
ATOM      9  C   UNL     1      14.778 -14.900  27.058  1.00  0.00     0.336 A 
ATOM     10  O   UNL     1      15.311 -15.489  26.082  1.00  0.00    -0.246 OA
ATOM     11  O   UNL     1      13.797 -14.027  26.844  1.00  0.00    -0.423 OA
ENDROOT
BRANCH   1  12
ATOM     12  O   UNL     1      10.488 -10.849  28.349  1.00  0.00    -0.497 OA
ATOM     13  C   UNL     1       9.644 -10.308  29.360  1.00  0.00     0.278 C 
ENDBRANCH   1  12
TORSDOF 1
ENDMDL
MODEL 5
REMARK VINA RESULT:    -5.110      1.588      5.103
REMARK INTER + INTRA:          -5.441
REMARK INTER:                  -5.401
REMARK INTRA:                  -0.040
REMARK UNBOUND:                -0.032
REMARK SMILES COc1ccc2ccc(=O)oc2c1
REMARK SMILES IDX 3 1 13 2 12 3 6 4 5 5 4 6 7 7 8 8 9 9 10 10 11 11 2 12 1 13
REMARK H PARENT
REMARK Flexibility Score: inf
ROOT
ATOM      1  C   UNL     1      12.928 -11.737  29.633  1.00  0.00     0.122 A 
ATOM      2  C   UNL     1      13.260 -13.055  30.005  1.00  0.00     0.094 A 
ATOM      3  C   UNL     1      13.959 -13.882  29.119  1.00  0.00     0.142 A 
ATOM      4  C   UNL     1      14.333 -13.395  27.849  1.00  0.00     0.018 A 
ATOM      5  C   UNL     1      14.002 -12.085  27.478  1.00  0.00     0.016 A 
ATOM      6  C   UNL     1      13.303 -11.264  28.369  1.00  0.00     0.047 A 
ATOM      7  C   UNL     1      15.031 -14.246  26.986  1.00  0.00     0.019 A 
ATOM      8  C   UNL     1      15.336 -15.541  27.402  1.00  0.00     0.094 A 
ATOM      9  C   UNL     1      14.934 -15.956  28.676  1.00  0.00     0.336 A 
ATOM     10  O   UNL     1      15.200 -17.122  29.070  1.00  0.00    -0.246 OA
ATOM     11  O   UNL     1      14.271 -15.126  29.476  1.00  0.00    -0.423 OA
ENDROOT
BRANCH   1  12
ATOM     12  O   UNL     1      12.228 -10.869  30.486  1.00  0.00    -0.497 OA
ATOM     13  C   UNL     1      11.696  -9.609  30.091  1.00  0.00     0.278 C 
ENDBRANCH   1  12
TORSDOF 1
ENDMDL
MODEL 6
REMARK VINA RESULT:    -4.698      2.223      4.494
REMARK INTER + INTRA:          -5.005
REMARK INTER:                  -4.967
REMARK INTRA:                  -0.038
REMARK UNBOUND:                -0.032
REMARK SMILES COc1ccc2ccc(=O)oc2c1
REMARK SMILES IDX 3 1 13 2 12 3 6 4 5 5 4 6 7 7 8 8 9 9 10 10 11 11 2 12 1 13
REMARK H PARENT
REMARK Flexibility Score: inf
ROOT
ATOM      1  C   UNL     1      13.128 -10.904  30.860  1.00  0.00     0.122 A 
ATOM      2  C   UNL     1      12.051 -11.171  29.992  1.00  0.00     0.094 A 
ATOM      3  C   UNL     1      12.211 -12.060  28.923  1.00  0.00     0.142 A 
ATOM      4  C   UNL     1      13.456 -12.690  28.713  1.00  0.00     0.018 A 
ATOM      5  C   UNL     1      14.527 -12.424  29.575  1.00  0.00     0.016 A 
ATOM      6  C   UNL     1      14.360 -11.536  30.641  1.00  0.00     0.047 A 
ATOM      7  C   UNL     1      13.584 -13.572  27.635  1.00  0.00     0.019 A 
ATOM      8  C   UNL     1      12.488 -13.803  26.806  1.00  0.00     0.094 A 
ATOM      9  C   UNL     1      11.284 -13.143  27.074  1.00  0.00     0.336 A 
ATOM     10  O   UNL     1      10.282 -13.338  26.338  1.00  0.00    -0.246 OA
ATOM     11  O   UNL     1      11.190 -12.309  28.106  1.00  0.00    -0.423 OA
ENDROOT
BRANCH   1  12
ATOM     12  O   UNL     1      13.018 -10.022  31.945  1.00  0.00    -0.497 OA
ATOM     13  C   UNL     1      13.812 -10.094  33.125  1.00  0.00     0.278 C 
ENDBRANCH   1  12
TORSDOF 1
ENDMDL
