MODEL 1
REMARK VINA RESULT:    -7.298      0.000      0.000
REMARK INTER + INTRA:          -9.122
REMARK INTER:                  -8.792
REMARK INTRA:                  -0.330
REMARK UNBOUND:                -0.330
REMARK SMILES O=c1c(O)c(-c2ccc(O)c(O)c2)oc2cc(O)cc(O)c12
REMARK SMILES IDX 5 1 3 2 2 3 1 4 22 5 20 6 19 7 17 8 16 9 15 10 14 11 6 12
REMARK SMILES IDX 7 13 8 14 9 15 13 16 11 17 10 18 12 20 4 22 21 24 18 26
REMARK H PARENT 10 19 12 21 4 23 21 25 18 27
REMARK Flexibility Score: inf
ROOT
ATOM      1  C   UNL     1      -3.778  22.704  48.493  1.00  0.00     0.180 A 
ATOM      2  C   UNL     1      -2.837  22.934  47.476  1.00  0.00     0.208 A 
ATOM      3  C   UNL     1      -2.071  21.857  47.000  1.00  0.00     0.238 A 
ATOM      4  O   UNL     1      -1.191  22.079  46.128  1.00  0.00    -0.285 OA
ATOM      5  C   UNL     1      -2.268  20.562  47.537  1.00  0.00     0.111 A 
ATOM      6  C   UNL     1      -1.575  19.391  47.102  1.00  0.00     0.134 A 
ATOM      7  C   UNL     1      -1.756  18.186  47.794  1.00  0.00     0.093 A 
ATOM      8  C   UNL     1      -2.650  18.095  48.860  1.00  0.00     0.123 A 
ATOM      9  C   UNL     1      -3.376  19.219  49.254  1.00  0.00     0.094 A 
ATOM     10  C   UNL     1      -3.192  20.443  48.608  1.00  0.00     0.146 A 
ATOM     11  O   UNL     1      -3.893  21.491  49.021  1.00  0.00    -0.452 OA
ENDROOT
BRANCH   1  12
ATOM     12  C   UNL     1      -4.640  23.783  49.028  1.00  0.00     0.025 A 
ATOM     13  C   UNL     1      -5.857  24.123  48.409  1.00  0.00     0.016 A 
ATOM     14  C   UNL     1      -6.665  25.129  48.946  1.00  0.00     0.051 A 
ATOM     15  C   UNL     1      -6.277  25.799  50.113  1.00  0.00     0.157 A 
ATOM     16  C   UNL     1      -4.267  24.445  50.209  1.00  0.00     0.062 A 
ATOM     17  C   UNL     1      -5.078  25.455  50.748  1.00  0.00     0.158 A 
BRANCH  15  18
ATOM     18  O   UNL     1      -7.080  26.804  50.650  1.00  0.00    -0.504 OA
ATOM     19  H   UNL     1      -7.652  27.398  50.061  1.00  0.00     0.293 HD
ENDBRANCH  15  18
BRANCH  17  20
ATOM     20  O   UNL     1      -4.697  26.118  51.913  1.00  0.00    -0.504 OA
ATOM     21  H   UNL     1      -4.652  25.640  52.805  1.00  0.00     0.293 HD
ENDBRANCH  17  20
ENDBRANCH   1  12
BRANCH   2  22
ATOM     22  O   UNL     1      -2.643  24.224  46.975  1.00  0.00    -0.502 OA
ATOM     23  H   UNL     1      -1.727  24.652  46.912  1.00  0.00     0.293 HD
ENDBRANCH   2  22
BRANCH   6  24
ATOM     24  O   UNL     1      -0.730  19.352  45.991  1.00  0.00    -0.507 OA
ATOM     25  H   UNL     1      -1.027  19.143  45.049  1.00  0.00     0.293 HD
ENDBRANCH   6  24
BRANCH   8  26
ATOM     26  O   UNL     1      -2.816  16.875  49.514  1.00  0.00    -0.508 OA
ATOM     27  H   UNL     1      -2.910  16.007  49.000  1.00  0.00     0.293 HD
ENDBRANCH   8  26
TORSDOF 6
ENDMDL
MODEL 2
REMARK VINA RESULT:    -7.093      1.774      6.853
REMARK INTER + INTRA:          -8.874
REMARK INTER:                  -8.591
REMARK INTRA:                  -0.283
REMARK UNBOUND:                -0.330
REMARK SMILES O=c1c(O)c(-c2ccc(O)c(O)c2)oc2cc(O)cc(O)c12
REMARK SMILES IDX 5 1 3 2 2 3 1 4 22 5 20 6 19 7 17 8 16 9 15 10 14 11 6 12
REMARK SMILES IDX 7 13 8 14 9 15 13 16 11 17 10 18 12 20 4 22 21 24 18 26
REMARK H PARENT 10 19 12 21 4 23 21 25 18 27
REMARK Flexibility Score: inf
ROOT
ATOM      1  C   UNL     1      -4.150  22.498  48.952  1.00  0.00     0.180 A 
ATOM      2  C   UNL     1      -5.323  23.210  48.645  1.00  0.00     0.208 A 
ATOM      3  C   UNL     1      -5.631  24.365  49.382  1.00  0.00     0.238 A 
ATOM      4  O   UNL     1      -6.709  24.967  49.139  1.00  0.00    -0.285 OA
ATOM      5  C   UNL     1      -4.755  24.803  50.404  1.00  0.00     0.111 A 
ATOM      6  C   UNL     1      -4.949  25.981  51.187  1.00  0.00     0.134 A 
ATOM      7  C   UNL     1      -4.086  26.246  52.259  1.00  0.00     0.093 A 
ATOM      8  C   UNL     1      -3.003  25.413  52.535  1.00  0.00     0.123 A 
ATOM      9  C   UNL     1      -2.771  24.291  51.739  1.00  0.00     0.094 A 
ATOM     10  C   UNL     1      -3.633  23.980  50.685  1.00  0.00     0.146 A 
ATOM     11  O   UNL     1      -3.384  22.897  49.960  1.00  0.00    -0.452 OA
ENDROOT
BRANCH   1  12
ATOM     12  C   UNL     1      -3.746  21.286  48.203  1.00  0.00     0.025 A 
ATOM     13  C   UNL     1      -3.197  21.373  46.911  1.00  0.00     0.016 A 
ATOM     14  C   UNL     1      -2.800  20.217  46.233  1.00  0.00     0.051 A 
ATOM     15  C   UNL     1      -2.933  18.962  46.841  1.00  0.00     0.157 A 
ATOM     16  C   UNL     1      -3.856  20.027  48.814  1.00  0.00     0.062 A 
ATOM     17  C   UNL     1      -3.459  18.866  48.134  1.00  0.00     0.158 A 
BRANCH  15  18
ATOM     18  O   UNL     1      -2.538  17.807  46.167  1.00  0.00    -0.504 OA
ATOM     19  H   UNL     1      -1.707  17.789  45.587  1.00  0.00     0.293 HD
ENDBRANCH  15  18
BRANCH  17  20
ATOM     20  O   UNL     1      -3.583  17.617  48.739  1.00  0.00    -0.504 OA
ATOM     21  H   UNL     1      -2.871  16.904  48.634  1.00  0.00     0.293 HD
ENDBRANCH  17  20
ENDBRANCH   1  12
BRANCH   2  22
ATOM     22  O   UNL     1      -6.184  22.749  47.646  1.00  0.00    -0.502 OA
ATOM     23  H   UNL     1      -5.885  22.613  46.688  1.00  0.00     0.293 HD
ENDBRANCH   2  22
BRANCH   6  24
ATOM     24  O   UNL     1      -5.944  26.929  50.937  1.00  0.00    -0.507 OA
ATOM     25  H   UNL     1      -6.309  27.574  51.623  1.00  0.00     0.293 HD
ENDBRANCH   6  24
BRANCH   8  26
ATOM     26  O   UNL     1      -2.157  25.717  53.600  1.00  0.00    -0.508 OA
ATOM     27  H   UNL     1      -1.302  26.242  53.463  1.00  0.00     0.293 HD
ENDBRANCH   8  26
TORSDOF 6
ENDMDL
MODEL 3
REMARK VINA RESULT:    -6.749      1.813      7.004
REMARK INTER + INTRA:          -8.460
REMARK INTER:                  -8.286
REMARK INTRA:                  -0.174
REMARK UNBOUND:                -0.330
REMARK SMILES O=c1c(O)c(-c2ccc(O)c(O)c2)oc2cc(O)cc(O)c12
REMARK SMILES IDX 5 1 3 2 2 3 1 4 22 5 20 6 19 7 17 8 16 9 15 10 14 11 6 12
REMARK SMILES IDX 7 13 8 14 9 15 13 16 11 17 10 18 12 20 4 22 21 24 18 26
REMARK H PARENT 10 19 12 21 4 23 21 25 18 27
REMARK Flexibility Score: inf
ROOT
ATOM      1  C   UNL     1      -2.837  21.586  48.503  1.00  0.00     0.180 A 
ATOM      2  C   UNL     1      -4.115  21.799  47.958  1.00  0.00     0.208 A 
ATOM      3  C   UNL     1      -4.948  22.772  48.535  1.00  0.00     0.238 A 
ATOM      4  O   UNL     1      -6.110  22.920  48.078  1.00  0.00    -0.285 OA
ATOM      5  C   UNL     1      -4.486  23.529  49.638  1.00  0.00     0.111 A 
ATOM      6  C   UNL     1      -5.231  24.568  50.276  1.00  0.00     0.134 A 
ATOM      7  C   UNL     1      -4.727  25.161  51.441  1.00  0.00     0.093 A 
ATOM      8  C   UNL     1      -3.482  24.801  51.953  1.00  0.00     0.123 A 
ATOM      9  C   UNL     1      -2.719  23.829  51.304  1.00  0.00     0.094 A 
ATOM     10  C   UNL     1      -3.209  23.194  50.160  1.00  0.00     0.146 A 
ATOM     11  O   UNL     1      -2.459  22.267  49.579  1.00  0.00    -0.452 OA
ENDROOT
BRANCH   1  12
ATOM     12  C   UNL     1      -1.893  20.597  47.934  1.00  0.00     0.025 A 
ATOM     13  C   UNL     1      -0.679  20.996  47.347  1.00  0.00     0.016 A 
ATOM     14  C   UNL     1       0.207  20.043  46.839  1.00  0.00     0.051 A 
ATOM     15  C   UNL     1      -0.100  18.679  46.921  1.00  0.00     0.157 A 
ATOM     16  C   UNL     1      -2.185  19.226  48.033  1.00  0.00     0.062 A 
ATOM     17  C   UNL     1      -1.296  18.269  47.522  1.00  0.00     0.158 A 
BRANCH  15  18
ATOM     18  O   UNL     1       0.781  17.726  46.414  1.00  0.00    -0.504 OA
ATOM     19  H   UNL     1       1.224  17.039  47.014  1.00  0.00     0.293 HD
ENDBRANCH  15  18
BRANCH  17  20
ATOM     20  O   UNL     1      -1.596  16.911  47.609  1.00  0.00    -0.504 OA
ATOM     21  H   UNL     1      -2.539  16.566  47.474  1.00  0.00     0.293 HD
ENDBRANCH  17  20
ENDBRANCH   1  12
BRANCH   2  22
ATOM     22  O   UNL     1      -4.559  21.026  46.883  1.00  0.00    -0.502 OA
ATOM     23  H   UNL     1      -4.032  20.238  46.524  1.00  0.00     0.293 HD
ENDBRANCH   2  22
BRANCH   6  24
ATOM     24  O   UNL     1      -6.443  25.068  49.795  1.00  0.00    -0.507 OA
ATOM     25  H   UNL     1      -7.056  24.577  49.160  1.00  0.00     0.293 HD
ENDBRANCH   6  24
BRANCH   8  26
ATOM     26  O   UNL     1      -3.006  25.424  53.105  1.00  0.00    -0.508 OA
ATOM     27  H   UNL     1      -2.445  24.924  53.784  1.00  0.00     0.293 HD
ENDBRANCH   8  26
TORSDOF 6
ENDMDL
MODEL 4
REMARK VINA RESULT:    -6.675      4.557      6.838
REMARK INTER + INTRA:          -8.371
REMARK INTER:                  -8.065
REMARK INTRA:                  -0.306
REMARK UNBOUND:                -0.330
REMARK SMILES O=c1c(O)c(-c2ccc(O)c(O)c2)oc2cc(O)cc(O)c12
REMARK SMILES IDX 5 1 3 2 2 3 1 4 22 5 20 6 19 7 17 8 16 9 15 10 14 11 6 12
REMARK SMILES IDX 7 13 8 14 9 15 13 16 11 17 10 18 12 20 4 22 21 24 18 26
REMARK H PARENT 10 19 12 21 4 23 21 25 18 27
REMARK Flexibility Score: inf
ROOT
ATOM      1  C   UNL     1      -6.245  26.733  49.342  1.00  0.00     0.180 A 
ATOM      2  C   UNL     1      -5.900  25.385  49.145  1.00  0.00     0.208 A 
ATOM      3  C   UNL     1      -5.014  24.769  50.045  1.00  0.00     0.238 A 
ATOM      4  O   UNL     1      -4.667  23.579  49.832  1.00  0.00    -0.285 OA
ATOM      5  C   UNL     1      -4.499  25.505  51.139  1.00  0.00     0.111 A 
ATOM      6  C   UNL     1      -3.625  24.971  52.134  1.00  0.00     0.134 A 
ATOM      7  C   UNL     1      -3.073  25.825  53.098  1.00  0.00     0.093 A 
ATOM      8  C   UNL     1      -3.412  27.176  53.142  1.00  0.00     0.123 A 
ATOM      9  C   UNL     1      -4.311  27.696  52.209  1.00  0.00     0.094 A 
ATOM     10  C   UNL     1      -4.851  26.878  51.215  1.00  0.00     0.146 A 
ATOM     11  O   UNL     1      -5.693  27.414  50.340  1.00  0.00    -0.452 OA
ENDROOT
BRANCH   1  12
ATOM     12  C   UNL     1      -7.191  27.442  48.451  1.00  0.00     0.025 A 
ATOM     13  C   UNL     1      -6.737  28.233  47.380  1.00  0.00     0.016 A 
ATOM     14  C   UNL     1      -7.649  28.873  46.538  1.00  0.00     0.051 A 
ATOM     15  C   UNL     1      -9.027  28.723  46.745  1.00  0.00     0.157 A 
ATOM     16  C   UNL     1      -8.574  27.279  48.640  1.00  0.00     0.062 A 
ATOM     17  C   UNL     1      -9.490  27.922  47.795  1.00  0.00     0.158 A 
BRANCH  15  18
ATOM     18  O   UNL     1      -9.939  29.361  45.907  1.00  0.00    -0.504 OA
ATOM     19  H   UNL     1     -10.048  30.369  45.910  1.00  0.00     0.293 HD
ENDBRANCH  15  18
BRANCH  17  20
ATOM     20  O   UNL     1     -10.860  27.768  47.994  1.00  0.00    -0.504 OA
ATOM     21  H   UNL     1     -11.507  28.534  47.849  1.00  0.00     0.293 HD
ENDBRANCH  17  20
ENDBRANCH   1  12
BRANCH   2  22
ATOM     22  O   UNL     1      -6.404  24.684  48.046  1.00  0.00    -0.502 OA
ATOM     23  H   UNL     1      -6.094  24.861  47.098  1.00  0.00     0.293 HD
ENDBRANCH   2  22
BRANCH   6  24
ATOM     24  O   UNL     1      -3.295  23.617  52.238  1.00  0.00    -0.507 OA
ATOM     25  H   UNL     1      -2.607  23.148  51.667  1.00  0.00     0.293 HD
ENDBRANCH   6  24
BRANCH   8  26
ATOM     26  O   UNL     1      -2.856  27.993  54.124  1.00  0.00    -0.508 OA
ATOM     27  H   UNL     1      -2.395  28.864  53.890  1.00  0.00     0.293 HD
ENDBRANCH   8  26
TORSDOF 6
ENDMDL
MODEL 5
REMARK VINA RESULT:    -6.654      2.009      7.476
REMARK INTER + INTRA:          -8.346
REMARK INTER:                  -8.072
REMARK INTRA:                  -0.274
REMARK UNBOUND:                -0.330
REMARK SMILES O=c1c(O)c(-c2ccc(O)c(O)c2)oc2cc(O)cc(O)c12
REMARK SMILES IDX 5 1 3 2 2 3 1 4 22 5 20 6 19 7 17 8 16 9 15 10 14 11 6 12
REMARK SMILES IDX 7 13 8 14 9 15 13 16 11 17 10 18 12 20 4 22 21 24 18 26
REMARK H PARENT 10 19 12 21 4 23 21 25 18 27
REMARK Flexibility Score: inf
ROOT
ATOM      1  C   UNL     1      -4.138  23.265  47.766  1.00  0.00     0.180 A 
ATOM      2  C   UNL     1      -4.478  23.382  49.125  1.00  0.00     0.208 A 
ATOM      3  C   UNL     1      -5.303  24.444  49.532  1.00  0.00     0.238 A 
ATOM      4  O   UNL     1      -5.559  24.575  50.757  1.00  0.00    -0.285 OA
ATOM      5  C   UNL     1      -5.789  25.365  48.573  1.00  0.00     0.111 A 
ATOM      6  C   UNL     1      -6.663  26.455  48.868  1.00  0.00     0.134 A 
ATOM      7  C   UNL     1      -6.975  27.380  47.862  1.00  0.00     0.093 A 
ATOM      8  C   UNL     1      -6.500  27.218  46.562  1.00  0.00     0.123 A 
ATOM      9  C   UNL     1      -5.694  26.123  46.249  1.00  0.00     0.094 A 
ATOM     10  C   UNL     1      -5.335  25.204  47.238  1.00  0.00     0.146 A 
ATOM     11  O   UNL     1      -4.557  24.183  46.902  1.00  0.00    -0.452 OA
ENDROOT
BRANCH   1  12
ATOM     12  C   UNL     1      -3.295  22.159  47.258  1.00  0.00     0.025 A 
ATOM     13  C   UNL     1      -1.932  22.349  46.971  1.00  0.00     0.016 A 
ATOM     14  C   UNL     1      -1.151  21.284  46.515  1.00  0.00     0.051 A 
ATOM     15  C   UNL     1      -1.716  20.013  46.352  1.00  0.00     0.157 A 
ATOM     16  C   UNL     1      -3.851  20.877  47.113  1.00  0.00     0.062 A 
ATOM     17  C   UNL     1      -3.067  19.808  46.655  1.00  0.00     0.158 A 
BRANCH  15  18
ATOM     18  O   UNL     1      -0.939  18.949  45.897  1.00  0.00    -0.504 OA
ATOM     19  H   UNL     1      -0.700  18.170  46.500  1.00  0.00     0.293 HD
ENDBRANCH  15  18
BRANCH  17  20
ATOM     20  O   UNL     1      -3.625  18.540  46.500  1.00  0.00    -0.504 OA
ATOM     21  H   UNL     1      -3.519  18.016  45.640  1.00  0.00     0.293 HD
ENDBRANCH  17  20
ENDBRANCH   1  12
BRANCH   2  22
ATOM     22  O   UNL     1      -3.970  22.475  50.058  1.00  0.00    -0.502 OA
ATOM     23  H   UNL     1      -4.192  22.526  51.045  1.00  0.00     0.293 HD
ENDBRANCH   2  22
BRANCH   6  24
ATOM     24  O   UNL     1      -7.268  26.657  50.111  1.00  0.00    -0.507 OA
ATOM     25  H   UNL     1      -8.138  27.148  50.254  1.00  0.00     0.293 HD
ENDBRANCH   6  24
BRANCH   8  26
ATOM     26  O   UNL     1      -6.845  28.149  45.584  1.00  0.00    -0.508 OA
ATOM     27  H   UNL     1      -6.542  29.114  45.642  1.00  0.00     0.293 HD
ENDBRANCH   8  26
TORSDOF 6
ENDMDL
MODEL 6
REMARK VINA RESULT:    -6.554      1.799      7.083
REMARK INTER + INTRA:          -8.225
REMARK INTER:                  -7.953
REMARK INTRA:                  -0.272
REMARK UNBOUND:                -0.330
REMARK SMILES O=c1c(O)c(-c2ccc(O)c(O)c2)oc2cc(O)cc(O)c12
REMARK SMILES IDX 5 1 3 2 2 3 1 4 22 5 20 6 19 7 17 8 16 9 15 10 14 11 6 12
REMARK SMILES IDX 7 13 8 14 9 15 13 16 11 17 10 18 12 20 4 22 21 24 18 26
REMARK H PARENT 10 19 12 21 4 23 21 25 18 27
REMARK Flexibility Score: inf
ROOT
ATOM      1  C   UNL     1      -4.073  22.864  48.974  1.00  0.00     0.180 A 
ATOM      2  C   UNL     1      -3.226  23.345  49.987  1.00  0.00     0.208 A 
ATOM      3  C   UNL     1      -3.572  24.528  50.660  1.00  0.00     0.238 A 
ATOM      4  O   UNL     1      -2.782  24.983  51.527  1.00  0.00    -0.285 OA
ATOM      5  C   UNL     1      -4.768  25.206  50.323  1.00  0.00     0.111 A 
ATOM      6  C   UNL     1      -5.237  26.391  50.967  1.00  0.00     0.134 A 
ATOM      7  C   UNL     1      -6.366  27.049  50.463  1.00  0.00     0.093 A 
ATOM      8  C   UNL     1      -7.080  26.531  49.384  1.00  0.00     0.123 A 
ATOM      9  C   UNL     1      -6.665  25.341  48.785  1.00  0.00     0.094 A 
ATOM     10  C   UNL     1      -5.522  24.681  49.241  1.00  0.00     0.146 A 
ATOM     11  O   UNL     1      -5.154  23.558  48.636  1.00  0.00    -0.452 OA
ENDROOT
BRANCH   1  12
ATOM     12  C   UNL     1      -3.789  21.611  48.238  1.00  0.00     0.025 A 
ATOM     13  C   UNL     1      -3.243  21.631  46.941  1.00  0.00     0.016 A 
ATOM     14  C   UNL     1      -2.961  20.435  46.276  1.00  0.00     0.051 A 
ATOM     15  C   UNL     1      -3.206  19.205  46.899  1.00  0.00     0.157 A 
ATOM     16  C   UNL     1      -4.012  20.375  48.865  1.00  0.00     0.062 A 
ATOM     17  C   UNL     1      -3.730  19.174  48.197  1.00  0.00     0.158 A 
BRANCH  15  18
ATOM     18  O   UNL     1      -2.926  18.011  46.237  1.00  0.00    -0.504 OA
ATOM     19  H   UNL     1      -2.587  18.000  45.282  1.00  0.00     0.293 HD
ENDBRANCH  15  18
BRANCH  17  20
ATOM     20  O   UNL     1      -3.965  17.949  48.818  1.00  0.00    -0.504 OA
ATOM     21  H   UNL     1      -4.335  17.894  49.759  1.00  0.00     0.293 HD
ENDBRANCH  17  20
ENDBRANCH   1  12
BRANCH   2  22
ATOM     22  O   UNL     1      -2.039  22.672  50.289  1.00  0.00    -0.502 OA
ATOM     23  H   UNL     1      -1.721  22.529  51.240  1.00  0.00     0.293 HD
ENDBRANCH   2  22
BRANCH   6  24
ATOM     24  O   UNL     1      -4.651  26.942  52.110  1.00  0.00    -0.507 OA
ATOM     25  H   UNL     1      -4.325  26.409  52.902  1.00  0.00     0.293 HD
ENDBRANCH   6  24
BRANCH   8  26
ATOM     26  O   UNL     1      -8.209  27.204  48.921  1.00  0.00    -0.508 OA
ATOM     27  H   UNL     1      -9.117  27.073  49.351  1.00  0.00     0.293 HD
ENDBRANCH   8  26
TORSDOF 6
ENDMDL
MODEL 7
REMARK VINA RESULT:    -6.418      3.996      7.116
REMARK INTER + INTRA:          -8.062
REMARK INTER:                  -7.734
REMARK INTRA:                  -0.328
REMARK UNBOUND:                -0.330
REMARK SMILES O=c1c(O)c(-c2ccc(O)c(O)c2)oc2cc(O)cc(O)c12
REMARK SMILES IDX 5 1 3 2 2 3 1 4 22 5 20 6 19 7 17 8 16 9 15 10 14 11 6 12
REMARK SMILES IDX 7 13 8 14 9 15 13 16 11 17 10 18 12 20 4 22 21 24 18 26
REMARK H PARENT 10 19 12 21 4 23 21 25 18 27
REMARK Flexibility Score: inf
ROOT
ATOM      1  C   UNL     1      -2.304  24.435  51.945  1.00  0.00     0.180 A 
ATOM      2  C   UNL     1      -2.918  25.619  52.389  1.00  0.00     0.208 A 
ATOM      3  C   UNL     1      -4.133  26.017  51.807  1.00  0.00     0.238 A 
ATOM      4  O   UNL     1      -4.649  27.105  52.170  1.00  0.00    -0.285 OA
ATOM      5  C   UNL     1      -4.726  25.218  50.801  1.00  0.00     0.111 A 
ATOM      6  C   UNL     1      -5.975  25.504  50.170  1.00  0.00     0.134 A 
ATOM      7  C   UNL     1      -6.402  24.713  49.095  1.00  0.00     0.093 A 
ATOM      8  C   UNL     1      -5.661  23.612  48.671  1.00  0.00     0.123 A 
ATOM      9  C   UNL     1      -4.468  23.288  49.319  1.00  0.00     0.094 A 
ATOM     10  C   UNL     1      -3.997  24.077  50.371  1.00  0.00     0.146 A 
ATOM     11  O   UNL     1      -2.853  23.742  50.953  1.00  0.00    -0.452 OA
ENDROOT
BRANCH   1  12
ATOM     12  C   UNL     1      -1.037  23.938  52.527  1.00  0.00     0.025 A 
ATOM     13  C   UNL     1      -1.031  23.038  53.608  1.00  0.00     0.016 A 
ATOM     14  C   UNL     1       0.178  22.564  54.125  1.00  0.00     0.051 A 
ATOM     15  C   UNL     1       1.394  22.971  53.563  1.00  0.00     0.157 A 
ATOM     16  C   UNL     1       0.186  24.325  51.955  1.00  0.00     0.062 A 
ATOM     17  C   UNL     1       1.399  23.850  52.474  1.00  0.00     0.158 A 
BRANCH  15  18
ATOM     18  O   UNL     1       2.601  22.500  54.077  1.00  0.00    -0.504 OA
ATOM     19  H   UNL     1       2.992  22.870  54.936  1.00  0.00     0.293 HD
ENDBRANCH  15  18
BRANCH  17  20
ATOM     20  O   UNL     1       2.610  24.247  51.912  1.00  0.00    -0.504 OA
ATOM     21  H   UNL     1       2.845  24.033  50.950  1.00  0.00     0.293 HD
ENDBRANCH  17  20
ENDBRANCH   1  12
BRANCH   2  22
ATOM     22  O   UNL     1      -2.304  26.404  53.368  1.00  0.00    -0.502 OA
ATOM     23  H   UNL     1      -1.687  27.174  53.141  1.00  0.00     0.293 HD
ENDBRANCH   2  22
BRANCH   6  24
ATOM     24  O   UNL     1      -6.838  26.524  50.576  1.00  0.00    -0.507 OA
ATOM     25  H   UNL     1      -7.825  26.562  50.364  1.00  0.00     0.293 HD
ENDBRANCH   6  24
BRANCH   8  26
ATOM     26  O   UNL     1      -6.125  22.839  47.609  1.00  0.00    -0.508 OA
ATOM     27  H   UNL     1      -6.855  22.148  47.736  1.00  0.00     0.293 HD
ENDBRANCH   8  26
TORSDOF 6
ENDMDL
MODEL 8
REMARK VINA RESULT:    -6.330      2.072      7.081
REMARK INTER + INTRA:          -7.956
REMARK INTER:                  -7.633
REMARK INTRA:                  -0.323
REMARK UNBOUND:                -0.330
REMARK SMILES O=c1c(O)c(-c2ccc(O)c(O)c2)oc2cc(O)cc(O)c12
REMARK SMILES IDX 5 1 3 2 2 3 1 4 22 5 20 6 19 7 17 8 16 9 15 10 14 11 6 12
REMARK SMILES IDX 7 13 8 14 9 15 13 16 11 17 10 18 12 20 4 22 21 24 18 26
REMARK H PARENT 10 19 12 21 4 23 21 25 18 27
REMARK Flexibility Score: inf
ROOT
ATOM      1  C   UNL     1      -3.704  22.492  48.113  1.00  0.00     0.180 A 
ATOM      2  C   UNL     1      -3.233  23.161  49.256  1.00  0.00     0.208 A 
ATOM      3  C   UNL     1      -3.541  24.522  49.424  1.00  0.00     0.238 A 
ATOM      4  O   UNL     1      -3.071  25.129  50.420  1.00  0.00    -0.285 OA
ATOM      5  C   UNL     1      -4.329  25.190  48.456  1.00  0.00     0.111 A 
ATOM      6  C   UNL     1      -4.735  26.556  48.544  1.00  0.00     0.134 A 
ATOM      7  C   UNL     1      -5.403  27.148  47.465  1.00  0.00     0.093 A 
ATOM      8  C   UNL     1      -5.737  26.410  46.331  1.00  0.00     0.123 A 
ATOM      9  C   UNL     1      -5.397  25.058  46.259  1.00  0.00     0.094 A 
ATOM     10  C   UNL     1      -4.700  24.448  47.304  1.00  0.00     0.146 A 
ATOM     11  O   UNL     1      -4.385  23.163  47.192  1.00  0.00    -0.452 OA
ENDROOT
BRANCH   1  12
ATOM     12  C   UNL     1      -3.443  21.053  47.880  1.00  0.00     0.025 A 
ATOM     13  C   UNL     1      -4.240  20.058  48.472  1.00  0.00     0.016 A 
ATOM     14  C   UNL     1      -3.989  18.707  48.217  1.00  0.00     0.051 A 
ATOM     15  C   UNL     1      -2.948  18.332  47.358  1.00  0.00     0.157 A 
ATOM     16  C   UNL     1      -2.414  20.671  47.003  1.00  0.00     0.062 A 
ATOM     17  C   UNL     1      -2.161  19.316  46.748  1.00  0.00     0.158 A 
BRANCH  15  18
ATOM     18  O   UNL     1      -2.695  16.986  47.103  1.00  0.00    -0.504 OA
ATOM     19  H   UNL     1      -2.346  16.672  46.205  1.00  0.00     0.293 HD
ENDBRANCH  15  18
BRANCH  17  20
ATOM     20  O   UNL     1      -1.131  18.940  45.887  1.00  0.00    -0.504 OA
ATOM     21  H   UNL     1      -1.314  18.655  44.933  1.00  0.00     0.293 HD
ENDBRANCH  17  20
ENDBRANCH   1  12
BRANCH   2  22
ATOM     22  O   UNL     1      -2.440  22.489  50.188  1.00  0.00    -0.502 OA
ATOM     23  H   UNL     1      -2.626  21.535  50.476  1.00  0.00     0.293 HD
ENDBRANCH   2  22
BRANCH   6  24
ATOM     24  O   UNL     1      -4.533  27.359  49.670  1.00  0.00    -0.507 OA
ATOM     25  H   UNL     1      -4.160  27.032  50.549  1.00  0.00     0.293 HD
ENDBRANCH   6  24
BRANCH   8  26
ATOM     26  O   UNL     1      -6.416  27.028  45.284  1.00  0.00    -0.508 OA
ATOM     27  H   UNL     1      -6.186  27.969  44.986  1.00  0.00     0.293 HD
ENDBRANCH   8  26
TORSDOF 6
ENDMDL
MODEL 9
REMARK VINA RESULT:    -6.260      3.278      5.771
REMARK INTER + INTRA:          -7.871
REMARK INTER:                  -7.557
REMARK INTRA:                  -0.314
REMARK UNBOUND:                -0.330
REMARK SMILES O=c1c(O)c(-c2ccc(O)c(O)c2)oc2cc(O)cc(O)c12
REMARK SMILES IDX 5 1 3 2 2 3 1 4 22 5 20 6 19 7 17 8 16 9 15 10 14 11 6 12
REMARK SMILES IDX 7 13 8 14 9 15 13 16 11 17 10 18 12 20 4 22 21 24 18 26
REMARK H PARENT 10 19 12 21 4 23 21 25 18 27
REMARK Flexibility Score: inf
ROOT
ATOM      1  C   UNL     1      -6.274  26.761  48.389  1.00  0.00     0.180 A 
ATOM      2  C   UNL     1      -5.716  26.918  49.669  1.00  0.00     0.208 A 
ATOM      3  C   UNL     1      -5.008  25.847  50.240  1.00  0.00     0.238 A 
ATOM      4  O   UNL     1      -4.557  25.974  51.408  1.00  0.00    -0.285 OA
ATOM      5  C   UNL     1      -4.854  24.640  49.517  1.00  0.00     0.111 A 
ATOM      6  C   UNL     1      -4.122  23.505  49.981  1.00  0.00     0.134 A 
ATOM      7  C   UNL     1      -4.147  22.318  49.237  1.00  0.00     0.093 A 
ATOM      8  C   UNL     1      -4.819  22.244  48.019  1.00  0.00     0.123 A 
ATOM      9  C   UNL     1      -5.487  23.366  47.527  1.00  0.00     0.094 A 
ATOM     10  C   UNL     1      -5.512  24.553  48.261  1.00  0.00     0.146 A 
ATOM     11  O   UNL     1      -6.168  25.594  47.764  1.00  0.00    -0.452 OA
ENDROOT
BRANCH   1  12
ATOM     12  C   UNL     1      -7.012  27.852  47.713  1.00  0.00     0.025 A 
ATOM     13  C   UNL     1      -6.336  28.890  47.047  1.00  0.00     0.016 A 
ATOM     14  C   UNL     1      -7.054  29.896  46.394  1.00  0.00     0.051 A 
ATOM     15  C   UNL     1      -8.454  29.872  46.386  1.00  0.00     0.157 A 
ATOM     16  C   UNL     1      -8.416  27.823  47.683  1.00  0.00     0.062 A 
ATOM     17  C   UNL     1      -9.137  28.833  47.029  1.00  0.00     0.158 A 
BRANCH  15  18
ATOM     18  O   UNL     1      -9.173  30.874  45.738  1.00  0.00    -0.504 OA
ATOM     19  H   UNL     1      -9.124  30.997  44.733  1.00  0.00     0.293 HD
ENDBRANCH  15  18
BRANCH  17  20
ATOM     20  O   UNL     1     -10.530  28.807  47.013  1.00  0.00    -0.504 OA
ATOM     21  H   UNL     1     -11.077  29.306  47.704  1.00  0.00     0.293 HD
ENDBRANCH  17  20
ENDBRANCH   1  12
BRANCH   2  22
ATOM     22  O   UNL     1      -5.898  28.110  50.375  1.00  0.00    -0.502 OA
ATOM     23  H   UNL     1      -5.122  28.678  50.694  1.00  0.00     0.293 HD
ENDBRANCH   2  22
BRANCH   6  24
ATOM     24  O   UNL     1      -3.341  23.500  51.139  1.00  0.00    -0.507 OA
ATOM     25  H   UNL     1      -2.447  23.039  51.228  1.00  0.00     0.293 HD
ENDBRANCH   6  24
BRANCH   8  26
ATOM     26  O   UNL     1      -4.807  21.051  47.299  1.00  0.00    -0.508 OA
ATOM     27  H   UNL     1      -3.941  20.578  47.071  1.00  0.00     0.293 HD
ENDBRANCH   8  26
TORSDOF 6
ENDMDL
