MODEL 1
REMARK VINA RESULT:    -6.817      0.000      0.000
REMARK INTER + INTRA:         -10.442
REMARK INTER:                  -9.009
REMARK INTRA:                  -1.433
REMARK UNBOUND:                -1.433
REMARK SMILES C=C(CC[C@@H](C)[C@@H]1CC[C@]2(C)[C@H]3CC[C@@H]4C(C)(C)[C@H](O)CC[C@@]45C[C@]35CC[C@]12C)C(C)C
REMARK SMILES IDX 4 1 3 2 2 3 1 4 30 5 31 6 32 7 5 8 6 9 7 10 8 11 28 12 9 13
REMARK SMILES IDX 10 14 27 15 29 16 11 17 12 18 26 19 25 20 13 21 23 22 24 23
REMARK SMILES IDX 14 24 15 25 22 26 16 27 21 28 19 29 17 30 18 31 20 32
REMARK H PARENT 20 33
REMARK Flexibility Score: inf
ROOT
ATOM      1  C   UNL     1     138.097 133.377 149.533  1.00  0.00     0.008 C 
ENDROOT
BRANCH   1   2
ATOM      2  C   UNL     1     137.122 132.550 150.392  1.00  0.00     0.031 C 
BRANCH   2   3
ATOM      3  C   UNL     1     137.160 131.074 150.038  1.00  0.00    -0.075 C 
ATOM      4  C   UNL     1     136.636 130.660 148.871  1.00  0.00     0.008 C 
BRANCH   3   5
ATOM      5  C   UNL     1     137.830 130.086 150.992  1.00  0.00     0.008 C 
ATOM      6  C   UNL     1     136.890 128.926 151.371  1.00  0.00     0.012 C 
ATOM      7  C   UNL     1     139.144 129.565 150.396  1.00  0.00     0.012 C 
ENDBRANCH   3   5
ENDBRANCH   2   3
ENDBRANCH   1   2
BRANCH   1   8
ATOM      8  C   UNL     1     139.467 133.667 150.204  1.00  0.00    -0.010 C 
ATOM      9  C   UNL     1     139.336 133.427 151.728  1.00  0.00     0.008 C 
BRANCH   8  10
ATOM     10  C   UNL     1     140.719 132.898 149.613  1.00  0.00    -0.002 C 
ATOM     11  C   UNL     1     141.623 132.385 150.755  1.00  0.00     0.005 C 
ATOM     12  C   UNL     1     141.699 133.626 148.611  1.00  0.00    -0.024 C 
ATOM     13  C   UNL     1     143.074 132.551 150.333  1.00  0.00     0.008 C 
ATOM     14  C   UNL     1     143.084 132.859 148.824  1.00  0.00    -0.024 C 
ATOM     15  C   UNL     1     141.828 135.141 148.992  1.00  0.00     0.008 C 
ATOM     16  C   UNL     1     141.154 133.502 147.152  1.00  0.00     0.012 C 
ATOM     17  C   UNL     1     143.137 131.483 148.091  1.00  0.00     0.012 C 
ATOM     18  C   UNL     1     144.406 133.667 148.500  1.00  0.00     0.002 C 
ATOM     19  C   UNL     1     143.057 135.819 148.399  1.00  0.00     0.008 C 
ATOM     20  C   UNL     1     144.300 135.111 148.985  1.00  0.00    -0.020 C 
ATOM     21  C   UNL     1     144.803 133.720 146.975  1.00  0.00     0.005 C 
ATOM     22  C   UNL     1     145.765 135.680 148.873  1.00  0.00    -0.020 C 
ATOM     23  C   UNL     1     144.895 135.975 150.085  1.00  0.00     0.015 C 
ATOM     24  C   UNL     1     145.792 134.859 146.516  1.00  0.00     0.005 C 
ATOM     25  C   UNL     1     145.866 136.150 147.416  1.00  0.00     0.004 C 
ATOM     26  C   UNL     1     147.030 134.891 149.329  1.00  0.00     0.010 C 
ATOM     27  C   UNL     1     147.160 137.025 147.214  1.00  0.00    -0.006 C 
ATOM     28  C   UNL     1     148.236 135.827 149.256  1.00  0.00     0.033 C 
ATOM     29  C   UNL     1     148.455 136.365 147.826  1.00  0.00     0.120 C 
ATOM     30  C   UNL     1     147.379 137.317 145.708  1.00  0.00     0.014 C 
ATOM     31  C   UNL     1     146.930 138.399 147.899  1.00  0.00     0.014 C 
BRANCH  29  32
ATOM     32  O   UNL     1     148.926 135.313 147.021  1.00  0.00    -0.393 OA
ATOM     33  H   UNL     1     148.340 135.264 146.220  1.00  0.00     0.210 HD
ENDBRANCH  29  32
ENDBRANCH   8  10
ENDBRANCH   1   8
TORSDOF 6
ENDMDL
MODEL 2
REMARK VINA RESULT:    -6.759      1.608      3.461
REMARK INTER + INTRA:         -10.365
REMARK INTER:                  -9.079
REMARK INTRA:                  -1.286
REMARK UNBOUND:                -1.433
REMARK SMILES C=C(CC[C@@H](C)[C@@H]1CC[C@]2(C)[C@H]3CC[C@@H]4C(C)(C)[C@H](O)CC[C@@]45C[C@]35CC[C@]12C)C(C)C
REMARK SMILES IDX 4 1 3 2 2 3 1 4 30 5 31 6 32 7 5 8 6 9 7 10 8 11 28 12 9 13
REMARK SMILES IDX 10 14 27 15 29 16 11 17 12 18 26 19 25 20 13 21 23 22 24 23
REMARK SMILES IDX 14 24 15 25 22 26 16 27 21 28 19 29 17 30 18 31 20 32
REMARK H PARENT 20 33
REMARK Flexibility Score: inf
ROOT
ATOM      1  C   UNL     1     141.165 131.633 150.067  1.00  0.00     0.008 C 
ENDROOT
BRANCH   1   2
ATOM      2  C   UNL     1     140.011 132.209 149.226  1.00  0.00     0.031 C 
BRANCH   2   3
ATOM      3  C   UNL     1     139.115 133.126 150.040  1.00  0.00    -0.075 C 
ATOM      4  C   UNL     1     139.612 133.746 151.124  1.00  0.00     0.008 C 
BRANCH   3   5
ATOM      5  C   UNL     1     137.673 133.366 149.591  1.00  0.00     0.008 C 
ATOM      6  C   UNL     1     137.542 133.365 148.056  1.00  0.00     0.012 C 
ATOM      7  C   UNL     1     136.730 132.339 150.231  1.00  0.00     0.012 C 
ENDBRANCH   3   5
ENDBRANCH   2   3
ENDBRANCH   1   2
BRANCH   1   8
ATOM      8  C   UNL     1     142.572 131.782 149.426  1.00  0.00    -0.010 C 
ATOM      9  C   UNL     1     143.058 130.388 148.962  1.00  0.00     0.008 C 
BRANCH   8  10
ATOM     10  C   UNL     1     142.709 132.848 148.263  1.00  0.00    -0.002 C 
ATOM     11  C   UNL     1     143.439 132.231 147.051  1.00  0.00     0.005 C 
ATOM     12  C   UNL     1     143.443 134.221 148.527  1.00  0.00    -0.024 C 
ATOM     13  C   UNL     1     144.362 133.282 146.457  1.00  0.00     0.008 C 
ATOM     14  C   UNL     1     143.981 134.638 147.082  1.00  0.00    -0.024 C 
ATOM     15  C   UNL     1     144.628 134.013 149.532  1.00  0.00     0.008 C 
ATOM     16  C   UNL     1     142.434 135.256 149.121  1.00  0.00     0.012 C 
ATOM     17  C   UNL     1     142.871 135.248 146.171  1.00  0.00     0.012 C 
ATOM     18  C   UNL     1     145.258 135.573 147.036  1.00  0.00     0.002 C 
ATOM     19  C   UNL     1     145.656 135.137 149.508  1.00  0.00     0.008 C 
ATOM     20  C   UNL     1     146.279 135.160 148.094  1.00  0.00    -0.020 C 
ATOM     21  C   UNL     1     144.973 137.109 147.244  1.00  0.00     0.005 C 
ATOM     22  C   UNL     1     147.584 135.962 147.725  1.00  0.00    -0.020 C 
ATOM     23  C   UNL     1     147.647 134.500 148.140  1.00  0.00     0.015 C 
ATOM     24  C   UNL     1     146.179 138.024 147.682  1.00  0.00     0.005 C 
ATOM     25  C   UNL     1     147.386 137.320 148.409  1.00  0.00     0.004 C 
ATOM     26  C   UNL     1     148.121 136.106 146.268  1.00  0.00     0.010 C 
ATOM     27  C   UNL     1     148.732 138.137 148.400  1.00  0.00    -0.006 C 
ATOM     28  C   UNL     1     149.496 136.771 146.324  1.00  0.00     0.033 C 
ATOM     29  C   UNL     1     149.431 138.163 146.986  1.00  0.00     0.120 C 
ATOM     30  C   UNL     1     148.484 139.586 148.891  1.00  0.00     0.014 C 
ATOM     31  C   UNL     1     149.703 137.487 149.423  1.00  0.00     0.014 C 
BRANCH  29  32
ATOM     32  O   UNL     1     148.780 139.045 146.107  1.00  0.00    -0.393 OA
ATOM     33  H   UNL     1     148.258 138.495 145.464  1.00  0.00     0.210 HD
ENDBRANCH  29  32
ENDBRANCH   8  10
ENDBRANCH   1   8
TORSDOF 6
ENDMDL
MODEL 3
REMARK VINA RESULT:    -6.539      1.472      3.317
REMARK INTER + INTRA:         -10.075
REMARK INTER:                  -8.024
REMARK INTRA:                  -2.052
REMARK UNBOUND:                -1.433
REMARK SMILES C=C(CC[C@@H](C)[C@@H]1CC[C@]2(C)[C@H]3CC[C@@H]4C(C)(C)[C@H](O)CC[C@@]45C[C@]35CC[C@]12C)C(C)C
REMARK SMILES IDX 4 1 3 2 2 3 1 4 30 5 31 6 32 7 5 8 6 9 7 10 8 11 28 12 9 13
REMARK SMILES IDX 10 14 27 15 29 16 11 17 12 18 26 19 25 20 13 21 23 22 24 23
REMARK SMILES IDX 14 24 15 25 22 26 16 27 21 28 19 29 17 30 18 31 20 32
REMARK H PARENT 20 33
REMARK Flexibility Score: inf
ROOT
ATOM      1  C   UNL     1     140.114 129.718 149.478  1.00  0.00     0.008 C 
ENDROOT
BRANCH   1   2
ATOM      2  C   UNL     1     139.414 130.474 150.622  1.00  0.00     0.031 C 
BRANCH   2   3
ATOM      3  C   UNL     1     138.016 130.925 150.238  1.00  0.00    -0.075 C 
ATOM      4  C   UNL     1     137.196 130.069 149.603  1.00  0.00     0.008 C 
BRANCH   3   5
ATOM      5  C   UNL     1     137.544 132.329 150.616  1.00  0.00     0.008 C 
ATOM      6  C   UNL     1     138.615 133.099 151.412  1.00  0.00     0.012 C 
ATOM      7  C   UNL     1     137.112 133.108 149.367  1.00  0.00     0.012 C 
ENDBRANCH   3   5
ENDBRANCH   2   3
ENDBRANCH   1   2
BRANCH   1   8
ATOM      8  C   UNL     1     140.797 130.628 148.421  1.00  0.00    -0.010 C 
ATOM      9  C   UNL     1     140.231 130.279 147.023  1.00  0.00     0.008 C 
BRANCH   8  10
ATOM     10  C   UNL     1     140.736 132.188 148.686  1.00  0.00    -0.002 C 
ATOM     11  C   UNL     1     140.182 132.923 147.447  1.00  0.00     0.005 C 
ATOM     12  C   UNL     1     142.045 132.979 149.080  1.00  0.00    -0.024 C 
ATOM     13  C   UNL     1     140.948 134.224 147.275  1.00  0.00     0.008 C 
ATOM     14  C   UNL     1     141.749 134.463 148.569  1.00  0.00    -0.024 C 
ATOM     15  C   UNL     1     143.285 132.366 148.343  1.00  0.00     0.008 C 
ATOM     16  C   UNL     1     142.267 132.901 150.624  1.00  0.00     0.012 C 
ATOM     17  C   UNL     1     140.812 135.262 149.528  1.00  0.00     0.012 C 
ATOM     18  C   UNL     1     143.003 135.360 148.208  1.00  0.00     0.002 C 
ATOM     19  C   UNL     1     144.489 133.298 148.289  1.00  0.00     0.008 C 
ATOM     20  C   UNL     1     144.068 134.545 147.477  1.00  0.00    -0.020 C 
ATOM     21  C   UNL     1     143.711 136.048 149.436  1.00  0.00     0.005 C 
ATOM     22  C   UNL     1     145.084 135.616 146.928  1.00  0.00    -0.020 C 
ATOM     23  C   UNL     1     144.637 134.441 146.072  1.00  0.00     0.015 C 
ATOM     24  C   UNL     1     145.195 136.545 149.241  1.00  0.00     0.005 C 
ATOM     25  C   UNL     1     146.038 135.854 148.105  1.00  0.00     0.004 C 
ATOM     26  C   UNL     1     144.645 136.946 146.244  1.00  0.00     0.010 C 
ATOM     27  C   UNL     1     147.300 136.668 147.629  1.00  0.00    -0.006 C 
ATOM     28  C   UNL     1     145.886 137.627 145.668  1.00  0.00     0.033 C 
ATOM     29  C   UNL     1     146.929 137.933 146.764  1.00  0.00     0.120 C 
ATOM     30  C   UNL     1     148.153 137.096 148.849  1.00  0.00     0.014 C 
ATOM     31  C   UNL     1     148.193 135.727 146.777  1.00  0.00     0.014 C 
BRANCH  29  32
ATOM     32  O   UNL     1     146.439 138.979 147.565  1.00  0.00    -0.393 OA
ATOM     33  H   UNL     1     146.145 139.709 146.957  1.00  0.00     0.210 HD
ENDBRANCH  29  32
ENDBRANCH   8  10
ENDBRANCH   1   8
TORSDOF 6
ENDMDL
MODEL 4
REMARK VINA RESULT:    -6.529      2.529      8.822
REMARK INTER + INTRA:         -10.061
REMARK INTER:                  -8.291
REMARK INTRA:                  -1.770
REMARK UNBOUND:                -1.433
REMARK SMILES C=C(CC[C@@H](C)[C@@H]1CC[C@]2(C)[C@H]3CC[C@@H]4C(C)(C)[C@H](O)CC[C@@]45C[C@]35CC[C@]12C)C(C)C
REMARK SMILES IDX 4 1 3 2 2 3 1 4 30 5 31 6 32 7 5 8 6 9 7 10 8 11 28 12 9 13
REMARK SMILES IDX 10 14 27 15 29 16 11 17 12 18 26 19 25 20 13 21 23 22 24 23
REMARK SMILES IDX 14 24 15 25 22 26 16 27 21 28 19 29 17 30 18 31 20 32
REMARK H PARENT 20 33
REMARK Flexibility Score: inf
ROOT
ATOM      1  C   UNL     1     147.771 134.960 147.322  1.00  0.00     0.008 C 
ENDROOT
BRANCH   1   2
ATOM      2  C   UNL     1     147.542 136.267 146.540  1.00  0.00     0.031 C 
BRANCH   2   3
ATOM      3  C   UNL     1     148.000 137.486 147.320  1.00  0.00    -0.075 C 
ATOM      4  C   UNL     1     149.200 137.473 147.925  1.00  0.00     0.008 C 
BRANCH   3   5
ATOM      5  C   UNL     1     147.109 138.728 147.372  1.00  0.00     0.008 C 
ATOM      6  C   UNL     1     145.910 138.614 146.411  1.00  0.00     0.012 C 
ATOM      7  C   UNL     1     146.647 139.003 148.808  1.00  0.00     0.012 C 
ENDBRANCH   3   5
ENDBRANCH   2   3
ENDBRANCH   1   2
BRANCH   1   8
ATOM      8  C   UNL     1     146.557 134.489 148.168  1.00  0.00    -0.010 C 
ATOM      9  C   UNL     1     146.842 134.794 149.659  1.00  0.00     0.008 C 
BRANCH   8  10
ATOM     10  C   UNL     1     145.137 135.041 147.737  1.00  0.00    -0.002 C 
ATOM     11  C   UNL     1     144.619 136.061 148.773  1.00  0.00     0.005 C 
ATOM     12  C   UNL     1     143.934 134.045 147.506  1.00  0.00    -0.024 C 
ATOM     13  C   UNL     1     143.122 135.857 148.944  1.00  0.00     0.008 C 
ATOM     14  C   UNL     1     142.646 134.944 147.799  1.00  0.00    -0.024 C 
ATOM     15  C   UNL     1     144.026 132.848 148.515  1.00  0.00     0.008 C 
ATOM     16  C   UNL     1     143.971 133.496 146.044  1.00  0.00     0.012 C 
ATOM     17  C   UNL     1     142.277 135.883 146.609  1.00  0.00     0.012 C 
ATOM     18  C   UNL     1     141.342 134.190 148.285  1.00  0.00     0.002 C 
ATOM     19  C   UNL     1     142.716 132.090 148.688  1.00  0.00     0.008 C 
ATOM     20  C   UNL     1     141.686 133.081 149.277  1.00  0.00    -0.020 C 
ATOM     21  C   UNL     1     140.479 133.534 147.141  1.00  0.00     0.005 C 
ATOM     22  C   UNL     1     140.301 132.645 149.887  1.00  0.00    -0.020 C 
ATOM     23  C   UNL     1     141.531 132.815 150.766  1.00  0.00     0.015 C 
ATOM     24  C   UNL     1     139.468 132.396 147.548  1.00  0.00     0.005 C 
ATOM     25  C   UNL     1     139.766 131.617 148.884  1.00  0.00     0.004 C 
ATOM     26  C   UNL     1     139.204 133.657 150.339  1.00  0.00     0.010 C 
ATOM     27  C   UNL     1     138.532 130.851 149.493  1.00  0.00    -0.006 C 
ATOM     28  C   UNL     1     138.098 132.883 151.056  1.00  0.00     0.033 C 
ATOM     29  C   UNL     1     137.465 131.814 150.141  1.00  0.00     0.120 C 
ATOM     30  C   UNL     1     137.858 129.972 148.410  1.00  0.00     0.014 C 
ATOM     31  C   UNL     1     139.053 129.879 150.585  1.00  0.00     0.014 C 
BRANCH  29  32
ATOM     32  O   UNL     1     136.696 132.465 149.161  1.00  0.00    -0.393 OA
ATOM     33  H   UNL     1     137.040 132.178 148.273  1.00  0.00     0.210 HD
ENDBRANCH  29  32
ENDBRANCH   8  10
ENDBRANCH   1   8
TORSDOF 6
ENDMDL
MODEL 5
REMARK VINA RESULT:    -6.501      1.313      1.968
REMARK INTER + INTRA:         -10.025
REMARK INTER:                  -8.095
REMARK INTRA:                  -1.930
REMARK UNBOUND:                -1.433
REMARK SMILES C=C(CC[C@@H](C)[C@@H]1CC[C@]2(C)[C@H]3CC[C@@H]4C(C)(C)[C@H](O)CC[C@@]45C[C@]35CC[C@]12C)C(C)C
REMARK SMILES IDX 4 1 3 2 2 3 1 4 30 5 31 6 32 7 5 8 6 9 7 10 8 11 28 12 9 13
REMARK SMILES IDX 10 14 27 15 29 16 11 17 12 18 26 19 25 20 13 21 23 22 24 23
REMARK SMILES IDX 14 24 15 25 22 26 16 27 21 28 19 29 17 30 18 31 20 32
REMARK H PARENT 20 33
REMARK Flexibility Score: inf
ROOT
ATOM      1  C   UNL     1     138.253 133.481 149.596  1.00  0.00     0.008 C 
ENDROOT
BRANCH   1   2
ATOM      2  C   UNL     1     138.073 132.178 148.796  1.00  0.00     0.031 C 
BRANCH   2   3
ATOM      3  C   UNL     1     137.985 132.433 147.301  1.00  0.00    -0.075 C 
ATOM      4  C   UNL     1     137.502 133.606 146.857  1.00  0.00     0.008 C 
BRANCH   3   5
ATOM      5  C   UNL     1     138.486 131.370 146.324  1.00  0.00     0.008 C 
ATOM      6  C   UNL     1     138.994 131.992 145.009  1.00  0.00     0.012 C 
ATOM      7  C   UNL     1     139.564 130.497 146.979  1.00  0.00     0.012 C 
ENDBRANCH   3   5
ENDBRANCH   2   3
ENDBRANCH   1   2
BRANCH   1   8
ATOM      8  C   UNL     1     139.700 133.742 150.095  1.00  0.00    -0.010 C 
ATOM      9  C   UNL     1     139.762 133.456 151.615  1.00  0.00     0.008 C 
BRANCH   8  10
ATOM     10  C   UNL     1     140.860 132.986 149.326  1.00  0.00    -0.002 C 
ATOM     11  C   UNL     1     141.735 132.192 150.319  1.00  0.00     0.005 C 
ATOM     12  C   UNL     1     141.883 133.796 148.437  1.00  0.00    -0.024 C 
ATOM     13  C   UNL     1     143.185 132.300 149.879  1.00  0.00     0.008 C 
ATOM     14  C   UNL     1     143.193 132.882 148.452  1.00  0.00    -0.024 C 
ATOM     15  C   UNL     1     142.166 135.196 149.083  1.00  0.00     0.008 C 
ATOM     16  C   UNL     1     141.298 133.994 147.002  1.00  0.00     0.012 C 
ATOM     17  C   UNL     1     143.098 131.665 147.479  1.00  0.00     0.012 C 
ATOM     18  C   UNL     1     144.580 133.613 148.231  1.00  0.00     0.002 C 
ATOM     19  C   UNL     1     143.441 135.859 148.577  1.00  0.00     0.008 C 
ATOM     20  C   UNL     1     144.623 134.945 148.975  1.00  0.00    -0.020 C 
ATOM     21  C   UNL     1     144.948 133.911 146.727  1.00  0.00     0.005 C 
ATOM     22  C   UNL     1     146.133 135.390 148.912  1.00  0.00    -0.020 C 
ATOM     23  C   UNL     1     145.321 135.533 150.191  1.00  0.00     0.015 C 
ATOM     24  C   UNL     1     146.031 135.022 146.446  1.00  0.00     0.005 C 
ATOM     25  C   UNL     1     146.247 136.110 147.564  1.00  0.00     0.004 C 
ATOM     26  C   UNL     1     147.326 134.419 149.168  1.00  0.00     0.010 C 
ATOM     27  C   UNL     1     147.614 136.888 147.475  1.00  0.00    -0.006 C 
ATOM     28  C   UNL     1     148.614 135.240 149.221  1.00  0.00     0.033 C 
ATOM     29  C   UNL     1     148.853 136.012 147.906  1.00  0.00     0.120 C 
ATOM     30  C   UNL     1     147.829 137.432 146.040  1.00  0.00     0.014 C 
ATOM     31  C   UNL     1     147.532 138.126 148.407  1.00  0.00     0.014 C 
BRANCH  29  32
ATOM     32  O   UNL     1     149.204 135.089 146.905  1.00  0.00    -0.393 OA
ATOM     33  H   UNL     1     148.419 134.497 146.756  1.00  0.00     0.210 HD
ENDBRANCH  29  32
ENDBRANCH   8  10
ENDBRANCH   1   8
TORSDOF 6
ENDMDL
MODEL 6
REMARK VINA RESULT:    -6.469      2.672      8.841
REMARK INTER + INTRA:          -9.983
REMARK INTER:                  -7.986
REMARK INTRA:                  -1.997
REMARK UNBOUND:                -1.433
REMARK SMILES C=C(CC[C@@H](C)[C@@H]1CC[C@]2(C)[C@H]3CC[C@@H]4C(C)(C)[C@H](O)CC[C@@]45C[C@]35CC[C@]12C)C(C)C
REMARK SMILES IDX 4 1 3 2 2 3 1 4 30 5 31 6 32 7 5 8 6 9 7 10 8 11 28 12 9 13
REMARK SMILES IDX 10 14 27 15 29 16 11 17 12 18 26 19 25 20 13 21 23 22 24 23
REMARK SMILES IDX 14 24 15 25 22 26 16 27 21 28 19 29 17 30 18 31 20 32
REMARK H PARENT 20 33
REMARK Flexibility Score: inf
ROOT
ATOM      1  C   UNL     1     148.682 136.032 146.135  1.00  0.00     0.008 C 
ENDROOT
BRANCH   1   2
ATOM      2  C   UNL     1     149.512 137.292 146.441  1.00  0.00     0.031 C 
BRANCH   2   3
ATOM      3  C   UNL     1     148.637 138.514 146.656  1.00  0.00    -0.075 C 
ATOM      4  C   UNL     1     147.870 138.964 145.648  1.00  0.00     0.008 C 
BRANCH   3   5
ATOM      5  C   UNL     1     148.609 139.191 148.026  1.00  0.00     0.008 C 
ATOM      6  C   UNL     1     147.208 139.135 148.665  1.00  0.00     0.012 C 
ATOM      7  C   UNL     1     149.668 138.581 148.953  1.00  0.00     0.012 C 
ENDBRANCH   3   5
ENDBRANCH   2   3
ENDBRANCH   1   2
BRANCH   1   8
ATOM      8  C   UNL     1     148.331 135.167 147.376  1.00  0.00    -0.010 C 
ATOM      9  C   UNL     1     149.592 135.039 148.265  1.00  0.00     0.008 C 
BRANCH   8  10
ATOM     10  C   UNL     1     147.079 135.630 148.229  1.00  0.00    -0.002 C 
ATOM     11  C   UNL     1     147.077 134.931 149.605  1.00  0.00     0.005 C 
ATOM     12  C   UNL     1     145.617 135.430 147.666  1.00  0.00    -0.024 C 
ATOM     13  C   UNL     1     145.644 134.578 149.965  1.00  0.00     0.008 C 
ATOM     14  C   UNL     1     144.723 135.330 148.986  1.00  0.00    -0.024 C 
ATOM     15  C   UNL     1     145.540 134.106 146.831  1.00  0.00     0.008 C 
ATOM     16  C   UNL     1     145.227 136.641 146.759  1.00  0.00     0.012 C 
ATOM     17  C   UNL     1     144.432 136.721 149.631  1.00  0.00     0.012 C 
ATOM     18  C   UNL     1     143.367 134.521 148.872  1.00  0.00     0.002 C 
ATOM     19  C   UNL     1     144.120 133.590 146.630  1.00  0.00     0.008 C 
ATOM     20  C   UNL     1     143.548 133.262 148.028  1.00  0.00    -0.020 C 
ATOM     21  C   UNL     1     142.158 135.321 148.254  1.00  0.00     0.005 C 
ATOM     22  C   UNL     1     142.231 132.430 148.262  1.00  0.00    -0.020 C 
ATOM     23  C   UNL     1     143.596 131.758 148.246  1.00  0.00     0.015 C 
ATOM     24  C   UNL     1     140.950 134.490 147.674  1.00  0.00     0.005 C 
ATOM     25  C   UNL     1     141.247 133.006 147.236  1.00  0.00     0.004 C 
ATOM     26  C   UNL     1     141.577 132.232 149.663  1.00  0.00     0.010 C 
ATOM     27  C   UNL     1     139.975 132.083 147.122  1.00  0.00    -0.006 C 
ATOM     28  C   UNL     1     140.444 131.215 149.528  1.00  0.00     0.033 C 
ATOM     29  C   UNL     1     139.371 131.686 148.523  1.00  0.00     0.120 C 
ATOM     30  C   UNL     1     138.890 132.771 146.256  1.00  0.00     0.014 C 
ATOM     31  C   UNL     1     140.381 130.787 146.370  1.00  0.00     0.014 C 
BRANCH  29  32
ATOM     32  O   UNL     1     138.661 132.754 149.099  1.00  0.00    -0.393 OA
ATOM     33  H   UNL     1     138.785 132.700 150.083  1.00  0.00     0.210 HD
ENDBRANCH  29  32
ENDBRANCH   8  10
ENDBRANCH   1   8
TORSDOF 6
ENDMDL
MODEL 7
REMARK VINA RESULT:    -6.464      1.441      2.709
REMARK INTER + INTRA:          -9.976
REMARK INTER:                  -8.219
REMARK INTRA:                  -1.757
REMARK UNBOUND:                -1.433
REMARK SMILES C=C(CC[C@@H](C)[C@@H]1CC[C@]2(C)[C@H]3CC[C@@H]4C(C)(C)[C@H](O)CC[C@@]45C[C@]35CC[C@]12C)C(C)C
REMARK SMILES IDX 4 1 3 2 2 3 1 4 30 5 31 6 32 7 5 8 6 9 7 10 8 11 28 12 9 13
REMARK SMILES IDX 10 14 27 15 29 16 11 17 12 18 26 19 25 20 13 21 23 22 24 23
REMARK SMILES IDX 14 24 15 25 22 26 16 27 21 28 19 29 17 30 18 31 20 32
REMARK H PARENT 20 33
REMARK Flexibility Score: inf
ROOT
ATOM      1  C   UNL     1     138.838 131.300 146.841  1.00  0.00     0.008 C 
ENDROOT
BRANCH   1   2
ATOM      2  C   UNL     1     138.780 130.556 148.187  1.00  0.00     0.031 C 
BRANCH   2   3
ATOM      3  C   UNL     1     137.440 130.731 148.880  1.00  0.00    -0.075 C 
ATOM      4  C   UNL     1     136.371 130.048 148.435  1.00  0.00     0.008 C 
BRANCH   3   5
ATOM      5  C   UNL     1     137.333 131.649 150.098  1.00  0.00     0.008 C 
ATOM      6  C   UNL     1     138.637 131.667 150.918  1.00  0.00     0.012 C 
ATOM      7  C   UNL     1     136.924 133.065 149.674  1.00  0.00     0.012 C 
ENDBRANCH   3   5
ENDBRANCH   2   3
ENDBRANCH   1   2
BRANCH   1   8
ATOM      8  C   UNL     1     139.896 132.434 146.771  1.00  0.00    -0.010 C 
ATOM      9  C   UNL     1     139.207 133.728 146.271  1.00  0.00     0.008 C 
BRANCH   8  10
ATOM     10  C   UNL     1     140.728 132.707 148.091  1.00  0.00    -0.002 C 
ATOM     11  C   UNL     1     140.280 134.032 148.744  1.00  0.00     0.005 C 
ATOM     12  C   UNL     1     142.303 132.791 148.033  1.00  0.00    -0.024 C 
ATOM     13  C   UNL     1     141.508 134.739 149.293  1.00  0.00     0.008 C 
ATOM     14  C   UNL     1     142.670 133.728 149.275  1.00  0.00    -0.024 C 
ATOM     15  C   UNL     1     142.758 133.443 146.682  1.00  0.00     0.008 C 
ATOM     16  C   UNL     1     142.916 131.359 148.152  1.00  0.00     0.012 C 
ATOM     17  C   UNL     1     142.622 132.975 150.640  1.00  0.00     0.012 C 
ATOM     18  C   UNL     1     144.025 134.542 149.182  1.00  0.00     0.002 C 
ATOM     19  C   UNL     1     144.184 133.977 146.708  1.00  0.00     0.008 C 
ATOM     20  C   UNL     1     144.237 135.096 147.774  1.00  0.00    -0.020 C 
ATOM     21  C   UNL     1     145.322 133.731 149.560  1.00  0.00     0.005 C 
ATOM     22  C   UNL     1     145.432 136.111 147.920  1.00  0.00    -0.020 C 
ATOM     23  C   UNL     1     144.209 136.448 147.081  1.00  0.00     0.015 C 
ATOM     24  C   UNL     1     146.707 134.288 149.051  1.00  0.00     0.005 C 
ATOM     25  C   UNL     1     146.680 135.230 147.789  1.00  0.00     0.004 C 
ATOM     26  C   UNL     1     145.552 137.136 149.088  1.00  0.00     0.010 C 
ATOM     27  C   UNL     1     147.963 136.125 147.604  1.00  0.00    -0.006 C 
ATOM     28  C   UNL     1     146.719 138.077 148.790  1.00  0.00     0.033 C 
ATOM     29  C   UNL     1     148.049 137.306 148.645  1.00  0.00     0.120 C 
ATOM     30  C   UNL     1     149.241 135.254 147.690  1.00  0.00     0.014 C 
ATOM     31  C   UNL     1     147.936 136.724 146.172  1.00  0.00     0.014 C 
BRANCH  29  32
ATOM     32  O   UNL     1     148.438 136.846 149.915  1.00  0.00    -0.393 OA
ATOM     33  H   UNL     1     147.615 136.559 150.394  1.00  0.00     0.210 HD
ENDBRANCH  29  32
ENDBRANCH   8  10
ENDBRANCH   1   8
TORSDOF 6
ENDMDL
MODEL 8
REMARK VINA RESULT:    -6.114      5.064      9.008
REMARK INTER + INTRA:          -9.513
REMARK INTER:                  -7.508
REMARK INTRA:                  -2.004
REMARK UNBOUND:                -1.433
REMARK SMILES C=C(CC[C@@H](C)[C@@H]1CC[C@]2(C)[C@H]3CC[C@@H]4C(C)(C)[C@H](O)CC[C@@]45C[C@]35CC[C@]12C)C(C)C
REMARK SMILES IDX 4 1 3 2 2 3 1 4 30 5 31 6 32 7 5 8 6 9 7 10 8 11 28 12 9 13
REMARK SMILES IDX 10 14 27 15 29 16 11 17 12 18 26 19 25 20 13 21 23 22 24 23
REMARK SMILES IDX 14 24 15 25 22 26 16 27 21 28 19 29 17 30 18 31 20 32
REMARK H PARENT 20 33
REMARK Flexibility Score: inf
ROOT
ATOM      1  C   UNL     1     139.327 131.592 140.075  1.00  0.00     0.008 C 
ENDROOT
BRANCH   1   2
ATOM      2  C   UNL     1     140.854 131.789 140.081  1.00  0.00     0.031 C 
BRANCH   2   3
ATOM      3  C   UNL     1     141.242 133.256 140.041  1.00  0.00    -0.075 C 
ATOM      4  C   UNL     1     140.865 134.012 138.995  1.00  0.00     0.008 C 
BRANCH   3   5
ATOM      5  C   UNL     1     142.018 133.864 141.209  1.00  0.00     0.008 C 
ATOM      6  C   UNL     1     141.184 134.913 141.968  1.00  0.00     0.012 C 
ATOM      7  C   UNL     1     142.522 132.765 142.153  1.00  0.00     0.012 C 
ENDBRANCH   3   5
ENDBRANCH   2   3
ENDBRANCH   1   2
BRANCH   1   8
ATOM      8  C   UNL     1     138.590 132.198 141.302  1.00  0.00    -0.010 C 
ATOM      9  C   UNL     1     137.370 133.007 140.799  1.00  0.00     0.008 C 
BRANCH   8  10
ATOM     10  C   UNL     1     138.170 131.185 142.444  1.00  0.00    -0.002 C 
ATOM     11  C   UNL     1     136.693 131.403 142.839  1.00  0.00     0.005 C 
ATOM     12  C   UNL     1     138.960 131.158 143.811  1.00  0.00    -0.024 C 
ATOM     13  C   UNL     1     136.568 131.240 144.345  1.00  0.00     0.008 C 
ATOM     14  C   UNL     1     137.879 130.610 144.853  1.00  0.00    -0.024 C 
ATOM     15  C   UNL     1     139.426 132.605 144.191  1.00  0.00     0.008 C 
ATOM     16  C   UNL     1     140.207 130.226 143.685  1.00  0.00     0.012 C 
ATOM     17  C   UNL     1     137.686 129.064 144.774  1.00  0.00     0.012 C 
ATOM     18  C   UNL     1     138.068 131.031 146.368  1.00  0.00     0.002 C 
ATOM     19  C   UNL     1     139.786 132.767 145.663  1.00  0.00     0.008 C 
ATOM     20  C   UNL     1     138.504 132.489 146.482  1.00  0.00    -0.020 C 
ATOM     21  C   UNL     1     139.112 130.171 147.177  1.00  0.00     0.005 C 
ATOM     22  C   UNL     1     138.351 132.834 148.012  1.00  0.00    -0.020 C 
ATOM     23  C   UNL     1     137.905 133.811 146.934  1.00  0.00     0.015 C 
ATOM     24  C   UNL     1     139.702 130.793 148.499  1.00  0.00     0.005 C 
ATOM     25  C   UNL     1     139.674 132.363 148.628  1.00  0.00     0.004 C 
ATOM     26  C   UNL     1     137.118 132.415 148.868  1.00  0.00     0.010 C 
ATOM     27  C   UNL     1     139.817 132.910 150.098  1.00  0.00    -0.006 C 
ATOM     28  C   UNL     1     137.226 133.090 150.235  1.00  0.00     0.033 C 
ATOM     29  C   UNL     1     138.522 132.685 150.970  1.00  0.00     0.120 C 
ATOM     30  C   UNL     1     141.039 132.261 150.795  1.00  0.00     0.014 C 
ATOM     31  C   UNL     1     140.109 134.432 150.025  1.00  0.00     0.014 C 
BRANCH  29  32
ATOM     32  O   UNL     1     138.402 131.345 151.378  1.00  0.00    -0.393 OA
ATOM     33  H   UNL     1     139.314 131.017 151.597  1.00  0.00     0.210 HD
ENDBRANCH  29  32
ENDBRANCH   8  10
ENDBRANCH   1   8
TORSDOF 6
ENDMDL
MODEL 9
REMARK VINA RESULT:    -6.105      6.695     10.590
REMARK INTER + INTRA:          -9.501
REMARK INTER:                  -8.159
REMARK INTRA:                  -1.343
REMARK UNBOUND:                -1.433
REMARK SMILES C=C(CC[C@@H](C)[C@@H]1CC[C@]2(C)[C@H]3CC[C@@H]4C(C)(C)[C@H](O)CC[C@@]45C[C@]35CC[C@]12C)C(C)C
REMARK SMILES IDX 4 1 3 2 2 3 1 4 30 5 31 6 32 7 5 8 6 9 7 10 8 11 28 12 9 13
REMARK SMILES IDX 10 14 27 15 29 16 11 17 12 18 26 19 25 20 13 21 23 22 24 23
REMARK SMILES IDX 14 24 15 25 22 26 16 27 21 28 19 29 17 30 18 31 20 32
REMARK H PARENT 20 33
REMARK Flexibility Score: inf
ROOT
ATOM      1  C   UNL     1     142.373 142.119 142.827  1.00  0.00     0.008 C 
ENDROOT
BRANCH   1   2
ATOM      2  C   UNL     1     141.543 142.150 144.123  1.00  0.00     0.031 C 
BRANCH   2   3
ATOM      3  C   UNL     1     142.253 142.896 145.239  1.00  0.00    -0.075 C 
ATOM      4  C   UNL     1     143.475 142.494 145.630  1.00  0.00     0.008 C 
BRANCH   3   5
ATOM      5  C   UNL     1     141.588 144.117 145.873  1.00  0.00     0.008 C 
ATOM      6  C   UNL     1     141.767 145.381 145.010  1.00  0.00     0.012 C 
ATOM      7  C   UNL     1     140.105 143.841 146.154  1.00  0.00     0.012 C 
ENDBRANCH   3   5
ENDBRANCH   2   3
ENDBRANCH   1   2
BRANCH   1   8
ATOM      8  C   UNL     1     142.995 140.736 142.487  1.00  0.00    -0.010 C 
ATOM      9  C   UNL     1     144.533 140.892 142.396  1.00  0.00     0.008 C 
BRANCH   8  10
ATOM     10  C   UNL     1     142.601 139.532 143.437  1.00  0.00    -0.002 C 
ATOM     11  C   UNL     1     143.863 138.762 143.881  1.00  0.00     0.005 C 
ATOM     12  C   UNL     1     141.599 138.420 142.934  1.00  0.00    -0.024 C 
ATOM     13  C   UNL     1     143.540 137.278 143.905  1.00  0.00     0.008 C 
ATOM     14  C   UNL     1     142.010 137.136 143.792  1.00  0.00    -0.024 C 
ATOM     15  C   UNL     1     141.806 138.163 141.401  1.00  0.00     0.008 C 
ATOM     16  C   UNL     1     140.127 138.876 143.191  1.00  0.00     0.012 C 
ATOM     17  C   UNL     1     141.454 137.174 145.249  1.00  0.00     0.012 C 
ATOM     18  C   UNL     1     141.697 135.720 143.156  1.00  0.00     0.002 C 
ATOM     19  C   UNL     1     141.234 136.836 140.919  1.00  0.00     0.008 C 
ATOM     20  C   UNL     1     141.996 135.712 141.659  1.00  0.00    -0.020 C 
ATOM     21  C   UNL     1     140.213 135.219 143.333  1.00  0.00     0.005 C 
ATOM     22  C   UNL     1     141.932 134.193 141.246  1.00  0.00    -0.020 C 
ATOM     23  C   UNL     1     143.028 135.108 140.721  1.00  0.00     0.015 C 
ATOM     24  C   UNL     1     139.700 134.092 142.357  1.00  0.00     0.005 C 
ATOM     25  C   UNL     1     140.443 133.949 140.975  1.00  0.00     0.004 C 
ATOM     26  C   UNL     1     142.577 133.047 142.083  1.00  0.00     0.010 C 
ATOM     27  C   UNL     1     140.239 132.563 140.255  1.00  0.00    -0.006 C 
ATOM     28  C   UNL     1     142.488 131.751 141.279  1.00  0.00     0.033 C 
ATOM     29  C   UNL     1     141.026 131.384 140.948  1.00  0.00     0.120 C 
ATOM     30  C   UNL     1     138.731 132.215 140.178  1.00  0.00     0.014 C 
ATOM     31  C   UNL     1     140.735 132.698 138.791  1.00  0.00     0.014 C 
BRANCH  29  32
ATOM     32  O   UNL     1     140.392 130.969 142.133  1.00  0.00    -0.393 OA
ATOM     33  H   UNL     1     141.095 130.871 142.829  1.00  0.00     0.210 HD
ENDBRANCH  29  32
ENDBRANCH   8  10
ENDBRANCH   1   8
TORSDOF 6
ENDMDL
