MODEL 1
REMARK VINA RESULT:    -5.423      0.000      0.000
REMARK INTER + INTRA:          -7.054
REMARK INTER:                  -6.691
REMARK INTRA:                  -0.363
REMARK UNBOUND:                -0.363
REMARK SMILES O=c1c(O)c(-c2cc(O)c(O)c(O)c2)oc2cc(O)cc(O)c12
REMARK SMILES IDX 5 1 3 2 2 3 1 4 23 5 21 6 20 7 18 8 17 9 16 10 15 11 6 12
REMARK SMILES IDX 7 13 8 14 14 15 10 16 12 17 9 18 11 20 13 22 4 24 22 26
REMARK SMILES IDX 19 28
REMARK H PARENT 9 19 11 21 13 23 4 25 22 27 19 29
REMARK Flexibility Score: inf
ROOT
ATOM      1  C   UNL     1     -21.650 -64.428  57.626  1.00  0.00     0.180 A 
ATOM      2  C   UNL     1     -21.068 -65.687  57.864  1.00  0.00     0.208 A 
ATOM      3  C   UNL     1     -21.857 -66.839  57.713  1.00  0.00     0.238 A 
ATOM      4  O   UNL     1     -21.343 -67.973  57.913  1.00  0.00    -0.285 OA
ATOM      5  C   UNL     1     -23.213 -66.712  57.347  1.00  0.00     0.111 A 
ATOM      6  C   UNL     1     -24.076 -67.821  57.178  1.00  0.00     0.134 A 
ATOM      7  C   UNL     1     -25.417 -67.611  56.823  1.00  0.00     0.093 A 
ATOM      8  C   UNL     1     -25.910 -66.318  56.634  1.00  0.00     0.123 A 
ATOM      9  C   UNL     1     -25.061 -65.218  56.799  1.00  0.00     0.094 A 
ATOM     10  C   UNL     1     -23.722 -65.406  57.152  1.00  0.00     0.146 A 
ATOM     11  O   UNL     1     -22.936 -64.345  57.298  1.00  0.00    -0.452 OA
ENDROOT
BRANCH   1  12
ATOM     12  C   UNL     1     -20.880 -63.169  57.747  1.00  0.00     0.029 A 
ATOM     13  C   UNL     1     -20.132 -62.663  56.669  1.00  0.00     0.062 A 
ATOM     14  C   UNL     1     -19.427 -61.458  56.795  1.00  0.00     0.162 A 
ATOM     15  C   UNL     1     -20.941 -62.433  58.940  1.00  0.00     0.062 A 
ATOM     16  C   UNL     1     -19.476 -60.740  58.003  1.00  0.00     0.200 A 
ATOM     17  C   UNL     1     -20.238 -61.229  59.072  1.00  0.00     0.162 A 
BRANCH  14  18
ATOM     18  O   UNL     1     -18.682 -60.968  55.722  1.00  0.00    -0.504 OA
ATOM     19  H   UNL     1     -18.495 -61.534  54.904  1.00  0.00     0.293 HD
ENDBRANCH  14  18
BRANCH  16  20
ATOM     20  O   UNL     1     -18.781 -59.540  58.152  1.00  0.00    -0.502 OA
ATOM     21  H   UNL     1     -17.866 -59.393  57.743  1.00  0.00     0.293 HD
ENDBRANCH  16  20
BRANCH  17  22
ATOM     22  O   UNL     1     -20.291 -60.509  60.264  1.00  0.00    -0.504 OA
ATOM     23  H   UNL     1     -19.676 -60.723  61.042  1.00  0.00     0.293 HD
ENDBRANCH  17  22
ENDBRANCH   1  12
BRANCH   2  24
ATOM     24  O   UNL     1     -19.735 -65.783  58.273  1.00  0.00    -0.502 OA
ATOM     25  H   UNL     1     -19.435 -66.424  58.997  1.00  0.00     0.293 HD
ENDBRANCH   2  24
BRANCH   6  26
ATOM     26  O   UNL     1     -23.614 -69.125  57.360  1.00  0.00    -0.507 OA
ATOM     27  H   UNL     1     -22.796 -69.474  56.874  1.00  0.00     0.293 HD
ENDBRANCH   6  26
BRANCH   8  28
ATOM     28  O   UNL     1     -27.245 -66.136  56.282  1.00  0.00    -0.508 OA
ATOM     29  H   UNL     1     -27.991 -66.633  56.756  1.00  0.00     0.293 HD
ENDBRANCH   8  28
TORSDOF 7
ENDMDL
MODEL 2
REMARK VINA RESULT:    -5.340      0.105      1.752
REMARK INTER + INTRA:          -6.951
REMARK INTER:                  -6.606
REMARK INTRA:                  -0.345
REMARK UNBOUND:                -0.363
REMARK SMILES O=c1c(O)c(-c2cc(O)c(O)c(O)c2)oc2cc(O)cc(O)c12
REMARK SMILES IDX 5 1 3 2 2 3 1 4 23 5 21 6 20 7 18 8 17 9 16 10 15 11 6 12
REMARK SMILES IDX 7 13 8 14 14 15 10 16 12 17 9 18 11 20 13 22 4 24 22 26
REMARK SMILES IDX 19 28
REMARK H PARENT 9 19 11 21 13 23 4 25 22 27 19 29
REMARK Flexibility Score: inf
ROOT
ATOM      1  C   UNL     1     -21.775 -64.412  57.627  1.00  0.00     0.180 A 
ATOM      2  C   UNL     1     -21.176 -65.669  57.833  1.00  0.00     0.208 A 
ATOM      3  C   UNL     1     -21.954 -66.827  57.672  1.00  0.00     0.238 A 
ATOM      4  O   UNL     1     -21.426 -67.959  57.844  1.00  0.00    -0.285 OA
ATOM      5  C   UNL     1     -23.316 -66.708  57.327  1.00  0.00     0.111 A 
ATOM      6  C   UNL     1     -24.170 -67.822  57.149  1.00  0.00     0.134 A 
ATOM      7  C   UNL     1     -25.518 -67.621  56.816  1.00  0.00     0.093 A 
ATOM      8  C   UNL     1     -26.027 -66.330  56.658  1.00  0.00     0.123 A 
ATOM      9  C   UNL     1     -25.188 -65.224  56.832  1.00  0.00     0.094 A 
ATOM     10  C   UNL     1     -23.842 -65.404  57.163  1.00  0.00     0.146 A 
ATOM     11  O   UNL     1     -23.066 -64.338  57.318  1.00  0.00    -0.452 OA
ENDROOT
BRANCH   1  12
ATOM     12  C   UNL     1     -21.016 -63.148  57.761  1.00  0.00     0.029 A 
ATOM     13  C   UNL     1     -21.015 -62.419  58.963  1.00  0.00     0.062 A 
ATOM     14  C   UNL     1     -20.273 -61.236  59.079  1.00  0.00     0.162 A 
ATOM     15  C   UNL     1     -20.233 -62.695  56.688  1.00  0.00     0.062 A 
ATOM     16  C   UNL     1     -19.510 -60.779  57.990  1.00  0.00     0.200 A 
ATOM     17  C   UNL     1     -19.490 -61.513  56.797  1.00  0.00     0.162 A 
BRANCH  14  18
ATOM     18  O   UNL     1     -20.284 -60.517  60.273  1.00  0.00    -0.504 OA
ATOM     19  H   UNL     1     -19.434 -60.336  60.793  1.00  0.00     0.293 HD
ENDBRANCH  14  18
BRANCH  16  20
ATOM     20  O   UNL     1     -18.765 -59.602  58.080  1.00  0.00    -0.502 OA
ATOM     21  H   UNL     1     -19.184 -58.688  57.954  1.00  0.00     0.293 HD
ENDBRANCH  16  20
BRANCH  17  22
ATOM     22  O   UNL     1     -18.725 -61.060  55.723  1.00  0.00    -0.504 OA
ATOM     23  H   UNL     1     -17.801 -60.667  55.857  1.00  0.00     0.293 HD
ENDBRANCH  17  22
ENDBRANCH   1  12
BRANCH   2  24
ATOM     24  O   UNL     1     -19.837 -65.759  58.222  1.00  0.00    -0.502 OA
ATOM     25  H   UNL     1     -19.170 -66.351  57.742  1.00  0.00     0.293 HD
ENDBRANCH   2  24
BRANCH   6  26
ATOM     26  O   UNL     1     -23.692 -69.125  57.301  1.00  0.00    -0.507 OA
ATOM     27  H   UNL     1     -22.704 -69.341  57.240  1.00  0.00     0.293 HD
ENDBRANCH   6  26
BRANCH   8  28
ATOM     28  O   UNL     1     -27.369 -66.156  56.328  1.00  0.00    -0.508 OA
ATOM     29  H   UNL     1     -28.045 -66.903  56.442  1.00  0.00     0.293 HD
ENDBRANCH   8  28
TORSDOF 7
ENDMDL
MODEL 3
REMARK VINA RESULT:    -5.232      3.000      5.285
REMARK INTER + INTRA:          -6.819
REMARK INTER:                  -6.469
REMARK INTRA:                  -0.349
REMARK UNBOUND:                -0.363
REMARK SMILES O=c1c(O)c(-c2cc(O)c(O)c(O)c2)oc2cc(O)cc(O)c12
REMARK SMILES IDX 5 1 3 2 2 3 1 4 23 5 21 6 20 7 18 8 17 9 16 10 15 11 6 12
REMARK SMILES IDX 7 13 8 14 14 15 10 16 12 17 9 18 11 20 13 22 4 24 22 26
REMARK SMILES IDX 19 28
REMARK H PARENT 9 19 11 21 13 23 4 25 22 27 19 29
REMARK Flexibility Score: inf
ROOT
ATOM      1  C   UNL     1     -26.139 -64.213  56.299  1.00  0.00     0.180 A 
ATOM      2  C   UNL     1     -26.741 -63.656  55.155  1.00  0.00     0.208 A 
ATOM      3  C   UNL     1     -27.839 -64.313  54.578  1.00  0.00     0.238 A 
ATOM      4  O   UNL     1     -28.393 -63.818  53.559  1.00  0.00    -0.285 OA
ATOM      5  C   UNL     1     -28.303 -65.520  55.141  1.00  0.00     0.111 A 
ATOM      6  C   UNL     1     -29.400 -66.246  54.619  1.00  0.00     0.134 A 
ATOM      7  C   UNL     1     -29.796 -67.445  55.230  1.00  0.00     0.093 A 
ATOM      8  C   UNL     1     -29.117 -67.931  56.350  1.00  0.00     0.123 A 
ATOM      9  C   UNL     1     -28.032 -67.218  56.871  1.00  0.00     0.094 A 
ATOM     10  C   UNL     1     -27.624 -66.020  56.277  1.00  0.00     0.146 A 
ATOM     11  O   UNL     1     -26.594 -65.360  56.794  1.00  0.00    -0.452 OA
ENDROOT
BRANCH   1  12
ATOM     12  C   UNL     1     -24.989 -63.570  56.975  1.00  0.00     0.029 A 
ATOM     13  C   UNL     1     -23.665 -63.933  56.670  1.00  0.00     0.062 A 
ATOM     14  C   UNL     1     -22.588 -63.298  57.304  1.00  0.00     0.162 A 
ATOM     15  C   UNL     1     -25.218 -62.535  57.895  1.00  0.00     0.062 A 
ATOM     16  C   UNL     1     -22.830 -62.278  58.241  1.00  0.00     0.200 A 
ATOM     17  C   UNL     1     -24.146 -61.897  58.531  1.00  0.00     0.162 A 
BRANCH  14  18
ATOM     18  O   UNL     1     -21.280 -63.671  57.000  1.00  0.00    -0.504 OA
ATOM     19  H   UNL     1     -20.992 -63.876  56.051  1.00  0.00     0.293 HD
ENDBRANCH  14  18
BRANCH  16  20
ATOM     20  O   UNL     1     -21.774 -61.633  58.886  1.00  0.00    -0.502 OA
ATOM     21  H   UNL     1     -21.618 -61.720  59.883  1.00  0.00     0.293 HD
ENDBRANCH  16  20
BRANCH  17  22
ATOM     22  O   UNL     1     -24.380 -60.879  59.455  1.00  0.00    -0.504 OA
ATOM     23  H   UNL     1     -23.669 -60.193  59.681  1.00  0.00     0.293 HD
ENDBRANCH  17  22
ENDBRANCH   1  12
BRANCH   2  24
ATOM     24  O   UNL     1     -26.231 -62.485  54.587  1.00  0.00    -0.502 OA
ATOM     25  H   UNL     1     -26.801 -61.859  54.032  1.00  0.00     0.293 HD
ENDBRANCH   2  24
BRANCH   6  26
ATOM     26  O   UNL     1     -30.099 -65.788  53.501  1.00  0.00    -0.507 OA
ATOM     27  H   UNL     1     -31.061 -65.475  53.564  1.00  0.00     0.293 HD
ENDBRANCH   6  26
BRANCH   8  28
ATOM     28  O   UNL     1     -29.528 -69.125  56.939  1.00  0.00    -0.508 OA
ATOM     29  H   UNL     1     -30.234 -69.713  56.509  1.00  0.00     0.293 HD
ENDBRANCH   8  28
TORSDOF 7
ENDMDL
MODEL 4
REMARK VINA RESULT:    -5.213      2.643      4.980
REMARK INTER + INTRA:          -6.795
REMARK INTER:                  -6.465
REMARK INTRA:                  -0.330
REMARK UNBOUND:                -0.363
REMARK SMILES O=c1c(O)c(-c2cc(O)c(O)c(O)c2)oc2cc(O)cc(O)c12
REMARK SMILES IDX 5 1 3 2 2 3 1 4 23 5 21 6 20 7 18 8 17 9 16 10 15 11 6 12
REMARK SMILES IDX 7 13 8 14 14 15 10 16 12 17 9 18 11 20 13 22 4 24 22 26
REMARK SMILES IDX 19 28
REMARK H PARENT 9 19 11 21 13 23 4 25 22 27 19 29
REMARK Flexibility Score: inf
ROOT
ATOM      1  C   UNL     1     -23.667 -65.885  56.392  1.00  0.00     0.180 A 
ATOM      2  C   UNL     1     -24.829 -65.410  57.030  1.00  0.00     0.208 A 
ATOM      3  C   UNL     1     -26.020 -65.322  56.293  1.00  0.00     0.238 A 
ATOM      4  O   UNL     1     -27.070 -64.909  56.858  1.00  0.00    -0.285 OA
ATOM      5  C   UNL     1     -26.027 -65.690  54.932  1.00  0.00     0.111 A 
ATOM      6  C   UNL     1     -27.183 -65.627  54.119  1.00  0.00     0.134 A 
ATOM      7  C   UNL     1     -27.106 -66.002  52.769  1.00  0.00     0.093 A 
ATOM      8  C   UNL     1     -25.898 -66.436  52.218  1.00  0.00     0.123 A 
ATOM      9  C   UNL     1     -24.752 -66.501  53.017  1.00  0.00     0.094 A 
ATOM     10  C   UNL     1     -24.808 -66.133  54.365  1.00  0.00     0.146 A 
ATOM     11  O   UNL     1     -23.707 -66.208  55.103  1.00  0.00    -0.452 OA
ENDROOT
BRANCH   1  12
ATOM     12  C   UNL     1     -22.378 -66.023  57.106  1.00  0.00     0.029 A 
ATOM     13  C   UNL     1     -21.543 -64.914  57.330  1.00  0.00     0.062 A 
ATOM     14  C   UNL     1     -20.336 -65.060  58.028  1.00  0.00     0.162 A 
ATOM     15  C   UNL     1     -22.004 -67.273  57.623  1.00  0.00     0.062 A 
ATOM     16  C   UNL     1     -19.961 -66.321  58.522  1.00  0.00     0.200 A 
ATOM     17  C   UNL     1     -20.799 -67.425  58.321  1.00  0.00     0.162 A 
BRANCH  14  18
ATOM     18  O   UNL     1     -19.512 -63.955  58.238  1.00  0.00    -0.504 OA
ATOM     19  H   UNL     1     -19.892 -63.046  58.475  1.00  0.00     0.293 HD
ENDBRANCH  14  18
BRANCH  16  20
ATOM     20  O   UNL     1     -18.763 -66.492  59.217  1.00  0.00    -0.502 OA
ATOM     21  H   UNL     1     -17.930 -65.960  58.994  1.00  0.00     0.293 HD
ENDBRANCH  16  20
BRANCH  17  22
ATOM     22  O   UNL     1     -20.427 -68.672  58.819  1.00  0.00    -0.504 OA
ATOM     23  H   UNL     1     -20.682 -68.968  59.755  1.00  0.00     0.293 HD
ENDBRANCH  17  22
ENDBRANCH   1  12
BRANCH   2  24
ATOM     24  O   UNL     1     -24.785 -65.006  58.367  1.00  0.00    -0.502 OA
ATOM     25  H   UNL     1     -25.204 -64.141  58.687  1.00  0.00     0.293 HD
ENDBRANCH   2  24
BRANCH   6  26
ATOM     26  O   UNL     1     -28.405 -65.197  54.638  1.00  0.00    -0.507 OA
ATOM     27  H   UNL     1     -29.154 -65.847  54.848  1.00  0.00     0.293 HD
ENDBRANCH   6  26
BRANCH   8  28
ATOM     28  O   UNL     1     -25.847 -66.802  50.875  1.00  0.00    -0.508 OA
ATOM     29  H   UNL     1     -24.997 -66.706  50.331  1.00  0.00     0.293 HD
ENDBRANCH   8  28
TORSDOF 7
ENDMDL
MODEL 5
REMARK VINA RESULT:    -5.181     10.241     12.612
REMARK INTER + INTRA:          -6.755
REMARK INTER:                  -6.391
REMARK INTRA:                  -0.364
REMARK UNBOUND:                -0.363
REMARK SMILES O=c1c(O)c(-c2cc(O)c(O)c(O)c2)oc2cc(O)cc(O)c12
REMARK SMILES IDX 5 1 3 2 2 3 1 4 23 5 21 6 20 7 18 8 17 9 16 10 15 11 6 12
REMARK SMILES IDX 7 13 8 14 14 15 10 16 12 17 9 18 11 20 13 22 4 24 22 26
REMARK SMILES IDX 19 28
REMARK H PARENT 9 19 11 21 13 23 4 25 22 27 19 29
REMARK Flexibility Score: inf
ROOT
ATOM      1  C   UNL     1     -31.431 -58.645  59.401  1.00  0.00     0.180 A 
ATOM      2  C   UNL     1     -32.540 -57.796  59.571  1.00  0.00     0.208 A 
ATOM      3  C   UNL     1     -32.870 -56.895  58.546  1.00  0.00     0.238 A 
ATOM      4  O   UNL     1     -33.868 -56.137  58.683  1.00  0.00    -0.285 OA
ATOM      5  C   UNL     1     -32.077 -56.846  57.381  1.00  0.00     0.111 A 
ATOM      6  C   UNL     1     -32.338 -55.966  56.303  1.00  0.00     0.134 A 
ATOM      7  C   UNL     1     -31.495 -55.970  55.181  1.00  0.00     0.093 A 
ATOM      8  C   UNL     1     -30.400 -56.834  55.116  1.00  0.00     0.123 A 
ATOM      9  C   UNL     1     -30.137 -57.707  56.178  1.00  0.00     0.094 A 
ATOM     10  C   UNL     1     -30.965 -57.719  57.304  1.00  0.00     0.146 A 
ATOM     11  O   UNL     1     -30.697 -58.560  58.296  1.00  0.00    -0.452 OA
ENDROOT
BRANCH   1  12
ATOM     12  C   UNL     1     -31.031 -59.633  60.429  1.00  0.00     0.029 A 
ATOM     13  C   UNL     1     -31.510 -60.954  60.399  1.00  0.00     0.062 A 
ATOM     14  C   UNL     1     -31.103 -61.882  61.368  1.00  0.00     0.162 A 
ATOM     15  C   UNL     1     -30.111 -59.264  61.421  1.00  0.00     0.062 A 
ATOM     16  C   UNL     1     -30.198 -61.495  62.371  1.00  0.00     0.200 A 
ATOM     17  C   UNL     1     -29.700 -60.186  62.392  1.00  0.00     0.162 A 
BRANCH  14  18
ATOM     18  O   UNL     1     -31.590 -63.188  61.333  1.00  0.00    -0.504 OA
ATOM     19  H   UNL     1     -32.419 -63.432  60.805  1.00  0.00     0.293 HD
ENDBRANCH  14  18
BRANCH  16  20
ATOM     20  O   UNL     1     -29.781 -62.400  63.347  1.00  0.00    -0.502 OA
ATOM     21  H   UNL     1     -30.392 -62.707  64.094  1.00  0.00     0.293 HD
ENDBRANCH  16  20
BRANCH  17  22
ATOM     22  O   UNL     1     -28.796 -59.810  63.384  1.00  0.00    -0.504 OA
ATOM     23  H   UNL     1     -28.394 -58.879  63.411  1.00  0.00     0.293 HD
ENDBRANCH  17  22
ENDBRANCH   1  12
BRANCH   2  24
ATOM     24  O   UNL     1     -33.281 -57.829  60.756  1.00  0.00    -0.502 OA
ATOM     25  H   UNL     1     -34.279 -57.660  60.777  1.00  0.00     0.293 HD
ENDBRANCH   2  24
BRANCH   6  26
ATOM     26  O   UNL     1     -33.423 -55.090  56.338  1.00  0.00    -0.507 OA
ATOM     27  H   UNL     1     -34.144 -55.161  57.047  1.00  0.00     0.293 HD
ENDBRANCH   6  26
BRANCH   8  28
ATOM     28  O   UNL     1     -29.578 -56.819  53.992  1.00  0.00    -0.508 OA
ATOM     29  H   UNL     1     -29.331 -57.672  53.503  1.00  0.00     0.293 HD
ENDBRANCH   8  28
TORSDOF 7
ENDMDL
MODEL 6
REMARK VINA RESULT:    -5.050      4.814      6.224
REMARK INTER + INTRA:          -6.594
REMARK INTER:                  -6.230
REMARK INTRA:                  -0.364
REMARK UNBOUND:                -0.363
REMARK SMILES O=c1c(O)c(-c2cc(O)c(O)c(O)c2)oc2cc(O)cc(O)c12
REMARK SMILES IDX 5 1 3 2 2 3 1 4 23 5 21 6 20 7 18 8 17 9 16 10 15 11 6 12
REMARK SMILES IDX 7 13 8 14 14 15 10 16 12 17 9 18 11 20 13 22 4 24 22 26
REMARK SMILES IDX 19 28
REMARK H PARENT 9 19 11 21 13 23 4 25 22 27 19 29
REMARK Flexibility Score: inf
ROOT
ATOM      1  C   UNL     1     -23.960 -66.523  54.900  1.00  0.00     0.180 A 
ATOM      2  C   UNL     1     -22.606 -66.847  54.694  1.00  0.00     0.208 A 
ATOM      3  C   UNL     1     -21.928 -67.588  55.675  1.00  0.00     0.238 A 
ATOM      4  O   UNL     1     -20.718 -67.894  55.496  1.00  0.00    -0.285 OA
ATOM      5  C   UNL     1     -22.607 -67.975  56.849  1.00  0.00     0.111 A 
ATOM      6  C   UNL     1     -21.997 -68.719  57.887  1.00  0.00     0.134 A 
ATOM      7  C   UNL     1     -22.738 -69.057  59.029  1.00  0.00     0.093 A 
ATOM      8  C   UNL     1     -24.073 -68.666  59.154  1.00  0.00     0.123 A 
ATOM      9  C   UNL     1     -24.682 -67.931  58.131  1.00  0.00     0.094 A 
ATOM     10  C   UNL     1     -23.961 -67.586  56.984  1.00  0.00     0.146 A 
ATOM     11  O   UNL     1     -24.564 -66.891  56.026  1.00  0.00    -0.452 OA
ENDROOT
BRANCH   1  12
ATOM     12  C   UNL     1     -24.747 -65.760  53.904  1.00  0.00     0.029 A 
ATOM     13  C   UNL     1     -25.409 -66.406  52.846  1.00  0.00     0.062 A 
ATOM     14  C   UNL     1     -26.168 -65.669  51.926  1.00  0.00     0.162 A 
ATOM     15  C   UNL     1     -24.885 -64.372  54.050  1.00  0.00     0.062 A 
ATOM     16  C   UNL     1     -26.281 -64.275  52.068  1.00  0.00     0.200 A 
ATOM     17  C   UNL     1     -25.641 -63.630  53.133  1.00  0.00     0.162 A 
BRANCH  14  18
ATOM     18  O   UNL     1     -26.816 -66.318  50.875  1.00  0.00    -0.504 OA
ATOM     19  H   UNL     1     -27.721 -66.013  50.539  1.00  0.00     0.293 HD
ENDBRANCH  14  18
BRANCH  16  20
ATOM     20  O   UNL     1     -27.029 -63.521  51.163  1.00  0.00    -0.502 OA
ATOM     21  H   UNL     1     -27.573 -63.950  50.424  1.00  0.00     0.293 HD
ENDBRANCH  16  20
BRANCH  17  22
ATOM     22  O   UNL     1     -25.763 -62.249  53.275  1.00  0.00    -0.504 OA
ATOM     23  H   UNL     1     -24.973 -61.670  53.534  1.00  0.00     0.293 HD
ENDBRANCH  17  22
ENDBRANCH   1  12
BRANCH   2  24
ATOM     24  O   UNL     1     -21.942 -66.410  53.545  1.00  0.00    -0.502 OA
ATOM     25  H   UNL     1     -21.087 -66.841  53.215  1.00  0.00     0.293 HD
ENDBRANCH   2  24
BRANCH   6  26
ATOM     26  O   UNL     1     -20.665 -69.124  57.793  1.00  0.00    -0.507 OA
ATOM     27  H   UNL     1     -20.409 -70.101  57.700  1.00  0.00     0.293 HD
ENDBRANCH   6  26
BRANCH   8  28
ATOM     28  O   UNL     1     -24.787 -69.013  60.299  1.00  0.00    -0.508 OA
ATOM     29  H   UNL     1     -25.785 -69.186  60.269  1.00  0.00     0.293 HD
ENDBRANCH   8  28
TORSDOF 7
ENDMDL
MODEL 7
REMARK VINA RESULT:    -5.050      1.875      4.077
REMARK INTER + INTRA:          -6.594
REMARK INTER:                  -6.401
REMARK INTRA:                  -0.193
REMARK UNBOUND:                -0.363
REMARK SMILES O=c1c(O)c(-c2cc(O)c(O)c(O)c2)oc2cc(O)cc(O)c12
REMARK SMILES IDX 5 1 3 2 2 3 1 4 23 5 21 6 20 7 18 8 17 9 16 10 15 11 6 12
REMARK SMILES IDX 7 13 8 14 14 15 10 16 12 17 9 18 11 20 13 22 4 24 22 26
REMARK SMILES IDX 19 28
REMARK H PARENT 9 19 11 21 13 23 4 25 22 27 19 29
REMARK Flexibility Score: inf
ROOT
ATOM      1  C   UNL     1     -20.783 -64.373  57.396  1.00  0.00     0.180 A 
ATOM      2  C   UNL     1     -22.060 -64.848  57.039  1.00  0.00     0.208 A 
ATOM      3  C   UNL     1     -22.479 -66.098  57.522  1.00  0.00     0.238 A 
ATOM      4  O   UNL     1     -23.625 -66.528  57.218  1.00  0.00    -0.285 OA
ATOM      5  C   UNL     1     -21.611 -66.857  58.334  1.00  0.00     0.111 A 
ATOM      6  C   UNL     1     -21.955 -68.127  58.858  1.00  0.00     0.134 A 
ATOM      7  C   UNL     1     -21.032 -68.826  59.650  1.00  0.00     0.093 A 
ATOM      8  C   UNL     1     -19.775 -68.281  59.927  1.00  0.00     0.123 A 
ATOM      9  C   UNL     1     -19.430 -67.027  59.413  1.00  0.00     0.094 A 
ATOM     10  C   UNL     1     -20.336 -66.314  58.623  1.00  0.00     0.146 A 
ATOM     11  O   UNL     1     -19.986 -65.123  58.150  1.00  0.00    -0.452 OA
ENDROOT
BRANCH   1  12
ATOM     12  C   UNL     1     -20.278 -63.058  56.941  1.00  0.00     0.029 A 
ATOM     13  C   UNL     1     -19.987 -62.031  57.856  1.00  0.00     0.062 A 
ATOM     14  C   UNL     1     -19.487 -60.799  57.409  1.00  0.00     0.162 A 
ATOM     15  C   UNL     1     -20.026 -62.848  55.577  1.00  0.00     0.062 A 
ATOM     16  C   UNL     1     -19.260 -60.592  56.037  1.00  0.00     0.200 A 
ATOM     17  C   UNL     1     -19.528 -61.620  55.124  1.00  0.00     0.162 A 
BRANCH  14  18
ATOM     18  O   UNL     1     -19.209 -59.784  58.323  1.00  0.00    -0.504 OA
ATOM     19  H   UNL     1     -19.708 -59.709  59.201  1.00  0.00     0.293 HD
ENDBRANCH  14  18
BRANCH  16  20
ATOM     20  O   UNL     1     -18.767 -59.374  55.568  1.00  0.00    -0.502 OA
ATOM     21  H   UNL     1     -18.367 -59.275  54.643  1.00  0.00     0.293 HD
ENDBRANCH  16  20
BRANCH  17  22
ATOM     22  O   UNL     1     -19.294 -61.413  53.766  1.00  0.00    -0.504 OA
ATOM     23  H   UNL     1     -19.600 -62.079  53.066  1.00  0.00     0.293 HD
ENDBRANCH  17  22
ENDBRANCH   1  12
BRANCH   2  24
ATOM     24  O   UNL     1     -22.881 -64.098  56.193  1.00  0.00    -0.502 OA
ATOM     25  H   UNL     1     -23.486 -63.362  56.536  1.00  0.00     0.293 HD
ENDBRANCH   2  24
BRANCH   6  26
ATOM     26  O   UNL     1     -23.201 -68.698  58.598  1.00  0.00    -0.507 OA
ATOM     27  H   UNL     1     -23.412 -69.656  58.851  1.00  0.00     0.293 HD
ENDBRANCH   6  26
BRANCH   8  28
ATOM     28  O   UNL     1     -18.876 -68.996  60.716  1.00  0.00    -0.508 OA
ATOM     29  H   UNL     1     -17.879 -68.819  60.676  1.00  0.00     0.293 HD
ENDBRANCH   8  28
TORSDOF 7
ENDMDL
MODEL 8
REMARK VINA RESULT:    -5.015      2.695      5.683
REMARK INTER + INTRA:          -6.551
REMARK INTER:                  -6.247
REMARK INTRA:                  -0.304
REMARK UNBOUND:                -0.363
REMARK SMILES O=c1c(O)c(-c2cc(O)c(O)c(O)c2)oc2cc(O)cc(O)c12
REMARK SMILES IDX 5 1 3 2 2 3 1 4 23 5 21 6 20 7 18 8 17 9 16 10 15 11 6 12
REMARK SMILES IDX 7 13 8 14 14 15 10 16 12 17 9 18 11 20 13 22 4 24 22 26
REMARK SMILES IDX 19 28
REMARK H PARENT 9 19 11 21 13 23 4 25 22 27 19 29
REMARK Flexibility Score: inf
ROOT
ATOM      1  C   UNL     1     -23.721 -65.071  57.723  1.00  0.00     0.180 A 
ATOM      2  C   UNL     1     -23.874 -66.451  57.952  1.00  0.00     0.208 A 
ATOM      3  C   UNL     1     -22.727 -67.255  58.043  1.00  0.00     0.238 A 
ATOM      4  O   UNL     1     -22.851 -68.491  58.259  1.00  0.00    -0.285 OA
ATOM      5  C   UNL     1     -21.453 -66.671  57.887  1.00  0.00     0.111 A 
ATOM      6  C   UNL     1     -20.248 -67.411  57.961  1.00  0.00     0.134 A 
ATOM      7  C   UNL     1     -19.019 -66.758  57.784  1.00  0.00     0.093 A 
ATOM      8  C   UNL     1     -18.971 -65.384  57.534  1.00  0.00     0.123 A 
ATOM      9  C   UNL     1     -20.158 -64.648  57.461  1.00  0.00     0.094 A 
ATOM     10  C   UNL     1     -21.393 -65.280  57.635  1.00  0.00     0.146 A 
ATOM     11  O   UNL     1     -22.505 -64.558  57.565  1.00  0.00    -0.452 OA
ENDROOT
BRANCH   1  12
ATOM     12  C   UNL     1     -24.882 -64.156  57.631  1.00  0.00     0.029 A 
ATOM     13  C   UNL     1     -25.692 -64.115  56.483  1.00  0.00     0.062 A 
ATOM     14  C   UNL     1     -26.800 -63.258  56.423  1.00  0.00     0.162 A 
ATOM     15  C   UNL     1     -25.218 -63.354  58.732  1.00  0.00     0.062 A 
ATOM     16  C   UNL     1     -27.115 -62.442  57.524  1.00  0.00     0.200 A 
ATOM     17  C   UNL     1     -26.324 -62.495  58.678  1.00  0.00     0.162 A 
BRANCH  14  18
ATOM     18  O   UNL     1     -27.593 -63.220  55.277  1.00  0.00    -0.504 OA
ATOM     19  H   UNL     1     -28.390 -62.600  55.203  1.00  0.00     0.293 HD
ENDBRANCH  14  18
BRANCH  16  20
ATOM     20  O   UNL     1     -28.210 -61.579  57.486  1.00  0.00    -0.502 OA
ATOM     21  H   UNL     1     -29.140 -61.898  57.240  1.00  0.00     0.293 HD
ENDBRANCH  16  20
BRANCH  17  22
ATOM     22  O   UNL     1     -26.644 -61.690  59.770  1.00  0.00    -0.504 OA
ATOM     23  H   UNL     1     -27.519 -61.798  60.271  1.00  0.00     0.293 HD
ENDBRANCH  17  22
ENDBRANCH   1  12
BRANCH   2  24
ATOM     24  O   UNL     1     -25.149 -67.014  58.054  1.00  0.00    -0.502 OA
ATOM     25  H   UNL     1     -25.948 -66.490  58.390  1.00  0.00     0.293 HD
ENDBRANCH   2  24
BRANCH   6  26
ATOM     26  O   UNL     1     -20.262 -68.784  58.208  1.00  0.00    -0.507 OA
ATOM     27  H   UNL     1     -20.998 -69.221  58.751  1.00  0.00     0.293 HD
ENDBRANCH   6  26
BRANCH   8  28
ATOM     28  O   UNL     1     -17.738 -64.760  57.362  1.00  0.00    -0.508 OA
ATOM     29  H   UNL     1     -16.964 -65.231  56.908  1.00  0.00     0.293 HD
ENDBRANCH   8  28
TORSDOF 7
ENDMDL
MODEL 9
REMARK VINA RESULT:    -4.095      3.044      6.463
REMARK INTER + INTRA:          -5.415
REMARK INTER:                  -5.095
REMARK INTRA:                  -0.320
REMARK UNBOUND:                -0.363
REMARK SMILES O=c1c(O)c(-c2cc(O)c(O)c(O)c2)oc2cc(O)cc(O)c12
REMARK SMILES IDX 5 1 3 2 2 3 1 4 23 5 21 6 20 7 18 8 17 9 16 10 15 11 6 12
REMARK SMILES IDX 7 13 8 14 14 15 10 16 12 17 9 18 11 20 13 22 4 24 22 26
REMARK SMILES IDX 19 28
REMARK H PARENT 9 19 11 21 13 23 4 25 22 27 19 29
REMARK Flexibility Score: inf
ROOT
ATOM      1  C   UNL     1     -24.122 -66.230  57.182  1.00  0.00     0.180 A 
ATOM      2  C   UNL     1     -24.277 -67.451  57.864  1.00  0.00     0.208 A 
ATOM      3  C   UNL     1     -23.155 -68.036  58.471  1.00  0.00     0.238 A 
ATOM      4  O   UNL     1     -23.284 -69.125  59.095  1.00  0.00    -0.285 OA
ATOM      5  C   UNL     1     -21.899 -67.403  58.371  1.00  0.00     0.111 A 
ATOM      6  C   UNL     1     -20.719 -67.928  58.951  1.00  0.00     0.134 A 
ATOM      7  C   UNL     1     -19.504 -67.243  58.798  1.00  0.00     0.093 A 
ATOM      8  C   UNL     1     -19.447 -66.048  58.078  1.00  0.00     0.123 A 
ATOM      9  C   UNL     1     -20.609 -65.523  57.504  1.00  0.00     0.094 A 
ATOM     10  C   UNL     1     -21.830 -66.190  57.646  1.00  0.00     0.146 A 
ATOM     11  O   UNL     1     -22.920 -65.669  57.094  1.00  0.00    -0.452 OA
ENDROOT
BRANCH   1  12
ATOM     12  C   UNL     1     -25.261 -65.542  56.531  1.00  0.00     0.029 A 
ATOM     13  C   UNL     1     -25.871 -64.420  57.120  1.00  0.00     0.062 A 
ATOM     14  C   UNL     1     -26.933 -63.768  56.478  1.00  0.00     0.162 A 
ATOM     15  C   UNL     1     -25.705 -65.978  55.274  1.00  0.00     0.062 A 
ATOM     16  C   UNL     1     -27.385 -64.228  55.229  1.00  0.00     0.200 A 
ATOM     17  C   UNL     1     -26.766 -65.331  54.628  1.00  0.00     0.162 A 
BRANCH  14  18
ATOM     18  O   UNL     1     -27.536 -62.661  57.074  1.00  0.00    -0.504 OA
ATOM     19  H   UNL     1     -28.542 -62.553  57.099  1.00  0.00     0.293 HD
ENDBRANCH  14  18
BRANCH  16  20
ATOM     20  O   UNL     1     -28.442 -63.597  54.573  1.00  0.00    -0.502 OA
ATOM     21  H   UNL     1     -28.386 -63.323  53.600  1.00  0.00     0.293 HD
ENDBRANCH  16  20
BRANCH  17  22
ATOM     22  O   UNL     1     -27.213 -65.779  53.386  1.00  0.00    -0.504 OA
ATOM     23  H   UNL     1     -27.565 -66.720  53.256  1.00  0.00     0.293 HD
ENDBRANCH  17  22
ENDBRANCH   1  12
BRANCH   2  24
ATOM     24  O   UNL     1     -25.523 -68.083  57.907  1.00  0.00    -0.502 OA
ATOM     25  H   UNL     1     -26.094 -68.214  57.081  1.00  0.00     0.293 HD
ENDBRANCH   2  24
BRANCH   6  26
ATOM     26  O   UNL     1     -20.744 -69.121  59.675  1.00  0.00    -0.507 OA
ATOM     27  H   UNL     1     -21.560 -69.408  60.203  1.00  0.00     0.293 HD
ENDBRANCH   6  26
BRANCH   8  28
ATOM     28  O   UNL     1     -18.228 -65.387  57.940  1.00  0.00    -0.508 OA
ATOM     29  H   UNL     1     -17.548 -65.364  58.692  1.00  0.00     0.293 HD
ENDBRANCH   8  28
TORSDOF 7
ENDMDL
