MODEL 1
REMARK VINA RESULT:    -5.397      0.000      0.000
REMARK INTER + INTRA:          -7.196
REMARK INTER:                  -6.975
REMARK INTRA:                  -0.221
REMARK UNBOUND:                -0.221
REMARK SMILES CCO[C@@H]1O[C@H](CO)[C@@H](O)[C@@H](O)[C@H]1O
REMARK SMILES IDX 4 1 13 2 11 3 9 4 6 5 5 6 3 7 2 8 1 9 14 10 12 12 7 14 8 15
REMARK SMILES IDX 10 17
REMARK H PARENT 14 11 12 13 8 16 10 18
REMARK Flexibility Score: inf
ROOT
ATOM      1  C   UNL     1      22.683   5.423  37.477  1.00  0.00     0.281 C 
ATOM      2  C   UNL     1      22.174   4.556  38.639  1.00  0.00     0.202 C 
ATOM      3  C   UNL     1      23.325   3.732  39.233  1.00  0.00     0.179 C 
ATOM      4  C   UNL     1      24.503   4.646  39.601  1.00  0.00     0.177 C 
ATOM      5  C   UNL     1      24.886   5.565  38.414  1.00  0.00     0.178 C 
ATOM      6  O   UNL     1      23.772   6.260  37.858  1.00  0.00    -0.341 OA
ENDROOT
BRANCH   1   7
ATOM      7  O   UNL     1      23.017   4.604  36.368  1.00  0.00    -0.350 OA
BRANCH   7   8
ATOM      8  C   UNL     1      22.779   5.274  35.143  1.00  0.00     0.160 C 
ATOM      9  C   UNL     1      21.400   5.923  35.157  1.00  0.00     0.035 C 
ENDBRANCH   7   8
ENDBRANCH   1   7
BRANCH   2  10
ATOM     10  O   UNL     1      21.599   5.387  39.617  1.00  0.00    -0.385 OA
ATOM     11  H   UNL     1      22.098   6.245  39.599  1.00  0.00     0.211 HD
ENDBRANCH   2  10
BRANCH   3  12
ATOM     12  O   UNL     1      22.874   3.029  40.363  1.00  0.00    -0.387 OA
ATOM     13  H   UNL     1      23.367   3.394  41.144  1.00  0.00     0.211 HD
ENDBRANCH   3  12
BRANCH   5  14
ATOM     14  C   UNL     1      25.739   4.856  37.340  1.00  0.00     0.191 C 
BRANCH  14  15
ATOM     15  O   UNL     1      27.093   4.850  37.709  1.00  0.00    -0.394 OA
ATOM     16  H   UNL     1      27.594   4.453  36.950  1.00  0.00     0.210 HD
ENDBRANCH  14  15
ENDBRANCH   5  14
BRANCH   4  17
ATOM     17  O   UNL     1      24.162   5.429  40.719  1.00  0.00    -0.387 OA
ATOM     18  H   UNL     1      23.179   5.568  40.684  1.00  0.00     0.211 HD
ENDBRANCH   4  17
TORSDOF 7
ENDMDL
MODEL 2
REMARK VINA RESULT:    -5.334      1.823      3.770
REMARK INTER + INTRA:          -7.113
REMARK INTER:                  -6.920
REMARK INTRA:                  -0.193
REMARK UNBOUND:                -0.221
REMARK SMILES CCO[C@@H]1O[C@H](CO)[C@@H](O)[C@@H](O)[C@H]1O
REMARK SMILES IDX 4 1 13 2 11 3 9 4 6 5 5 6 3 7 2 8 1 9 14 10 12 12 7 14 8 15
REMARK SMILES IDX 10 17
REMARK H PARENT 14 11 12 13 8 16 10 18
REMARK Flexibility Score: inf
ROOT
ATOM      1  C   UNL     1      23.973   3.148  36.027  1.00  0.00     0.281 C 
ATOM      2  C   UNL     1      25.362   3.547  35.507  1.00  0.00     0.202 C 
ATOM      3  C   UNL     1      25.877   4.783  36.258  1.00  0.00     0.179 C 
ATOM      4  C   UNL     1      25.817   4.551  37.776  1.00  0.00     0.177 C 
ATOM      5  C   UNL     1      24.418   4.045  38.206  1.00  0.00     0.178 C 
ATOM      6  O   UNL     1      23.959   2.936  37.437  1.00  0.00    -0.341 OA
ENDROOT
BRANCH   1   7
ATOM      7  O   UNL     1      23.010   4.111  35.633  1.00  0.00    -0.350 OA
BRANCH   7   8
ATOM      8  C   UNL     1      21.944   3.511  34.919  1.00  0.00     0.160 C 
ATOM      9  C   UNL     1      21.274   4.537  34.014  1.00  0.00     0.035 C 
ENDBRANCH   7   8
ENDBRANCH   1   7
BRANCH   2  10
ATOM     10  O   UNL     1      26.245   2.463  35.668  1.00  0.00    -0.385 OA
ATOM     11  H   UNL     1      25.688   1.657  35.828  1.00  0.00     0.211 HD
ENDBRANCH   2  10
BRANCH   3  12
ATOM     12  O   UNL     1      27.191   5.073  35.855  1.00  0.00    -0.387 OA
ATOM     13  H   UNL     1      27.125   5.697  35.084  1.00  0.00     0.211 HD
ENDBRANCH   3  12
BRANCH   5  14
ATOM     14  C   UNL     1      23.364   5.170  38.311  1.00  0.00     0.191 C 
BRANCH  14  15
ATOM     15  O   UNL     1      23.941   6.339  38.830  1.00  0.00    -0.394 OA
ATOM     16  H   UNL     1      24.707   6.566  38.242  1.00  0.00     0.210 HD
ENDBRANCH  14  15
ENDBRANCH   5  14
BRANCH   4  17
ATOM     17  O   UNL     1      26.797   3.614  38.148  1.00  0.00    -0.387 OA
ATOM     18  H   UNL     1      26.676   2.821  37.562  1.00  0.00     0.211 HD
ENDBRANCH   4  17
TORSDOF 7
ENDMDL
MODEL 3
REMARK VINA RESULT:    -5.299      1.629      3.614
REMARK INTER + INTRA:          -7.069
REMARK INTER:                  -6.765
REMARK INTRA:                  -0.304
REMARK UNBOUND:                -0.221
REMARK SMILES CCO[C@@H]1O[C@H](CO)[C@@H](O)[C@@H](O)[C@H]1O
REMARK SMILES IDX 4 1 13 2 11 3 9 4 6 5 5 6 3 7 2 8 1 9 14 10 12 12 7 14 8 15
REMARK SMILES IDX 10 17
REMARK H PARENT 14 11 12 13 8 16 10 18
REMARK Flexibility Score: inf
ROOT
ATOM      1  C   UNL     1      24.686   4.257  39.222  1.00  0.00     0.281 C 
ATOM      2  C   UNL     1      24.209   5.642  38.759  1.00  0.00     0.202 C 
ATOM      3  C   UNL     1      22.957   5.508  37.881  1.00  0.00     0.179 C 
ATOM      4  C   UNL     1      21.881   4.682  38.604  1.00  0.00     0.177 C 
ATOM      5  C   UNL     1      22.467   3.350  39.137  1.00  0.00     0.178 C 
ATOM      6  O   UNL     1      23.664   3.524  39.892  1.00  0.00    -0.341 OA
ENDROOT
BRANCH   1   7
ATOM      7  O   UNL     1      25.215   3.532  38.124  1.00  0.00    -0.350 OA
BRANCH   7   8
ATOM      8  C   UNL     1      26.173   4.297  37.416  1.00  0.00     0.160 C 
ATOM      9  C   UNL     1      25.879   4.256  35.921  1.00  0.00     0.035 C 
ENDBRANCH   7   8
ENDBRANCH   1   7
BRANCH   2  10
ATOM     10  O   UNL     1      23.944   6.439  39.888  1.00  0.00    -0.385 OA
ATOM     11  H   UNL     1      22.966   6.393  40.053  1.00  0.00     0.211 HD
ENDBRANCH   2  10
BRANCH   3  12
ATOM     12  O   UNL     1      22.464   6.782  37.556  1.00  0.00    -0.387 OA
ATOM     13  H   UNL     1      23.183   7.433  37.773  1.00  0.00     0.211 HD
ENDBRANCH   3  12
BRANCH   5  14
ATOM     14  C   UNL     1      22.606   2.263  38.048  1.00  0.00     0.191 C 
BRANCH  14  15
ATOM     15  O   UNL     1      23.348   1.174  38.531  1.00  0.00    -0.394 OA
ATOM     16  H   UNL     1      22.912   0.354  38.180  1.00  0.00     0.210 HD
ENDBRANCH  14  15
ENDBRANCH   5  14
BRANCH   4  17
ATOM     17  O   UNL     1      21.352   5.429  39.672  1.00  0.00    -0.387 OA
ATOM     18  H   UNL     1      20.391   5.189  39.744  1.00  0.00     0.211 HD
ENDBRANCH   4  17
TORSDOF 7
ENDMDL
MODEL 4
REMARK VINA RESULT:    -5.132      1.641      3.022
REMARK INTER + INTRA:          -6.853
REMARK INTER:                  -6.662
REMARK INTRA:                  -0.191
REMARK UNBOUND:                -0.221
REMARK SMILES CCO[C@@H]1O[C@H](CO)[C@@H](O)[C@@H](O)[C@H]1O
REMARK SMILES IDX 4 1 13 2 11 3 9 4 6 5 5 6 3 7 2 8 1 9 14 10 12 12 7 14 8 15
REMARK SMILES IDX 10 17
REMARK H PARENT 14 11 12 13 8 16 10 18
REMARK Flexibility Score: inf
ROOT
ATOM      1  C   UNL     1      22.719   3.538  38.044  1.00  0.00     0.281 C 
ATOM      2  C   UNL     1      22.637   4.530  39.215  1.00  0.00     0.202 C 
ATOM      3  C   UNL     1      23.977   5.258  39.392  1.00  0.00     0.179 C 
ATOM      4  C   UNL     1      24.421   5.891  38.064  1.00  0.00     0.177 C 
ATOM      5  C   UNL     1      24.372   4.856  36.911  1.00  0.00     0.178 C 
ATOM      6  O   UNL     1      23.129   4.163  36.830  1.00  0.00    -0.341 OA
ENDROOT
BRANCH   1   7
ATOM      7  O   UNL     1      23.563   2.452  38.385  1.00  0.00    -0.350 OA
BRANCH   7   8
ATOM      8  C   UNL     1      22.903   1.535  39.240  1.00  0.00     0.160 C 
ATOM      9  C   UNL     1      22.010   0.607  38.426  1.00  0.00     0.035 C 
ENDBRANCH   7   8
ENDBRANCH   1   7
BRANCH   2  10
ATOM     10  O   UNL     1      21.599   5.447  38.972  1.00  0.00    -0.385 OA
ATOM     11  H   UNL     1      21.828   5.930  38.135  1.00  0.00     0.211 HD
ENDBRANCH   2  10
BRANCH   3  12
ATOM     12  O   UNL     1      23.858   6.240  40.390  1.00  0.00    -0.387 OA
ATOM     13  H   UNL     1      24.572   6.910  40.221  1.00  0.00     0.211 HD
ENDBRANCH   3  12
BRANCH   5  14
ATOM     14  C   UNL     1      25.586   3.901  36.892  1.00  0.00     0.191 C 
BRANCH  14  15
ATOM     15  O   UNL     1      26.436   4.205  35.818  1.00  0.00    -0.394 OA
ATOM     16  H   UNL     1      27.254   4.610  36.207  1.00  0.00     0.210 HD
ENDBRANCH  14  15
ENDBRANCH   5  14
BRANCH   4  17
ATOM     17  O   UNL     1      23.588   6.982  37.760  1.00  0.00    -0.387 OA
ATOM     18  H   UNL     1      23.930   7.759  38.276  1.00  0.00     0.211 HD
ENDBRANCH   4  17
TORSDOF 7
ENDMDL
MODEL 5
REMARK VINA RESULT:    -5.123     13.428     14.987
REMARK INTER + INTRA:          -6.841
REMARK INTER:                  -6.684
REMARK INTRA:                  -0.156
REMARK UNBOUND:                -0.221
REMARK SMILES CCO[C@@H]1O[C@H](CO)[C@@H](O)[C@@H](O)[C@H]1O
REMARK SMILES IDX 4 1 13 2 11 3 9 4 6 5 5 6 3 7 2 8 1 9 14 10 12 12 7 14 8 15
REMARK SMILES IDX 10 17
REMARK H PARENT 14 11 12 13 8 16 10 18
REMARK Flexibility Score: inf
ROOT
ATOM      1  C   UNL     1      36.453   8.459  45.181  1.00  0.00     0.281 C 
ATOM      2  C   UNL     1      35.398   7.342  45.191  1.00  0.00     0.202 C 
ATOM      3  C   UNL     1      35.675   6.338  44.063  1.00  0.00     0.179 C 
ATOM      4  C   UNL     1      37.124   5.834  44.139  1.00  0.00     0.177 C 
ATOM      5  C   UNL     1      38.120   7.016  44.238  1.00  0.00     0.178 C 
ATOM      6  O   UNL     1      37.783   7.953  45.258  1.00  0.00    -0.341 OA
ENDROOT
BRANCH   1   7
ATOM      7  O   UNL     1      36.274   9.288  44.045  1.00  0.00    -0.350 OA
BRANCH   7   8
ATOM      8  C   UNL     1      35.388  10.358  44.323  1.00  0.00     0.160 C 
ATOM      9  C   UNL     1      35.956  11.665  43.784  1.00  0.00     0.035 C 
ENDBRANCH   7   8
ENDBRANCH   1   7
BRANCH   2  10
ATOM     10  O   UNL     1      35.415   6.702  46.444  1.00  0.00    -0.385 OA
ATOM     11  H   UNL     1      34.629   7.036  46.951  1.00  0.00     0.211 HD
ENDBRANCH   2  10
BRANCH   3  12
ATOM     12  O   UNL     1      34.774   5.264  44.149  1.00  0.00    -0.387 OA
ATOM     13  H   UNL     1      35.212   4.565  44.704  1.00  0.00     0.211 HD
ENDBRANCH   3  12
BRANCH   5  14
ATOM     14  C   UNL     1      38.401   7.696  42.879  1.00  0.00     0.191 C 
BRANCH  14  15
ATOM     15  O   UNL     1      39.780   7.876  42.693  1.00  0.00    -0.394 OA
ATOM     16  H   UNL     1      40.142   7.007  42.379  1.00  0.00     0.210 HD
ENDBRANCH  14  15
ENDBRANCH   5  14
BRANCH   4  17
ATOM     17  O   UNL     1      37.272   4.993  45.256  1.00  0.00    -0.387 OA
ATOM     18  H   UNL     1      36.503   5.174  45.858  1.00  0.00     0.211 HD
ENDBRANCH   4  17
TORSDOF 7
ENDMDL
MODEL 6
REMARK VINA RESULT:    -5.015     14.865     16.083
REMARK INTER + INTRA:          -6.701
REMARK INTER:                  -6.355
REMARK INTRA:                  -0.346
REMARK UNBOUND:                -0.221
REMARK SMILES CCO[C@@H]1O[C@H](CO)[C@@H](O)[C@@H](O)[C@H]1O
REMARK SMILES IDX 4 1 13 2 11 3 9 4 6 5 5 6 3 7 2 8 1 9 14 10 12 12 7 14 8 15
REMARK SMILES IDX 10 17
REMARK H PARENT 14 11 12 13 8 16 10 18
REMARK Flexibility Score: inf
ROOT
ATOM      1  C   UNL     1      38.479   7.418  44.338  1.00  0.00     0.281 C 
ATOM      2  C   UNL     1      37.956   5.976  44.431  1.00  0.00     0.202 C 
ATOM      3  C   UNL     1      37.839   5.361  43.030  1.00  0.00     0.179 C 
ATOM      4  C   UNL     1      39.169   5.498  42.272  1.00  0.00     0.177 C 
ATOM      5  C   UNL     1      39.686   6.958  42.318  1.00  0.00     0.178 C 
ATOM      6  O   UNL     1      39.715   7.504  43.635  1.00  0.00    -0.341 OA
ENDROOT
BRANCH   1   7
ATOM      7  O   UNL     1      37.492   8.259  43.766  1.00  0.00    -0.350 OA
BRANCH   7   8
ATOM      8  C   UNL     1      36.286   8.217  44.509  1.00  0.00     0.160 C 
ATOM      9  C   UNL     1      35.713   9.620  44.661  1.00  0.00     0.035 C 
ENDBRANCH   7   8
ENDBRANCH   1   7
BRANCH   2  10
ATOM     10  O   UNL     1      38.826   5.220  45.237  1.00  0.00    -0.385 OA
ATOM     11  H   UNL     1      39.743   5.358  44.883  1.00  0.00     0.211 HD
ENDBRANCH   2  10
BRANCH   3  12
ATOM     12  O   UNL     1      37.467   4.010  43.132  1.00  0.00    -0.387 OA
ATOM     13  H   UNL     1      37.686   3.585  42.261  1.00  0.00     0.211 HD
ENDBRANCH   3  12
BRANCH   5  14
ATOM     14  C   UNL     1      38.984   7.890  41.306  1.00  0.00     0.191 C 
BRANCH  14  15
ATOM     15  O   UNL     1      39.369   9.223  41.512  1.00  0.00    -0.394 OA
ATOM     16  H   UNL     1      39.116   9.453  42.444  1.00  0.00     0.210 HD
ENDBRANCH  14  15
ENDBRANCH   5  14
BRANCH   4  17
ATOM     17  O   UNL     1      40.125   4.637  42.838  1.00  0.00    -0.387 OA
ATOM     18  H   UNL     1      40.147   4.830  43.812  1.00  0.00     0.211 HD
ENDBRANCH   4  17
TORSDOF 7
ENDMDL
MODEL 7
REMARK VINA RESULT:    -4.945      9.536     11.626
REMARK INTER + INTRA:          -6.612
REMARK INTER:                  -6.328
REMARK INTRA:                  -0.283
REMARK UNBOUND:                -0.221
REMARK SMILES CCO[C@@H]1O[C@H](CO)[C@@H](O)[C@@H](O)[C@H]1O
REMARK SMILES IDX 4 1 13 2 11 3 9 4 6 5 5 6 3 7 2 8 1 9 14 10 12 12 7 14 8 15
REMARK SMILES IDX 10 17
REMARK H PARENT 14 11 12 13 8 16 10 18
REMARK Flexibility Score: inf
ROOT
ATOM      1  C   UNL     1      33.817   2.361  44.028  1.00  0.00     0.281 C 
ATOM      2  C   UNL     1      32.478   1.608  44.082  1.00  0.00     0.202 C 
ATOM      3  C   UNL     1      31.412   2.360  43.272  1.00  0.00     0.179 C 
ATOM      4  C   UNL     1      31.919   2.638  41.849  1.00  0.00     0.177 C 
ATOM      5  C   UNL     1      33.321   3.297  41.876  1.00  0.00     0.178 C 
ATOM      6  O   UNL     1      34.256   2.595  42.692  1.00  0.00    -0.341 OA
ENDROOT
BRANCH   1   7
ATOM      7  O   UNL     1      33.729   3.566  44.769  1.00  0.00    -0.350 OA
BRANCH   7   8
ATOM      8  C   UNL     1      34.994   3.952  45.276  1.00  0.00     0.160 C 
ATOM      9  C   UNL     1      35.111   5.471  45.298  1.00  0.00     0.035 C 
ENDBRANCH   7   8
ENDBRANCH   1   7
BRANCH   2  10
ATOM     10  O   UNL     1      32.660   0.306  43.581  1.00  0.00    -0.385 OA
ATOM     11  H   UNL     1      32.253  -0.317  44.238  1.00  0.00     0.211 HD
ENDBRANCH   2  10
BRANCH   3  12
ATOM     12  O   UNL     1      30.226   1.609  43.235  1.00  0.00    -0.387 OA
ATOM     13  H   UNL     1      29.636   2.036  42.559  1.00  0.00     0.211 HD
ENDBRANCH   3  12
BRANCH   5  14
ATOM     14  C   UNL     1      33.282   4.809  42.186  1.00  0.00     0.191 C 
BRANCH  14  15
ATOM     15  O   UNL     1      34.497   5.417  41.834  1.00  0.00    -0.394 OA
ATOM     16  H   UNL     1      34.801   5.930  42.626  1.00  0.00     0.210 HD
ENDBRANCH  14  15
ENDBRANCH   5  14
BRANCH   4  17
ATOM     17  O   UNL     1      31.973   1.435  41.124  1.00  0.00    -0.387 OA
ATOM     18  H   UNL     1      32.928   1.166  41.080  1.00  0.00     0.211 HD
ENDBRANCH   4  17
TORSDOF 7
ENDMDL
MODEL 8
REMARK VINA RESULT:    -4.876     11.692     13.913
REMARK INTER + INTRA:          -6.522
REMARK INTER:                  -6.257
REMARK INTRA:                  -0.265
REMARK UNBOUND:                -0.221
REMARK SMILES CCO[C@@H]1O[C@H](CO)[C@@H](O)[C@@H](O)[C@H]1O
REMARK SMILES IDX 4 1 13 2 11 3 9 4 6 5 5 6 3 7 2 8 1 9 14 10 12 12 7 14 8 15
REMARK SMILES IDX 10 17
REMARK H PARENT 14 11 12 13 8 16 10 18
REMARK Flexibility Score: inf
ROOT
ATOM      1  C   UNL     1      35.025   2.681  44.935  1.00  0.00     0.281 C 
ATOM      2  C   UNL     1      36.531   2.380  44.868  1.00  0.00     0.202 C 
ATOM      3  C   UNL     1      37.211   3.291  43.836  1.00  0.00     0.179 C 
ATOM      4  C   UNL     1      36.876   4.764  44.120  1.00  0.00     0.177 C 
ATOM      5  C   UNL     1      35.348   4.966  44.283  1.00  0.00     0.178 C 
ATOM      6  O   UNL     1      34.755   4.054  45.205  1.00  0.00    -0.341 OA
ENDROOT
BRANCH   1   7
ATOM      7  O   UNL     1      34.389   2.246  43.745  1.00  0.00    -0.350 OA
BRANCH   7   8
ATOM      8  C   UNL     1      33.195   1.539  44.029  1.00  0.00     0.160 C 
ATOM      9  C   UNL     1      31.985   2.339  43.562  1.00  0.00     0.035 C 
ENDBRANCH   7   8
ENDBRANCH   1   7
BRANCH   2  10
ATOM     10  O   UNL     1      37.095   2.564  46.144  1.00  0.00    -0.385 OA
ATOM     11  H   UNL     1      37.042   1.690  46.613  1.00  0.00     0.211 HD
ENDBRANCH   2  10
BRANCH   3  12
ATOM     12  O   UNL     1      38.600   3.088  43.863  1.00  0.00    -0.387 OA
ATOM     13  H   UNL     1      38.746   2.127  44.073  1.00  0.00     0.211 HD
ENDBRANCH   3  12
BRANCH   5  14
ATOM     14  C   UNL     1      34.591   5.026  42.938  1.00  0.00     0.191 C 
BRANCH  14  15
ATOM     15  O   UNL     1      35.403   5.584  41.939  1.00  0.00    -0.394 OA
ATOM     16  H   UNL     1      35.899   4.833  41.521  1.00  0.00     0.210 HD
ENDBRANCH  14  15
ENDBRANCH   5  14
BRANCH   4  17
ATOM     17  O   UNL     1      37.538   5.182  45.288  1.00  0.00    -0.387 OA
ATOM     18  H   UNL     1      38.362   4.632  45.365  1.00  0.00     0.211 HD
ENDBRANCH   4  17
TORSDOF 7
ENDMDL
MODEL 9
REMARK VINA RESULT:    -4.760     12.624     14.998
REMARK INTER + INTRA:          -6.372
REMARK INTER:                  -5.982
REMARK INTRA:                  -0.391
REMARK UNBOUND:                -0.221
REMARK SMILES CCO[C@@H]1O[C@H](CO)[C@@H](O)[C@@H](O)[C@H]1O
REMARK SMILES IDX 4 1 13 2 11 3 9 4 6 5 5 6 3 7 2 8 1 9 14 10 12 12 7 14 8 15
REMARK SMILES IDX 10 17
REMARK H PARENT 14 11 12 13 8 16 10 18
REMARK Flexibility Score: inf
ROOT
ATOM      1  C   UNL     1      36.330   1.357  45.388  1.00  0.00     0.281 C 
ATOM      2  C   UNL     1      37.533   2.041  44.719  1.00  0.00     0.202 C 
ATOM      3  C   UNL     1      37.054   3.049  43.665  1.00  0.00     0.179 C 
ATOM      4  C   UNL     1      36.038   4.024  44.279  1.00  0.00     0.177 C 
ATOM      5  C   UNL     1      34.917   3.262  45.029  1.00  0.00     0.178 C 
ATOM      6  O   UNL     1      35.414   2.294  45.950  1.00  0.00    -0.341 OA
ENDROOT
BRANCH   1   7
ATOM      7  O   UNL     1      35.691   0.488  44.469  1.00  0.00    -0.350 OA
BRANCH   7   8
ATOM      8  C   UNL     1      36.420  -0.716  44.307  1.00  0.00     0.160 C 
ATOM      9  C   UNL     1      35.947  -1.758  45.313  1.00  0.00     0.035 C 
ENDBRANCH   7   8
ENDBRANCH   1   7
BRANCH   2  10
ATOM     10  O   UNL     1      38.307   2.681  45.704  1.00  0.00    -0.385 OA
ATOM     11  H   UNL     1      38.464   3.610  45.392  1.00  0.00     0.211 HD
ENDBRANCH   2  10
BRANCH   3  12
ATOM     12  O   UNL     1      38.153   3.747  43.139  1.00  0.00    -0.387 OA
ATOM     13  H   UNL     1      37.989   3.850  42.164  1.00  0.00     0.211 HD
ENDBRANCH   3  12
BRANCH   5  14
ATOM     14  C   UNL     1      33.834   2.685  44.091  1.00  0.00     0.191 C 
BRANCH  14  15
ATOM     15  O   UNL     1      32.924   1.898  44.813  1.00  0.00    -0.394 OA
ATOM     16  H   UNL     1      32.157   2.485  45.042  1.00  0.00     0.210 HD
ENDBRANCH  14  15
ENDBRANCH   5  14
BRANCH   4  17
ATOM     17  O   UNL     1      36.697   4.894  45.165  1.00  0.00    -0.387 OA
ATOM     18  H   UNL     1      37.487   5.254  44.683  1.00  0.00     0.211 HD
ENDBRANCH   4  17
TORSDOF 7
ENDMDL
