MODEL 1
REMARK VINA RESULT:    -4.402      0.000      0.000
REMARK INTER + INTRA:          -6.513
REMARK INTER:                  -6.717
REMARK INTRA:                   0.204
REMARK UNBOUND:                 0.204
REMARK SMILES CC1=CCC[C@H](C)C(=O)C[C@@H](C(C)C)C(=O)C1
REMARK SMILES IDX 8 1 9 2 6 3 7 4 5 5 4 6 3 7 2 8 1 9 10 11 11 12 15 13 16 14
REMARK SMILES IDX 17 15 12 17 13 18 14 19
REMARK H PARENT
REMARK Flexibility Score: 70.00
ROOT
ATOM      1  C   UNL     1      -7.930  23.494  68.184  1.00  0.00     0.136 C 
ATOM      2  O   UNL     1      -6.839  23.753  68.670  1.00  0.00    -0.299 OA
ENDROOT
BRANCH   1   3
ATOM      3  C   UNL     1      -8.384  24.283  66.968  1.00  0.00     0.053 C 
ATOM      4  C   UNL     1      -7.814  25.705  66.988  1.00  0.00     0.016 C 
BRANCH   3   5
ATOM      5  C   UNL     1      -8.039  23.566  65.647  1.00  0.00     0.015 C 
BRANCH   5   6
ATOM      6  C   UNL     1      -8.907  22.312  65.404  1.00  0.00     0.028 C 
BRANCH   6   7
ATOM      7  C   UNL     1      -8.049  21.130  65.023  1.00  0.00    -0.028 C 
ATOM      8  C   UNL     1      -7.783  20.067  65.819  1.00  0.00    -0.070 CG0
ATOM      9  C   UNL     1      -6.859  19.003  65.282  1.00  0.00     0.039 C 
ATOM     10  G   UNL     1      -8.421  19.866  67.188  1.00  0.00     0.000 G0
ENDBRANCH   6   7
ENDBRANCH   5   6
ENDBRANCH   3   5
ENDBRANCH   1   3
BRANCH   1  11
ATOM     11  C   UNL     1      -8.761  22.396  68.819  1.00  0.00     0.087 C 
BRANCH  11  12
ATOM     12  C   UNL     1      -7.918  21.240  69.423  1.00  0.00     0.066 C 
BRANCH  12  13
ATOM     13  C   UNL     1      -7.551  20.181  68.387  1.00  0.00     0.140 C 
ATOM     14  O   UNL     1      -6.496  19.579  68.516  1.00  0.00    -0.299 OA
BRANCH  13  15
ATOM     15  C   UNL     1      -8.418  19.819  67.193  1.00  0.00     0.106 CG0
ATOM     16  G   UNL     1      -7.808  20.066  65.819  1.00  0.00     0.000 G0
ENDBRANCH  13  15
ENDBRANCH  12  13
BRANCH  12  17
ATOM     17  C   UNL     1      -8.604  20.630  70.687  1.00  0.00    -0.006 C 
ATOM     18  C   UNL     1      -7.741  19.606  71.449  1.00  0.00     0.008 C 
ATOM     19  C   UNL     1      -9.069  21.729  71.652  1.00  0.00     0.008 C 
ENDBRANCH  12  17
ENDBRANCH  11  12
ENDBRANCH   1  11
TORSDOF 1
ENDMDL
MODEL 2
REMARK VINA RESULT:    -3.965      2.363      3.524
REMARK INTER + INTRA:          -5.848
REMARK INTER:                  -5.836
REMARK INTRA:                  -0.012
REMARK UNBOUND:                 0.204
REMARK SMILES CC1=CCC[C@H](C)C(=O)C[C@@H](C(C)C)C(=O)C1
REMARK SMILES IDX 8 1 9 2 6 3 7 4 5 5 4 6 3 7 2 8 1 9 10 11 11 12 15 13 16 14
REMARK SMILES IDX 17 15 12 17 13 18 14 19
REMARK H PARENT
REMARK Flexibility Score: 70.00
ROOT
ATOM      1  C   UNL     1      -8.094  24.084  67.039  1.00  0.00     0.136 C 
ATOM      2  O   UNL     1      -7.223  24.030  67.895  1.00  0.00    -0.299 OA
ENDROOT
BRANCH   1   3
ATOM      3  C   UNL     1      -8.396  25.429  66.400  1.00  0.00     0.053 C 
ATOM      4  C   UNL     1      -8.114  26.579  67.374  1.00  0.00     0.016 C 
BRANCH   3   5
ATOM      5  C   UNL     1      -7.635  25.628  65.074  1.00  0.00     0.015 C 
BRANCH   5   6
ATOM      6  C   UNL     1      -8.537  25.433  63.835  1.00  0.00     0.028 C 
BRANCH   6   7
ATOM      7  C   UNL     1      -7.851  24.574  62.800  1.00  0.00    -0.028 C 
ATOM      8  C   UNL     1      -7.871  23.221  62.767  1.00  0.00    -0.070 CG0
ATOM      9  C   UNL     1      -7.080  22.533  61.683  1.00  0.00     0.039 C 
ATOM     10  G   UNL     1      -8.701  22.373  63.722  1.00  0.00     0.000 G0
ENDBRANCH   6   7
ENDBRANCH   5   6
ENDBRANCH   3   5
ENDBRANCH   1   3
BRANCH   1  11
ATOM     11  C   UNL     1      -8.815  22.805  66.661  1.00  0.00     0.087 C 
BRANCH  11  12
ATOM     12  C   UNL     1      -7.870  21.671  66.178  1.00  0.00     0.066 C 
BRANCH  12  13
ATOM     13  C   UNL     1      -7.940  21.456  64.668  1.00  0.00     0.140 C 
ATOM     14  O   UNL     1      -7.341  20.507  64.185  1.00  0.00    -0.299 OA
BRANCH  13  15
ATOM     15  C   UNL     1      -8.713  22.351  63.714  1.00  0.00     0.106 CG0
ATOM     16  G   UNL     1      -7.879  23.211  62.774  1.00  0.00     0.000 G0
ENDBRANCH  13  15
ENDBRANCH  12  13
BRANCH  12  17
ATOM     17  C   UNL     1      -8.099  20.352  66.983  1.00  0.00    -0.006 C 
ATOM     18  C   UNL     1      -6.807  19.600  67.357  1.00  0.00     0.008 C 
ATOM     19  C   UNL     1      -8.928  20.610  68.249  1.00  0.00     0.008 C 
ENDBRANCH  12  17
ENDBRANCH  11  12
ENDBRANCH   1  11
TORSDOF 1
ENDMDL
MODEL 3
REMARK VINA RESULT:    -3.762      8.003     10.734
REMARK INTER + INTRA:          -5.537
REMARK INTER:                  -5.640
REMARK INTRA:                   0.103
REMARK UNBOUND:                 0.204
REMARK SMILES CC1=CCC[C@H](C)C(=O)C[C@@H](C(C)C)C(=O)C1
REMARK SMILES IDX 8 1 9 2 6 3 7 4 5 5 4 6 3 7 2 8 1 9 10 11 11 12 15 13 16 14
REMARK SMILES IDX 17 15 12 17 13 18 14 19
REMARK H PARENT
REMARK Flexibility Score: 70.00
ROOT
ATOM      1  C   UNL     1      -7.862  29.448  70.367  1.00  0.00     0.136 C 
ATOM      2  O   UNL     1      -8.986  29.810  70.684  1.00  0.00    -0.299 OA
ENDROOT
BRANCH   1   3
ATOM      3  C   UNL     1      -7.680  28.742  69.035  1.00  0.00     0.053 C 
ATOM      4  C   UNL     1      -8.689  27.599  68.872  1.00  0.00     0.016 C 
BRANCH   3   5
ATOM      5  C   UNL     1      -7.753  29.718  67.844  1.00  0.00     0.015 C 
BRANCH   5   6
ATOM      6  C   UNL     1      -7.733  31.199  68.285  1.00  0.00     0.028 C 
BRANCH   6   7
ATOM      7  C   UNL     1      -6.425  31.853  67.912  1.00  0.00    -0.028 C 
ATOM      8  C   UNL     1      -5.737  32.726  68.686  1.00  0.00    -0.070 CG0
ATOM      9  C   UNL     1      -4.470  33.318  68.121  1.00  0.00     0.039 C 
ATOM     10  G   UNL     1      -6.144  33.081  70.111  1.00  0.00     0.000 G0
ENDBRANCH   6   7
ENDBRANCH   5   6
ENDBRANCH   3   5
ENDBRANCH   1   3
BRANCH   1  11
ATOM     11  C   UNL     1      -6.717  29.732  71.319  1.00  0.00     0.087 C 
BRANCH  11  12
ATOM     12  C   UNL     1      -6.731  31.170  71.908  1.00  0.00     0.066 C 
BRANCH  12  13
ATOM     13  C   UNL     1      -5.736  32.095  71.211  1.00  0.00     0.140 C 
ATOM     14  O   UNL     1      -4.559  32.033  71.532  1.00  0.00    -0.299 OA
BRANCH  13  15
ATOM     15  C   UNL     1      -6.113  33.097  70.134  1.00  0.00     0.106 CG0
ATOM     16  G   UNL     1      -5.736  32.723  68.706  1.00  0.00     0.000 G0
ENDBRANCH  13  15
ENDBRANCH  12  13
BRANCH  12  17
ATOM     17  C   UNL     1      -6.554  31.156  73.460  1.00  0.00    -0.006 C 
ATOM     18  C   UNL     1      -6.613  32.547  74.120  1.00  0.00     0.008 C 
ATOM     19  C   UNL     1      -7.577  30.227  74.128  1.00  0.00     0.008 C 
ENDBRANCH  12  17
ENDBRANCH  11  12
ENDBRANCH   1  11
TORSDOF 1
ENDMDL
MODEL 4
REMARK VINA RESULT:    -3.715      6.351      8.324
REMARK INTER + INTRA:          -5.466
REMARK INTER:                  -5.226
REMARK INTRA:                  -0.240
REMARK UNBOUND:                 0.204
REMARK SMILES CC1=CCC[C@H](C)C(=O)C[C@@H](C(C)C)C(=O)C1
REMARK SMILES IDX 8 1 9 2 6 3 7 4 5 5 4 6 3 7 2 8 1 9 10 11 11 12 15 13 16 14
REMARK SMILES IDX 17 15 12 17 13 18 14 19
REMARK H PARENT
REMARK Flexibility Score: 70.00
ROOT
ATOM      1  C   UNL     1      -6.751  22.669  62.037  1.00  0.00     0.136 C 
ATOM      2  O   UNL     1      -6.915  21.834  62.915  1.00  0.00    -0.299 OA
ENDROOT
BRANCH   1   3
ATOM      3  C   UNL     1      -7.719  23.837  61.962  1.00  0.00     0.053 C 
ATOM      4  C   UNL     1      -8.863  23.673  62.969  1.00  0.00     0.016 C 
BRANCH   3   5
ATOM      5  C   UNL     1      -7.009  25.193  62.148  1.00  0.00     0.015 C 
BRANCH   5   6
ATOM      6  C   UNL     1      -6.566  25.823  60.809  1.00  0.00     0.028 C 
BRANCH   6   7
ATOM      7  C   UNL     1      -5.271  26.582  60.974  1.00  0.00    -0.028 C 
ATOM      8  C   UNL     1      -4.034  26.083  60.740  1.00  0.00    -0.070 CG0
ATOM      9  C   UNL     1      -2.853  26.979  61.013  1.00  0.00     0.039 C 
ATOM     10  G   UNL     1      -3.789  24.698  60.156  1.00  0.00     0.000 G0
ENDBRANCH   6   7
ENDBRANCH   5   6
ENDBRANCH   3   5
ENDBRANCH   1   3
BRANCH   1  11
ATOM     11  C   UNL     1      -5.588  22.491  61.080  1.00  0.00     0.087 C 
BRANCH  11  12
ATOM     12  C   UNL     1      -4.196  22.572  61.763  1.00  0.00     0.066 C 
BRANCH  12  13
ATOM     13  C   UNL     1      -3.294  23.627  61.126  1.00  0.00     0.140 C 
ATOM     14  O   UNL     1      -2.105  23.625  61.408  1.00  0.00    -0.299 OA
BRANCH  13  15
ATOM     15  C   UNL     1      -3.778  24.689  60.154  1.00  0.00     0.106 CG0
ATOM     16  G   UNL     1      -4.042  26.069  60.742  1.00  0.00     0.000 G0
ENDBRANCH  13  15
ENDBRANCH  12  13
BRANCH  12  17
ATOM     17  C   UNL     1      -3.514  21.169  61.843  1.00  0.00    -0.006 C 
ATOM     18  C   UNL     1      -3.403  20.594  63.268  1.00  0.00     0.008 C 
ATOM     19  C   UNL     1      -4.222  20.154  60.934  1.00  0.00     0.008 C 
ENDBRANCH  12  17
ENDBRANCH  11  12
ENDBRANCH   1  11
TORSDOF 1
ENDMDL
MODEL 5
REMARK VINA RESULT:    -3.621     11.317     12.837
REMARK INTER + INTRA:          -5.322
REMARK INTER:                  -4.997
REMARK INTRA:                  -0.325
REMARK UNBOUND:                 0.204
REMARK SMILES CC1=CCC[C@H](C)C(=O)C[C@@H](C(C)C)C(=O)C1
REMARK SMILES IDX 8 1 9 2 6 3 7 4 5 5 4 6 3 7 2 8 1 9 10 11 11 12 15 13 16 14
REMARK SMILES IDX 17 15 12 17 13 18 14 19
REMARK H PARENT
REMARK Flexibility Score: 70.00
ROOT
ATOM      1  C   UNL     1       0.756  27.750  68.813  1.00  0.00     0.136 C 
ATOM      2  O   UNL     1      -0.197  28.515  68.770  1.00  0.00    -0.299 OA
ENDROOT
BRANCH   1   3
ATOM      3  C   UNL     1       0.684  26.462  68.011  1.00  0.00     0.053 C 
ATOM      4  C   UNL     1      -0.399  25.528  68.561  1.00  0.00     0.016 C 
BRANCH   3   5
ATOM      5  C   UNL     1       0.477  26.725  66.506  1.00  0.00     0.015 C 
BRANCH   5   6
ATOM      6  C   UNL     1       1.781  27.136  65.787  1.00  0.00     0.028 C 
BRANCH   6   7
ATOM      7  C   UNL     1       2.877  26.130  66.045  1.00  0.00    -0.028 C 
ATOM      8  C   UNL     1       4.105  26.418  66.537  1.00  0.00    -0.070 CG0
ATOM      9  C   UNL     1       5.089  25.284  66.679  1.00  0.00     0.039 C 
ATOM     10  G   UNL     1       4.511  27.808  67.012  1.00  0.00     0.000 G0
ENDBRANCH   6   7
ENDBRANCH   5   6
ENDBRANCH   3   5
ENDBRANCH   1   3
BRANCH   1  11
ATOM     11  C   UNL     1       1.953  28.137  69.658  1.00  0.00     0.087 C 
BRANCH  11  12
ATOM     12  C   UNL     1       3.009  28.988  68.900  1.00  0.00     0.066 C 
BRANCH  12  13
ATOM     13  C   UNL     1       4.212  28.162  68.452  1.00  0.00     0.140 C 
ATOM     14  O   UNL     1       4.983  27.745  69.302  1.00  0.00    -0.299 OA
BRANCH  13  15
ATOM     15  C   UNL     1       4.517  27.818  67.004  1.00  0.00     0.106 CG0
ATOM     16  G   UNL     1       4.115  26.422  66.545  1.00  0.00     0.000 G0
ENDBRANCH  13  15
ENDBRANCH  12  13
BRANCH  12  17
ATOM     17  C   UNL     1       3.420  30.253  69.719  1.00  0.00    -0.006 C 
ATOM     18  C   UNL     1       3.052  31.592  69.052  1.00  0.00     0.008 C 
ATOM     19  C   UNL     1       2.839  30.210  71.139  1.00  0.00     0.008 C 
ENDBRANCH  12  17
ENDBRANCH  11  12
ENDBRANCH   1  11
TORSDOF 1
ENDMDL
MODEL 6
REMARK VINA RESULT:    -3.615     10.845     12.337
REMARK INTER + INTRA:          -5.312
REMARK INTER:                  -5.003
REMARK INTRA:                  -0.310
REMARK UNBOUND:                 0.204
REMARK SMILES CC1=CCC[C@H](C)C(=O)C[C@@H](C(C)C)C(=O)C1
REMARK SMILES IDX 8 1 9 2 6 3 7 4 5 5 4 6 3 7 2 8 1 9 10 11 11 12 15 13 16 14
REMARK SMILES IDX 17 15 12 17 13 18 14 19
REMARK H PARENT
REMARK Flexibility Score: 70.00
ROOT
ATOM      1  C   UNL     1       1.995  26.657  67.157  1.00  0.00     0.136 C 
ATOM      2  O   UNL     1       2.263  27.673  67.781  1.00  0.00    -0.299 OA
ENDROOT
BRANCH   1   3
ATOM      3  C   UNL     1       0.536  26.257  67.020  1.00  0.00     0.053 C 
ATOM      4  C   UNL     1      -0.108  26.036  68.393  1.00  0.00     0.016 C 
BRANCH   3   5
ATOM      5  C   UNL     1      -0.270  27.272  66.187  1.00  0.00     0.015 C 
BRANCH   5   6
ATOM      6  C   UNL     1      -0.639  26.736  64.786  1.00  0.00     0.028 C 
BRANCH   6   7
ATOM      7  C   UNL     1       0.105  27.487  63.709  1.00  0.00    -0.028 C 
ATOM      8  C   UNL     1       1.286  27.110  63.163  1.00  0.00    -0.070 CG0
ATOM      9  C   UNL     1       1.906  28.020  62.133  1.00  0.00     0.039 C 
ATOM     10  G   UNL     1       1.974  25.790  63.489  1.00  0.00     0.000 G0
ENDBRANCH   6   7
ENDBRANCH   5   6
ENDBRANCH   3   5
ENDBRANCH   1   3
BRANCH   1  11
ATOM     11  C   UNL     1       3.135  25.861  66.551  1.00  0.00     0.087 C 
BRANCH  11  12
ATOM     12  C   UNL     1       3.810  26.556  65.337  1.00  0.00     0.066 C 
BRANCH  12  13
ATOM     13  C   UNL     1       3.431  25.907  64.008  1.00  0.00     0.140 C 
ATOM     14  O   UNL     1       4.321  25.449  63.307  1.00  0.00    -0.299 OA
BRANCH  13  15
ATOM     15  C   UNL     1       2.007  25.787  63.493  1.00  0.00     0.106 CG0
ATOM     16  G   UNL     1       1.298  27.095  63.165  1.00  0.00     0.000 G0
ENDBRANCH  13  15
ENDBRANCH  12  13
BRANCH  12  17
ATOM     17  C   UNL     1       5.356  26.672  65.529  1.00  0.00    -0.006 C 
ATOM     18  C   UNL     1       5.885  28.118  65.583  1.00  0.00     0.008 C 
ATOM     19  C   UNL     1       5.820  25.908  66.777  1.00  0.00     0.008 C 
ENDBRANCH  12  17
ENDBRANCH  11  12
ENDBRANCH   1  11
TORSDOF 1
ENDMDL
MODEL 7
REMARK VINA RESULT:    -3.413     10.924     12.842
REMARK INTER + INTRA:          -5.005
REMARK INTER:                  -4.892
REMARK INTRA:                  -0.113
REMARK UNBOUND:                 0.204
REMARK SMILES CC1=CCC[C@H](C)C(=O)C[C@@H](C(C)C)C(=O)C1
REMARK SMILES IDX 8 1 9 2 6 3 7 4 5 5 4 6 3 7 2 8 1 9 10 11 11 12 15 13 16 14
REMARK SMILES IDX 17 15 12 17 13 18 14 19
REMARK H PARENT
REMARK Flexibility Score: 70.00
ROOT
ATOM      1  C   UNL     1       0.014  27.954  68.312  1.00  0.00     0.136 C 
ATOM      2  O   UNL     1      -0.619  28.425  67.378  1.00  0.00    -0.299 OA
ENDROOT
BRANCH   1   3
ATOM      3  C   UNL     1       0.737  26.634  68.103  1.00  0.00     0.053 C 
ATOM      4  C   UNL     1      -0.257  25.476  67.959  1.00  0.00     0.016 C 
BRANCH   3   5
ATOM      5  C   UNL     1       1.705  26.685  66.904  1.00  0.00     0.015 C 
BRANCH   5   6
ATOM      6  C   UNL     1       3.185  26.549  67.327  1.00  0.00     0.028 C 
BRANCH   6   7
ATOM      7  C   UNL     1       3.886  27.884  67.266  1.00  0.00    -0.028 C 
ATOM      8  C   UNL     1       3.908  28.804  68.260  1.00  0.00    -0.070 CG0
ATOM      9  C   UNL     1       4.619  30.107  67.995  1.00  0.00     0.039 C 
ATOM     10  G   UNL     1       3.313  28.558  69.640  1.00  0.00     0.000 G0
ENDBRANCH   6   7
ENDBRANCH   5   6
ENDBRANCH   3   5
ENDBRANCH   1   3
BRANCH   1  11
ATOM     11  C   UNL     1       0.045  28.719  69.621  1.00  0.00     0.087 C 
BRANCH  11  12
ATOM     12  C   UNL     1       0.988  29.953  69.604  1.00  0.00     0.066 C 
BRANCH  12  13
ATOM     13  C   UNL     1       2.369  29.640  70.174  1.00  0.00     0.140 C 
ATOM     14  O   UNL     1       2.770  30.294  71.125  1.00  0.00    -0.299 OA
BRANCH  13  15
ATOM     15  C   UNL     1       3.288  28.558  69.635  1.00  0.00     0.106 CG0
ATOM     16  G   UNL     1       3.904  28.818  68.267  1.00  0.00     0.000 G0
ENDBRANCH  13  15
ENDBRANCH  12  13
BRANCH  12  17
ATOM     17  C   UNL     1       0.323  31.192  70.287  1.00  0.00    -0.006 C 
ATOM     18  C   UNL     1      -0.314  32.195  69.306  1.00  0.00     0.008 C 
ATOM     19  C   UNL     1      -0.718  30.760  71.329  1.00  0.00     0.008 C 
ENDBRANCH  12  17
ENDBRANCH  11  12
ENDBRANCH   1  11
TORSDOF 1
ENDMDL
MODEL 8
REMARK VINA RESULT:    -3.383     11.392     12.572
REMARK INTER + INTRA:          -4.959
REMARK INTER:                  -4.582
REMARK INTRA:                  -0.377
REMARK UNBOUND:                 0.204
REMARK SMILES CC1=CCC[C@H](C)C(=O)C[C@@H](C(C)C)C(=O)C1
REMARK SMILES IDX 8 1 9 2 6 3 7 4 5 5 4 6 3 7 2 8 1 9 10 11 11 12 15 13 16 14
REMARK SMILES IDX 17 15 12 17 13 18 14 19
REMARK H PARENT
REMARK Flexibility Score: 70.00
ROOT
ATOM      1  C   UNL     1       1.507  26.985  65.406  1.00  0.00     0.136 C 
ATOM      2  O   UNL     1       1.172  28.025  65.956  1.00  0.00    -0.299 OA
ENDROOT
BRANCH   1   3
ATOM      3  C   UNL     1       0.757  26.554  64.158  1.00  0.00     0.053 C 
ATOM      4  C   UNL     1      -0.754  26.504  64.411  1.00  0.00     0.016 C 
BRANCH   3   5
ATOM      5  C   UNL     1       1.086  27.447  62.945  1.00  0.00     0.015 C 
BRANCH   5   6
ATOM      6  C   UNL     1       2.085  26.784  61.970  1.00  0.00     0.028 C 
BRANCH   6   7
ATOM      7  C   UNL     1       1.937  25.282  61.988  1.00  0.00    -0.028 C 
ATOM      8  C   UNL     1       2.897  24.404  62.365  1.00  0.00    -0.070 CG0
ATOM      9  C   UNL     1       2.581  22.933  62.267  1.00  0.00     0.039 C 
ATOM     10  G   UNL     1       4.241  24.831  62.941  1.00  0.00     0.000 G0
ENDBRANCH   6   7
ENDBRANCH   5   6
ENDBRANCH   3   5
ENDBRANCH   1   3
BRANCH   1  11
ATOM     11  C   UNL     1       2.656  26.193  66.000  1.00  0.00     0.087 C 
BRANCH  11  12
ATOM     12  C   UNL     1       3.972  26.286  65.180  1.00  0.00     0.066 C 
BRANCH  12  13
ATOM     13  C   UNL     1       4.304  24.981  64.460  1.00  0.00     0.140 C 
ATOM     14  O   UNL     1       4.632  24.012  65.128  1.00  0.00    -0.299 OA
BRANCH  13  15
ATOM     15  C   UNL     1       4.252  24.803  62.952  1.00  0.00     0.106 CG0
ATOM     16  G   UNL     1       2.901  24.413  62.367  1.00  0.00     0.000 G0
ENDBRANCH  13  15
ENDBRANCH  12  13
BRANCH  12  17
ATOM     17  C   UNL     1       5.157  26.807  66.055  1.00  0.00    -0.006 C 
ATOM     18  C   UNL     1       6.098  27.790  65.334  1.00  0.00     0.008 C 
ATOM     19  C   UNL     1       4.649  27.443  67.357  1.00  0.00     0.008 C 
ENDBRANCH  12  17
ENDBRANCH  11  12
ENDBRANCH   1  11
TORSDOF 1
ENDMDL
MODEL 9
REMARK VINA RESULT:    -3.287      5.846      8.481
REMARK INTER + INTRA:          -4.813
REMARK INTER:                  -4.930
REMARK INTRA:                   0.117
REMARK UNBOUND:                 0.204
REMARK SMILES CC1=CCC[C@H](C)C(=O)C[C@@H](C(C)C)C(=O)C1
REMARK SMILES IDX 8 1 9 2 6 3 7 4 5 5 4 6 3 7 2 8 1 9 10 11 11 12 15 13 16 14
REMARK SMILES IDX 17 15 12 17 13 18 14 19
REMARK H PARENT
REMARK Flexibility Score: 70.00
ROOT
ATOM      1  C   UNL     1      -7.045  22.822  62.151  1.00  0.00     0.136 C 
ATOM      2  O   UNL     1      -6.535  21.927  62.810  1.00  0.00    -0.299 OA
ENDROOT
BRANCH   1   3
ATOM      3  C   UNL     1      -8.459  23.257  62.497  1.00  0.00     0.053 C 
ATOM      4  C   UNL     1      -9.098  22.301  63.511  1.00  0.00     0.016 C 
BRANCH   3   5
ATOM      5  C   UNL     1      -8.513  24.714  62.998  1.00  0.00     0.015 C 
BRANCH   5   6
ATOM      6  C   UNL     1      -8.651  25.735  61.848  1.00  0.00     0.028 C 
BRANCH   6   7
ATOM      7  C   UNL     1      -7.863  26.988  62.145  1.00  0.00    -0.028 C 
ATOM      8  C   UNL     1      -6.633  27.274  61.657  1.00  0.00    -0.070 CG0
ATOM      9  C   UNL     1      -5.979  28.556  62.109  1.00  0.00     0.039 C 
ATOM     10  G   UNL     1      -5.916  26.404  60.632  1.00  0.00     0.000 G0
ENDBRANCH   6   7
ENDBRANCH   5   6
ENDBRANCH   3   5
ENDBRANCH   1   3
BRANCH   1  11
ATOM     11  C   UNL     1      -6.234  23.448  61.033  1.00  0.00     0.087 C 
BRANCH  11  12
ATOM     12  C   UNL     1      -4.884  24.057  61.501  1.00  0.00     0.066 C 
BRANCH  12  13
ATOM     13  C   UNL     1      -4.767  25.542  61.167  1.00  0.00     0.140 C 
ATOM     14  O   UNL     1      -3.688  26.092  61.325  1.00  0.00    -0.299 OA
BRANCH  13  15
ATOM     15  C   UNL     1      -5.912  26.391  60.644  1.00  0.00     0.106 CG0
ATOM     16  G   UNL     1      -6.624  27.265  61.669  1.00  0.00     0.000 G0
ENDBRANCH  13  15
ENDBRANCH  12  13
BRANCH  12  17
ATOM     17  C   UNL     1      -3.669  23.226  60.979  1.00  0.00    -0.006 C 
ATOM     18  C   UNL     1      -2.502  23.108  61.978  1.00  0.00     0.008 C 
ATOM     19  C   UNL     1      -4.105  21.825  60.530  1.00  0.00     0.008 C 
ENDBRANCH  12  17
ENDBRANCH  11  12
ENDBRANCH   1  11
TORSDOF 1
ENDMDL
