MODEL 1
REMARK VINA RESULT:    -3.610      0.000      0.000
REMARK INTER + INTRA:          -5.154
REMARK INTER:                  -4.877
REMARK INTRA:                  -0.277
REMARK UNBOUND:                -0.277
REMARK SMILES CCCCCCCC(=O)[O-]
REMARK SMILES IDX 5 1 6 2 7 3 8 4 9 5 10 6 4 7 3 8 2 9 1 10
REMARK H PARENT
REMARK Flexibility Score: inf
ROOT
ATOM      1  C   UNL     1      54.166  -1.514  19.576  1.00  0.00     0.000 C 
ENDROOT
BRANCH   1   2
ATOM      2  C   UNL     1      54.251  -0.030  19.188  1.00  0.00     0.006 C 
BRANCH   2   3
ATOM      3  C   UNL     1      53.069   0.782  19.732  1.00  0.00     0.053 C 
BRANCH   3   4
ATOM      4  C   UNL     1      53.297   2.256  19.599  1.00  0.00     0.041 C 
ATOM      5  O   UNL     1      52.482   2.968  18.957  1.00  0.00    -0.550 OA
ATOM      6  O   UNL     1      54.430   2.839  20.155  1.00  0.00    -0.550 OA
ENDBRANCH   3   4
ENDBRANCH   2   3
ENDBRANCH   1   2
BRANCH   1   7
ATOM      7  C   UNL     1      55.304  -2.319  18.930  1.00  0.00     0.000 C 
BRANCH   7   8
ATOM      8  C   UNL     1      56.683  -1.961  19.523  1.00  0.00    -0.000 C 
BRANCH   8   9
ATOM      9  C   UNL     1      57.798  -1.865  18.469  1.00  0.00    -0.003 C 
ATOM     10  C   UNL     1      57.933  -0.470  17.864  1.00  0.00     0.004 C 
ENDBRANCH   8   9
ENDBRANCH   7   8
ENDBRANCH   1   7
TORSDOF 6
ENDMDL
MODEL 2
REMARK VINA RESULT:    -3.566     14.470     15.914
REMARK INTER + INTRA:          -5.093
REMARK INTER:                  -4.621
REMARK INTRA:                  -0.472
REMARK UNBOUND:                -0.277
REMARK SMILES CCCCCCCC(=O)[O-]
REMARK SMILES IDX 5 1 6 2 7 3 8 4 9 5 10 6 4 7 3 8 2 9 1 10
REMARK H PARENT
REMARK Flexibility Score: inf
ROOT
ATOM      1  C   UNL     1      48.756  13.510  16.052  1.00  0.00     0.000 C 
ENDROOT
BRANCH   1   2
ATOM      2  C   UNL     1      49.014  14.696  15.109  1.00  0.00     0.006 C 
BRANCH   2   3
ATOM      3  C   UNL     1      50.377  15.352  15.360  1.00  0.00     0.053 C 
BRANCH   3   4
ATOM      4  C   UNL     1      51.316  15.142  14.212  1.00  0.00     0.041 C 
ATOM      5  O   UNL     1      51.725  16.124  13.540  1.00  0.00    -0.550 OA
ATOM      6  O   UNL     1      51.714  13.857  13.863  1.00  0.00    -0.550 OA
ENDBRANCH   3   4
ENDBRANCH   2   3
ENDBRANCH   1   2
BRANCH   1   7
ATOM      7  C   UNL     1      50.023  13.146  16.840  1.00  0.00     0.000 C 
BRANCH   7   8
ATOM      8  C   UNL     1      49.741  12.962  18.346  1.00  0.00    -0.000 C 
BRANCH   8   9
ATOM      9  C   UNL     1      49.032  14.165  18.990  1.00  0.00    -0.003 C 
ATOM     10  C   UNL     1      49.922  15.401  19.093  1.00  0.00     0.004 C 
ENDBRANCH   8   9
ENDBRANCH   7   8
ENDBRANCH   1   7
TORSDOF 6
ENDMDL
MODEL 3
REMARK VINA RESULT:    -3.481     10.575     12.414
REMARK INTER + INTRA:          -4.979
REMARK INTER:                  -4.740
REMARK INTRA:                  -0.239
REMARK UNBOUND:                -0.277
REMARK SMILES CCCCCCCC(=O)[O-]
REMARK SMILES IDX 5 1 6 2 7 3 8 4 9 5 10 6 4 7 3 8 2 9 1 10
REMARK H PARENT
REMARK Flexibility Score: inf
ROOT
ATOM      1  C   UNL     1      49.564   9.998  18.831  1.00  0.00     0.000 C 
ENDROOT
BRANCH   1   2
ATOM      2  C   UNL     1      50.047  11.426  18.531  1.00  0.00     0.006 C 
BRANCH   2   3
ATOM      3  C   UNL     1      48.941  12.469  18.737  1.00  0.00     0.053 C 
BRANCH   3   4
ATOM      4  C   UNL     1      49.326  13.805  18.181  1.00  0.00     0.041 C 
ATOM      5  O   UNL     1      49.701  14.728  18.951  1.00  0.00    -0.550 OA
ATOM      6  O   UNL     1      49.237  14.044  16.815  1.00  0.00    -0.550 OA
ENDBRANCH   3   4
ENDBRANCH   2   3
ENDBRANCH   1   2
BRANCH   1   7
ATOM      7  C   UNL     1      50.729   8.999  18.776  1.00  0.00     0.000 C 
BRANCH   7   8
ATOM      8  C   UNL     1      50.659   7.957  19.913  1.00  0.00    -0.000 C 
BRANCH   8   9
ATOM      9  C   UNL     1      49.331   7.981  20.687  1.00  0.00    -0.003 C 
ATOM     10  C   UNL     1      49.515   8.197  22.187  1.00  0.00     0.004 C 
ENDBRANCH   8   9
ENDBRANCH   7   8
ENDBRANCH   1   7
TORSDOF 6
ENDMDL
MODEL 4
REMARK VINA RESULT:    -3.463      3.969      5.328
REMARK INTER + INTRA:          -4.955
REMARK INTER:                  -4.602
REMARK INTRA:                  -0.353
REMARK UNBOUND:                -0.277
REMARK SMILES CCCCCCCC(=O)[O-]
REMARK SMILES IDX 5 1 6 2 7 3 8 4 9 5 10 6 4 7 3 8 2 9 1 10
REMARK H PARENT
REMARK Flexibility Score: inf
ROOT
ATOM      1  C   UNL     1      50.032   2.261  20.646  1.00  0.00     0.000 C 
ENDROOT
BRANCH   1   2
ATOM      2  C   UNL     1      50.944   3.448  20.301  1.00  0.00     0.006 C 
BRANCH   2   3
ATOM      3  C   UNL     1      51.874   3.142  19.120  1.00  0.00     0.053 C 
BRANCH   3   4
ATOM      4  C   UNL     1      53.064   2.336  19.542  1.00  0.00     0.041 C 
ATOM      5  O   UNL     1      53.153   1.122  19.221  1.00  0.00    -0.550 OA
ATOM      6  O   UNL     1      54.058   2.916  20.320  1.00  0.00    -0.550 OA
ENDBRANCH   3   4
ENDBRANCH   2   3
ENDBRANCH   1   2
BRANCH   1   7
ATOM      7  C   UNL     1      50.299   1.756  22.071  1.00  0.00     0.000 C 
BRANCH   7   8
ATOM      8  C   UNL     1      50.305   0.215  22.153  1.00  0.00    -0.000 C 
BRANCH   8   9
ATOM      9  C   UNL     1      51.714  -0.398  22.090  1.00  0.00    -0.003 C 
ATOM     10  C   UNL     1      51.710  -1.922  22.180  1.00  0.00     0.004 C 
ENDBRANCH   8   9
ENDBRANCH   7   8
ENDBRANCH   1   7
TORSDOF 6
ENDMDL
MODEL 5
REMARK VINA RESULT:    -3.462      3.055      4.795
REMARK INTER + INTRA:          -4.953
REMARK INTER:                  -4.662
REMARK INTRA:                  -0.291
REMARK UNBOUND:                -0.277
REMARK SMILES CCCCCCCC(=O)[O-]
REMARK SMILES IDX 5 1 6 2 7 3 8 4 9 5 10 6 4 7 3 8 2 9 1 10
REMARK H PARENT
REMARK Flexibility Score: inf
ROOT
ATOM      1  C   UNL     1      58.431  -0.812  17.302  1.00  0.00     0.000 C 
ENDROOT
BRANCH   1   2
ATOM      2  C   UNL     1      57.521  -0.358  18.454  1.00  0.00     0.006 C 
BRANCH   2   3
ATOM      3  C   UNL     1      56.973  -1.541  19.262  1.00  0.00     0.053 C 
BRANCH   3   4
ATOM      4  C   UNL     1      55.534  -1.813  18.945  1.00  0.00     0.041 C 
ATOM      5  O   UNL     1      55.173  -2.962  18.578  1.00  0.00    -0.550 OA
ATOM      6  O   UNL     1      54.598  -0.789  19.021  1.00  0.00    -0.550 OA
ENDBRANCH   3   4
ENDBRANCH   2   3
ENDBRANCH   1   2
BRANCH   1   7
ATOM      7  C   UNL     1      58.676   0.333  16.308  1.00  0.00     0.000 C 
BRANCH   7   8
ATOM      8  C   UNL     1      59.697   1.360  16.841  1.00  0.00    -0.000 C 
BRANCH   8   9
ATOM      9  C   UNL     1      59.169   2.804  16.851  1.00  0.00    -0.003 C 
ATOM     10  C   UNL     1      58.977   3.362  18.259  1.00  0.00     0.004 C 
ENDBRANCH   8   9
ENDBRANCH   7   8
ENDBRANCH   1   7
TORSDOF 6
ENDMDL
MODEL 6
REMARK VINA RESULT:    -3.417     10.069     11.580
REMARK INTER + INTRA:          -4.893
REMARK INTER:                  -4.364
REMARK INTRA:                  -0.529
REMARK UNBOUND:                -0.277
REMARK SMILES CCCCCCCC(=O)[O-]
REMARK SMILES IDX 5 1 6 2 7 3 8 4 9 5 10 6 4 7 3 8 2 9 1 10
REMARK H PARENT
REMARK Flexibility Score: inf
ROOT
ATOM      1  C   UNL     1      48.036   7.631  20.996  1.00  0.00     0.000 C 
ENDROOT
BRANCH   1   2
ATOM      2  C   UNL     1      47.141   8.734  20.408  1.00  0.00     0.006 C 
BRANCH   2   3
ATOM      3  C   UNL     1      46.966   9.914  21.372  1.00  0.00     0.053 C 
BRANCH   3   4
ATOM      4  C   UNL     1      47.191  11.228  20.689  1.00  0.00     0.041 C 
ATOM      5  O   UNL     1      48.108  11.349  19.835  1.00  0.00    -0.550 OA
ATOM      6  O   UNL     1      46.410  12.329  21.020  1.00  0.00    -0.550 OA
ENDBRANCH   3   4
ENDBRANCH   2   3
ENDBRANCH   1   2
BRANCH   1   7
ATOM      7  C   UNL     1      49.452   8.157  21.269  1.00  0.00     0.000 C 
BRANCH   7   8
ATOM      8  C   UNL     1      50.445   7.770  20.153  1.00  0.00    -0.000 C 
BRANCH   8   9
ATOM      9  C   UNL     1      50.764   8.923  19.187  1.00  0.00    -0.003 C 
ATOM     10  C   UNL     1      49.931   8.883  17.909  1.00  0.00     0.004 C 
ENDBRANCH   8   9
ENDBRANCH   7   8
ENDBRANCH   1   7
TORSDOF 6
ENDMDL
MODEL 7
REMARK VINA RESULT:    -3.410      8.986     10.320
REMARK INTER + INTRA:          -4.883
REMARK INTER:                  -4.537
REMARK INTRA:                  -0.346
REMARK UNBOUND:                -0.277
REMARK SMILES CCCCCCCC(=O)[O-]
REMARK SMILES IDX 5 1 6 2 7 3 8 4 9 5 10 6 4 7 3 8 2 9 1 10
REMARK H PARENT
REMARK Flexibility Score: inf
ROOT
ATOM      1  C   UNL     1      48.976   7.127  22.329  1.00  0.00     0.000 C 
ENDROOT
BRANCH   1   2
ATOM      2  C   UNL     1      49.646   6.886  20.967  1.00  0.00     0.006 C 
BRANCH   2   3
ATOM      3  C   UNL     1      50.354   8.140  20.439  1.00  0.00     0.053 C 
BRANCH   3   4
ATOM      4  C   UNL     1      51.013   7.891  19.116  1.00  0.00     0.041 C 
ATOM      5  O   UNL     1      52.063   7.200  19.052  1.00  0.00    -0.550 OA
ATOM      6  O   UNL     1      50.487   8.452  17.959  1.00  0.00    -0.550 OA
ENDBRANCH   3   4
ENDBRANCH   2   3
ENDBRANCH   1   2
BRANCH   1   7
ATOM      7  C   UNL     1      49.108   8.596  22.757  1.00  0.00     0.000 C 
BRANCH   7   8
ATOM      8  C   UNL     1      49.813   8.746  24.122  1.00  0.00    -0.000 C 
BRANCH   8   9
ATOM      9  C   UNL     1      50.540   7.471  24.581  1.00  0.00    -0.003 C 
ATOM     10  C   UNL     1      50.008   6.920  25.902  1.00  0.00     0.004 C 
ENDBRANCH   8   9
ENDBRANCH   7   8
ENDBRANCH   1   7
TORSDOF 6
ENDMDL
MODEL 8
REMARK VINA RESULT:    -3.402      9.310     12.059
REMARK INTER + INTRA:          -4.872
REMARK INTER:                  -4.516
REMARK INTRA:                  -0.357
REMARK UNBOUND:                -0.277
REMARK SMILES CCCCCCCC(=O)[O-]
REMARK SMILES IDX 5 1 6 2 7 3 8 4 9 5 10 6 4 7 3 8 2 9 1 10
REMARK H PARENT
REMARK Flexibility Score: inf
ROOT
ATOM      1  C   UNL     1      47.923   7.750  20.426  1.00  0.00     0.000 C 
ENDROOT
BRANCH   1   2
ATOM      2  C   UNL     1      49.253   8.202  21.050  1.00  0.00     0.006 C 
BRANCH   2   3
ATOM      3  C   UNL     1      50.467   7.665  20.282  1.00  0.00     0.053 C 
BRANCH   3   4
ATOM      4  C   UNL     1      50.699   8.419  19.009  1.00  0.00     0.041 C 
ATOM      5  O   UNL     1      50.742   9.677  19.017  1.00  0.00    -0.550 OA
ATOM      6  O   UNL     1      50.832   7.734  17.807  1.00  0.00    -0.550 OA
ENDBRANCH   3   4
ENDBRANCH   2   3
ENDBRANCH   1   2
BRANCH   1   7
ATOM      7  C   UNL     1      46.891   8.887  20.444  1.00  0.00     0.000 C 
BRANCH   7   8
ATOM      8  C   UNL     1      47.547  10.268  20.650  1.00  0.00    -0.000 C 
BRANCH   8   9
ATOM      9  C   UNL     1      46.734  11.205  21.559  1.00  0.00    -0.003 C 
ATOM     10  C   UNL     1      46.831  12.672  21.147  1.00  0.00     0.004 C 
ENDBRANCH   8   9
ENDBRANCH   7   8
ENDBRANCH   1   7
TORSDOF 6
ENDMDL
MODEL 9
REMARK VINA RESULT:    -3.366      4.095      7.196
REMARK INTER + INTRA:          -4.823
REMARK INTER:                  -4.409
REMARK INTRA:                  -0.414
REMARK UNBOUND:                -0.277
REMARK SMILES CCCCCCCC(=O)[O-]
REMARK SMILES IDX 5 1 6 2 7 3 8 4 9 5 10 6 4 7 3 8 2 9 1 10
REMARK H PARENT
REMARK Flexibility Score: inf
ROOT
ATOM      1  C   UNL     1      51.107   2.656  21.651  1.00  0.00     0.000 C 
ENDROOT
BRANCH   1   2
ATOM      2  C   UNL     1      50.748   2.603  20.158  1.00  0.00     0.006 C 
BRANCH   2   3
ATOM      3  C   UNL     1      51.871   3.154  19.270  1.00  0.00     0.053 C 
BRANCH   3   4
ATOM      4  C   UNL     1      53.184   2.495  19.562  1.00  0.00     0.041 C 
ATOM      5  O   UNL     1      54.163   3.181  19.956  1.00  0.00    -0.550 OA
ATOM      6  O   UNL     1      53.338   1.128  19.364  1.00  0.00    -0.550 OA
ENDBRANCH   3   4
ENDBRANCH   2   3
ENDBRANCH   1   2
BRANCH   1   7
ATOM      7  C   UNL     1      50.159   3.594  22.413  1.00  0.00     0.000 C 
BRANCH   7   8
ATOM      8  C   UNL     1      49.086   4.214  21.493  1.00  0.00    -0.000 C 
BRANCH   8   9
ATOM      9  C   UNL     1      48.805   5.696  21.790  1.00  0.00    -0.003 C 
ATOM     10  C   UNL     1      49.695   6.646  20.992  1.00  0.00     0.004 C 
ENDBRANCH   8   9
ENDBRANCH   7   8
ENDBRANCH   1   7
TORSDOF 6
ENDMDL
