MODEL 1
REMARK VINA RESULT:    -4.097      0.000      0.000
REMARK INTER + INTRA:          -4.466
REMARK INTER:                  -4.457
REMARK INTRA:                  -0.009
REMARK UNBOUND:                -0.009
REMARK SMILES OCc1ccccc1
REMARK SMILES IDX 2 1 3 2 6 3 5 4 7 5 4 6 8 7 1 8
REMARK H PARENT 1 9
REMARK Flexibility Score: inf
ROOT
ATOM      1  C   UNL     1       4.882  -1.928   2.504  1.00  0.00     0.191 C 
ENDROOT
BRANCH   1   2
ATOM      2  C   UNL     1       5.272  -1.646   1.080  1.00  0.00    -0.023 A 
ATOM      3  C   UNL     1       5.939  -1.164  -1.603  1.00  0.00     0.000 A 
ATOM      4  C   UNL     1       5.030  -0.328  -0.948  1.00  0.00     0.000 A 
ATOM      5  C   UNL     1       6.508  -2.246  -0.925  1.00  0.00     0.000 A 
ATOM      6  C   UNL     1       4.692  -0.570   0.387  1.00  0.00     0.006 A 
ATOM      7  C   UNL     1       6.173  -2.491   0.411  1.00  0.00     0.006 A 
ENDBRANCH   1   2
BRANCH   1   8
ATOM      8  O   UNL     1       5.613  -1.109   3.375  1.00  0.00    -0.392 OA
ATOM      9  H   UNL     1       5.577  -1.542   4.268  1.00  0.00     0.211 HD
ENDBRANCH   1   8
TORSDOF 2
ENDMDL
MODEL 2
REMARK VINA RESULT:    -4.055      1.728      2.515
REMARK INTER + INTRA:          -4.420
REMARK INTER:                  -4.408
REMARK INTRA:                  -0.012
REMARK UNBOUND:                -0.009
REMARK SMILES OCc1ccccc1
REMARK SMILES IDX 2 1 3 2 6 3 5 4 7 5 4 6 8 7 1 8
REMARK H PARENT 1 9
REMARK Flexibility Score: inf
ROOT
ATOM      1  C   UNL     1       6.380  -3.772   0.375  1.00  0.00     0.191 C 
ENDROOT
BRANCH   1   2
ATOM      2  C   UNL     1       5.735  -2.642  -0.379  1.00  0.00    -0.023 A 
ATOM      3  C   UNL     1       4.603  -0.507  -1.804  1.00  0.00     0.000 A 
ATOM      4  C   UNL     1       4.898  -1.707  -2.459  1.00  0.00     0.000 A 
ATOM      5  C   UNL     1       4.881  -0.368  -0.442  1.00  0.00     0.000 A 
ATOM      6  C   UNL     1       5.467  -2.770  -1.751  1.00  0.00     0.006 A 
ATOM      7  C   UNL     1       5.451  -1.429   0.270  1.00  0.00     0.006 A 
ENDBRANCH   1   2
BRANCH   1   8
ATOM      8  O   UNL     1       5.607  -4.108   1.494  1.00  0.00    -0.392 OA
ATOM      9  H   UNL     1       4.970  -4.810   1.198  1.00  0.00     0.211 HD
ENDBRANCH   1   8
TORSDOF 2
ENDMDL
MODEL 3
REMARK VINA RESULT:    -3.856     13.585     14.645
REMARK INTER + INTRA:          -4.203
REMARK INTER:                  -4.190
REMARK INTRA:                  -0.013
REMARK UNBOUND:                -0.009
REMARK SMILES OCc1ccccc1
REMARK SMILES IDX 2 1 3 2 6 3 5 4 7 5 4 6 8 7 1 8
REMARK H PARENT 1 9
REMARK Flexibility Score: inf
ROOT
ATOM      1  C   UNL     1      -7.459   2.036   0.653  1.00  0.00     0.191 C 
ENDROOT
BRANCH   1   2
ATOM      2  C   UNL     1      -7.581   3.506   0.939  1.00  0.00    -0.023 A 
ATOM      3  C   UNL     1      -7.848   6.234   1.541  1.00  0.00     0.000 A 
ATOM      4  C   UNL     1      -6.752   5.515   2.028  1.00  0.00     0.000 A 
ATOM      5  C   UNL     1      -8.815   5.592   0.763  1.00  0.00     0.000 A 
ATOM      6  C   UNL     1      -6.621   4.154   1.734  1.00  0.00     0.006 A 
ATOM      7  C   UNL     1      -8.687   4.231   0.466  1.00  0.00     0.006 A 
ENDBRANCH   1   2
BRANCH   1   8
ATOM      8  O   UNL     1      -7.561   1.803  -0.725  1.00  0.00    -0.392 OA
ATOM      9  H   UNL     1      -6.633   1.729  -1.071  1.00  0.00     0.211 HD
ENDBRANCH   1   8
TORSDOF 2
ENDMDL
MODEL 4
REMARK VINA RESULT:    -3.852     13.572     14.576
REMARK INTER + INTRA:          -4.199
REMARK INTER:                  -4.185
REMARK INTRA:                  -0.014
REMARK UNBOUND:                -0.009
REMARK SMILES OCc1ccccc1
REMARK SMILES IDX 2 1 3 2 6 3 5 4 7 5 4 6 8 7 1 8
REMARK H PARENT 1 9
REMARK Flexibility Score: inf
ROOT
ATOM      1  C   UNL     1      -7.437   2.029   0.654  1.00  0.00     0.191 C 
ENDROOT
BRANCH   1   2
ATOM      2  C   UNL     1      -7.588   3.490   0.976  1.00  0.00    -0.023 A 
ATOM      3  C   UNL     1      -7.830   6.234   1.510  1.00  0.00     0.000 A 
ATOM      4  C   UNL     1      -8.799   5.583   0.741  1.00  0.00     0.000 A 
ATOM      5  C   UNL     1      -6.735   5.519   2.005  1.00  0.00     0.000 A 
ATOM      6  C   UNL     1      -8.677   4.217   0.469  1.00  0.00     0.006 A 
ATOM      7  C   UNL     1      -6.609   4.152   1.735  1.00  0.00     0.006 A 
ENDBRANCH   1   2
BRANCH   1   8
ATOM      8  O   UNL     1      -7.561   1.825  -0.727  1.00  0.00    -0.392 OA
ATOM      9  H   UNL     1      -7.036   1.010  -0.942  1.00  0.00     0.211 HD
ENDBRANCH   1   8
TORSDOF 2
ENDMDL
MODEL 5
REMARK VINA RESULT:    -3.741     13.605     14.653
REMARK INTER + INTRA:          -4.079
REMARK INTER:                  -4.065
REMARK INTRA:                  -0.013
REMARK UNBOUND:                -0.009
REMARK SMILES OCc1ccccc1
REMARK SMILES IDX 2 1 3 2 6 3 5 4 7 5 4 6 8 7 1 8
REMARK H PARENT 1 9
REMARK Flexibility Score: inf
ROOT
ATOM      1  C   UNL     1      -7.242   6.094   1.666  1.00  0.00     0.191 C 
ENDROOT
BRANCH   1   2
ATOM      2  C   UNL     1      -7.674   4.762   1.120  1.00  0.00    -0.023 A 
ATOM      3  C   UNL     1      -8.442   2.292   0.032  1.00  0.00     0.000 A 
ATOM      4  C   UNL     1      -7.228   2.407   0.717  1.00  0.00     0.000 A 
ATOM      5  C   UNL     1      -9.268   3.409  -0.119  1.00  0.00     0.000 A 
ATOM      6  C   UNL     1      -6.841   3.639   1.254  1.00  0.00     0.006 A 
ATOM      7  C   UNL     1      -8.885   4.643   0.418  1.00  0.00     0.006 A 
ENDBRANCH   1   2
BRANCH   1   8
ATOM      8  O   UNL     1      -6.816   5.955   2.994  1.00  0.00    -0.392 OA
ATOM      9  H   UNL     1      -6.571   5.000   3.115  1.00  0.00     0.211 HD
ENDBRANCH   1   8
TORSDOF 2
ENDMDL
MODEL 6
REMARK VINA RESULT:    -3.645      3.079      3.926
REMARK INTER + INTRA:          -3.974
REMARK INTER:                  -3.959
REMARK INTRA:                  -0.015
REMARK UNBOUND:                -0.009
REMARK SMILES OCc1ccccc1
REMARK SMILES IDX 2 1 3 2 6 3 5 4 7 5 4 6 8 7 1 8
REMARK H PARENT 1 9
REMARK Flexibility Score: inf
ROOT
ATOM      1  C   UNL     1       4.784  -4.342  -2.257  1.00  0.00     0.191 C 
ENDROOT
BRANCH   1   2
ATOM      2  C   UNL     1       4.907  -2.934  -1.745  1.00  0.00    -0.023 A 
ATOM      3  C   UNL     1       5.059  -0.309  -0.765  1.00  0.00     0.000 A 
ATOM      4  C   UNL     1       5.340  -1.388   0.078  1.00  0.00     0.000 A 
ATOM      5  C   UNL     1       4.692  -0.539  -2.095  1.00  0.00     0.000 A 
ATOM      6  C   UNL     1       5.259  -2.697  -0.406  1.00  0.00     0.006 A 
ATOM      7  C   UNL     1       4.610  -1.847  -2.584  1.00  0.00     0.006 A 
ENDBRANCH   1   2
BRANCH   1   8
ATOM      8  O   UNL     1       3.578  -4.499  -2.953  1.00  0.00    -0.392 OA
ATOM      9  H   UNL     1       3.106  -3.626  -2.902  1.00  0.00     0.211 HD
ENDBRANCH   1   8
TORSDOF 2
ENDMDL
MODEL 7
REMARK VINA RESULT:    -3.551      3.408      4.547
REMARK INTER + INTRA:          -3.871
REMARK INTER:                  -3.854
REMARK INTRA:                  -0.017
REMARK UNBOUND:                -0.009
REMARK SMILES OCc1ccccc1
REMARK SMILES IDX 2 1 3 2 6 3 5 4 7 5 4 6 8 7 1 8
REMARK H PARENT 1 9
REMARK Flexibility Score: inf
ROOT
ATOM      1  C   UNL     1       7.451  -2.467  -3.644  1.00  0.00     0.191 C 
ENDROOT
BRANCH   1   2
ATOM      2  C   UNL     1       6.598  -1.816  -2.591  1.00  0.00    -0.023 A 
ATOM      3  C   UNL     1       4.985  -0.674  -0.598  1.00  0.00     0.000 A 
ATOM      4  C   UNL     1       6.319  -0.989  -0.323  1.00  0.00     0.000 A 
ATOM      5  C   UNL     1       4.452  -0.937  -1.863  1.00  0.00     0.000 A 
ATOM      6  C   UNL     1       7.123  -1.564  -1.312  1.00  0.00     0.006 A 
ATOM      7  C   UNL     1       5.253  -1.511  -2.857  1.00  0.00     0.006 A 
ENDBRANCH   1   2
BRANCH   1   8
ATOM      8  O   UNL     1       6.967  -2.148  -4.920  1.00  0.00    -0.392 OA
ATOM      9  H   UNL     1       7.179  -2.922  -5.505  1.00  0.00     0.211 HD
ENDBRANCH   1   8
TORSDOF 2
ENDMDL
MODEL 8
REMARK VINA RESULT:    -3.473     10.995     11.686
REMARK INTER + INTRA:          -3.787
REMARK INTER:                  -3.776
REMARK INTRA:                  -0.011
REMARK UNBOUND:                -0.009
REMARK SMILES OCc1ccccc1
REMARK SMILES IDX 2 1 3 2 6 3 5 4 7 5 4 6 8 7 1 8
REMARK H PARENT 1 9
REMARK Flexibility Score: inf
ROOT
ATOM      1  C   UNL     1      -3.539  -4.960   1.107  1.00  0.00     0.191 C 
ENDROOT
BRANCH   1   2
ATOM      2  C   UNL     1      -4.078  -6.355   0.955  1.00  0.00    -0.023 A 
ATOM      3  C   UNL     1      -5.158  -8.929   0.667  1.00  0.00     0.000 A 
ATOM      4  C   UNL     1      -4.826  -8.179  -0.466  1.00  0.00     0.000 A 
ATOM      5  C   UNL     1      -4.960  -8.393   1.943  1.00  0.00     0.000 A 
ATOM      6  C   UNL     1      -4.294  -6.894  -0.324  1.00  0.00     0.006 A 
ATOM      7  C   UNL     1      -4.427  -7.108   2.088  1.00  0.00     0.006 A 
ENDBRANCH   1   2
BRANCH   1   8
ATOM      8  O   UNL     1      -4.518  -4.024   0.749  1.00  0.00    -0.392 OA
ATOM      9  H   UNL     1      -4.526  -3.987  -0.244  1.00  0.00     0.211 HD
ENDBRANCH   1   8
TORSDOF 2
ENDMDL
MODEL 9
REMARK VINA RESULT:    -3.427      2.818      3.824
REMARK INTER + INTRA:          -3.737
REMARK INTER:                  -3.723
REMARK INTRA:                  -0.015
REMARK UNBOUND:                -0.009
REMARK SMILES OCc1ccccc1
REMARK SMILES IDX 2 1 3 2 6 3 5 4 7 5 4 6 8 7 1 8
REMARK H PARENT 1 9
REMARK Flexibility Score: inf
ROOT
ATOM      1  C   UNL     1       8.540  -2.109  -2.240  1.00  0.00     0.191 C 
ENDROOT
BRANCH   1   2
ATOM      2  C   UNL     1       7.114  -1.689  -2.016  1.00  0.00    -0.023 A 
ATOM      3  C   UNL     1       4.437  -0.978  -1.565  1.00  0.00     0.000 A 
ATOM      4  C   UNL     1       5.396  -0.756  -0.572  1.00  0.00     0.000 A 
ATOM      5  C   UNL     1       4.810  -1.562  -2.779  1.00  0.00     0.000 A 
ATOM      6  C   UNL     1       6.730  -1.116  -0.793  1.00  0.00     0.006 A 
ATOM      7  C   UNL     1       6.143  -1.923  -3.004  1.00  0.00     0.006 A 
ENDBRANCH   1   2
BRANCH   1   8
ATOM      8  O   UNL     1       9.413  -1.128  -1.752  1.00  0.00    -0.392 OA
ATOM      9  H   UNL     1       9.371  -1.178  -0.761  1.00  0.00     0.211 HD
ENDBRANCH   1   8
TORSDOF 2
ENDMDL
