MODEL 1
REMARK VINA RESULT:    -4.122      0.000      0.000
REMARK INTER + INTRA:          -7.043
REMARK INTER:                  -5.567
REMARK INTRA:                  -1.475
REMARK UNBOUND:                -1.475
REMARK SMILES CC(=O)CCC=C(C)CCC=C(C)C
REMARK SMILES IDX 7 1 6 2 8 3 9 4 10 5 11 6 13 7 12 8 14 9 5 10 4 11 2 12 3 13
REMARK SMILES IDX 1 14
REMARK H PARENT
REMARK Flexibility Score: inf
ROOT
ATOM      1  C   UNL     1      16.309   7.794  25.354  1.00  0.00    -0.077 C 
ATOM      2  C   UNL     1      16.982   8.956  25.518  1.00  0.00    -0.028 C 
ATOM      3  C   UNL     1      16.736   6.603  26.173  1.00  0.00     0.039 C 
ENDROOT
BRANCH   1   4
ATOM      4  C   UNL     1      15.125   7.637  24.415  1.00  0.00     0.034 C 
BRANCH   4   5
ATOM      5  C   UNL     1      13.792   7.595  25.175  1.00  0.00     0.032 C 
BRANCH   5   6
ATOM      6  C   UNL     1      13.123   8.948  25.191  1.00  0.00    -0.028 C 
ATOM      7  C   UNL     1      13.767   9.455  27.558  1.00  0.00     0.039 C 
ATOM      8  C   UNL     1      13.125   9.803  26.236  1.00  0.00    -0.080 C 
ATOM      9  C   UNL     1      12.463  11.146  26.066  1.00  0.00     0.039 C 
ENDBRANCH   5   6
ENDBRANCH   4   5
ENDBRANCH   1   4
BRANCH   2  10
ATOM     10  C   UNL     1      16.730  10.226  24.741  1.00  0.00     0.035 C 
BRANCH  10  11
ATOM     11  C   UNL     1      16.449  11.420  25.663  1.00  0.00     0.079 C 
BRANCH  11  12
ATOM     12  C   UNL     1      16.388  12.717  24.897  1.00  0.00     0.130 C 
ATOM     13  O   UNL     1      17.419  13.323  24.646  1.00  0.00    -0.300 OA
ATOM     14  C   UNL     1      15.075  13.250  24.411  1.00  0.00     0.087 C 
ENDBRANCH  11  12
ENDBRANCH  10  11
ENDBRANCH   2  10
TORSDOF 6
ENDMDL
MODEL 2
REMARK VINA RESULT:    -4.002      1.384      3.856
REMARK INTER + INTRA:          -6.882
REMARK INTER:                  -5.875
REMARK INTRA:                  -1.007
REMARK UNBOUND:                -1.475
REMARK SMILES CC(=O)CCC=C(C)CCC=C(C)C
REMARK SMILES IDX 7 1 6 2 8 3 9 4 10 5 11 6 13 7 12 8 14 9 5 10 4 11 2 12 3 13
REMARK SMILES IDX 1 14
REMARK H PARENT
REMARK Flexibility Score: inf
ROOT
ATOM      1  C   UNL     1      14.925  11.250  26.037  1.00  0.00    -0.077 C 
ATOM      2  C   UNL     1      14.272  12.263  25.422  1.00  0.00    -0.028 C 
ATOM      3  C   UNL     1      14.155  10.394  27.010  1.00  0.00     0.039 C 
ENDROOT
BRANCH   1   4
ATOM      4  C   UNL     1      16.382  10.909  25.772  1.00  0.00     0.034 C 
BRANCH   4   5
ATOM      5  C   UNL     1      16.527   9.728  24.803  1.00  0.00     0.032 C 
BRANCH   5   6
ATOM      6  C   UNL     1      16.938   8.468  25.526  1.00  0.00    -0.028 C 
ATOM      7  C   UNL     1      14.723   7.338  25.218  1.00  0.00     0.039 C 
ATOM      8  C   UNL     1      16.154   7.380  25.696  1.00  0.00    -0.080 C 
ATOM      9  C   UNL     1      16.740   6.176  26.387  1.00  0.00     0.039 C 
ENDBRANCH   5   6
ENDBRANCH   4   5
ENDBRANCH   1   4
BRANCH   2  10
ATOM     10  C   UNL     1      14.899  13.252  24.468  1.00  0.00     0.035 C 
BRANCH  10  11
ATOM     11  C   UNL     1      15.214  14.590  25.150  1.00  0.00     0.079 C 
BRANCH  11  12
ATOM     12  C   UNL     1      16.521  14.543  25.900  1.00  0.00     0.130 C 
ATOM     13  O   UNL     1      17.576  14.601  25.286  1.00  0.00    -0.300 OA
ATOM     14  C   UNL     1      16.534  14.461  27.395  1.00  0.00     0.087 C 
ENDBRANCH  11  12
ENDBRANCH  10  11
ENDBRANCH   2  10
TORSDOF 6
ENDMDL
MODEL 3
REMARK VINA RESULT:    -3.837      1.601      3.760
REMARK INTER + INTRA:          -6.658
REMARK INTER:                  -5.403
REMARK INTRA:                  -1.255
REMARK UNBOUND:                -1.475
REMARK SMILES CC(=O)CCC=C(C)CCC=C(C)C
REMARK SMILES IDX 7 1 6 2 8 3 9 4 10 5 11 6 13 7 12 8 14 9 5 10 4 11 2 12 3 13
REMARK SMILES IDX 1 14
REMARK H PARENT
REMARK Flexibility Score: inf
ROOT
ATOM      1  C   UNL     1      16.020   7.298  25.644  1.00  0.00    -0.077 C 
ATOM      2  C   UNL     1      14.677   7.133  25.646  1.00  0.00    -0.028 C 
ATOM      3  C   UNL     1      16.854   6.355  26.473  1.00  0.00     0.039 C 
ENDROOT
BRANCH   1   4
ATOM      4  C   UNL     1      16.733   8.360  24.824  1.00  0.00     0.034 C 
BRANCH   4   5
ATOM      5  C   UNL     1      16.897   9.672  25.603  1.00  0.00     0.032 C 
BRANCH   5   6
ATOM      6  C   UNL     1      16.407  10.855  24.803  1.00  0.00    -0.028 C 
ATOM      7  C   UNL     1      16.308  12.396  26.775  1.00  0.00     0.039 C 
ATOM      8  C   UNL     1      16.165  12.085  25.305  1.00  0.00    -0.080 C 
ATOM      9  C   UNL     1      15.740  13.176  24.356  1.00  0.00     0.039 C 
ENDBRANCH   5   6
ENDBRANCH   4   5
ENDBRANCH   1   4
BRANCH   2  10
ATOM     10  C   UNL     1      13.690   8.019  24.924  1.00  0.00     0.035 C 
BRANCH  10  11
ATOM     11  C   UNL     1      12.654   8.626  25.880  1.00  0.00     0.079 C 
BRANCH  11  12
ATOM     12  C   UNL     1      13.117   9.945  26.443  1.00  0.00     0.130 C 
ATOM     13  O   UNL     1      12.922  10.976  25.817  1.00  0.00    -0.300 OA
ATOM     14  C   UNL     1      13.783  10.005  27.783  1.00  0.00     0.087 C 
ENDBRANCH  11  12
ENDBRANCH  10  11
ENDBRANCH   2  10
TORSDOF 6
ENDMDL
MODEL 4
REMARK VINA RESULT:    -3.799      2.122      4.640
REMARK INTER + INTRA:          -6.607
REMARK INTER:                  -5.152
REMARK INTRA:                  -1.455
REMARK UNBOUND:                -1.475
REMARK SMILES CC(=O)CCC=C(C)CCC=C(C)C
REMARK SMILES IDX 7 1 6 2 8 3 9 4 10 5 11 6 13 7 12 8 14 9 5 10 4 11 2 12 3 13
REMARK SMILES IDX 1 14
REMARK H PARENT
REMARK Flexibility Score: inf
ROOT
ATOM      1  C   UNL     1      12.533   9.309  26.289  1.00  0.00    -0.077 C 
ATOM      2  C   UNL     1      12.761   8.347  25.366  1.00  0.00    -0.028 C 
ATOM      3  C   UNL     1      11.376  10.249  26.066  1.00  0.00     0.039 C 
ENDROOT
BRANCH   1   4
ATOM      4  C   UNL     1      13.359   9.470  27.554  1.00  0.00     0.034 C 
BRANCH   4   5
ATOM      5  C   UNL     1      14.020  10.853  27.636  1.00  0.00     0.032 C 
BRANCH   5   6
ATOM      6  C   UNL     1      15.151  10.984  26.644  1.00  0.00    -0.028 C 
ATOM      7  C   UNL     1      13.991  12.715  25.254  1.00  0.00     0.039 C 
ATOM      8  C   UNL     1      15.166  11.830  25.591  1.00  0.00    -0.080 C 
ATOM      9  C   UNL     1      16.404  11.884  24.733  1.00  0.00     0.039 C 
ENDBRANCH   5   6
ENDBRANCH   4   5
ENDBRANCH   1   4
BRANCH   2  10
ATOM     10  C   UNL     1      13.906   7.362  25.399  1.00  0.00     0.035 C 
BRANCH  10  11
ATOM     11  C   UNL     1      15.161   7.914  24.708  1.00  0.00     0.079 C 
BRANCH  11  12
ATOM     12  C   UNL     1      16.416   7.566  25.467  1.00  0.00     0.130 C 
ATOM     13  O   UNL     1      16.471   6.528  26.108  1.00  0.00    -0.300 OA
ATOM     14  C   UNL     1      17.610   8.469  25.412  1.00  0.00     0.087 C 
ENDBRANCH  11  12
ENDBRANCH  10  11
ENDBRANCH   2  10
TORSDOF 6
ENDMDL
MODEL 5
REMARK VINA RESULT:    -3.781      1.913      4.172
REMARK INTER + INTRA:          -6.582
REMARK INTER:                  -5.769
REMARK INTRA:                  -0.813
REMARK UNBOUND:                -1.475
REMARK SMILES CC(=O)CCC=C(C)CCC=C(C)C
REMARK SMILES IDX 7 1 6 2 8 3 9 4 10 5 11 6 13 7 12 8 14 9 5 10 4 11 2 12 3 13
REMARK SMILES IDX 1 14
REMARK H PARENT
REMARK Flexibility Score: inf
ROOT
ATOM      1  C   UNL     1      15.218  11.514  26.128  1.00  0.00    -0.077 C 
ATOM      2  C   UNL     1      14.480  12.492  25.555  1.00  0.00    -0.028 C 
ATOM      3  C   UNL     1      14.586  10.697  27.226  1.00  0.00     0.039 C 
ENDROOT
BRANCH   1   4
ATOM      4  C   UNL     1      16.635  11.173  25.699  1.00  0.00     0.034 C 
BRANCH   4   5
ATOM      5  C   UNL     1      16.670   9.978  24.735  1.00  0.00     0.032 C 
BRANCH   5   6
ATOM      6  C   UNL     1      17.055   8.705  25.449  1.00  0.00    -0.028 C 
ATOM      7  C   UNL     1      14.821   7.619  25.123  1.00  0.00     0.039 C 
ATOM      8  C   UNL     1      16.251   7.630  25.606  1.00  0.00    -0.080 C 
ATOM      9  C   UNL     1      16.812   6.409  26.289  1.00  0.00     0.039 C 
ENDBRANCH   5   6
ENDBRANCH   4   5
ENDBRANCH   1   4
BRANCH   2  10
ATOM     10  C   UNL     1      14.971  13.441  24.487  1.00  0.00     0.035 C 
BRANCH  10  11
ATOM     11  C   UNL     1      15.384  14.800  25.069  1.00  0.00     0.079 C 
BRANCH  11  12
ATOM     12  C   UNL     1      14.298  15.833  24.904  1.00  0.00     0.130 C 
ATOM     13  O   UNL     1      14.104  16.656  25.786  1.00  0.00    -0.300 OA
ATOM     14  C   UNL     1      13.479  15.879  23.651  1.00  0.00     0.087 C 
ENDBRANCH  11  12
ENDBRANCH  10  11
ENDBRANCH   2  10
TORSDOF 6
ENDMDL
MODEL 6
REMARK VINA RESULT:    -3.763      2.425      5.441
REMARK INTER + INTRA:          -6.558
REMARK INTER:                  -5.667
REMARK INTRA:                  -0.891
REMARK UNBOUND:                -1.475
REMARK SMILES CC(=O)CCC=C(C)CCC=C(C)C
REMARK SMILES IDX 7 1 6 2 8 3 9 4 10 5 11 6 13 7 12 8 14 9 5 10 4 11 2 12 3 13
REMARK SMILES IDX 1 14
REMARK H PARENT
REMARK Flexibility Score: inf
ROOT
ATOM      1  C   UNL     1      15.715  12.166  26.776  1.00  0.00    -0.077 C 
ATOM      2  C   UNL     1      15.585  10.959  26.178  1.00  0.00    -0.028 C 
ATOM      3  C   UNL     1      14.641  12.603  27.738  1.00  0.00     0.039 C 
ENDROOT
BRANCH   1   4
ATOM      4  C   UNL     1      16.904  13.086  26.555  1.00  0.00     0.034 C 
BRANCH   4   5
ATOM      5  C   UNL     1      16.786  13.870  25.241  1.00  0.00     0.032 C 
BRANCH   5   6
ATOM      6  C   UNL     1      15.967  15.126  25.418  1.00  0.00    -0.028 C 
ATOM      7  C   UNL     1      13.961  14.219  24.224  1.00  0.00     0.039 C 
ATOM      8  C   UNL     1      14.695  15.289  24.995  1.00  0.00    -0.080 C 
ATOM      9  C   UNL     1      13.996  16.586  25.310  1.00  0.00     0.039 C 
ENDBRANCH   5   6
ENDBRANCH   4   5
ENDBRANCH   1   4
BRANCH   2  10
ATOM     10  C   UNL     1      16.531  10.390  25.148  1.00  0.00     0.035 C 
BRANCH  10  11
ATOM     11  C   UNL     1      17.170   9.076  25.615  1.00  0.00     0.079 C 
BRANCH  11  12
ATOM     12  C   UNL     1      16.294   7.888  25.309  1.00  0.00     0.130 C 
ATOM     13  O   UNL     1      15.475   7.954  24.405  1.00  0.00    -0.300 OA
ATOM     14  C   UNL     1      16.445   6.614  26.084  1.00  0.00     0.087 C 
ENDBRANCH  11  12
ENDBRANCH  10  11
ENDBRANCH   2  10
TORSDOF 6
ENDMDL
MODEL 7
REMARK VINA RESULT:    -3.724      2.505      5.502
REMARK INTER + INTRA:          -6.505
REMARK INTER:                  -5.365
REMARK INTRA:                  -1.141
REMARK UNBOUND:                -1.475
REMARK SMILES CC(=O)CCC=C(C)CCC=C(C)C
REMARK SMILES IDX 7 1 6 2 8 3 9 4 10 5 11 6 13 7 12 8 14 9 5 10 4 11 2 12 3 13
REMARK SMILES IDX 1 14
REMARK H PARENT
REMARK Flexibility Score: inf
ROOT
ATOM      1  C   UNL     1      15.160  12.875  24.878  1.00  0.00    -0.077 C 
ATOM      2  C   UNL     1      14.685  11.871  25.649  1.00  0.00    -0.028 C 
ATOM      3  C   UNL     1      14.179  13.656  24.041  1.00  0.00     0.039 C 
ENDROOT
BRANCH   1   4
ATOM      4  C   UNL     1      16.624  13.280  24.838  1.00  0.00     0.034 C 
BRANCH   4   5
ATOM      5  C   UNL     1      16.875  14.597  25.586  1.00  0.00     0.032 C 
BRANCH   5   6
ATOM      6  C   UNL     1      16.783  14.408  27.081  1.00  0.00    -0.028 C 
ATOM      7  C   UNL     1      14.589  15.600  27.291  1.00  0.00     0.039 C 
ATOM      8  C   UNL     1      15.756  14.825  27.854  1.00  0.00    -0.080 C 
ATOM      9  C   UNL     1      15.788  14.500  29.325  1.00  0.00     0.039 C 
ENDBRANCH   5   6
ENDBRANCH   4   5
ENDBRANCH   1   4
BRANCH   2  10
ATOM     10  C   UNL     1      15.529  10.952  26.501  1.00  0.00     0.035 C 
BRANCH  10  11
ATOM     11  C   UNL     1      15.371   9.481  26.093  1.00  0.00     0.079 C 
BRANCH  11  12
ATOM     12  C   UNL     1      16.590   8.966  25.370  1.00  0.00     0.130 C 
ATOM     13  O   UNL     1      17.094   9.632  24.478  1.00  0.00    -0.300 OA
ATOM     14  C   UNL     1      17.209   7.660  25.763  1.00  0.00     0.087 C 
ENDBRANCH  11  12
ENDBRANCH  10  11
ENDBRANCH   2  10
TORSDOF 6
ENDMDL
MODEL 8
REMARK VINA RESULT:    -3.652      2.333      4.938
REMARK INTER + INTRA:          -6.408
REMARK INTER:                  -5.144
REMARK INTRA:                  -1.264
REMARK UNBOUND:                -1.475
REMARK SMILES CC(=O)CCC=C(C)CCC=C(C)C
REMARK SMILES IDX 7 1 6 2 8 3 9 4 10 5 11 6 13 7 12 8 14 9 5 10 4 11 2 12 3 13
REMARK SMILES IDX 1 14
REMARK H PARENT
REMARK Flexibility Score: inf
ROOT
ATOM      1  C   UNL     1      14.545  10.940  26.760  1.00  0.00    -0.077 C 
ATOM      2  C   UNL     1      15.716  10.262  26.709  1.00  0.00    -0.028 C 
ATOM      3  C   UNL     1      13.846  11.051  28.091  1.00  0.00     0.039 C 
ENDROOT
BRANCH   1   4
ATOM      4  C   UNL     1      13.919  11.623  25.557  1.00  0.00     0.034 C 
BRANCH   4   5
ATOM      5  C   UNL     1      14.192  13.133  25.548  1.00  0.00     0.032 C 
BRANCH   5   6
ATOM      6  C   UNL     1      15.506  13.452  24.876  1.00  0.00    -0.028 C 
ATOM      7  C   UNL     1      16.717  13.900  27.023  1.00  0.00     0.039 C 
ATOM      8  C   UNL     1      16.651  13.769  25.521  1.00  0.00    -0.080 C 
ATOM      9  C   UNL     1      17.895  13.997  24.702  1.00  0.00     0.039 C 
ENDBRANCH   5   6
ENDBRANCH   4   5
ENDBRANCH   1   4
BRANCH   2  10
ATOM     10  C   UNL     1      16.517  10.003  25.455  1.00  0.00     0.035 C 
BRANCH  10  11
ATOM     11  C   UNL     1      17.098   8.583  25.427  1.00  0.00     0.079 C 
BRANCH  11  12
ATOM     12  C   UNL     1      16.015   7.535  25.383  1.00  0.00     0.130 C 
ATOM     13  O   UNL     1      16.029   6.614  26.185  1.00  0.00    -0.300 OA
ATOM     14  C   UNL     1      14.902   7.636  24.386  1.00  0.00     0.087 C 
ENDBRANCH  11  12
ENDBRANCH  10  11
ENDBRANCH   2  10
TORSDOF 6
ENDMDL
MODEL 9
REMARK VINA RESULT:    -3.651      1.297      3.350
REMARK INTER + INTRA:          -6.407
REMARK INTER:                  -5.359
REMARK INTRA:                  -1.048
REMARK UNBOUND:                -1.475
REMARK SMILES CC(=O)CCC=C(C)CCC=C(C)C
REMARK SMILES IDX 7 1 6 2 8 3 9 4 10 5 11 6 13 7 12 8 14 9 5 10 4 11 2 12 3 13
REMARK SMILES IDX 1 14
REMARK H PARENT
REMARK Flexibility Score: inf
ROOT
ATOM      1  C   UNL     1      13.645  10.250  27.084  1.00  0.00    -0.077 C 
ATOM      2  C   UNL     1      14.344  11.407  27.156  1.00  0.00    -0.028 C 
ATOM      3  C   UNL     1      13.415   9.477  28.358  1.00  0.00     0.039 C 
ENDROOT
BRANCH   1   4
ATOM      4  C   UNL     1      13.051   9.709  25.795  1.00  0.00     0.034 C 
BRANCH   4   5
ATOM      5  C   UNL     1      13.743   8.416  25.342  1.00  0.00     0.032 C 
BRANCH   5   6
ATOM      6  C   UNL     1      15.235   8.607  25.207  1.00  0.00    -0.028 C 
ATOM      7  C   UNL     1      15.811   6.490  26.415  1.00  0.00     0.039 C 
ATOM      8  C   UNL     1      16.171   7.743  25.656  1.00  0.00    -0.080 C 
ATOM      9  C   UNL     1      17.621   8.052  25.383  1.00  0.00     0.039 C 
ENDBRANCH   5   6
ENDBRANCH   4   5
ENDBRANCH   1   4
BRANCH   2  10
ATOM     10  C   UNL     1      14.717  12.274  25.977  1.00  0.00     0.035 C 
BRANCH  10  11
ATOM     11  C   UNL     1      16.219  12.212  25.669  1.00  0.00     0.079 C 
BRANCH  11  12
ATOM     12  C   UNL     1      16.849  13.582  25.679  1.00  0.00     0.130 C 
ATOM     13  O   UNL     1      17.780  13.828  24.927  1.00  0.00    -0.300 OA
ATOM     14  C   UNL     1      16.318  14.654  26.579  1.00  0.00     0.087 C 
ENDBRANCH  11  12
ENDBRANCH  10  11
ENDBRANCH   2  10
TORSDOF 6
ENDMDL
