MODEL 1
REMARK VINA RESULT:    -5.346      0.000      0.000
REMARK INTER + INTRA:         -11.828
REMARK INTER:                  -9.722
REMARK INTRA:                  -2.107
REMARK UNBOUND:                -2.107
REMARK SMILES CCCCCCCCCCCCCCCC(=O)[O-]
REMARK SMILES IDX 9 1 10 2 11 3 12 4 13 5 14 6 15 7 16 8 17 9 18 10 8 11 7 12
REMARK SMILES IDX 6 13 5 14 4 15 3 16 2 17 1 18
REMARK H PARENT
REMARK Flexibility Score: inf
ROOT
ATOM      1  C   UNL     1      12.701  -2.323  12.160  1.00  0.00     0.000 C 
ENDROOT
BRANCH   1   2
ATOM      2  C   UNL     1      12.804  -2.010  13.662  1.00  0.00     0.000 C 
BRANCH   2   3
ATOM      3  C   UNL     1      11.878  -2.890  14.515  1.00  0.00     0.000 C 
BRANCH   3   4
ATOM      4  C   UNL     1      12.659  -3.574  15.647  1.00  0.00     0.000 C 
BRANCH   4   5
ATOM      5  C   UNL     1      14.114  -3.067  15.743  1.00  0.00     0.000 C 
BRANCH   5   6
ATOM      6  C   UNL     1      14.896  -3.659  16.928  1.00  0.00     0.006 C 
BRANCH   6   7
ATOM      7  C   UNL     1      15.598  -2.591  17.774  1.00  0.00     0.053 C 
BRANCH   7   8
ATOM      8  C   UNL     1      17.068  -2.859  17.838  1.00  0.00     0.041 C 
ATOM      9  O   UNL     1      17.645  -2.968  18.952  1.00  0.00    -0.550 OA
ATOM     10  O   UNL     1      17.794  -3.038  16.667  1.00  0.00    -0.550 OA
ENDBRANCH   7   8
ENDBRANCH   6   7
ENDBRANCH   5   6
ENDBRANCH   4   5
ENDBRANCH   3   4
ENDBRANCH   2   3
ENDBRANCH   1   2
BRANCH   1  11
ATOM     11  C   UNL     1      11.960  -3.637  11.878  1.00  0.00     0.000 C 
BRANCH  11  12
ATOM     12  C   UNL     1      12.626  -4.404  10.724  1.00  0.00    -0.000 C 
BRANCH  12  13
ATOM     13  C   UNL     1      13.404  -5.639  11.202  1.00  0.00    -0.000 C 
BRANCH  13  14
ATOM     14  C   UNL     1      13.099  -6.001  12.666  1.00  0.00    -0.000 C 
BRANCH  14  15
ATOM     15  C   UNL     1      14.365  -6.066  13.534  1.00  0.00    -0.000 C 
BRANCH  15  16
ATOM     16  C   UNL     1      15.484  -5.142  13.024  1.00  0.00    -0.000 C 
BRANCH  16  17
ATOM     17  C   UNL     1      16.791  -5.900  12.742  1.00  0.00    -0.003 C 
ATOM     18  C   UNL     1      17.154  -5.916  11.257  1.00  0.00     0.004 C 
ENDBRANCH  16  17
ENDBRANCH  15  16
ENDBRANCH  14  15
ENDBRANCH  13  14
ENDBRANCH  12  13
ENDBRANCH  11  12
ENDBRANCH   1  11
TORSDOF 14
ENDMDL
MODEL 2
REMARK VINA RESULT:    -5.321      3.328      6.168
REMARK INTER + INTRA:         -11.782
REMARK INTER:                  -9.607
REMARK INTRA:                  -2.175
REMARK UNBOUND:                -2.107
REMARK SMILES CCCCCCCCCCCCCCCC(=O)[O-]
REMARK SMILES IDX 9 1 10 2 11 3 12 4 13 5 14 6 15 7 16 8 17 9 18 10 8 11 7 12
REMARK SMILES IDX 6 13 5 14 4 15 3 16 2 17 1 18
REMARK H PARENT
REMARK Flexibility Score: inf
ROOT
ATOM      1  C   UNL     1      16.580  -4.903  16.265  1.00  0.00     0.000 C 
ENDROOT
BRANCH   1   2
ATOM      2  C   UNL     1      16.426  -6.254  15.549  1.00  0.00     0.000 C 
BRANCH   2   3
ATOM      3  C   UNL     1      14.968  -6.734  15.496  1.00  0.00     0.000 C 
BRANCH   3   4
ATOM      4  C   UNL     1      14.478  -6.845  14.044  1.00  0.00     0.000 C 
BRANCH   4   5
ATOM      5  C   UNL     1      15.572  -6.458  13.026  1.00  0.00     0.000 C 
BRANCH   5   6
ATOM      6  C   UNL     1      15.209  -5.234  12.168  1.00  0.00     0.006 C 
BRANCH   6   7
ATOM      7  C   UNL     1      13.908  -5.423  11.379  1.00  0.00     0.053 C 
BRANCH   7   8
ATOM      8  C   UNL     1      14.199  -5.579   9.920  1.00  0.00     0.041 C 
ATOM      9  O   UNL     1      15.379  -5.470   9.494  1.00  0.00    -0.550 OA
ATOM     10  O   UNL     1      13.175  -5.896   9.037  1.00  0.00    -0.550 OA
ENDBRANCH   7   8
ENDBRANCH   6   7
ENDBRANCH   5   6
ENDBRANCH   4   5
ENDBRANCH   3   4
ENDBRANCH   2   3
ENDBRANCH   1   2
BRANCH   1  11
ATOM     11  C   UNL     1      15.694  -3.806  15.656  1.00  0.00     0.000 C 
BRANCH  11  12
ATOM     12  C   UNL     1      14.649  -3.320  16.674  1.00  0.00    -0.000 C 
BRANCH  12  13
ATOM     13  C   UNL     1      13.208  -3.631  16.241  1.00  0.00    -0.000 C 
BRANCH  13  14
ATOM     14  C   UNL     1      13.007  -3.508  14.721  1.00  0.00    -0.000 C 
BRANCH  14  15
ATOM     15  C   UNL     1      12.191  -2.264  14.333  1.00  0.00    -0.000 C 
BRANCH  15  16
ATOM     16  C   UNL     1      12.744  -1.557  13.083  1.00  0.00    -0.000 C 
BRANCH  16  17
ATOM     17  C   UNL     1      14.249  -1.797  12.889  1.00  0.00    -0.003 C 
ATOM     18  C   UNL     1      14.905  -0.740  12.001  1.00  0.00     0.004 C 
ENDBRANCH  16  17
ENDBRANCH  15  16
ENDBRANCH  14  15
ENDBRANCH  13  14
ENDBRANCH  12  13
ENDBRANCH  11  12
ENDBRANCH   1  11
TORSDOF 14
ENDMDL
MODEL 3
REMARK VINA RESULT:    -5.303      2.532      4.935
REMARK INTER + INTRA:         -11.750
REMARK INTER:                  -9.522
REMARK INTRA:                  -2.229
REMARK UNBOUND:                -2.107
REMARK SMILES CCCCCCCCCCCCCCCC(=O)[O-]
REMARK SMILES IDX 9 1 10 2 11 3 12 4 13 5 14 6 15 7 16 8 17 9 18 10 8 11 7 12
REMARK SMILES IDX 6 13 5 14 4 15 3 16 2 17 1 18
REMARK H PARENT
REMARK Flexibility Score: inf
ROOT
ATOM      1  C   UNL     1      16.345  -3.061  16.410  1.00  0.00     0.000 C 
ENDROOT
BRANCH   1   2
ATOM      2  C   UNL     1      15.083  -3.013  17.285  1.00  0.00     0.000 C 
BRANCH   2   3
ATOM      3  C   UNL     1      13.849  -3.592  16.576  1.00  0.00     0.000 C 
BRANCH   3   4
ATOM      4  C   UNL     1      13.895  -3.304  15.068  1.00  0.00     0.000 C 
BRANCH   4   5
ATOM      5  C   UNL     1      12.597  -2.640  14.559  1.00  0.00     0.000 C 
BRANCH   5   6
ATOM      6  C   UNL     1      12.810  -1.728  13.339  1.00  0.00     0.006 C 
BRANCH   6   7
ATOM      7  C   UNL     1      14.044  -2.112  12.514  1.00  0.00     0.053 C 
BRANCH   7   8
ATOM      8  C   UNL     1      14.876  -0.903  12.226  1.00  0.00     0.041 C 
ATOM      9  O   UNL     1      14.423   0.020  11.499  1.00  0.00    -0.550 OA
ATOM     10  O   UNL     1      16.134  -0.772  12.799  1.00  0.00    -0.550 OA
ENDBRANCH   7   8
ENDBRANCH   6   7
ENDBRANCH   5   6
ENDBRANCH   4   5
ENDBRANCH   3   4
ENDBRANCH   2   3
ENDBRANCH   1   2
BRANCH   1  11
ATOM     11  C   UNL     1      17.056  -4.421  16.469  1.00  0.00     0.000 C 
BRANCH  11  12
ATOM     12  C   UNL     1      17.921  -4.640  15.217  1.00  0.00    -0.000 C 
BRANCH  12  13
ATOM     13  C   UNL     1      17.293  -4.045  13.948  1.00  0.00    -0.000 C 
BRANCH  13  14
ATOM     14  C   UNL     1      17.217  -5.058  12.793  1.00  0.00    -0.000 C 
BRANCH  14  15
ATOM     15  C   UNL     1      15.815  -5.668  12.634  1.00  0.00    -0.000 C 
BRANCH  15  16
ATOM     16  C   UNL     1      15.619  -6.938  13.480  1.00  0.00    -0.000 C 
BRANCH  16  17
ATOM     17  C   UNL     1      14.439  -6.818  14.457  1.00  0.00    -0.003 C 
ATOM     18  C   UNL     1      14.778  -7.331  15.856  1.00  0.00     0.004 C 
ENDBRANCH  16  17
ENDBRANCH  15  16
ENDBRANCH  14  15
ENDBRANCH  13  14
ENDBRANCH  12  13
ENDBRANCH  11  12
ENDBRANCH   1  11
TORSDOF 14
ENDMDL
MODEL 4
REMARK VINA RESULT:    -5.280      2.526      4.479
REMARK INTER + INTRA:         -11.708
REMARK INTER:                  -9.245
REMARK INTRA:                  -2.463
REMARK UNBOUND:                -2.107
REMARK SMILES CCCCCCCCCCCCCCCC(=O)[O-]
REMARK SMILES IDX 9 1 10 2 11 3 12 4 13 5 14 6 15 7 16 8 17 9 18 10 8 11 7 12
REMARK SMILES IDX 6 13 5 14 4 15 3 16 2 17 1 18
REMARK H PARENT
REMARK Flexibility Score: inf
ROOT
ATOM      1  C   UNL     1      16.032  -6.161  16.009  1.00  0.00     0.000 C 
ENDROOT
BRANCH   1   2
ATOM      2  C   UNL     1      15.660  -4.682  16.198  1.00  0.00     0.000 C 
BRANCH   2   3
ATOM      3  C   UNL     1      14.141  -4.449  16.198  1.00  0.00     0.000 C 
BRANCH   3   4
ATOM      4  C   UNL     1      13.800  -3.052  15.656  1.00  0.00     0.000 C 
BRANCH   4   5
ATOM      5  C   UNL     1      12.512  -3.054  14.805  1.00  0.00     0.000 C 
BRANCH   5   6
ATOM      6  C   UNL     1      12.409  -1.861  13.839  1.00  0.00     0.006 C 
BRANCH   6   7
ATOM      7  C   UNL     1      13.107  -2.117  12.498  1.00  0.00     0.053 C 
BRANCH   7   8
ATOM      8  C   UNL     1      13.971  -0.953  12.129  1.00  0.00     0.041 C 
ATOM      9  O   UNL     1      13.523  -0.042  11.383  1.00  0.00    -0.550 OA
ATOM     10  O   UNL     1      15.255  -0.848  12.647  1.00  0.00    -0.550 OA
ENDBRANCH   7   8
ENDBRANCH   6   7
ENDBRANCH   5   6
ENDBRANCH   4   5
ENDBRANCH   3   4
ENDBRANCH   2   3
ENDBRANCH   1   2
BRANCH   1  11
ATOM     11  C   UNL     1      14.845  -7.016  15.541  1.00  0.00     0.000 C 
BRANCH  11  12
ATOM     12  C   UNL     1      15.049  -7.489  14.092  1.00  0.00    -0.000 C 
BRANCH  12  13
ATOM     13  C   UNL     1      13.871  -7.123  13.176  1.00  0.00    -0.000 C 
BRANCH  13  14
ATOM     14  C   UNL     1      13.890  -5.646  12.749  1.00  0.00    -0.000 C 
BRANCH  14  15
ATOM     15  C   UNL     1      15.068  -5.316  11.817  1.00  0.00    -0.000 C 
BRANCH  15  16
ATOM     16  C   UNL     1      16.087  -4.361  12.462  1.00  0.00    -0.000 C 
BRANCH  16  17
ATOM     17  C   UNL     1      17.410  -5.061  12.811  1.00  0.00    -0.003 C 
ATOM     18  C   UNL     1      17.856  -6.049  11.734  1.00  0.00     0.004 C 
ENDBRANCH  16  17
ENDBRANCH  15  16
ENDBRANCH  14  15
ENDBRANCH  13  14
ENDBRANCH  12  13
ENDBRANCH  11  12
ENDBRANCH   1  11
TORSDOF 14
ENDMDL
MODEL 5
REMARK VINA RESULT:    -5.257      2.183      3.463
REMARK INTER + INTRA:         -11.666
REMARK INTER:                  -9.281
REMARK INTRA:                  -2.385
REMARK UNBOUND:                -2.107
REMARK SMILES CCCCCCCCCCCCCCCC(=O)[O-]
REMARK SMILES IDX 9 1 10 2 11 3 12 4 13 5 14 6 15 7 16 8 17 9 18 10 8 11 7 12
REMARK SMILES IDX 6 13 5 14 4 15 3 16 2 17 1 18
REMARK H PARENT
REMARK Flexibility Score: inf
ROOT
ATOM      1  C   UNL     1      13.106  -3.463  15.880  1.00  0.00     0.000 C 
ENDROOT
BRANCH   1   2
ATOM      2  C   UNL     1      14.401  -4.051  16.461  1.00  0.00     0.000 C 
BRANCH   2   3
ATOM      3  C   UNL     1      15.259  -2.999  17.181  1.00  0.00     0.000 C 
BRANCH   3   4
ATOM      4  C   UNL     1      16.754  -3.334  17.063  1.00  0.00     0.000 C 
BRANCH   4   5
ATOM      5  C   UNL     1      17.004  -4.604  16.223  1.00  0.00     0.000 C 
BRANCH   5   6
ATOM      6  C   UNL     1      17.976  -4.386  15.050  1.00  0.00     0.006 C 
BRANCH   6   7
ATOM      7  C   UNL     1      17.597  -3.184  14.177  1.00  0.00     0.053 C 
BRANCH   7   8
ATOM      8  C   UNL     1      18.817  -2.589  13.549  1.00  0.00     0.041 C 
ATOM      9  O   UNL     1      19.361  -3.153  12.563  1.00  0.00    -0.550 OA
ATOM     10  O   UNL     1      19.326  -1.386  14.020  1.00  0.00    -0.550 OA
ENDBRANCH   7   8
ENDBRANCH   6   7
ENDBRANCH   5   6
ENDBRANCH   4   5
ENDBRANCH   3   4
ENDBRANCH   2   3
ENDBRANCH   1   2
BRANCH   1  11
ATOM     11  C   UNL     1      13.307  -2.850  14.486  1.00  0.00     0.000 C 
BRANCH  11  12
ATOM     12  C   UNL     1      13.985  -3.853  13.540  1.00  0.00    -0.000 C 
BRANCH  12  13
ATOM     13  C   UNL     1      12.993  -4.851  12.922  1.00  0.00    -0.000 C 
BRANCH  13  14
ATOM     14  C   UNL     1      13.492  -6.305  12.998  1.00  0.00    -0.000 C 
BRANCH  14  15
ATOM     15  C   UNL     1      14.770  -6.448  13.840  1.00  0.00    -0.000 C 
BRANCH  15  16
ATOM     16  C   UNL     1      15.942  -7.046  13.044  1.00  0.00    -0.000 C 
BRANCH  16  17
ATOM     17  C   UNL     1      16.486  -6.078  11.980  1.00  0.00    -0.003 C 
ATOM     18  C   UNL     1      17.999  -6.190  11.801  1.00  0.00     0.004 C 
ENDBRANCH  16  17
ENDBRANCH  15  16
ENDBRANCH  14  15
ENDBRANCH  13  14
ENDBRANCH  12  13
ENDBRANCH  11  12
ENDBRANCH   1  11
TORSDOF 14
ENDMDL
MODEL 6
REMARK VINA RESULT:    -5.217      1.342      2.184
REMARK INTER + INTRA:         -11.593
REMARK INTER:                  -9.543
REMARK INTRA:                  -2.050
REMARK UNBOUND:                -2.107
REMARK SMILES CCCCCCCCCCCCCCCC(=O)[O-]
REMARK SMILES IDX 9 1 10 2 11 3 12 4 13 5 14 6 15 7 16 8 17 9 18 10 8 11 7 12
REMARK SMILES IDX 6 13 5 14 4 15 3 16 2 17 1 18
REMARK H PARENT
REMARK Flexibility Score: inf
ROOT
ATOM      1  C   UNL     1      11.504  -3.935  13.238  1.00  0.00     0.000 C 
ENDROOT
BRANCH   1   2
ATOM      2  C   UNL     1      11.878  -3.005  14.403  1.00  0.00     0.000 C 
BRANCH   2   3
ATOM      3  C   UNL     1      13.324  -3.207  14.881  1.00  0.00     0.000 C 
BRANCH   3   4
ATOM      4  C   UNL     1      13.359  -3.663  16.348  1.00  0.00     0.000 C 
BRANCH   4   5
ATOM      5  C   UNL     1      14.717  -3.366  17.020  1.00  0.00     0.000 C 
BRANCH   5   6
ATOM      6  C   UNL     1      15.915  -3.474  16.061  1.00  0.00     0.006 C 
BRANCH   6   7
ATOM      7  C   UNL     1      17.058  -4.326  16.626  1.00  0.00     0.053 C 
BRANCH   7   8
ATOM      8  C   UNL     1      18.059  -3.461  17.324  1.00  0.00     0.041 C 
ATOM      9  O   UNL     1      17.987  -3.285  18.569  1.00  0.00    -0.550 OA
ATOM     10  O   UNL     1      19.102  -2.887  16.608  1.00  0.00    -0.550 OA
ENDBRANCH   7   8
ENDBRANCH   6   7
ENDBRANCH   5   6
ENDBRANCH   4   5
ENDBRANCH   3   4
ENDBRANCH   2   3
ENDBRANCH   1   2
BRANCH   1  11
ATOM     11  C   UNL     1      12.643  -4.890  12.852  1.00  0.00     0.000 C 
BRANCH  11  12
ATOM     12  C   UNL     1      13.167  -4.573  11.442  1.00  0.00    -0.000 C 
BRANCH  12  13
ATOM     13  C   UNL     1      14.697  -4.450  11.391  1.00  0.00    -0.000 C 
BRANCH  13  14
ATOM     14  C   UNL     1      15.374  -4.929  12.687  1.00  0.00    -0.000 C 
BRANCH  14  15
ATOM     15  C   UNL     1      16.095  -6.276  12.515  1.00  0.00    -0.000 C 
BRANCH  15  16
ATOM     16  C   UNL     1      15.996  -7.167  13.765  1.00  0.00    -0.000 C 
BRANCH  16  17
ATOM     17  C   UNL     1      14.638  -7.039  14.473  1.00  0.00    -0.003 C 
ATOM     18  C   UNL     1      14.754  -7.145  15.993  1.00  0.00     0.004 C 
ENDBRANCH  16  17
ENDBRANCH  15  16
ENDBRANCH  14  15
ENDBRANCH  13  14
ENDBRANCH  12  13
ENDBRANCH  11  12
ENDBRANCH   1  11
TORSDOF 14
ENDMDL
MODEL 7
REMARK VINA RESULT:    -5.202      2.941      4.796
REMARK INTER + INTRA:         -11.566
REMARK INTER:                  -8.795
REMARK INTRA:                  -2.770
REMARK UNBOUND:                -2.107
REMARK SMILES CCCCCCCCCCCCCCCC(=O)[O-]
REMARK SMILES IDX 9 1 10 2 11 3 12 4 13 5 14 6 15 7 16 8 17 9 18 10 8 11 7 12
REMARK SMILES IDX 6 13 5 14 4 15 3 16 2 17 1 18
REMARK H PARENT
REMARK Flexibility Score: inf
ROOT
ATOM      1  C   UNL     1      15.166  -7.086  15.504  1.00  0.00     0.000 C 
ENDROOT
BRANCH   1   2
ATOM      2  C   UNL     1      16.250  -6.075  15.912  1.00  0.00     0.000 C 
BRANCH   2   3
ATOM      3  C   UNL     1      15.669  -4.701  16.281  1.00  0.00     0.000 C 
BRANCH   3   4
ATOM      4  C   UNL     1      14.133  -4.735  16.280  1.00  0.00     0.000 C 
BRANCH   4   5
ATOM      5  C   UNL     1      13.519  -3.369  15.903  1.00  0.00     0.000 C 
BRANCH   5   6
ATOM      6  C   UNL     1      12.664  -3.412  14.625  1.00  0.00     0.006 C 
BRANCH   6   7
ATOM      7  C   UNL     1      12.338  -2.017  14.078  1.00  0.00     0.053 C 
BRANCH   7   8
ATOM      8  C   UNL     1      12.667  -1.937  12.621  1.00  0.00     0.041 C 
ATOM      9  O   UNL     1      12.213  -2.796  11.820  1.00  0.00    -0.550 OA
ATOM     10  O   UNL     1      13.436  -0.886  12.138  1.00  0.00    -0.550 OA
ENDBRANCH   7   8
ENDBRANCH   6   7
ENDBRANCH   5   6
ENDBRANCH   4   5
ENDBRANCH   3   4
ENDBRANCH   2   3
ENDBRANCH   1   2
BRANCH   1  11
ATOM     11  C   UNL     1      15.254  -7.483  14.023  1.00  0.00     0.000 C 
BRANCH  11  12
ATOM     12  C   UNL     1      14.148  -6.797  13.206  1.00  0.00    -0.000 C 
BRANCH  12  13
ATOM     13  C   UNL     1      14.665  -5.600  12.393  1.00  0.00    -0.000 C 
BRANCH  13  14
ATOM     14  C   UNL     1      16.186  -5.651  12.168  1.00  0.00    -0.000 C 
BRANCH  14  15
ATOM     15  C   UNL     1      16.908  -4.418  12.736  1.00  0.00    -0.000 C 
BRANCH  15  16
ATOM     16  C   UNL     1      15.962  -3.225  12.958  1.00  0.00    -0.000 C 
BRANCH  16  17
ATOM     17  C   UNL     1      16.617  -2.098  13.772  1.00  0.00    -0.003 C 
ATOM     18  C   UNL     1      17.983  -2.494  14.334  1.00  0.00     0.004 C 
ENDBRANCH  16  17
ENDBRANCH  15  16
ENDBRANCH  14  15
ENDBRANCH  13  14
ENDBRANCH  12  13
ENDBRANCH  11  12
ENDBRANCH   1  11
TORSDOF 14
ENDMDL
MODEL 8
REMARK VINA RESULT:    -5.136      1.904      3.547
REMARK INTER + INTRA:         -11.446
REMARK INTER:                  -9.227
REMARK INTRA:                  -2.219
REMARK UNBOUND:                -2.107
REMARK SMILES CCCCCCCCCCCCCCCC(=O)[O-]
REMARK SMILES IDX 9 1 10 2 11 3 12 4 13 5 14 6 15 7 16 8 17 9 18 10 8 11 7 12
REMARK SMILES IDX 6 13 5 14 4 15 3 16 2 17 1 18
REMARK H PARENT
REMARK Flexibility Score: inf
ROOT
ATOM      1  C   UNL     1      15.145  -5.453  15.796  1.00  0.00     0.000 C 
ENDROOT
BRANCH   1   2
ATOM      2  C   UNL     1      13.872  -4.712  16.236  1.00  0.00     0.000 C 
BRANCH   2   3
ATOM      3  C   UNL     1      14.174  -3.370  16.919  1.00  0.00     0.000 C 
BRANCH   3   4
ATOM      4  C   UNL     1      15.656  -2.995  16.766  1.00  0.00     0.000 C 
BRANCH   4   5
ATOM      5  C   UNL     1      16.322  -2.678  18.122  1.00  0.00     0.000 C 
BRANCH   5   6
ATOM      6  C   UNL     1      17.807  -3.074  18.187  1.00  0.00     0.006 C 
BRANCH   6   7
ATOM      7  C   UNL     1      18.294  -3.773  16.912  1.00  0.00     0.053 C 
BRANCH   7   8
ATOM      8  C   UNL     1      19.436  -3.019  16.307  1.00  0.00     0.041 C 
ATOM      9  O   UNL     1      19.382  -2.643  15.106  1.00  0.00    -0.550 OA
ATOM     10  O   UNL     1      20.538  -2.685  17.083  1.00  0.00    -0.550 OA
ENDBRANCH   7   8
ENDBRANCH   6   7
ENDBRANCH   5   6
ENDBRANCH   4   5
ENDBRANCH   3   4
ENDBRANCH   2   3
ENDBRANCH   1   2
BRANCH   1  11
ATOM     11  C   UNL     1      14.876  -6.912  15.402  1.00  0.00     0.000 C 
BRANCH  11  12
ATOM     12  C   UNL     1      14.985  -7.096  13.880  1.00  0.00    -0.000 C 
BRANCH  12  13
ATOM     13  C   UNL     1      13.658  -6.829  13.152  1.00  0.00    -0.000 C 
BRANCH  13  14
ATOM     14  C   UNL     1      13.747  -5.648  12.172  1.00  0.00    -0.000 C 
BRANCH  14  15
ATOM     15  C   UNL     1      13.014  -4.398  12.684  1.00  0.00    -0.000 C 
BRANCH  15  16
ATOM     16  C   UNL     1      13.929  -3.164  12.768  1.00  0.00    -0.000 C 
BRANCH  16  17
ATOM     17  C   UNL     1      15.417  -3.526  12.641  1.00  0.00    -0.003 C 
ATOM     18  C   UNL     1      16.331  -2.507  13.322  1.00  0.00     0.004 C 
ENDBRANCH  16  17
ENDBRANCH  15  16
ENDBRANCH  14  15
ENDBRANCH  13  14
ENDBRANCH  12  13
ENDBRANCH  11  12
ENDBRANCH   1  11
TORSDOF 14
ENDMDL
MODEL 9
REMARK VINA RESULT:    -5.133      1.539      2.507
REMARK INTER + INTRA:         -11.441
REMARK INTER:                  -9.302
REMARK INTRA:                  -2.139
REMARK UNBOUND:                -2.107
REMARK SMILES CCCCCCCCCCCCCCCC(=O)[O-]
REMARK SMILES IDX 9 1 10 2 11 3 12 4 13 5 14 6 15 7 16 8 17 9 18 10 8 11 7 12
REMARK SMILES IDX 6 13 5 14 4 15 3 16 2 17 1 18
REMARK H PARENT
REMARK Flexibility Score: inf
ROOT
ATOM      1  C   UNL     1      13.901  -3.019  14.921  1.00  0.00     0.000 C 
ENDROOT
BRANCH   1   2
ATOM      2  C   UNL     1      13.533  -3.813  16.184  1.00  0.00     0.000 C 
BRANCH   2   3
ATOM      3  C   UNL     1      14.232  -5.179  16.251  1.00  0.00     0.000 C 
BRANCH   3   4
ATOM      4  C   UNL     1      15.465  -5.211  15.335  1.00  0.00     0.000 C 
BRANCH   4   5
ATOM      5  C   UNL     1      16.694  -5.835  16.030  1.00  0.00     0.000 C 
BRANCH   5   6
ATOM      6  C   UNL     1      17.863  -4.851  16.214  1.00  0.00     0.006 C 
BRANCH   6   7
ATOM      7  C   UNL     1      17.407  -3.388  16.279  1.00  0.00     0.053 C 
BRANCH   7   8
ATOM      8  C   UNL     1      17.233  -2.959  17.701  1.00  0.00     0.041 C 
ATOM      9  O   UNL     1      16.143  -2.454  18.082  1.00  0.00    -0.550 OA
ATOM     10  O   UNL     1      18.254  -3.162  18.620  1.00  0.00    -0.550 OA
ENDBRANCH   7   8
ENDBRANCH   6   7
ENDBRANCH   5   6
ENDBRANCH   4   5
ENDBRANCH   3   4
ENDBRANCH   2   3
ENDBRANCH   1   2
BRANCH   1  11
ATOM     11  C   UNL     1      12.680  -2.690  14.050  1.00  0.00     0.000 C 
BRANCH  11  12
ATOM     12  C   UNL     1      12.920  -3.111  12.591  1.00  0.00    -0.000 C 
BRANCH  12  13
ATOM     13  C   UNL     1      12.492  -4.561  12.313  1.00  0.00    -0.000 C 
BRANCH  13  14
ATOM     14  C   UNL     1      13.568  -5.360  11.558  1.00  0.00    -0.000 C 
BRANCH  14  15
ATOM     15  C   UNL     1      14.975  -4.767  11.731  1.00  0.00    -0.000 C 
BRANCH  15  16
ATOM     16  C   UNL     1      16.065  -5.615  11.052  1.00  0.00    -0.000 C 
BRANCH  16  17
ATOM     17  C   UNL     1      17.178  -6.033  12.025  1.00  0.00    -0.003 C 
ATOM     18  C   UNL     1      18.040  -4.853  12.475  1.00  0.00     0.004 C 
ENDBRANCH  16  17
ENDBRANCH  15  16
ENDBRANCH  14  15
ENDBRANCH  13  14
ENDBRANCH  12  13
ENDBRANCH  11  12
ENDBRANCH   1  11
TORSDOF 14
ENDMDL
