MODEL 1
REMARK VINA RESULT:    -2.991      0.000      0.000
REMARK INTER + INTRA:          -5.024
REMARK INTER:                  -4.565
REMARK INTRA:                  -0.459
REMARK UNBOUND:                -0.459
REMARK SMILES OC[C@H]1O[C@@H](O[C@@]2(CO)O[C@H](CO)[C@@H](O)[C@H]2O)[C@H](O)[C@@H](O)[C@H]1O
REMARK SMILES IDX 6 1 5 2 3 3 22 4 4 5 20 6 18 7 2 8 1 9 23 11 21 13 19 15
REMARK SMILES IDX 7 17 16 18 10 19 14 20 11 21 8 22 9 23 17 25 15 27 12 29
REMARK SMILES IDX 13 30
REMARK H PARENT 1 10 23 12 21 14 19 16 9 24 17 26 15 28 13 31
REMARK Flexibility Score: inf
ROOT
ATOM      1  O   UNL     1     -32.617  11.018 -34.823  1.00  0.00    -0.313 OA
ENDROOT
BRANCH   1   2
ATOM      2  C   UNL     1     -33.587  10.738 -35.832  1.00  0.00     0.285 C 
ATOM      3  C   UNL     1     -34.145   9.161 -37.531  1.00  0.00     0.178 C 
ATOM      4  C   UNL     1     -35.471   9.991 -37.634  1.00  0.00     0.177 C 
ATOM      5  O   UNL     1     -33.126   9.733 -36.711  1.00  0.00    -0.341 OA
ATOM      6  C   UNL     1     -35.200  11.504 -37.690  1.00  0.00     0.179 C 
ATOM      7  C   UNL     1     -34.168  11.948 -36.613  1.00  0.00     0.202 C 
BRANCH   3   8
ATOM      8  C   UNL     1     -33.527   8.875 -38.912  1.00  0.00     0.191 C 
BRANCH   8   9
ATOM      9  O   UNL     1     -32.126   8.886 -38.833  1.00  0.00    -0.394 OA
ATOM     10  H   UNL     1     -31.822   9.719 -39.280  1.00  0.00     0.210 HD
ENDBRANCH   8   9
ENDBRANCH   3   8
BRANCH   4  11
ATOM     11  O   UNL     1     -36.251   9.602 -38.738  1.00  0.00    -0.387 OA
ATOM     12  H   UNL     1     -37.200   9.681 -38.459  1.00  0.00     0.211 HD
ENDBRANCH   4  11
BRANCH   6  13
ATOM     13  O   UNL     1     -34.750  11.853 -38.977  1.00  0.00    -0.387 OA
ATOM     14  H   UNL     1     -34.140  11.128 -39.274  1.00  0.00     0.211 HD
ENDBRANCH   6  13
BRANCH   7  15
ATOM     15  O   UNL     1     -34.750  12.878 -35.733  1.00  0.00    -0.385 OA
ATOM     16  H   UNL     1     -34.636  12.529 -34.809  1.00  0.00     0.211 HD
ENDBRANCH   7  15
ENDBRANCH   1   2
BRANCH   1  17
ATOM     17  C   UNL     1     -32.305  10.115 -33.750  1.00  0.00     0.224 C 
ATOM     18  C   UNL     1     -33.485   9.444 -33.000  1.00  0.00     0.208 C 
ATOM     19  O   UNL     1     -31.692  10.926 -32.769  1.00  0.00    -0.337 OA
ATOM     20  C   UNL     1     -33.924  10.497 -32.004  1.00  0.00     0.180 C 
ATOM     21  C   UNL     1     -32.701  11.423 -31.914  1.00  0.00     0.179 C 
BRANCH  17  22
ATOM     22  C   UNL     1     -31.231   9.076 -34.171  1.00  0.00     0.225 C 
BRANCH  22  23
ATOM     23  O   UNL     1     -30.354   9.616 -35.128  1.00  0.00    -0.391 OA
ATOM     24  H   UNL     1     -30.905   9.910 -35.900  1.00  0.00     0.210 HD
ENDBRANCH  22  23
ENDBRANCH  17  22
BRANCH  18  25
ATOM     25  O   UNL     1     -34.544   8.995 -33.804  1.00  0.00    -0.385 OA
ATOM     26  H   UNL     1     -34.821   9.751 -34.384  1.00  0.00     0.211 HD
ENDBRANCH  18  25
BRANCH  20  27
ATOM     27  O   UNL     1     -35.081  11.189 -32.413  1.00  0.00    -0.387 OA
ATOM     28  H   UNL     1     -35.456  11.663 -31.628  1.00  0.00     0.211 HD
ENDBRANCH  20  27
BRANCH  21  29
ATOM     29  C   UNL     1     -32.151  11.502 -30.486  1.00  0.00     0.191 C 
BRANCH  29  30
ATOM     30  O   UNL     1     -32.924  12.392 -29.731  1.00  0.00    -0.394 OA
ATOM     31  H   UNL     1     -33.440  11.839 -29.088  1.00  0.00     0.210 HD
ENDBRANCH  29  30
ENDBRANCH  21  29
ENDBRANCH   1  17
TORSDOF 13
ENDMDL
MODEL 2
REMARK VINA RESULT:    -1.943      1.586      6.100
REMARK INTER + INTRA:          -3.425
REMARK INTER:                  -2.376
REMARK INTRA:                  -1.049
REMARK UNBOUND:                -0.459
REMARK SMILES OC[C@H]1O[C@@H](O[C@@]2(CO)O[C@H](CO)[C@@H](O)[C@H]2O)[C@H](O)[C@@H](O)[C@H]1O
REMARK SMILES IDX 6 1 5 2 3 3 22 4 4 5 20 6 18 7 2 8 1 9 23 11 21 13 19 15
REMARK SMILES IDX 7 17 16 18 10 19 14 20 11 21 8 22 9 23 17 25 15 27 12 29
REMARK SMILES IDX 13 30
REMARK H PARENT 1 10 23 12 21 14 19 16 9 24 17 26 15 28 13 31
REMARK Flexibility Score: inf
ROOT
ATOM      1  O   UNL     1     -34.714   9.783 -35.238  1.00  0.00    -0.313 OA
ENDROOT
BRANCH   1   2
ATOM      2  C   UNL     1     -34.252  10.271 -33.978  1.00  0.00     0.285 C 
ATOM      3  C   UNL     1     -32.489  11.518 -32.965  1.00  0.00     0.178 C 
ATOM      4  C   UNL     1     -33.384  11.423 -31.682  1.00  0.00     0.177 C 
ATOM      5  O   UNL     1     -32.915  10.717 -34.069  1.00  0.00    -0.341 OA
ATOM      6  C   UNL     1     -33.896   9.993 -31.441  1.00  0.00     0.179 C 
ATOM      7  C   UNL     1     -34.457   9.352 -32.743  1.00  0.00     0.202 C 
BRANCH   3   8
ATOM      8  C   UNL     1     -31.017  11.169 -32.678  1.00  0.00     0.191 C 
BRANCH   8   9
ATOM      9  O   UNL     1     -30.730   9.864 -33.105  1.00  0.00    -0.394 OA
ATOM     10  H   UNL     1     -31.577   9.488 -33.461  1.00  0.00     0.210 HD
ENDBRANCH   8   9
ENDBRANCH   3   8
BRANCH   4  11
ATOM     11  O   UNL     1     -32.713  11.892 -30.537  1.00  0.00    -0.387 OA
ATOM     12  H   UNL     1     -31.780  11.558 -30.597  1.00  0.00     0.211 HD
ENDBRANCH   4  11
BRANCH   6  13
ATOM     13  O   UNL     1     -32.858   9.205 -30.910  1.00  0.00    -0.387 OA
ATOM     14  H   UNL     1     -33.277   8.371 -30.569  1.00  0.00     0.211 HD
ENDBRANCH   6  13
BRANCH   7  15
ATOM     15  O   UNL     1     -35.816   9.026 -32.582  1.00  0.00    -0.385 OA
ATOM     16  H   UNL     1     -35.895   8.037 -32.626  1.00  0.00     0.211 HD
ENDBRANCH   7  15
ENDBRANCH   1   2
BRANCH   1  17
ATOM     17  C   UNL     1     -33.881   9.686 -36.404  1.00  0.00     0.224 C 
ATOM     18  C   UNL     1     -33.576  10.988 -37.189  1.00  0.00     0.208 C 
ATOM     19  O   UNL     1     -34.631   8.906 -37.313  1.00  0.00    -0.337 OA
ATOM     20  C   UNL     1     -34.799  11.178 -38.062  1.00  0.00     0.180 C 
ATOM     21  C   UNL     1     -35.430   9.777 -38.088  1.00  0.00     0.179 C 
BRANCH  17  22
ATOM     22  C   UNL     1     -32.589   8.875 -36.118  1.00  0.00     0.225 C 
BRANCH  22  23
ATOM     23  O   UNL     1     -31.456   9.708 -36.132  1.00  0.00    -0.391 OA
ATOM     24  H   UNL     1     -31.149   9.771 -37.074  1.00  0.00     0.210 HD
ENDBRANCH  22  23
ENDBRANCH  17  22
BRANCH  18  25
ATOM     25  O   UNL     1     -33.295  12.120 -36.409  1.00  0.00    -0.385 OA
ATOM     26  H   UNL     1     -32.464  11.933 -35.899  1.00  0.00     0.211 HD
ENDBRANCH  18  25
BRANCH  20  27
ATOM     27  O   UNL     1     -35.687  12.147 -37.556  1.00  0.00    -0.387 OA
ATOM     28  H   UNL     1     -35.773  12.872 -38.226  1.00  0.00     0.211 HD
ENDBRANCH  20  27
BRANCH  21  29
ATOM     29  C   UNL     1     -35.532   9.225 -39.513  1.00  0.00     0.191 C 
BRANCH  29  30
ATOM     30  O   UNL     1     -36.169  10.160 -40.337  1.00  0.00    -0.394 OA
ATOM     31  H   UNL     1     -35.449  10.664 -40.797  1.00  0.00     0.210 HD
ENDBRANCH  29  30
ENDBRANCH  21  29
ENDBRANCH   1  17
TORSDOF 13
ENDMDL
MODEL 3
REMARK VINA RESULT:    -1.675      1.298      6.019
REMARK INTER + INTRA:          -3.016
REMARK INTER:                  -3.900
REMARK INTRA:                   0.884
REMARK UNBOUND:                -0.459
REMARK SMILES OC[C@H]1O[C@@H](O[C@@]2(CO)O[C@H](CO)[C@@H](O)[C@H]2O)[C@H](O)[C@@H](O)[C@H]1O
REMARK SMILES IDX 6 1 5 2 3 3 22 4 4 5 20 6 18 7 2 8 1 9 23 11 21 13 19 15
REMARK SMILES IDX 7 17 16 18 10 19 14 20 11 21 8 22 9 23 17 25 15 27 12 29
REMARK SMILES IDX 13 30
REMARK H PARENT 1 10 23 12 21 14 19 16 9 24 17 26 15 28 13 31
REMARK Flexibility Score: inf
ROOT
ATOM      1  O   UNL     1     -33.723   9.104 -35.389  1.00  0.00    -0.313 OA
ENDROOT
BRANCH   1   2
ATOM      2  C   UNL     1     -33.362   9.510 -34.068  1.00  0.00     0.285 C 
ATOM      3  C   UNL     1     -34.171  10.706 -32.170  1.00  0.00     0.178 C 
ATOM      4  C   UNL     1     -32.875  10.157 -31.481  1.00  0.00     0.177 C 
ATOM      5  O   UNL     1     -34.251  10.492 -33.580  1.00  0.00    -0.341 OA
ATOM      6  C   UNL     1     -31.627  10.353 -32.359  1.00  0.00     0.179 C 
ATOM      7  C   UNL     1     -31.883   9.919 -33.832  1.00  0.00     0.202 C 
BRANCH   3   8
ATOM      8  C   UNL     1     -34.376  12.210 -31.915  1.00  0.00     0.191 C 
BRANCH   8   9
ATOM      9  O   UNL     1     -34.850  12.425 -30.612  1.00  0.00    -0.394 OA
ATOM     10  H   UNL     1     -34.954  13.407 -30.505  1.00  0.00     0.210 HD
ENDBRANCH   8   9
ENDBRANCH   3   8
BRANCH   4  11
ATOM     11  O   UNL     1     -32.666  10.737 -30.216  1.00  0.00    -0.387 OA
ATOM     12  H   UNL     1     -32.533  11.710 -30.366  1.00  0.00     0.211 HD
ENDBRANCH   4  11
BRANCH   6  13
ATOM     13  O   UNL     1     -31.221  11.699 -32.305  1.00  0.00    -0.387 OA
ATOM     14  H   UNL     1     -30.860  11.853 -31.391  1.00  0.00     0.211 HD
ENDBRANCH   6  13
BRANCH   7  15
ATOM     15  O   UNL     1     -31.011   8.876 -34.193  1.00  0.00    -0.385 OA
ATOM     16  H   UNL     1     -30.554   8.567 -33.365  1.00  0.00     0.211 HD
ENDBRANCH   7  15
ENDBRANCH   1   2
BRANCH   1  17
ATOM     17  C   UNL     1     -33.199   9.717 -36.577  1.00  0.00     0.224 C 
ATOM     18  C   UNL     1     -32.836  11.223 -36.518  1.00  0.00     0.208 C 
ATOM     19  O   UNL     1     -34.262   9.657 -37.507  1.00  0.00    -0.337 OA
ATOM     20  C   UNL     1     -34.163  11.922 -36.727  1.00  0.00     0.180 C 
ATOM     21  C   UNL     1     -35.034  10.832 -37.371  1.00  0.00     0.179 C 
BRANCH  17  22
ATOM     22  C   UNL     1     -32.050   8.876 -37.195  1.00  0.00     0.225 C 
BRANCH  22  23
ATOM     23  O   UNL     1     -32.078   8.936 -38.600  1.00  0.00    -0.391 OA
ATOM     24  H   UNL     1     -31.639   9.786 -38.867  1.00  0.00     0.210 HD
ENDBRANCH  22  23
ENDBRANCH  17  22
BRANCH  18  25
ATOM     25  O   UNL     1     -32.185  11.649 -35.351  1.00  0.00    -0.385 OA
ATOM     26  H   UNL     1     -32.797  12.269 -34.876  1.00  0.00     0.211 HD
ENDBRANCH  18  25
BRANCH  20  27
ATOM     27  O   UNL     1     -34.722  12.404 -35.528  1.00  0.00    -0.387 OA
ATOM     28  H   UNL     1     -35.331  13.155 -35.746  1.00  0.00     0.211 HD
ENDBRANCH  20  27
BRANCH  21  29
ATOM     29  C   UNL     1     -35.547  11.255 -38.751  1.00  0.00     0.191 C 
BRANCH  29  30
ATOM     30  O   UNL     1     -36.723  10.557 -39.052  1.00  0.00    -0.394 OA
ATOM     31  H   UNL     1     -37.460  11.040 -38.597  1.00  0.00     0.210 HD
ENDBRANCH  29  30
ENDBRANCH  21  29
ENDBRANCH   1  17
TORSDOF 13
ENDMDL
MODEL 4
REMARK VINA RESULT:    -0.666     18.721     20.980
REMARK INTER + INTRA:          -1.475
REMARK INTER:                  -1.740
REMARK INTRA:                   0.265
REMARK UNBOUND:                -0.459
REMARK SMILES OC[C@H]1O[C@@H](O[C@@]2(CO)O[C@H](CO)[C@@H](O)[C@H]2O)[C@H](O)[C@@H](O)[C@H]1O
REMARK SMILES IDX 6 1 5 2 3 3 22 4 4 5 20 6 18 7 2 8 1 9 23 11 21 13 19 15
REMARK SMILES IDX 7 17 16 18 10 19 14 20 11 21 8 22 9 23 17 25 15 27 12 29
REMARK SMILES IDX 13 30
REMARK H PARENT 1 10 23 12 21 14 19 16 9 24 17 26 15 28 13 31
REMARK Flexibility Score: inf
ROOT
ATOM      1  O   UNL     1     -22.414  28.166 -33.600  1.00  0.00    -0.313 OA
ENDROOT
BRANCH   1   2
ATOM      2  C   UNL     1     -22.887  28.424 -32.277  1.00  0.00     0.285 C 
ATOM      3  C   UNL     1     -22.319  28.140 -29.978  1.00  0.00     0.178 C 
ATOM      4  C   UNL     1     -23.576  29.043 -29.729  1.00  0.00     0.177 C 
ATOM      5  O   UNL     1     -22.143  27.694 -31.323  1.00  0.00    -0.341 OA
ATOM      6  C   UNL     1     -24.791  28.578 -30.548  1.00  0.00     0.179 C 
ATOM      7  C   UNL     1     -24.413  28.286 -32.030  1.00  0.00     0.202 C 
BRANCH   3   8
ATOM      8  C   UNL     1     -22.303  26.898 -29.069  1.00  0.00     0.191 C 
BRANCH   8   9
ATOM      9  O   UNL     1     -22.627  25.748 -29.805  1.00  0.00    -0.394 OA
ATOM     10  H   UNL     1     -22.672  26.023 -30.758  1.00  0.00     0.210 HD
ENDBRANCH   8   9
ENDBRANCH   3   8
BRANCH   4  11
ATOM     11  O   UNL     1     -23.914  29.109 -28.365  1.00  0.00    -0.387 OA
ATOM     12  H   UNL     1     -24.386  28.263 -28.146  1.00  0.00     0.211 HD
ENDBRANCH   4  11
BRANCH   6  13
ATOM     13  O   UNL     1     -25.354  27.436 -29.948  1.00  0.00    -0.387 OA
ATOM     14  H   UNL     1     -25.488  27.654 -28.988  1.00  0.00     0.211 HD
ENDBRANCH   6  13
BRANCH   7  15
ATOM     15  O   UNL     1     -25.138  29.125 -32.895  1.00  0.00    -0.385 OA
ATOM     16  H   UNL     1     -24.553  29.893 -33.128  1.00  0.00     0.211 HD
ENDBRANCH   7  15
ENDBRANCH   1   2
BRANCH   1  17
ATOM     17  C   UNL     1     -23.114  27.341 -34.545  1.00  0.00     0.224 C 
ATOM     18  C   UNL     1     -22.405  27.008 -35.883  1.00  0.00     0.208 C 
ATOM     19  O   UNL     1     -24.232  28.115 -34.932  1.00  0.00    -0.337 OA
ATOM     20  C   UNL     1     -22.660  28.230 -36.740  1.00  0.00     0.180 C 
ATOM     21  C   UNL     1     -23.861  28.896 -36.050  1.00  0.00     0.179 C 
BRANCH  17  22
ATOM     22  C   UNL     1     -23.695  26.069 -33.873  1.00  0.00     0.225 C 
BRANCH  22  23
ATOM     23  O   UNL     1     -24.616  25.426 -34.719  1.00  0.00    -0.391 OA
ATOM     24  H   UNL     1     -24.504  24.448 -34.587  1.00  0.00     0.210 HD
ENDBRANCH  22  23
ENDBRANCH  17  22
BRANCH  18  25
ATOM     25  O   UNL     1     -21.041  26.695 -35.790  1.00  0.00    -0.385 OA
ATOM     26  H   UNL     1     -20.961  25.706 -35.781  1.00  0.00     0.211 HD
ENDBRANCH  18  25
BRANCH  20  27
ATOM     27  O   UNL     1     -21.548  29.091 -36.810  1.00  0.00    -0.387 OA
ATOM     28  H   UNL     1     -21.010  28.974 -35.986  1.00  0.00     0.211 HD
ENDBRANCH  20  27
BRANCH  21  29
ATOM     29  C   UNL     1     -25.063  29.019 -36.993  1.00  0.00     0.191 C 
BRANCH  29  30
ATOM     30  O   UNL     1     -26.014  28.042 -36.676  1.00  0.00    -0.394 OA
ATOM     31  H   UNL     1     -25.519  27.186 -36.589  1.00  0.00     0.210 HD
ENDBRANCH  29  30
ENDBRANCH  21  29
ENDBRANCH   1  17
TORSDOF 13
ENDMDL
MODEL 5
REMARK VINA RESULT:    -0.636      1.569      2.602
REMARK INTER + INTRA:          -1.430
REMARK INTER:                  -3.218
REMARK INTRA:                   1.787
REMARK UNBOUND:                -0.459
REMARK SMILES OC[C@H]1O[C@@H](O[C@@]2(CO)O[C@H](CO)[C@@H](O)[C@H]2O)[C@H](O)[C@@H](O)[C@H]1O
REMARK SMILES IDX 6 1 5 2 3 3 22 4 4 5 20 6 18 7 2 8 1 9 23 11 21 13 19 15
REMARK SMILES IDX 7 17 16 18 10 19 14 20 11 21 8 22 9 23 17 25 15 27 12 29
REMARK SMILES IDX 13 30
REMARK H PARENT 1 10 23 12 21 14 19 16 9 24 17 26 15 28 13 31
REMARK Flexibility Score: inf
ROOT
ATOM      1  O   UNL     1     -33.225  11.800 -33.523  1.00  0.00    -0.313 OA
ENDROOT
BRANCH   1   2
ATOM      2  C   UNL     1     -33.278  11.183 -34.810  1.00  0.00     0.285 C 
ATOM      3  C   UNL     1     -33.714  11.641 -37.109  1.00  0.00     0.178 C 
ATOM      4  C   UNL     1     -33.208  10.174 -37.326  1.00  0.00     0.177 C 
ATOM      5  O   UNL     1     -33.913  12.026 -35.749  1.00  0.00    -0.341 OA
ATOM      6  C   UNL     1     -33.856   9.190 -36.338  1.00  0.00     0.179 C 
ATOM      7  C   UNL     1     -33.838   9.736 -34.880  1.00  0.00     0.202 C 
BRANCH   3   8
ATOM      8  C   UNL     1     -35.021  11.927 -37.871  1.00  0.00     0.191 C 
BRANCH   8   9
ATOM      9  O   UNL     1     -35.211  10.982 -38.890  1.00  0.00    -0.394 OA
ATOM     10  H   UNL     1     -35.968  11.308 -39.444  1.00  0.00     0.210 HD
ENDBRANCH   8   9
ENDBRANCH   3   8
BRANCH   4  11
ATOM     11  O   UNL     1     -33.417   9.735 -38.646  1.00  0.00    -0.387 OA
ATOM     12  H   UNL     1     -33.505  10.549 -39.207  1.00  0.00     0.211 HD
ENDBRANCH   4  11
BRANCH   6  13
ATOM     13  O   UNL     1     -35.174   8.914 -36.745  1.00  0.00    -0.387 OA
ATOM     14  H   UNL     1     -35.614   8.440 -35.990  1.00  0.00     0.211 HD
ENDBRANCH   6  13
BRANCH   7  15
ATOM     15  O   UNL     1     -33.106   8.875 -34.044  1.00  0.00    -0.385 OA
ATOM     16  H   UNL     1     -32.147   8.965 -34.287  1.00  0.00     0.211 HD
ENDBRANCH   7  15
ENDBRANCH   1   2
BRANCH   1  17
ATOM     17  C   UNL     1     -32.637  11.178 -32.370  1.00  0.00     0.224 C 
ATOM     18  C   UNL     1     -33.590  10.570 -31.308  1.00  0.00     0.208 C 
ATOM     19  O   UNL     1     -31.991  12.233 -31.687  1.00  0.00    -0.337 OA
ATOM     20  C   UNL     1     -34.003  11.762 -30.470  1.00  0.00     0.180 C 
ATOM     21  C   UNL     1     -32.912  12.800 -30.778  1.00  0.00     0.179 C 
BRANCH  17  22
ATOM     22  C   UNL     1     -31.515  10.182 -32.767  1.00  0.00     0.225 C 
BRANCH  22  23
ATOM     23  O   UNL     1     -31.698   8.937 -32.139  1.00  0.00    -0.391 OA
ATOM     24  H   UNL     1     -31.045   8.885 -31.393  1.00  0.00     0.210 HD
ENDBRANCH  22  23
ENDBRANCH  17  22
BRANCH  18  25
ATOM     25  O   UNL     1     -34.692   9.861 -31.810  1.00  0.00    -0.385 OA
ATOM     26  H   UNL     1     -35.476  10.468 -31.780  1.00  0.00     0.211 HD
ENDBRANCH  18  25
BRANCH  20  27
ATOM     27  O   UNL     1     -35.289  12.238 -30.793  1.00  0.00    -0.387 OA
ATOM     28  H   UNL     1     -35.207  12.881 -31.542  1.00  0.00     0.211 HD
ENDBRANCH  20  27
BRANCH  21  29
ATOM     29  C   UNL     1     -32.164  13.232 -29.513  1.00  0.00     0.191 C 
BRANCH  29  30
ATOM     30  O   UNL     1     -32.567  12.438 -28.432  1.00  0.00    -0.394 OA
ATOM     31  H   UNL     1     -32.810  13.064 -27.701  1.00  0.00     0.210 HD
ENDBRANCH  29  30
ENDBRANCH  21  29
ENDBRANCH   1  17
TORSDOF 13
ENDMDL
