MODEL 1
REMARK VINA RESULT:     3.453      0.000      0.000
REMARK INTER + INTRA:           4.579
REMARK INTER:                   4.866
REMARK INTRA:                  -0.287
REMARK UNBOUND:                -0.287
REMARK SMILES CCCCCCCCC(=O)[O-]
REMARK SMILES IDX 6 1 7 2 8 3 9 4 10 5 11 6 5 7 4 8 3 9 2 10 1 11
REMARK H PARENT
REMARK Flexibility Score: inf
ROOT
ATOM      1  C   UNL     1     -34.432  14.341  17.821  1.00  0.00     0.000 C 
ENDROOT
BRANCH   1   2
ATOM      2  C   UNL     1     -33.735  13.323  16.910  1.00  0.00     0.006 C 
BRANCH   2   3
ATOM      3  C   UNL     1     -33.722  11.931  17.550  1.00  0.00     0.053 C 
BRANCH   3   4
ATOM      4  C   UNL     1     -32.951  11.952  18.832  1.00  0.00     0.041 C 
ATOM      5  O   UNL     1     -31.721  12.222  18.828  1.00  0.00    -0.550 OA
ATOM      6  O   UNL     1     -33.580  11.624  20.026  1.00  0.00    -0.550 OA
ENDBRANCH   3   4
ENDBRANCH   2   3
ENDBRANCH   1   2
BRANCH   1   7
ATOM      7  C   UNL     1     -35.029  15.494  17.002  1.00  0.00     0.000 C 
BRANCH   7   8
ATOM      8  C   UNL     1     -35.332  16.739  17.854  1.00  0.00    -0.000 C 
BRANCH   8   9
ATOM      9  C   UNL     1     -36.818  16.935  18.219  1.00  0.00    -0.000 C 
BRANCH   9  10
ATOM     10  C   UNL     1     -37.715  15.710  17.969  1.00  0.00    -0.003 C 
ATOM     11  C   UNL     1     -38.902  15.634  18.928  1.00  0.00     0.004 C 
ENDBRANCH   9  10
ENDBRANCH   8   9
ENDBRANCH   7   8
ENDBRANCH   1   7
TORSDOF 7
ENDMDL
MODEL 2
REMARK VINA RESULT:     3.503      3.108      5.472
REMARK INTER + INTRA:           4.650
REMARK INTER:                   4.936
REMARK INTRA:                  -0.286
REMARK UNBOUND:                -0.287
REMARK SMILES CCCCCCCCC(=O)[O-]
REMARK SMILES IDX 6 1 7 2 8 3 9 4 10 5 11 6 5 7 4 8 3 9 2 10 1 11
REMARK H PARENT
REMARK Flexibility Score: inf
ROOT
ATOM      1  C   UNL     1     -34.384  13.492  16.754  1.00  0.00     0.000 C 
ENDROOT
BRANCH   1   2
ATOM      2  C   UNL     1     -34.668  14.651  17.718  1.00  0.00     0.006 C 
BRANCH   2   3
ATOM      3  C   UNL     1     -35.147  15.892  16.958  1.00  0.00     0.053 C 
BRANCH   3   4
ATOM      4  C   UNL     1     -35.736  16.889  17.904  1.00  0.00     0.041 C 
ATOM      5  O   UNL     1     -36.942  16.795  18.255  1.00  0.00    -0.550 OA
ATOM      6  O   UNL     1     -34.968  17.954  18.359  1.00  0.00    -0.550 OA
ENDBRANCH   3   4
ENDBRANCH   2   3
ENDBRANCH   1   2
BRANCH   1   7
ATOM      7  C   UNL     1     -33.088  12.763  17.136  1.00  0.00     0.000 C 
BRANCH   7   8
ATOM      8  C   UNL     1     -33.317  11.624  18.145  1.00  0.00    -0.000 C 
BRANCH   8   9
ATOM      9  C   UNL     1     -32.952  11.962  19.606  1.00  0.00    -0.000 C 
BRANCH   9  10
ATOM     10  C   UNL     1     -33.998  11.537  20.651  1.00  0.00    -0.003 C 
ATOM     11  C   UNL     1     -34.084  10.022  20.828  1.00  0.00     0.004 C 
ENDBRANCH   9  10
ENDBRANCH   8   9
ENDBRANCH   7   8
ENDBRANCH   1   7
TORSDOF 7
ENDMDL
MODEL 3
REMARK VINA RESULT:     3.578      3.162      5.636
REMARK INTER + INTRA:           4.755
REMARK INTER:                   4.848
REMARK INTRA:                  -0.093
REMARK UNBOUND:                -0.287
REMARK SMILES CCCCCCCCC(=O)[O-]
REMARK SMILES IDX 6 1 7 2 8 3 9 4 10 5 11 6 5 7 4 8 3 9 2 10 1 11
REMARK H PARENT
REMARK Flexibility Score: inf
ROOT
ATOM      1  C   UNL     1     -35.180  16.812  17.841  1.00  0.00     0.000 C 
ENDROOT
BRANCH   1   2
ATOM      2  C   UNL     1     -36.663  16.987  18.191  1.00  0.00     0.006 C 
BRANCH   2   3
ATOM      3  C   UNL     1     -37.465  15.735  17.823  1.00  0.00     0.053 C 
BRANCH   3   4
ATOM      4  C   UNL     1     -38.794  15.744  18.509  1.00  0.00     0.041 C 
ATOM      5  O   UNL     1     -38.955  15.112  19.587  1.00  0.00    -0.550 OA
ATOM      6  O   UNL     1     -39.870  16.407  17.933  1.00  0.00    -0.550 OA
ENDBRANCH   3   4
ENDBRANCH   2   3
ENDBRANCH   1   2
BRANCH   1   7
ATOM      7  C   UNL     1     -34.936  15.473  17.131  1.00  0.00     0.000 C 
BRANCH   7   8
ATOM      8  C   UNL     1     -34.383  14.388  18.072  1.00  0.00    -0.000 C 
BRANCH   8   9
ATOM      9  C   UNL     1     -33.888  13.106  17.371  1.00  0.00    -0.000 C 
BRANCH   9  10
ATOM     10  C   UNL     1     -32.767  12.354  18.109  1.00  0.00    -0.003 C 
ATOM     11  C   UNL     1     -33.236  11.717  19.416  1.00  0.00     0.004 C 
ENDBRANCH   9  10
ENDBRANCH   8   9
ENDBRANCH   7   8
ENDBRANCH   1   7
TORSDOF 7
ENDMDL
MODEL 4
REMARK VINA RESULT:     3.731      1.773      2.737
REMARK INTER + INTRA:           4.972
REMARK INTER:                   5.197
REMARK INTRA:                  -0.225
REMARK UNBOUND:                -0.287
REMARK SMILES CCCCCCCCC(=O)[O-]
REMARK SMILES IDX 6 1 7 2 8 3 9 4 10 5 11 6 5 7 4 8 3 9 2 10 1 11
REMARK H PARENT
REMARK Flexibility Score: inf
ROOT
ATOM      1  C   UNL     1     -33.113  12.553  17.411  1.00  0.00     0.000 C 
ENDROOT
BRANCH   1   2
ATOM      2  C   UNL     1     -33.174  12.461  18.941  1.00  0.00     0.006 C 
BRANCH   2   3
ATOM      3  C   UNL     1     -33.139  11.002  19.405  1.00  0.00     0.053 C 
BRANCH   3   4
ATOM      4  C   UNL     1     -33.875  10.846  20.698  1.00  0.00     0.041 C 
ATOM      5  O   UNL     1     -34.249   9.707  21.081  1.00  0.00    -0.550 OA
ATOM      6  O   UNL     1     -34.193  11.966  21.456  1.00  0.00    -0.550 OA
ENDBRANCH   3   4
ENDBRANCH   2   3
ENDBRANCH   1   2
BRANCH   1   7
ATOM      7  C   UNL     1     -34.251  13.428  16.867  1.00  0.00     0.000 C 
BRANCH   7   8
ATOM      8  C   UNL     1     -34.598  14.606  17.795  1.00  0.00    -0.000 C 
BRANCH   8   9
ATOM      9  C   UNL     1     -35.490  15.695  17.165  1.00  0.00    -0.000 C 
BRANCH   9  10
ATOM     10  C   UNL     1     -35.880  16.844  18.110  1.00  0.00    -0.003 C 
ATOM     11  C   UNL     1     -34.807  17.927  18.207  1.00  0.00     0.004 C 
ENDBRANCH   9  10
ENDBRANCH   8   9
ENDBRANCH   7   8
ENDBRANCH   1   7
TORSDOF 7
ENDMDL
