MODEL 1
REMARK VINA RESULT:    -4.842      0.000      0.000
REMARK INTER + INTRA:          -5.600
REMARK INTER:                  -5.550
REMARK INTRA:                  -0.051
REMARK UNBOUND:                -0.051
REMARK SMILES O=C([O-])c1cc(O)c(O)c(O)c1
REMARK SMILES IDX 4 1 5 2 12 3 6 4 10 5 8 6 2 7 1 8 3 9 7 10 11 12 9 14
REMARK H PARENT 7 11 11 13 9 15
REMARK Flexibility Score: inf
ROOT
ATOM      1  C   UNL     1     -24.977 -48.092  -3.379  1.00  0.00     0.005 A 
ATOM      2  C   UNL     1     -23.700 -47.838  -3.903  1.00  0.00     0.060 A 
ATOM      3  C   UNL     1     -26.072 -47.354  -3.863  1.00  0.00     0.060 A 
ATOM      4  C   UNL     1     -23.514 -46.866  -4.892  1.00  0.00     0.162 A 
ATOM      5  C   UNL     1     -25.895 -46.379  -4.853  1.00  0.00     0.162 A 
ATOM      6  C   UNL     1     -24.611 -46.131  -5.371  1.00  0.00     0.200 A 
ENDROOT
BRANCH   1   7
ATOM      7  C   UNL     1     -25.164 -49.123  -2.334  1.00  0.00     0.072 C 
ATOM      8  O   UNL     1     -26.083 -49.011  -1.480  1.00  0.00    -0.545 OA
ATOM      9  O   UNL     1     -24.327 -50.231  -2.280  1.00  0.00    -0.545 OA
ENDBRANCH   1   7
BRANCH   4  10
ATOM     10  O   UNL     1     -22.228 -46.644  -5.387  1.00  0.00    -0.504 OA
ATOM     11  H   UNL     1     -21.606 -45.955  -4.981  1.00  0.00     0.293 HD
ENDBRANCH   4  10
BRANCH   5  12
ATOM     12  O   UNL     1     -26.988 -45.653  -5.324  1.00  0.00    -0.504 OA
ATOM     13  H   UNL     1     -27.651 -46.056  -5.976  1.00  0.00     0.293 HD
ENDBRANCH   5  12
BRANCH   6  14
ATOM     14  O   UNL     1     -24.417 -45.163  -6.357  1.00  0.00    -0.502 OA
ATOM     15  H   UNL     1     -25.135 -44.493  -6.605  1.00  0.00     0.293 HD
ENDBRANCH   6  14
TORSDOF 4
ENDMDL
MODEL 2
REMARK VINA RESULT:    -4.842      0.113      2.602
REMARK INTER + INTRA:          -5.600
REMARK INTER:                  -5.551
REMARK INTRA:                  -0.049
REMARK UNBOUND:                -0.051
REMARK SMILES O=C([O-])c1cc(O)c(O)c(O)c1
REMARK SMILES IDX 4 1 5 2 12 3 6 4 10 5 8 6 2 7 1 8 3 9 7 10 11 12 9 14
REMARK H PARENT 7 11 11 13 9 15
REMARK Flexibility Score: inf
ROOT
ATOM      1  C   UNL     1     -24.985 -48.086  -3.333  1.00  0.00     0.005 A 
ATOM      2  C   UNL     1     -26.076 -47.364  -3.842  1.00  0.00     0.060 A 
ATOM      3  C   UNL     1     -23.698 -47.816  -3.829  1.00  0.00     0.060 A 
ATOM      4  C   UNL     1     -25.891 -46.390  -4.830  1.00  0.00     0.162 A 
ATOM      5  C   UNL     1     -23.502 -46.842  -4.817  1.00  0.00     0.162 A 
ATOM      6  C   UNL     1     -24.601 -46.125  -5.322  1.00  0.00     0.200 A 
ENDROOT
BRANCH   1   7
ATOM      7  C   UNL     1     -25.193 -49.114  -2.288  1.00  0.00     0.072 C 
ATOM      8  O   UNL     1     -24.551 -50.198  -2.320  1.00  0.00    -0.545 OA
ATOM      9  O   UNL     1     -26.098 -48.898  -1.258  1.00  0.00    -0.545 OA
ENDBRANCH   1   7
BRANCH   4  10
ATOM     10  O   UNL     1     -27.000 -45.695  -5.310  1.00  0.00    -0.504 OA
ATOM     11  H   UNL     1     -27.920 -46.117  -5.361  1.00  0.00     0.293 HD
ENDBRANCH   4  10
BRANCH   5  12
ATOM     12  O   UNL     1     -22.221 -46.585  -5.301  1.00  0.00    -0.504 OA
ATOM     13  H   UNL     1     -21.688 -45.780  -4.991  1.00  0.00     0.293 HD
ENDBRANCH   5  12
BRANCH   6  14
ATOM     14  O   UNL     1     -24.424 -45.153  -6.306  1.00  0.00    -0.502 OA
ATOM     15  H   UNL     1     -24.413 -44.163  -6.092  1.00  0.00     0.293 HD
ENDBRANCH   6  14
TORSDOF 4
ENDMDL
MODEL 3
REMARK VINA RESULT:    -4.735      6.095      7.810
REMARK INTER + INTRA:          -5.477
REMARK INTER:                  -5.425
REMARK INTRA:                  -0.052
REMARK UNBOUND:                -0.051
REMARK SMILES O=C([O-])c1cc(O)c(O)c(O)c1
REMARK SMILES IDX 4 1 5 2 12 3 6 4 10 5 8 6 2 7 1 8 3 9 7 10 11 12 9 14
REMARK H PARENT 7 11 11 13 9 15
REMARK Flexibility Score: inf
ROOT
ATOM      1  C   UNL     1     -22.762 -47.744   1.462  1.00  0.00     0.005 A 
ATOM      2  C   UNL     1     -22.352 -46.409   1.608  1.00  0.00     0.060 A 
ATOM      3  C   UNL     1     -22.081 -48.747   2.175  1.00  0.00     0.060 A 
ATOM      4  C   UNL     1     -21.283 -46.076   2.447  1.00  0.00     0.162 A 
ATOM      5  C   UNL     1     -21.009 -48.423   3.018  1.00  0.00     0.162 A 
ATOM      6  C   UNL     1     -20.607 -47.083   3.156  1.00  0.00     0.200 A 
ENDROOT
BRANCH   1   7
ATOM      7  C   UNL     1     -23.894 -48.085   0.572  1.00  0.00     0.072 C 
ATOM      8  O   UNL     1     -24.101 -49.280   0.230  1.00  0.00    -0.545 OA
ATOM      9  O   UNL     1     -24.744 -47.093   0.102  1.00  0.00    -0.545 OA
ENDBRANCH   1   7
BRANCH   4  10
ATOM     10  O   UNL     1     -20.908 -44.738   2.564  1.00  0.00    -0.504 OA
ATOM     11  H   UNL     1     -20.347 -44.401   3.337  1.00  0.00     0.293 HD
ENDBRANCH   4  10
BRANCH   5  12
ATOM     12  O   UNL     1     -20.343 -49.427   3.718  1.00  0.00    -0.504 OA
ATOM     13  H   UNL     1     -20.030 -49.291   4.673  1.00  0.00     0.293 HD
ENDBRANCH   5  12
BRANCH   6  14
ATOM     14  O   UNL     1     -19.542 -46.743   3.991  1.00  0.00    -0.502 OA
ATOM     15  H   UNL     1     -18.576 -46.845   3.703  1.00  0.00     0.293 HD
ENDBRANCH   6  14
TORSDOF 4
ENDMDL
MODEL 4
REMARK VINA RESULT:    -4.717      6.101      7.697
REMARK INTER + INTRA:          -5.457
REMARK INTER:                  -5.405
REMARK INTRA:                  -0.052
REMARK UNBOUND:                -0.051
REMARK SMILES O=C([O-])c1cc(O)c(O)c(O)c1
REMARK SMILES IDX 4 1 5 2 12 3 6 4 10 5 8 6 2 7 1 8 3 9 7 10 11 12 9 14
REMARK H PARENT 7 11 11 13 9 15
REMARK Flexibility Score: inf
ROOT
ATOM      1  C   UNL     1     -22.746 -47.779   1.479  1.00  0.00     0.005 A 
ATOM      2  C   UNL     1     -22.041 -48.767   2.183  1.00  0.00     0.060 A 
ATOM      3  C   UNL     1     -22.356 -46.435   1.615  1.00  0.00     0.060 A 
ATOM      4  C   UNL     1     -20.965 -48.425   3.010  1.00  0.00     0.162 A 
ATOM      5  C   UNL     1     -21.279 -46.083   2.440  1.00  0.00     0.162 A 
ATOM      6  C   UNL     1     -20.580 -47.081   3.142  1.00  0.00     0.200 A 
ENDROOT
BRANCH   1   7
ATOM      7  C   UNL     1     -23.883 -48.151   0.607  1.00  0.00     0.072 C 
ATOM      8  O   UNL     1     -24.027 -49.340   0.216  1.00  0.00    -0.545 OA
ATOM      9  O   UNL     1     -24.807 -47.194   0.207  1.00  0.00    -0.545 OA
ENDBRANCH   1   7
BRANCH   4  10
ATOM     10  O   UNL     1     -20.290 -49.437   3.693  1.00  0.00    -0.504 OA
ATOM     11  H   UNL     1     -19.310 -49.360   3.939  1.00  0.00     0.293 HD
ENDBRANCH   4  10
BRANCH   5  12
ATOM     12  O   UNL     1     -20.903 -44.747   2.566  1.00  0.00    -0.504 OA
ATOM     13  H   UNL     1     -21.161 -44.198   3.378  1.00  0.00     0.293 HD
ENDBRANCH   5  12
BRANCH   6  14
ATOM     14  O   UNL     1     -19.506 -46.748   3.968  1.00  0.00    -0.502 OA
ATOM     15  H   UNL     1     -18.838 -47.437   4.290  1.00  0.00     0.293 HD
ENDBRANCH   6  14
TORSDOF 4
ENDMDL
MODEL 5
REMARK VINA RESULT:    -4.686      4.434      5.405
REMARK INTER + INTRA:          -5.421
REMARK INTER:                  -5.373
REMARK INTRA:                  -0.048
REMARK UNBOUND:                -0.051
REMARK SMILES O=C([O-])c1cc(O)c(O)c(O)c1
REMARK SMILES IDX 4 1 5 2 12 3 6 4 10 5 8 6 2 7 1 8 3 9 7 10 11 12 9 14
REMARK H PARENT 7 11 11 13 9 15
REMARK Flexibility Score: inf
ROOT
ATOM      1  C   UNL     1     -23.196 -48.387   0.231  1.00  0.00     0.005 A 
ATOM      2  C   UNL     1     -24.278 -49.038  -0.383  1.00  0.00     0.060 A 
ATOM      3  C   UNL     1     -23.389 -47.102   0.767  1.00  0.00     0.060 A 
ATOM      4  C   UNL     1     -25.532 -48.422  -0.463  1.00  0.00     0.162 A 
ATOM      5  C   UNL     1     -24.641 -46.477   0.692  1.00  0.00     0.162 A 
ATOM      6  C   UNL     1     -25.718 -47.137   0.074  1.00  0.00     0.200 A 
ENDROOT
BRANCH   1   7
ATOM      7  C   UNL     1     -21.875 -49.049   0.311  1.00  0.00     0.072 C 
ATOM      8  O   UNL     1     -21.221 -49.044   1.387  1.00  0.00    -0.545 OA
ATOM      9  O   UNL     1     -21.337 -49.684  -0.801  1.00  0.00    -0.545 OA
ENDBRANCH   1   7
BRANCH   4  10
ATOM     10  O   UNL     1     -26.581 -49.102  -1.081  1.00  0.00    -0.504 OA
ATOM     11  H   UNL     1     -27.008 -49.923  -0.669  1.00  0.00     0.293 HD
ENDBRANCH   4  10
BRANCH   5  12
ATOM     12  O   UNL     1     -24.819 -45.202   1.227  1.00  0.00    -0.504 OA
ATOM     13  H   UNL     1     -24.304 -44.403   0.877  1.00  0.00     0.293 HD
ENDBRANCH   5  12
BRANCH   6  14
ATOM     14  O   UNL     1     -26.971 -46.528  -0.010  1.00  0.00    -0.502 OA
ATOM     15  H   UNL     1     -27.791 -47.023  -0.339  1.00  0.00     0.293 HD
ENDBRANCH   6  14
TORSDOF 4
ENDMDL
MODEL 6
REMARK VINA RESULT:    -4.562      4.233      5.847
REMARK INTER + INTRA:          -5.280
REMARK INTER:                  -5.233
REMARK INTRA:                  -0.047
REMARK UNBOUND:                -0.051
REMARK SMILES O=C([O-])c1cc(O)c(O)c(O)c1
REMARK SMILES IDX 4 1 5 2 12 3 6 4 10 5 8 6 2 7 1 8 3 9 7 10 11 12 9 14
REMARK H PARENT 7 11 11 13 9 15
REMARK Flexibility Score: inf
ROOT
ATOM      1  C   UNL     1     -23.488 -46.932   0.995  1.00  0.00     0.005 A 
ATOM      2  C   UNL     1     -24.677 -46.266   0.657  1.00  0.00     0.060 A 
ATOM      3  C   UNL     1     -23.278 -48.237   0.517  1.00  0.00     0.060 A 
ATOM      4  C   UNL     1     -25.641 -46.887  -0.144  1.00  0.00     0.162 A 
ATOM      5  C   UNL     1     -24.238 -48.867  -0.287  1.00  0.00     0.162 A 
ATOM      6  C   UNL     1     -25.426 -48.192  -0.619  1.00  0.00     0.200 A 
ENDROOT
BRANCH   1   7
ATOM      7  C   UNL     1     -22.474 -46.265   1.843  1.00  0.00     0.072 C 
ATOM      8  O   UNL     1     -22.792 -45.783   2.963  1.00  0.00    -0.545 OA
ATOM      9  O   UNL     1     -21.157 -46.162   1.415  1.00  0.00    -0.545 OA
ENDBRANCH   1   7
BRANCH   4  10
ATOM     10  O   UNL     1     -26.809 -46.192  -0.457  1.00  0.00    -0.504 OA
ATOM     11  H   UNL     1     -27.302 -46.331  -1.331  1.00  0.00     0.293 HD
ENDBRANCH   4  10
BRANCH   5  12
ATOM     12  O   UNL     1     -24.018 -50.161  -0.754  1.00  0.00    -0.504 OA
ATOM     13  H   UNL     1     -24.018 -50.959  -0.129  1.00  0.00     0.293 HD
ENDBRANCH   5  12
BRANCH   6  14
ATOM     14  O   UNL     1     -26.392 -48.805  -1.416  1.00  0.00    -0.502 OA
ATOM     15  H   UNL     1     -27.182 -48.297  -1.795  1.00  0.00     0.293 HD
ENDBRANCH   6  14
TORSDOF 4
ENDMDL
MODEL 7
REMARK VINA RESULT:    -4.555      3.781      5.254
REMARK INTER + INTRA:          -5.272
REMARK INTER:                  -5.226
REMARK INTRA:                  -0.046
REMARK UNBOUND:                -0.051
REMARK SMILES O=C([O-])c1cc(O)c(O)c(O)c1
REMARK SMILES IDX 4 1 5 2 12 3 6 4 10 5 8 6 2 7 1 8 3 9 7 10 11 12 9 14
REMARK H PARENT 7 11 11 13 9 15
REMARK Flexibility Score: inf
ROOT
ATOM      1  C   UNL     1     -23.248 -48.682   0.101  1.00  0.00     0.005 A 
ATOM      2  C   UNL     1     -24.417 -47.940   0.334  1.00  0.00     0.060 A 
ATOM      3  C   UNL     1     -23.226 -49.603  -0.960  1.00  0.00     0.060 A 
ATOM      4  C   UNL     1     -25.545 -48.110  -0.476  1.00  0.00     0.162 A 
ATOM      5  C   UNL     1     -24.351 -49.780  -1.777  1.00  0.00     0.162 A 
ATOM      6  C   UNL     1     -25.517 -49.032  -1.535  1.00  0.00     0.200 A 
ENDROOT
BRANCH   1   7
ATOM      7  C   UNL     1     -22.060 -48.494   0.964  1.00  0.00     0.072 C 
ATOM      8  O   UNL     1     -20.973 -48.085   0.476  1.00  0.00    -0.545 OA
ATOM      9  O   UNL     1     -22.128 -48.767   2.324  1.00  0.00    -0.545 OA
ENDBRANCH   1   7
BRANCH   4  10
ATOM     10  O   UNL     1     -26.686 -47.352  -0.212  1.00  0.00    -0.504 OA
ATOM     11  H   UNL     1     -26.835 -46.895   0.680  1.00  0.00     0.293 HD
ENDBRANCH   4  10
BRANCH   5  12
ATOM     12  O   UNL     1     -24.316 -50.697  -2.827  1.00  0.00    -0.504 OA
ATOM     13  H   UNL     1     -23.889 -51.609  -2.720  1.00  0.00     0.293 HD
ENDBRANCH   5  12
BRANCH   6  14
ATOM     14  O   UNL     1     -26.646 -49.196  -2.338  1.00  0.00    -0.502 OA
ATOM     15  H   UNL     1     -26.639 -48.990  -3.330  1.00  0.00     0.293 HD
ENDBRANCH   6  14
TORSDOF 4
ENDMDL
MODEL 8
REMARK VINA RESULT:    -4.552      4.264      5.483
REMARK INTER + INTRA:          -5.268
REMARK INTER:                  -5.220
REMARK INTRA:                  -0.047
REMARK UNBOUND:                -0.051
REMARK SMILES O=C([O-])c1cc(O)c(O)c(O)c1
REMARK SMILES IDX 4 1 5 2 12 3 6 4 10 5 8 6 2 7 1 8 3 9 7 10 11 12 9 14
REMARK H PARENT 7 11 11 13 9 15
REMARK Flexibility Score: inf
ROOT
ATOM      1  C   UNL     1     -23.412 -46.978   0.984  1.00  0.00     0.005 A 
ATOM      2  C   UNL     1     -23.230 -48.276   0.481  1.00  0.00     0.060 A 
ATOM      3  C   UNL     1     -24.608 -46.297   0.695  1.00  0.00     0.060 A 
ATOM      4  C   UNL     1     -24.219 -48.887  -0.297  1.00  0.00     0.162 A 
ATOM      5  C   UNL     1     -25.605 -46.901  -0.083  1.00  0.00     0.162 A 
ATOM      6  C   UNL     1     -25.412 -48.201  -0.583  1.00  0.00     0.200 A 
ENDROOT
BRANCH   1   7
ATOM      7  C   UNL     1     -22.359 -46.341   1.805  1.00  0.00     0.072 C 
ATOM      8  O   UNL     1     -22.635 -45.851   2.933  1.00  0.00    -0.545 OA
ATOM      9  O   UNL     1     -21.050 -46.274   1.345  1.00  0.00    -0.545 OA
ENDBRANCH   1   7
BRANCH   4  10
ATOM     10  O   UNL     1     -23.999 -50.177  -0.778  1.00  0.00    -0.504 OA
ATOM     11  H   UNL     1     -23.698 -50.933  -0.175  1.00  0.00     0.293 HD
ENDBRANCH   4  10
BRANCH   5  12
ATOM     12  O   UNL     1     -26.786 -46.215  -0.362  1.00  0.00    -0.504 OA
ATOM     13  H   UNL     1     -27.436 -46.543  -1.066  1.00  0.00     0.293 HD
ENDBRANCH   5  12
BRANCH   6  14
ATOM     14  O   UNL     1     -26.394 -48.817  -1.359  1.00  0.00    -0.502 OA
ATOM     15  H   UNL     1     -26.731 -48.413  -2.225  1.00  0.00     0.293 HD
ENDBRANCH   6  14
TORSDOF 4
ENDMDL
MODEL 9
REMARK VINA RESULT:    -4.516      3.740      4.858
REMARK INTER + INTRA:          -5.227
REMARK INTER:                  -5.175
REMARK INTRA:                  -0.051
REMARK UNBOUND:                -0.051
REMARK SMILES O=C([O-])c1cc(O)c(O)c(O)c1
REMARK SMILES IDX 4 1 5 2 12 3 6 4 10 5 8 6 2 7 1 8 3 9 7 10 11 12 9 14
REMARK H PARENT 7 11 11 13 9 15
REMARK Flexibility Score: inf
ROOT
ATOM      1  C   UNL     1     -23.349 -48.739   0.123  1.00  0.00     0.005 A 
ATOM      2  C   UNL     1     -23.330 -49.657  -0.939  1.00  0.00     0.060 A 
ATOM      3  C   UNL     1     -24.493 -47.947   0.319  1.00  0.00     0.060 A 
ATOM      4  C   UNL     1     -24.432 -49.786  -1.792  1.00  0.00     0.162 A 
ATOM      5  C   UNL     1     -25.602 -48.069  -0.530  1.00  0.00     0.162 A 
ATOM      6  C   UNL     1     -25.573 -48.991  -1.591  1.00  0.00     0.200 A 
ENDROOT
BRANCH   1   7
ATOM      7  C   UNL     1     -22.178 -48.611   1.020  1.00  0.00     0.072 C 
ATOM      8  O   UNL     1     -21.025 -48.920   0.616  1.00  0.00    -0.545 OA
ATOM      9  O   UNL     1     -22.334 -48.147   2.320  1.00  0.00    -0.545 OA
ENDBRANCH   1   7
BRANCH   4  10
ATOM     10  O   UNL     1     -24.373 -50.711  -2.835  1.00  0.00    -0.504 OA
ATOM     11  H   UNL     1     -23.616 -51.378  -2.923  1.00  0.00     0.293 HD
ENDBRANCH   4  10
BRANCH   5  12
ATOM     12  O   UNL     1     -26.730 -47.278  -0.325  1.00  0.00    -0.504 OA
ATOM     13  H   UNL     1     -26.679 -46.266  -0.340  1.00  0.00     0.293 HD
ENDBRANCH   5  12
BRANCH   6  14
ATOM     14  O   UNL     1     -26.667 -49.126  -2.446  1.00  0.00    -0.502 OA
ATOM     15  H   UNL     1     -27.330 -48.375  -2.597  1.00  0.00     0.293 HD
ENDBRANCH   6  14
TORSDOF 4
ENDMDL
