MODEL 1
REMARK VINA RESULT:    -3.744      0.000      0.000
REMARK INTER + INTRA:          -5.184
REMARK INTER:                  -4.839
REMARK INTRA:                  -0.345
REMARK UNBOUND:                -0.345
REMARK SMILES CCCCCCC(=O)[O-]
REMARK SMILES IDX 5 1 6 2 7 3 8 4 9 5 4 6 3 7 2 8 1 9
REMARK H PARENT
REMARK Flexibility Score: inf
ROOT
ATOM      1  C   UNL     1       4.816 -29.414 -17.305  1.00  0.00     0.006 C 
ENDROOT
BRANCH   1   2
ATOM      2  C   UNL     1       4.666 -30.562 -18.307  1.00  0.00     0.053 C 
BRANCH   2   3
ATOM      3  C   UNL     1       5.915 -31.384 -18.354  1.00  0.00     0.041 C 
ATOM      4  O   UNL     1       6.624 -31.519 -17.321  1.00  0.00    -0.550 OA
ATOM      5  O   UNL     1       6.273 -32.040 -19.524  1.00  0.00    -0.550 OA
ENDBRANCH   2   3
ENDBRANCH   1   2
BRANCH   1   6
ATOM      6  C   UNL     1       4.793 -28.056 -18.016  1.00  0.00     0.000 C 
BRANCH   6   7
ATOM      7  C   UNL     1       5.913 -27.143 -17.495  1.00  0.00    -0.000 C 
BRANCH   7   8
ATOM      8  C   UNL     1       7.072 -27.931 -16.867  1.00  0.00    -0.003 C 
ATOM      9  C   UNL     1       8.291 -28.024 -17.785  1.00  0.00     0.004 C 
ENDBRANCH   7   8
ENDBRANCH   6   7
ENDBRANCH   1   6
TORSDOF 5
ENDMDL
MODEL 2
REMARK VINA RESULT:    -3.664      2.123      2.671
REMARK INTER + INTRA:          -5.080
REMARK INTER:                  -4.949
REMARK INTRA:                  -0.131
REMARK UNBOUND:                -0.345
REMARK SMILES CCCCCCC(=O)[O-]
REMARK SMILES IDX 5 1 6 2 7 3 8 4 9 5 4 6 3 7 2 8 1 9
REMARK H PARENT
REMARK Flexibility Score: inf
ROOT
ATOM      1  C   UNL     1       6.999 -31.618 -18.318  1.00  0.00     0.006 C 
ENDROOT
BRANCH   1   2
ATOM      2  C   UNL     1       6.352 -32.120 -19.611  1.00  0.00     0.053 C 
BRANCH   2   3
ATOM      3  C   UNL     1       7.040 -33.356 -20.096  1.00  0.00     0.041 C 
ATOM      4  O   UNL     1       8.195 -33.642 -19.681  1.00  0.00    -0.550 OA
ATOM      5  O   UNL     1       6.390 -34.218 -20.969  1.00  0.00    -0.550 OA
ENDBRANCH   2   3
ENDBRANCH   1   2
BRANCH   1   6
ATOM      6  C   UNL     1       6.358 -30.304 -17.855  1.00  0.00     0.000 C 
BRANCH   6   7
ATOM      7  C   UNL     1       7.231 -29.607 -16.800  1.00  0.00    -0.000 C 
BRANCH   7   8
ATOM      8  C   UNL     1       8.333 -28.739 -17.426  1.00  0.00    -0.003 C 
ATOM      9  C   UNL     1       7.829 -27.361 -17.854  1.00  0.00     0.004 C 
ENDBRANCH   7   8
ENDBRANCH   6   7
ENDBRANCH   1   6
TORSDOF 5
ENDMDL
MODEL 3
REMARK VINA RESULT:    -3.571      2.165      3.789
REMARK INTER + INTRA:          -4.960
REMARK INTER:                  -4.669
REMARK INTRA:                  -0.291
REMARK UNBOUND:                -0.345
REMARK SMILES CCCCCCC(=O)[O-]
REMARK SMILES IDX 5 1 6 2 7 3 8 4 9 5 4 6 3 7 2 8 1 9
REMARK H PARENT
REMARK Flexibility Score: inf
ROOT
ATOM      1  C   UNL     1       5.003 -28.581 -16.971  1.00  0.00     0.006 C 
ENDROOT
BRANCH   1   2
ATOM      2  C   UNL     1       6.010 -27.435 -17.106  1.00  0.00     0.053 C 
BRANCH   2   3
ATOM      3  C   UNL     1       7.410 -27.952 -16.999  1.00  0.00     0.041 C 
ATOM      4  O   UNL     1       8.257 -27.677 -17.890  1.00  0.00    -0.550 OA
ATOM      5  O   UNL     1       7.793 -28.697 -15.892  1.00  0.00    -0.550 OA
ENDBRANCH   2   3
ENDBRANCH   1   2
BRANCH   1   6
ATOM      6  C   UNL     1       4.903 -29.383 -18.274  1.00  0.00     0.000 C 
BRANCH   6   7
ATOM      7  C   UNL     1       5.263 -30.858 -18.041  1.00  0.00    -0.000 C 
BRANCH   7   8
ATOM      8  C   UNL     1       6.665 -31.212 -18.558  1.00  0.00    -0.003 C 
ATOM      9  C   UNL     1       6.666 -32.432 -19.479  1.00  0.00     0.004 C 
ENDBRANCH   7   8
ENDBRANCH   6   7
ENDBRANCH   1   6
TORSDOF 5
ENDMDL
MODEL 4
REMARK VINA RESULT:    -3.570      2.717      4.554
REMARK INTER + INTRA:          -4.959
REMARK INTER:                  -4.737
REMARK INTRA:                  -0.222
REMARK UNBOUND:                -0.345
REMARK SMILES CCCCCCC(=O)[O-]
REMARK SMILES IDX 5 1 6 2 7 3 8 4 9 5 4 6 3 7 2 8 1 9
REMARK H PARENT
REMARK Flexibility Score: inf
ROOT
ATOM      1  C   UNL     1       7.286 -29.746 -17.817  1.00  0.00     0.006 C 
ENDROOT
BRANCH   1   2
ATOM      2  C   UNL     1       7.766 -28.743 -16.763  1.00  0.00     0.053 C 
BRANCH   2   3
ATOM      3  C   UNL     1       6.677 -27.773 -16.429  1.00  0.00     0.041 C 
ATOM      4  O   UNL     1       6.215 -27.009 -17.318  1.00  0.00    -0.550 OA
ATOM      5  O   UNL     1       6.139 -27.746 -15.150  1.00  0.00    -0.550 OA
ENDBRANCH   2   3
ENDBRANCH   1   2
BRANCH   1   6
ATOM      6  C   UNL     1       6.173 -30.641 -17.260  1.00  0.00     0.000 C 
BRANCH   6   7
ATOM      7  C   UNL     1       5.880 -31.811 -18.210  1.00  0.00    -0.000 C 
BRANCH   7   8
ATOM      8  C   UNL     1       7.076 -32.152 -19.113  1.00  0.00    -0.003 C 
ATOM      9  C   UNL     1       6.751 -33.237 -20.140  1.00  0.00     0.004 C 
ENDBRANCH   7   8
ENDBRANCH   6   7
ENDBRANCH   1   6
TORSDOF 5
ENDMDL
MODEL 5
REMARK VINA RESULT:    -3.549     15.355     16.760
REMARK INTER + INTRA:          -4.931
REMARK INTER:                  -4.587
REMARK INTRA:                  -0.344
REMARK UNBOUND:                -0.345
REMARK SMILES CCCCCCC(=O)[O-]
REMARK SMILES IDX 5 1 6 2 7 3 8 4 9 5 4 6 3 7 2 8 1 9
REMARK H PARENT
REMARK Flexibility Score: inf
ROOT
ATOM      1  C   UNL     1      -0.367 -43.290 -17.151  1.00  0.00     0.006 C 
ENDROOT
BRANCH   1   2
ATOM      2  C   UNL     1      -1.642 -43.726 -17.878  1.00  0.00     0.053 C 
BRANCH   2   3
ATOM      3  C   UNL     1      -2.239 -44.927 -17.216  1.00  0.00     0.041 C 
ATOM      4  O   UNL     1      -2.778 -45.831 -17.908  1.00  0.00    -0.550 OA
ATOM      5  O   UNL     1      -2.158 -45.072 -15.837  1.00  0.00    -0.550 OA
ENDBRANCH   2   3
ENDBRANCH   1   2
BRANCH   1   6
ATOM      6  C   UNL     1       0.770 -43.021 -18.144  1.00  0.00     0.000 C 
BRANCH   6   7
ATOM      7  C   UNL     1       1.433 -44.332 -18.591  1.00  0.00    -0.000 C 
BRANCH   7   8
ATOM      8  C   UNL     1       1.506 -45.371 -17.462  1.00  0.00    -0.003 C 
ATOM      9  C   UNL     1       0.981 -46.743 -17.886  1.00  0.00     0.004 C 
ENDBRANCH   7   8
ENDBRANCH   6   7
ENDBRANCH   1   6
TORSDOF 5
ENDMDL
MODEL 6
REMARK VINA RESULT:    -3.497     14.002     15.970
REMARK INTER + INTRA:          -4.865
REMARK INTER:                  -4.487
REMARK INTRA:                  -0.378
REMARK UNBOUND:                -0.345
REMARK SMILES CCCCCCC(=O)[O-]
REMARK SMILES IDX 5 1 6 2 7 3 8 4 9 5 4 6 3 7 2 8 1 9
REMARK H PARENT
REMARK Flexibility Score: inf
ROOT
ATOM      1  C   UNL     1      -1.051 -43.378 -16.576  1.00  0.00     0.006 C 
ENDROOT
BRANCH   1   2
ATOM      2  C   UNL     1      -0.796 -41.969 -17.118  1.00  0.00     0.053 C 
BRANCH   2   3
ATOM      3  C   UNL     1       0.005 -42.030 -18.380  1.00  0.00     0.041 C 
ATOM      4  O   UNL     1      -0.443 -41.520 -19.441  1.00  0.00    -0.550 OA
ATOM      5  O   UNL     1       1.268 -42.608 -18.375  1.00  0.00    -0.550 OA
ENDBRANCH   2   3
ENDBRANCH   1   2
BRANCH   1   6
ATOM      6  C   UNL     1      -1.855 -44.216 -17.578  1.00  0.00     0.000 C 
BRANCH   6   7
ATOM      7  C   UNL     1      -1.452 -45.696 -17.506  1.00  0.00    -0.000 C 
BRANCH   7   8
ATOM      8  C   UNL     1      -0.045 -45.897 -16.924  1.00  0.00    -0.003 C 
ATOM      9  C   UNL     1       0.990 -46.257 -17.989  1.00  0.00     0.004 C 
ENDBRANCH   7   8
ENDBRANCH   6   7
ENDBRANCH   1   6
TORSDOF 5
ENDMDL
MODEL 7
REMARK VINA RESULT:    -3.467     14.247     16.322
REMARK INTER + INTRA:          -4.826
REMARK INTER:                  -4.434
REMARK INTRA:                  -0.392
REMARK UNBOUND:                -0.345
REMARK SMILES CCCCCCC(=O)[O-]
REMARK SMILES IDX 5 1 6 2 7 3 8 4 9 5 4 6 3 7 2 8 1 9
REMARK H PARENT
REMARK Flexibility Score: inf
ROOT
ATOM      1  C   UNL     1       1.409 -44.776 -17.315  1.00  0.00     0.006 C 
ENDROOT
BRANCH   1   2
ATOM      2  C   UNL     1       1.354 -43.846 -18.530  1.00  0.00     0.053 C 
BRANCH   2   3
ATOM      3  C   UNL     1       0.553 -42.622 -18.216  1.00  0.00     0.041 C 
ATOM      4  O   UNL     1       1.050 -41.702 -17.512  1.00  0.00    -0.550 OA
ATOM      5  O   UNL     1      -0.725 -42.473 -18.739  1.00  0.00    -0.550 OA
ENDBRANCH   2   3
ENDBRANCH   1   2
BRANCH   1   6
ATOM      6  C   UNL     1       0.189 -45.704 -17.275  1.00  0.00     0.000 C 
BRANCH   6   7
ATOM      7  C   UNL     1      -0.700 -45.394 -16.061  1.00  0.00    -0.000 C 
BRANCH   7   8
ATOM      8  C   UNL     1      -2.131 -45.005 -16.461  1.00  0.00    -0.003 C 
ATOM      9  C   UNL     1      -2.545 -45.583 -17.814  1.00  0.00     0.004 C 
ENDBRANCH   7   8
ENDBRANCH   6   7
ENDBRANCH   1   6
TORSDOF 5
ENDMDL
MODEL 8
REMARK VINA RESULT:    -3.425     14.374     15.791
REMARK INTER + INTRA:          -4.772
REMARK INTER:                  -4.477
REMARK INTRA:                  -0.294
REMARK UNBOUND:                -0.345
REMARK SMILES CCCCCCC(=O)[O-]
REMARK SMILES IDX 5 1 6 2 7 3 8 4 9 5 4 6 3 7 2 8 1 9
REMARK H PARENT
REMARK Flexibility Score: inf
ROOT
ATOM      1  C   UNL     1       0.379 -42.757 -18.285  1.00  0.00     0.006 C 
ENDROOT
BRANCH   1   2
ATOM      2  C   UNL     1       1.301 -43.972 -18.420  1.00  0.00     0.053 C 
BRANCH   2   3
ATOM      3  C   UNL     1       2.541 -43.781 -17.605  1.00  0.00     0.041 C 
ATOM      4  O   UNL     1       2.607 -44.243 -16.435  1.00  0.00    -0.550 OA
ATOM      5  O   UNL     1       3.641 -43.136 -18.153  1.00  0.00    -0.550 OA
ENDBRANCH   2   3
ENDBRANCH   1   2
BRANCH   1   6
ATOM      6  C   UNL     1      -1.047 -43.184 -17.918  1.00  0.00     0.000 C 
BRANCH   6   7
ATOM      7  C   UNL     1      -1.120 -43.661 -16.460  1.00  0.00    -0.000 C 
BRANCH   7   8
ATOM      8  C   UNL     1      -1.960 -44.937 -16.297  1.00  0.00    -0.003 C 
ATOM      9  C   UNL     1      -2.582 -45.407 -17.612  1.00  0.00     0.004 C 
ENDBRANCH   7   8
ENDBRANCH   6   7
ENDBRANCH   1   6
TORSDOF 5
ENDMDL
MODEL 9
REMARK VINA RESULT:    -3.400      2.516      4.165
REMARK INTER + INTRA:          -4.739
REMARK INTER:                  -4.344
REMARK INTRA:                  -0.395
REMARK UNBOUND:                -0.345
REMARK SMILES CCCCCCC(=O)[O-]
REMARK SMILES IDX 5 1 6 2 7 3 8 4 9 5 4 6 3 7 2 8 1 9
REMARK H PARENT
REMARK Flexibility Score: inf
ROOT
ATOM      1  C   UNL     1       7.751 -28.984 -17.041  1.00  0.00     0.006 C 
ENDROOT
BRANCH   1   2
ATOM      2  C   UNL     1       7.250 -27.612 -17.502  1.00  0.00     0.053 C 
BRANCH   2   3
ATOM      3  C   UNL     1       5.814 -27.426 -17.126  1.00  0.00     0.041 C 
ATOM      4  O   UNL     1       5.426 -27.692 -15.958  1.00  0.00    -0.550 OA
ATOM      5  O   UNL     1       4.914 -26.913 -18.051  1.00  0.00    -0.550 OA
ENDBRANCH   2   3
ENDBRANCH   1   2
BRANCH   1   6
ATOM      6  C   UNL     1       7.124 -30.108 -17.875  1.00  0.00     0.000 C 
BRANCH   6   7
ATOM      7  C   UNL     1       6.597 -31.234 -16.973  1.00  0.00    -0.000 C 
BRANCH   7   8
ATOM      8  C   UNL     1       5.121 -31.563 -17.240  1.00  0.00    -0.003 C 
ATOM      9  C   UNL     1       4.480 -30.620 -18.259  1.00  0.00     0.004 C 
ENDBRANCH   7   8
ENDBRANCH   6   7
ENDBRANCH   1   6
TORSDOF 5
ENDMDL
