MODEL 1
REMARK VINA RESULT:    -5.598      0.000      0.000
REMARK INTER + INTRA:          -9.262
REMARK INTER:                  -7.725
REMARK INTRA:                  -1.537
REMARK UNBOUND:                -1.537
REMARK SMILES O=C([O-])[C@@H]1O[C@H](Oc2cc3oc(-c4ccccc4)cc(=O)c3c(O)c2O)[C@H](O)[C@@H](O)[C@@H]1O
REMARK SMILES IDX 7 1 6 2 4 3 31 4 5 5 29 6 27 7 2 8 1 9 3 10 32 11 30 13
REMARK SMILES IDX 28 15 8 17 25 18 9 19 23 20 10 21 22 22 11 23 20 24 12 25
REMARK SMILES IDX 19 26 21 27 26 28 24 30 13 32 14 33 18 34 15 35 17 36 16 37
REMARK H PARENT 32 12 30 14 28 16 26 29 24 31
REMARK Flexibility Score: inf
ROOT
ATOM      1  O   UNL     1      11.533 -16.268  14.745  1.00  0.00    -0.458 OA
ENDROOT
BRANCH   1   2
ATOM      2  C   UNL     1      11.928 -16.467  13.374  1.00  0.00     0.339 C 
ATOM      3  C   UNL     1      12.492 -18.004  11.652  1.00  0.00     0.199 C 
ATOM      4  C   UNL     1      12.780 -16.694  10.818  1.00  0.00     0.180 C 
ATOM      5  O   UNL     1      11.910 -17.830  12.968  1.00  0.00    -0.328 OA
ATOM      6  C   UNL     1      11.677 -15.626  10.961  1.00  0.00     0.181 C 
ATOM      7  C   UNL     1      11.107 -15.591  12.413  1.00  0.00     0.214 C 
BRANCH   3   8
ATOM      8  C   UNL     1      11.675 -19.000  10.863  1.00  0.00     0.073 C 
ATOM      9  O   UNL     1      10.446 -19.098  11.076  1.00  0.00    -0.547 OA
ATOM     10  O   UNL     1      12.289 -19.885   9.982  1.00  0.00    -0.547 OA
ENDBRANCH   3   8
BRANCH   4  11
ATOM     11  O   UNL     1      13.033 -16.964   9.459  1.00  0.00    -0.387 OA
ATOM     12  H   UNL     1      13.525 -16.179   9.095  1.00  0.00     0.211 HD
ENDBRANCH   4  11
BRANCH   6  13
ATOM     13  O   UNL     1      12.202 -14.379  10.586  1.00  0.00    -0.387 OA
ATOM     14  H   UNL     1      13.163 -14.359  10.895  1.00  0.00     0.211 HD
ENDBRANCH   6  13
BRANCH   7  15
ATOM     15  O   UNL     1       9.741 -15.973  12.400  1.00  0.00    -0.384 OA
ATOM     16  H   UNL     1       9.361 -15.742  13.275  1.00  0.00     0.211 HD
ENDBRANCH   7  15
ENDBRANCH   1   2
BRANCH   1  17
ATOM     17  C   UNL     1      11.683 -15.129  15.547  1.00  0.00     0.172 A 
ATOM     18  C   UNL     1      10.651 -14.626  16.381  1.00  0.00     0.201 A 
ATOM     19  C   UNL     1      12.795 -14.308  15.318  1.00  0.00     0.098 A 
ATOM     20  C   UNL     1      10.906 -13.497  17.215  1.00  0.00     0.176 A 
ATOM     21  C   UNL     1      12.731 -12.977  15.718  1.00  0.00     0.146 A 
ATOM     22  C   UNL     1      11.964 -12.619  16.848  1.00  0.00     0.111 A 
ATOM     23  O   UNL     1      13.111 -12.032  14.861  1.00  0.00    -0.456 OA
ATOM     24  C   UNL     1      12.057 -11.272  17.286  1.00  0.00     0.197 A 
ATOM     25  C   UNL     1      12.776 -10.759  15.059  1.00  0.00     0.138 A 
ATOM     26  C   UNL     1      12.593 -10.324  16.389  1.00  0.00     0.100 A 
ATOM     27  O   UNL     1      11.633 -10.909  18.417  1.00  0.00    -0.289 OA
BRANCH  18  28
ATOM     28  O   UNL     1       9.309 -14.937  16.127  1.00  0.00    -0.502 OA
ATOM     29  H   UNL     1       8.980 -15.161  15.196  1.00  0.00     0.293 HD
ENDBRANCH  18  28
BRANCH  20  30
ATOM     30  O   UNL     1      10.022 -13.133  18.223  1.00  0.00    -0.504 OA
ATOM     31  H   UNL     1       9.879 -13.745  19.024  1.00  0.00     0.293 HD
ENDBRANCH  20  30
BRANCH  25  32
ATOM     32  C   UNL     1      12.221 -10.023  13.885  1.00  0.00     0.017 A 
ATOM     33  C   UNL     1      11.137  -9.106  14.033  1.00  0.00     0.012 A 
ATOM     34  C   UNL     1      12.455 -10.580  12.597  1.00  0.00     0.012 A 
ATOM     35  C   UNL     1      10.283  -8.877  12.956  1.00  0.00     0.001 A 
ATOM     36  C   UNL     1      11.742 -10.123  11.482  1.00  0.00     0.001 A 
ATOM     37  C   UNL     1      10.634  -9.337  11.671  1.00  0.00     0.000 A 
ENDBRANCH  25  32
ENDBRANCH   1  17
TORSDOF 9
ENDMDL
MODEL 2
REMARK VINA RESULT:    -5.472      2.622      6.179
REMARK INTER + INTRA:          -9.088
REMARK INTER:                  -8.034
REMARK INTRA:                  -1.055
REMARK UNBOUND:                -1.537
REMARK SMILES O=C([O-])[C@@H]1O[C@H](Oc2cc3oc(-c4ccccc4)cc(=O)c3c(O)c2O)[C@H](O)[C@@H](O)[C@@H]1O
REMARK SMILES IDX 7 1 6 2 4 3 31 4 5 5 29 6 27 7 2 8 1 9 3 10 32 11 30 13
REMARK SMILES IDX 28 15 8 17 25 18 9 19 23 20 10 21 22 22 11 23 20 24 12 25
REMARK SMILES IDX 19 26 21 27 26 28 24 30 13 32 14 33 18 34 15 35 17 36 16 37
REMARK H PARENT 32 12 30 14 28 16 26 29 24 31
REMARK Flexibility Score: inf
ROOT
ATOM      1  O   UNL     1      11.618 -15.342  10.060  1.00  0.00    -0.458 OA
ENDROOT
BRANCH   1   2
ATOM      2  C   UNL     1      11.197 -13.966   9.991  1.00  0.00     0.339 C 
ATOM      3  C   UNL     1      10.147 -12.250   8.726  1.00  0.00     0.199 C 
ATOM      4  C   UNL     1      10.564 -11.338   9.946  1.00  0.00     0.180 C 
ATOM      5  O   UNL     1      10.389 -13.674   8.858  1.00  0.00    -0.328 OA
ATOM      6  C   UNL     1      10.259 -11.976  11.316  1.00  0.00     0.181 C 
ATOM      7  C   UNL     1      10.511 -13.516  11.292  1.00  0.00     0.214 C 
BRANCH   3   8
ATOM      8  C   UNL     1       8.712 -12.014   8.316  1.00  0.00     0.073 C 
ATOM      9  O   UNL     1       8.372 -10.894   7.875  1.00  0.00    -0.547 OA
ATOM     10  O   UNL     1       7.743 -12.990   8.526  1.00  0.00    -0.547 OA
ENDBRANCH   3   8
BRANCH   4  11
ATOM     11  O   UNL     1      10.007 -10.046   9.869  1.00  0.00    -0.387 OA
ATOM     12  H   UNL     1      10.755  -9.421   9.667  1.00  0.00     0.211 HD
ENDBRANCH   4  11
BRANCH   6  13
ATOM     13  O   UNL     1      11.042 -11.344  12.295  1.00  0.00    -0.387 OA
ATOM     14  H   UNL     1      11.754 -10.818  11.809  1.00  0.00     0.211 HD
ENDBRANCH   6  13
BRANCH   7  15
ATOM     15  O   UNL     1       9.288 -14.203  11.501  1.00  0.00    -0.384 OA
ATOM     16  H   UNL     1       9.207 -14.883  10.797  1.00  0.00     0.211 HD
ENDBRANCH   7  15
ENDBRANCH   1   2
BRANCH   1  17
ATOM     17  C   UNL     1      12.058 -16.073  11.171  1.00  0.00     0.172 A 
ATOM     18  C   UNL     1      11.555 -17.358  11.503  1.00  0.00     0.201 A 
ATOM     19  C   UNL     1      12.825 -15.404  12.134  1.00  0.00     0.098 A 
ATOM     20  C   UNL     1      12.103 -18.062  12.616  1.00  0.00     0.176 A 
ATOM     21  C   UNL     1      12.862 -15.916  13.426  1.00  0.00     0.146 A 
ATOM     22  C   UNL     1      12.749 -17.307  13.635  1.00  0.00     0.111 A 
ATOM     23  O   UNL     1      12.672 -15.084  14.449  1.00  0.00    -0.456 OA
ATOM     24  C   UNL     1      12.938 -17.774  14.962  1.00  0.00     0.197 A 
ATOM     25  C   UNL     1      12.378 -15.552  15.661  1.00  0.00     0.138 A 
ATOM     26  C   UNL     1      12.861 -16.832  16.008  1.00  0.00     0.100 A 
ATOM     27  O   UNL     1      13.120 -18.996  15.217  1.00  0.00    -0.289 OA
BRANCH  18  28
ATOM     28  O   UNL     1      10.303 -17.779  11.040  1.00  0.00    -0.502 OA
ATOM     29  H   UNL     1      10.188 -18.643  10.524  1.00  0.00     0.293 HD
ENDBRANCH  18  28
BRANCH  20  30
ATOM     30  O   UNL     1      11.827 -19.409  12.821  1.00  0.00    -0.504 OA
ATOM     31  H   UNL     1      12.531 -20.113  12.611  1.00  0.00     0.293 HD
ENDBRANCH  20  30
BRANCH  25  32
ATOM     32  C   UNL     1      11.244 -14.895  16.375  1.00  0.00     0.017 A 
ATOM     33  C   UNL     1      11.219 -13.482  16.577  1.00  0.00     0.012 A 
ATOM     34  C   UNL     1      10.457 -15.709  17.236  1.00  0.00     0.012 A 
ATOM     35  C   UNL     1      10.527 -12.960  17.669  1.00  0.00     0.001 A 
ATOM     36  C   UNL     1       9.569 -15.129  18.150  1.00  0.00     0.001 A 
ATOM     37  C   UNL     1       9.653 -13.783  18.405  1.00  0.00     0.000 A 
ENDBRANCH  25  32
ENDBRANCH   1  17
TORSDOF 9
ENDMDL
MODEL 3
REMARK VINA RESULT:    -5.466      1.352      1.808
REMARK INTER + INTRA:          -9.080
REMARK INTER:                  -7.265
REMARK INTRA:                  -1.815
REMARK UNBOUND:                -1.537
REMARK SMILES O=C([O-])[C@@H]1O[C@H](Oc2cc3oc(-c4ccccc4)cc(=O)c3c(O)c2O)[C@H](O)[C@@H](O)[C@@H]1O
REMARK SMILES IDX 7 1 6 2 4 3 31 4 5 5 29 6 27 7 2 8 1 9 3 10 32 11 30 13
REMARK SMILES IDX 28 15 8 17 25 18 9 19 23 20 10 21 22 22 11 23 20 24 12 25
REMARK SMILES IDX 19 26 21 27 26 28 24 30 13 32 14 33 18 34 15 35 17 36 16 37
REMARK H PARENT 32 12 30 14 28 16 26 29 24 31
REMARK Flexibility Score: inf
ROOT
ATOM      1  O   UNL     1      11.953 -15.357  14.510  1.00  0.00    -0.458 OA
ENDROOT
BRANCH   1   2
ATOM      2  C   UNL     1      12.114 -15.932  13.199  1.00  0.00     0.339 C 
ATOM      3  C   UNL     1      12.601 -17.861  11.901  1.00  0.00     0.199 C 
ATOM      4  C   UNL     1      12.500 -16.855  10.688  1.00  0.00     0.180 C 
ATOM      5  O   UNL     1      12.254 -17.347  13.211  1.00  0.00    -0.328 OA
ATOM      6  C   UNL     1      11.276 -15.921  10.772  1.00  0.00     0.181 C 
ATOM      7  C   UNL     1      10.990 -15.494  12.245  1.00  0.00     0.214 C 
BRANCH   3   8
ATOM      8  C   UNL     1      11.834 -19.136  11.636  1.00  0.00     0.073 C 
ATOM      9  O   UNL     1      10.784 -19.368  12.274  1.00  0.00    -0.547 OA
ATOM     10  O   UNL     1      12.339 -20.103  10.772  1.00  0.00    -0.547 OA
ENDBRANCH   3   8
BRANCH   4  11
ATOM     11  O   UNL     1      12.537 -17.509   9.440  1.00  0.00    -0.387 OA
ATOM     12  H   UNL     1      11.870 -18.246   9.481  1.00  0.00     0.211 HD
ENDBRANCH   4  11
BRANCH   6  13
ATOM     13  O   UNL     1      11.501 -14.806   9.950  1.00  0.00    -0.387 OA
ATOM     14  H   UNL     1      11.469 -15.132   8.994  1.00  0.00     0.211 HD
ENDBRANCH   6  13
BRANCH   7  15
ATOM     15  O   UNL     1       9.731 -16.004  12.654  1.00  0.00    -0.384 OA
ATOM     16  H   UNL     1       9.425 -16.628  11.960  1.00  0.00     0.211 HD
ENDBRANCH   7  15
ENDBRANCH   1   2
BRANCH   1  17
ATOM     17  C   UNL     1      11.805 -14.011  14.868  1.00  0.00     0.172 A 
ATOM     18  C   UNL     1      10.616 -13.485  15.437  1.00  0.00     0.201 A 
ATOM     19  C   UNL     1      12.764 -13.100  14.405  1.00  0.00     0.098 A 
ATOM     20  C   UNL     1      10.570 -12.116  15.833  1.00  0.00     0.176 A 
ATOM     21  C   UNL     1      12.414 -11.757  14.313  1.00  0.00     0.146 A 
ATOM     22  C   UNL     1      11.480 -11.210  15.219  1.00  0.00     0.111 A 
ATOM     23  O   UNL     1      12.701 -11.097  13.193  1.00  0.00    -0.456 OA
ATOM     24  C   UNL     1      11.276  -9.807  15.161  1.00  0.00     0.197 A 
ATOM     25  C   UNL     1      12.118  -9.931  12.922  1.00  0.00     0.138 A 
ATOM     26  C   UNL     1      11.719  -9.124  14.009  1.00  0.00     0.100 A 
ATOM     27  O   UNL     1      10.676  -9.183  16.079  1.00  0.00    -0.289 OA
BRANCH  18  28
ATOM     28  O   UNL     1       9.389 -14.137  15.262  1.00  0.00    -0.502 OA
ATOM     29  H   UNL     1       8.518 -13.625  15.188  1.00  0.00     0.293 HD
ENDBRANCH  18  28
BRANCH  20  30
ATOM     30  O   UNL     1       9.532 -11.629  16.619  1.00  0.00    -0.504 OA
ATOM     31  H   UNL     1       9.734 -11.054  17.434  1.00  0.00     0.293 HD
ENDBRANCH  20  30
BRANCH  25  32
ATOM     32  C   UNL     1      11.564  -9.765  11.546  1.00  0.00     0.017 A 
ATOM     33  C   UNL     1      10.477  -8.875  11.290  1.00  0.00     0.012 A 
ATOM     34  C   UNL     1      11.801 -10.815  10.617  1.00  0.00     0.012 A 
ATOM     35  C   UNL     1       9.624  -9.128  10.217  1.00  0.00     0.001 A 
ATOM     36  C   UNL     1      11.089 -10.876   9.413  1.00  0.00     0.001 A 
ATOM     37  C   UNL     1       9.978 -10.088   9.249  1.00  0.00     0.000 A 
ENDBRANCH  25  32
ENDBRANCH   1  17
TORSDOF 9
ENDMDL
MODEL 4
REMARK VINA RESULT:    -5.444      2.378      7.961
REMARK INTER + INTRA:          -9.049
REMARK INTER:                  -7.539
REMARK INTRA:                  -1.510
REMARK UNBOUND:                -1.537
REMARK SMILES O=C([O-])[C@@H]1O[C@H](Oc2cc3oc(-c4ccccc4)cc(=O)c3c(O)c2O)[C@H](O)[C@@H](O)[C@@H]1O
REMARK SMILES IDX 7 1 6 2 4 3 31 4 5 5 29 6 27 7 2 8 1 9 3 10 32 11 30 13
REMARK SMILES IDX 28 15 8 17 25 18 9 19 23 20 10 21 22 22 11 23 20 24 12 25
REMARK SMILES IDX 19 26 21 27 26 28 24 30 13 32 14 33 18 34 15 35 17 36 16 37
REMARK H PARENT 32 12 30 14 28 16 26 29 24 31
REMARK Flexibility Score: inf
ROOT
ATOM      1  O   UNL     1      11.560 -14.883  14.434  1.00  0.00    -0.458 OA
ENDROOT
BRANCH   1   2
ATOM      2  C   UNL     1      11.330 -14.082  15.609  1.00  0.00     0.339 C 
ATOM      3  C   UNL     1      11.369 -11.926  16.605  1.00  0.00     0.199 C 
ATOM      4  C   UNL     1      10.974 -12.716  17.914  1.00  0.00     0.180 C 
ATOM      5  O   UNL     1      11.417 -12.683  15.370  1.00  0.00    -0.328 OA
ATOM      6  C   UNL     1       9.856 -13.752  17.685  1.00  0.00     0.181 C 
ATOM      7  C   UNL     1      10.003 -14.446  16.295  1.00  0.00     0.214 C 
BRANCH   3   8
ATOM      8  C   UNL     1      10.513 -10.695  16.414  1.00  0.00     0.073 C 
ATOM      9  O   UNL     1      11.060  -9.585  16.232  1.00  0.00    -0.547 OA
ATOM     10  O   UNL     1       9.130 -10.764  16.548  1.00  0.00    -0.547 OA
ENDBRANCH   3   8
BRANCH   4  11
ATOM     11  O   UNL     1      10.641 -11.859  18.982  1.00  0.00    -0.387 OA
ATOM     12  H   UNL     1      10.872 -10.935  18.693  1.00  0.00     0.211 HD
ENDBRANCH   4  11
BRANCH   6  13
ATOM     13  O   UNL     1       9.884 -14.688  18.731  1.00  0.00    -0.387 OA
ATOM     14  H   UNL     1       8.926 -14.931  18.936  1.00  0.00     0.211 HD
ENDBRANCH   6  13
BRANCH   7  15
ATOM     15  O   UNL     1       8.889 -14.124  15.479  1.00  0.00    -0.384 OA
ATOM     16  H   UNL     1       8.770 -14.857  14.837  1.00  0.00     0.211 HD
ENDBRANCH   7  15
ENDBRANCH   1   2
BRANCH   1  17
ATOM     17  C   UNL     1      11.628 -14.480  13.094  1.00  0.00     0.172 A 
ATOM     18  C   UNL     1      10.517 -13.957  12.383  1.00  0.00     0.201 A 
ATOM     19  C   UNL     1      12.759 -14.851  12.355  1.00  0.00     0.098 A 
ATOM     20  C   UNL     1      10.688 -13.509  11.039  1.00  0.00     0.176 A 
ATOM     21  C   UNL     1      12.657 -14.908  10.969  1.00  0.00     0.146 A 
ATOM     22  C   UNL     1      11.779 -14.034  10.292  1.00  0.00     0.111 A 
ATOM     23  O   UNL     1      13.125 -15.982  10.337  1.00  0.00    -0.456 OA
ATOM     24  C   UNL     1      11.830 -14.045   8.874  1.00  0.00     0.197 A 
ATOM     25  C   UNL     1      12.774 -16.238   9.077  1.00  0.00     0.138 A 
ATOM     26  C   UNL     1      12.456 -15.142   8.246  1.00  0.00     0.100 A 
ATOM     27  O   UNL     1      11.293 -13.138   8.181  1.00  0.00    -0.289 OA
BRANCH  18  28
ATOM     28  O   UNL     1       9.208 -14.227  12.800  1.00  0.00    -0.502 OA
ATOM     29  H   UNL     1       8.729 -13.638  13.471  1.00  0.00     0.293 HD
ENDBRANCH  18  28
BRANCH  20  30
ATOM     30  O   UNL     1       9.705 -12.763  10.399  1.00  0.00    -0.504 OA
ATOM     31  H   UNL     1       9.629 -11.763  10.572  1.00  0.00     0.293 HD
ENDBRANCH  20  30
BRANCH  25  32
ATOM     32  C   UNL     1      12.344 -17.635   8.774  1.00  0.00     0.017 A 
ATOM     33  C   UNL     1      11.265 -17.896   7.876  1.00  0.00     0.012 A 
ATOM     34  C   UNL     1      12.689 -18.642   9.717  1.00  0.00     0.012 A 
ATOM     35  C   UNL     1      10.520 -19.065   8.025  1.00  0.00     0.001 A 
ATOM     36  C   UNL     1      12.092 -19.907   9.660  1.00  0.00     0.001 A 
ATOM     37  C   UNL     1      10.983 -20.090   8.872  1.00  0.00     0.000 A 
ENDBRANCH  25  32
ENDBRANCH   1  17
TORSDOF 9
ENDMDL
MODEL 5
REMARK VINA RESULT:    -5.177      2.522      7.726
REMARK INTER + INTRA:          -8.681
REMARK INTER:                  -7.163
REMARK INTRA:                  -1.518
REMARK UNBOUND:                -1.537
REMARK SMILES O=C([O-])[C@@H]1O[C@H](Oc2cc3oc(-c4ccccc4)cc(=O)c3c(O)c2O)[C@H](O)[C@@H](O)[C@@H]1O
REMARK SMILES IDX 7 1 6 2 4 3 31 4 5 5 29 6 27 7 2 8 1 9 3 10 32 11 30 13
REMARK SMILES IDX 28 15 8 17 25 18 9 19 23 20 10 21 22 22 11 23 20 24 12 25
REMARK SMILES IDX 19 26 21 27 26 28 24 30 13 32 14 33 18 34 15 35 17 36 16 37
REMARK H PARENT 32 12 30 14 28 16 26 29 24 31
REMARK Flexibility Score: inf
ROOT
ATOM      1  O   UNL     1      12.290 -10.424  14.243  1.00  0.00    -0.458 OA
ENDROOT
BRANCH   1   2
ATOM      2  C   UNL     1      11.811 -11.245  15.327  1.00  0.00     0.339 C 
ATOM      3  C   UNL     1      11.804 -11.679  17.663  1.00  0.00     0.199 C 
ATOM      4  C   UNL     1      10.936 -12.932  17.250  1.00  0.00     0.180 C 
ATOM      5  O   UNL     1      12.134 -10.734  16.614  1.00  0.00    -0.328 OA
ATOM      6  C   UNL     1       9.825 -12.595  16.235  1.00  0.00     0.181 C 
ATOM      7  C   UNL     1      10.304 -11.526  15.204  1.00  0.00     0.214 C 
BRANCH   3   8
ATOM      8  C   UNL     1      11.201 -10.943  18.838  1.00  0.00     0.073 C 
ATOM      9  O   UNL     1       9.960 -10.814  18.913  1.00  0.00    -0.547 OA
ATOM     10  O   UNL     1      12.014 -10.316  19.776  1.00  0.00    -0.547 OA
ENDBRANCH   3   8
BRANCH   4  11
ATOM     11  O   UNL     1      10.400 -13.607  18.364  1.00  0.00    -0.387 OA
ATOM     12  H   UNL     1      11.170 -13.936  18.901  1.00  0.00     0.211 HD
ENDBRANCH   4  11
BRANCH   6  13
ATOM     13  O   UNL     1       9.421 -13.778  15.597  1.00  0.00    -0.387 OA
ATOM     14  H   UNL     1      10.030 -13.908  14.802  1.00  0.00     0.211 HD
ENDBRANCH   6  13
BRANCH   7  15
ATOM     15  O   UNL     1       9.539 -10.342  15.353  1.00  0.00    -0.384 OA
ATOM     16  H   UNL     1      10.065  -9.716  15.898  1.00  0.00     0.211 HD
ENDBRANCH   7  15
ENDBRANCH   1   2
BRANCH   1  17
ATOM     17  C   UNL     1      12.304 -10.701  12.870  1.00  0.00     0.172 A 
ATOM     18  C   UNL     1      11.349 -10.173  11.962  1.00  0.00     0.201 A 
ATOM     19  C   UNL     1      13.125 -11.743  12.420  1.00  0.00     0.098 A 
ATOM     20  C   UNL     1      11.473 -10.453  10.569  1.00  0.00     0.176 A 
ATOM     21  C   UNL     1      12.817 -12.356  11.210  1.00  0.00     0.146 A 
ATOM     22  C   UNL     1      12.204 -11.610  10.180  1.00  0.00     0.111 A 
ATOM     23  O   UNL     1      12.797 -13.686  11.154  1.00  0.00    -0.456 OA
ATOM     24  C   UNL     1      12.048 -12.255   8.926  1.00  0.00     0.197 A 
ATOM     25  C   UNL     1      12.208 -14.315  10.139  1.00  0.00     0.138 A 
ATOM     26  C   UNL     1      12.169 -13.660   8.889  1.00  0.00     0.100 A 
ATOM     27  O   UNL     1      11.762 -11.614   7.879  1.00  0.00    -0.289 OA
BRANCH  18  28
ATOM     28  O   UNL     1      10.099  -9.733  12.413  1.00  0.00    -0.502 OA
ATOM     29  H   UNL     1       9.965  -8.803  12.792  1.00  0.00     0.293 HD
ENDBRANCH  18  28
BRANCH  20  30
ATOM     30  O   UNL     1      10.724  -9.757   9.627  1.00  0.00    -0.504 OA
ATOM     31  H   UNL     1      11.150  -9.006   9.088  1.00  0.00     0.293 HD
ENDBRANCH  20  30
BRANCH  25  32
ATOM     32  C   UNL     1      11.289 -15.438  10.492  1.00  0.00     0.017 A 
ATOM     33  C   UNL     1      10.570 -15.443  11.724  1.00  0.00     0.012 A 
ATOM     34  C   UNL     1      11.497 -16.681   9.833  1.00  0.00     0.012 A 
ATOM     35  C   UNL     1      10.199 -16.660  12.295  1.00  0.00     0.001 A 
ATOM     36  C   UNL     1      10.881 -17.848  10.301  1.00  0.00     0.001 A 
ATOM     37  C   UNL     1      10.300 -17.847  11.544  1.00  0.00     0.000 A 
ENDBRANCH  25  32
ENDBRANCH   1  17
TORSDOF 9
ENDMDL
MODEL 6
REMARK VINA RESULT:    -4.959      1.960      3.268
REMARK INTER + INTRA:          -8.380
REMARK INTER:                  -7.090
REMARK INTRA:                  -1.291
REMARK UNBOUND:                -1.537
REMARK SMILES O=C([O-])[C@@H]1O[C@H](Oc2cc3oc(-c4ccccc4)cc(=O)c3c(O)c2O)[C@H](O)[C@@H](O)[C@@H]1O
REMARK SMILES IDX 7 1 6 2 4 3 31 4 5 5 29 6 27 7 2 8 1 9 3 10 32 11 30 13
REMARK SMILES IDX 28 15 8 17 25 18 9 19 23 20 10 21 22 22 11 23 20 24 12 25
REMARK SMILES IDX 19 26 21 27 26 28 24 30 13 32 14 33 18 34 15 35 17 36 16 37
REMARK H PARENT 32 12 30 14 28 16 26 29 24 31
REMARK Flexibility Score: inf
ROOT
ATOM      1  O   UNL     1      10.870 -15.775  14.445  1.00  0.00    -0.458 OA
ENDROOT
BRANCH   1   2
ATOM      2  C   UNL     1      10.749 -16.637  13.297  1.00  0.00     0.339 C 
ATOM      3  C   UNL     1      10.410 -16.820  10.952  1.00  0.00     0.199 C 
ATOM      4  C   UNL     1      10.421 -18.371  11.249  1.00  0.00     0.180 C 
ATOM      5  O   UNL     1      10.723 -15.937  12.059  1.00  0.00    -0.328 OA
ATOM      6  C   UNL     1      11.565 -18.803  12.187  1.00  0.00     0.181 C 
ATOM      7  C   UNL     1      11.827 -17.734  13.292  1.00  0.00     0.214 C 
BRANCH   3   8
ATOM      8  C   UNL     1      11.277 -16.471   9.764  1.00  0.00     0.073 C 
ATOM      9  O   UNL     1      10.848 -16.676   8.607  1.00  0.00    -0.547 OA
ATOM     10  O   UNL     1      12.583 -16.029   9.942  1.00  0.00    -0.547 OA
ENDBRANCH   3   8
BRANCH   4  11
ATOM     11  O   UNL     1      10.429 -19.145  10.071  1.00  0.00    -0.387 OA
ATOM     12  H   UNL     1      11.021 -19.926  10.243  1.00  0.00     0.211 HD
ENDBRANCH   4  11
BRANCH   6  13
ATOM     13  O   UNL     1      11.246 -20.051  12.746  1.00  0.00    -0.387 OA
ATOM     14  H   UNL     1      11.611 -20.055  13.687  1.00  0.00     0.211 HD
ENDBRANCH   6  13
BRANCH   7  15
ATOM     15  O   UNL     1      13.125 -17.187  13.131  1.00  0.00    -0.384 OA
ATOM     16  H   UNL     1      13.625 -17.362  13.958  1.00  0.00     0.211 HD
ENDBRANCH   7  15
ENDBRANCH   1   2
BRANCH   1  17
ATOM     17  C   UNL     1      11.163 -14.405  14.489  1.00  0.00     0.172 A 
ATOM     18  C   UNL     1      10.362 -13.463  15.185  1.00  0.00     0.201 A 
ATOM     19  C   UNL     1      12.125 -13.911  13.598  1.00  0.00     0.098 A 
ATOM     20  C   UNL     1      10.765 -12.095  15.233  1.00  0.00     0.176 A 
ATOM     21  C   UNL     1      12.094 -12.560  13.270  1.00  0.00     0.146 A 
ATOM     22  C   UNL     1      11.636 -11.617  14.215  1.00  0.00     0.111 A 
ATOM     23  O   UNL     1      12.179 -12.212  11.987  1.00  0.00    -0.456 OA
ATOM     24  C   UNL     1      11.766 -10.247  13.868  1.00  0.00     0.197 A 
ATOM     25  C   UNL     1      11.838 -10.987  11.591  1.00  0.00     0.138 A 
ATOM     26  C   UNL     1      11.990  -9.929  12.513  1.00  0.00     0.100 A 
ATOM     27  O   UNL     1      11.638  -9.329  14.724  1.00  0.00    -0.289 OA
BRANCH  18  28
ATOM     28  O   UNL     1       9.021 -13.740  15.478  1.00  0.00    -0.502 OA
ATOM     29  H   UNL     1       8.513 -13.227  16.189  1.00  0.00     0.293 HD
ENDBRANCH  18  28
BRANCH  20  30
ATOM     30  O   UNL     1      10.161 -11.198  16.106  1.00  0.00    -0.504 OA
ATOM     31  H   UNL     1       9.215 -10.868  15.925  1.00  0.00     0.293 HD
ENDBRANCH  20  30
BRANCH  25  32
ATOM     32  C   UNL     1      10.950 -10.896  10.394  1.00  0.00     0.017 A 
ATOM     33  C   UNL     1      11.282 -10.051   9.292  1.00  0.00     0.012 A 
ATOM     34  C   UNL     1       9.589 -11.273  10.561  1.00  0.00     0.012 A 
ATOM     35  C   UNL     1      10.263  -9.535   8.494  1.00  0.00     0.001 A 
ATOM     36  C   UNL     1       8.636 -10.952   9.588  1.00  0.00     0.001 A 
ATOM     37  C   UNL     1       8.955 -10.046   8.609  1.00  0.00     0.000 A 
ENDBRANCH  25  32
ENDBRANCH   1  17
TORSDOF 9
ENDMDL
MODEL 7
REMARK VINA RESULT:    -4.179      2.439      6.180
REMARK INTER + INTRA:          -7.304
REMARK INTER:                  -6.395
REMARK INTRA:                  -0.909
REMARK UNBOUND:                -1.537
REMARK SMILES O=C([O-])[C@@H]1O[C@H](Oc2cc3oc(-c4ccccc4)cc(=O)c3c(O)c2O)[C@H](O)[C@@H](O)[C@@H]1O
REMARK SMILES IDX 7 1 6 2 4 3 31 4 5 5 29 6 27 7 2 8 1 9 3 10 32 11 30 13
REMARK SMILES IDX 28 15 8 17 25 18 9 19 23 20 10 21 22 22 11 23 20 24 12 25
REMARK SMILES IDX 19 26 21 27 26 28 24 30 13 32 14 33 18 34 15 35 17 36 16 37
REMARK H PARENT 32 12 30 14 28 16 26 29 24 31
REMARK Flexibility Score: inf
ROOT
ATOM      1  O   UNL     1      12.530 -11.992  15.178  1.00  0.00    -0.458 OA
ENDROOT
BRANCH   1   2
ATOM      2  C   UNL     1      12.205 -13.335  15.588  1.00  0.00     0.339 C 
ATOM      3  C   UNL     1      11.204 -14.748  17.215  1.00  0.00     0.199 C 
ATOM      4  C   UNL     1      11.763 -15.906  16.297  1.00  0.00     0.180 C 
ATOM      5  O   UNL     1      11.350 -13.392  16.723  1.00  0.00    -0.328 OA
ATOM      6  C   UNL     1      11.500 -15.673  14.796  1.00  0.00     0.181 C 
ATOM      7  C   UNL     1      11.638 -14.164  14.424  1.00  0.00     0.214 C 
BRANCH   3   8
ATOM      8  C   UNL     1       9.766 -14.992  17.611  1.00  0.00     0.073 C 
ATOM      9  O   UNL     1       9.370 -14.642  18.744  1.00  0.00    -0.547 OA
ATOM     10  O   UNL     1       8.909 -15.699  16.774  1.00  0.00    -0.547 OA
ENDBRANCH   3   8
BRANCH   4  11
ATOM     11  O   UNL     1      11.296 -17.176  16.689  1.00  0.00    -0.387 OA
ATOM     12  H   UNL     1      11.849 -17.460  17.466  1.00  0.00     0.211 HD
ENDBRANCH   4  11
BRANCH   6  13
ATOM     13  O   UNL     1      12.387 -16.467  14.053  1.00  0.00    -0.387 OA
ATOM     14  H   UNL     1      12.906 -15.845  13.449  1.00  0.00     0.211 HD
ENDBRANCH   6  13
BRANCH   7  15
ATOM     15  O   UNL     1      10.385 -13.662  13.989  1.00  0.00    -0.384 OA
ATOM     16  H   UNL     1      10.270 -13.926  13.050  1.00  0.00     0.211 HD
ENDBRANCH   7  15
ENDBRANCH   1   2
BRANCH   1  17
ATOM     17  C   UNL     1      12.276 -11.362  13.953  1.00  0.00     0.172 A 
ATOM     18  C   UNL     1      11.144 -10.537  13.724  1.00  0.00     0.201 A 
ATOM     19  C   UNL     1      13.021 -11.770  12.839  1.00  0.00     0.098 A 
ATOM     20  C   UNL     1      10.993  -9.880  12.467  1.00  0.00     0.176 A 
ATOM     21  C   UNL     1      12.495 -11.548  11.571  1.00  0.00     0.146 A 
ATOM     22  C   UNL     1      11.666 -10.429  11.340  1.00  0.00     0.111 A 
ATOM     23  O   UNL     1      12.504 -12.547  10.691  1.00  0.00    -0.456 OA
ATOM     24  C   UNL     1      11.281 -10.182   9.996  1.00  0.00     0.197 A 
ATOM     25  C   UNL     1      11.742 -12.500   9.599  1.00  0.00     0.138 A 
ATOM     26  C   UNL     1      11.434 -11.230   9.065  1.00  0.00     0.100 A 
ATOM     27  O   UNL     1      10.771  -9.085   9.641  1.00  0.00    -0.289 OA
BRANCH  18  28
ATOM     28  O   UNL     1       9.996 -10.660  14.518  1.00  0.00    -0.502 OA
ATOM     29  H   UNL     1      10.051 -10.740  15.526  1.00  0.00     0.293 HD
ENDBRANCH  18  28
BRANCH  20  30
ATOM     30  O   UNL     1      10.050  -8.875  12.290  1.00  0.00    -0.504 OA
ATOM     31  H   UNL     1       9.671  -8.382  13.095  1.00  0.00     0.293 HD
ENDBRANCH  20  30
BRANCH  25  32
ATOM     32  C   UNL     1      10.947 -13.724   9.286  1.00  0.00     0.017 A 
ATOM     33  C   UNL     1      11.568 -15.007   9.209  1.00  0.00     0.012 A 
ATOM     34  C   UNL     1       9.705 -13.541   8.619  1.00  0.00     0.012 A 
ATOM     35  C   UNL     1      11.004 -15.992   8.400  1.00  0.00     0.001 A 
ATOM     36  C   UNL     1       9.039 -14.627   8.039  1.00  0.00     0.001 A 
ATOM     37  C   UNL     1       9.709 -15.814   7.876  1.00  0.00     0.000 A 
ENDBRANCH  25  32
ENDBRANCH   1  17
TORSDOF 9
ENDMDL
