MODEL 1
REMARK VINA RESULT:    -6.816      0.000      0.000
REMARK INTER + INTRA:          -8.492
REMARK INTER:                  -8.210
REMARK INTRA:                  -0.281
REMARK UNBOUND:                -0.281
REMARK SMILES O=c1c(O)c(-c2ccc(O)c(O)c2)oc2cc(O)cc(O)c12
REMARK SMILES IDX 5 1 3 2 2 3 1 4 22 5 20 6 19 7 17 8 16 9 15 10 14 11 6 12
REMARK SMILES IDX 7 13 8 14 9 15 13 16 11 17 10 18 12 20 4 22 21 24 18 26
REMARK H PARENT 10 19 12 21 4 23 21 25 18 27
REMARK Flexibility Score: inf
ROOT
ATOM      1  C   UNL     1      28.848  23.411  34.089  1.00  0.00     0.180 A 
ATOM      2  C   UNL     1      29.325  22.251  33.456  1.00  0.00     0.208 A 
ATOM      3  C   UNL     1      28.651  21.037  33.661  1.00  0.00     0.238 A 
ATOM      4  O   UNL     1      29.050  20.012  33.048  1.00  0.00    -0.285 OA
ATOM      5  C   UNL     1      27.517  20.993  34.508  1.00  0.00     0.111 A 
ATOM      6  C   UNL     1      26.782  19.811  34.818  1.00  0.00     0.134 A 
ATOM      7  C   UNL     1      25.600  19.909  35.565  1.00  0.00     0.093 A 
ATOM      8  C   UNL     1      25.165  21.138  36.066  1.00  0.00     0.123 A 
ATOM      9  C   UNL     1      25.909  22.288  35.819  1.00  0.00     0.094 A 
ATOM     10  C   UNL     1      27.071  22.229  35.047  1.00  0.00     0.146 A 
ATOM     11  O   UNL     1      27.744  23.351  34.826  1.00  0.00    -0.452 OA
ENDROOT
BRANCH   1  12
ATOM     12  C   UNL     1      29.520  24.723  33.942  1.00  0.00     0.025 A 
ATOM     13  C   UNL     1      30.723  25.007  34.612  1.00  0.00     0.016 A 
ATOM     14  C   UNL     1      31.327  26.260  34.477  1.00  0.00     0.051 A 
ATOM     15  C   UNL     1      30.732  27.251  33.684  1.00  0.00     0.157 A 
ATOM     16  C   UNL     1      28.917  25.725  33.166  1.00  0.00     0.062 A 
ATOM     17  C   UNL     1      29.519  26.981  33.028  1.00  0.00     0.158 A 
BRANCH  15  18
ATOM     18  O   UNL     1      31.338  28.498  33.550  1.00  0.00    -0.504 OA
ATOM     19  H   UNL     1      30.909  29.339  33.919  1.00  0.00     0.293 HD
ENDBRANCH  15  18
BRANCH  17  20
ATOM     20  O   UNL     1      28.898  27.946  32.237  1.00  0.00    -0.504 OA
ATOM     21  H   UNL     1      28.925  27.911  31.225  1.00  0.00     0.293 HD
ENDBRANCH  17  20
ENDBRANCH   1  12
BRANCH   2  22
ATOM     22  O   UNL     1      30.432  22.319  32.605  1.00  0.00    -0.502 OA
ATOM     23  H   UNL     1      30.357  22.200  31.602  1.00  0.00     0.293 HD
ENDBRANCH   2  22
BRANCH   6  24
ATOM     24  O   UNL     1      27.179  18.523  34.445  1.00  0.00    -0.507 OA
ATOM     25  H   UNL     1      27.009  18.110  33.541  1.00  0.00     0.293 HD
ENDBRANCH   6  24
BRANCH   8  26
ATOM     26  O   UNL     1      23.997  21.223  36.821  1.00  0.00    -0.508 OA
ATOM     27  H   UNL     1      23.974  21.708  37.710  1.00  0.00     0.293 HD
ENDBRANCH   8  26
TORSDOF 6
ENDMDL
MODEL 2
REMARK VINA RESULT:    -6.658      1.041      1.624
REMARK INTER + INTRA:          -8.302
REMARK INTER:                  -8.010
REMARK INTRA:                  -0.292
REMARK UNBOUND:                -0.281
REMARK SMILES O=c1c(O)c(-c2ccc(O)c(O)c2)oc2cc(O)cc(O)c12
REMARK SMILES IDX 5 1 3 2 2 3 1 4 22 5 20 6 19 7 17 8 16 9 15 10 14 11 6 12
REMARK SMILES IDX 7 13 8 14 9 15 13 16 11 17 10 18 12 20 4 22 21 24 18 26
REMARK H PARENT 10 19 12 21 4 23 21 25 18 27
REMARK Flexibility Score: inf
ROOT
ATOM      1  C   UNL     1      28.057  23.249  34.232  1.00  0.00     0.180 A 
ATOM      2  C   UNL     1      28.629  22.019  33.866  1.00  0.00     0.208 A 
ATOM      3  C   UNL     1      28.086  20.834  34.389  1.00  0.00     0.238 A 
ATOM      4  O   UNL     1      28.568  19.733  34.016  1.00  0.00    -0.285 OA
ATOM      5  C   UNL     1      26.989  20.895  35.282  1.00  0.00     0.111 A 
ATOM      6  C   UNL     1      26.386  19.760  35.903  1.00  0.00     0.134 A 
ATOM      7  C   UNL     1      25.224  19.928  36.667  1.00  0.00     0.093 A 
ATOM      8  C   UNL     1      24.683  21.197  36.885  1.00  0.00     0.123 A 
ATOM      9  C   UNL     1      25.299  22.316  36.333  1.00  0.00     0.094 A 
ATOM     10  C   UNL     1      26.438  22.178  35.536  1.00  0.00     0.146 A 
ATOM     11  O   UNL     1      26.988  23.270  35.019  1.00  0.00    -0.452 OA
ENDROOT
BRANCH   1  12
ATOM     12  C   UNL     1      28.588  24.542  33.742  1.00  0.00     0.025 A 
ATOM     13  C   UNL     1      28.282  25.019  32.455  1.00  0.00     0.016 A 
ATOM     14  C   UNL     1      28.814  26.230  32.006  1.00  0.00     0.051 A 
ATOM     15  C   UNL     1      29.671  26.975  32.828  1.00  0.00     0.157 A 
ATOM     16  C   UNL     1      29.463  25.283  34.554  1.00  0.00     0.062 A 
ATOM     17  C   UNL     1      29.997  26.496  34.107  1.00  0.00     0.158 A 
BRANCH  15  18
ATOM     18  O   UNL     1      30.198  28.184  32.378  1.00  0.00    -0.504 OA
ATOM     19  H   UNL     1      31.094  28.230  31.908  1.00  0.00     0.293 HD
ENDBRANCH  15  18
BRANCH  17  20
ATOM     20  O   UNL     1      30.851  27.210  34.948  1.00  0.00    -0.504 OA
ATOM     21  H   UNL     1      31.778  26.874  35.184  1.00  0.00     0.293 HD
ENDBRANCH  17  20
ENDBRANCH   1  12
BRANCH   2  22
ATOM     22  O   UNL     1      29.697  21.980  32.966  1.00  0.00    -0.502 OA
ATOM     23  H   UNL     1      30.156  21.116  32.702  1.00  0.00     0.293 HD
ENDBRANCH   2  22
BRANCH   6  24
ATOM     24  O   UNL     1      26.899  18.462  35.824  1.00  0.00    -0.507 OA
ATOM     25  H   UNL     1      27.881  18.230  35.850  1.00  0.00     0.293 HD
ENDBRANCH   6  24
BRANCH   8  26
ATOM     26  O   UNL     1      23.535  21.356  37.660  1.00  0.00    -0.508 OA
ATOM     27  H   UNL     1      23.543  21.191  38.659  1.00  0.00     0.293 HD
ENDBRANCH   8  26
TORSDOF 6
ENDMDL
MODEL 3
REMARK VINA RESULT:    -6.608      1.470      3.027
REMARK INTER + INTRA:          -8.241
REMARK INTER:                  -7.943
REMARK INTRA:                  -0.299
REMARK UNBOUND:                -0.281
REMARK SMILES O=c1c(O)c(-c2ccc(O)c(O)c2)oc2cc(O)cc(O)c12
REMARK SMILES IDX 5 1 3 2 2 3 1 4 22 5 20 6 19 7 17 8 16 9 15 10 14 11 6 12
REMARK SMILES IDX 7 13 8 14 9 15 13 16 11 17 10 18 12 20 4 22 21 24 18 26
REMARK H PARENT 10 19 12 21 4 23 21 25 18 27
REMARK Flexibility Score: inf
ROOT
ATOM      1  C   UNL     1      28.085  24.370  34.966  1.00  0.00     0.180 A 
ATOM      2  C   UNL     1      26.763  24.707  35.303  1.00  0.00     0.208 A 
ATOM      3  C   UNL     1      25.795  23.691  35.358  1.00  0.00     0.238 A 
ATOM      4  O   UNL     1      24.624  23.990  35.712  1.00  0.00    -0.285 OA
ATOM      5  C   UNL     1      26.157  22.355  35.061  1.00  0.00     0.111 A 
ATOM      6  C   UNL     1      25.250  21.253  35.047  1.00  0.00     0.134 A 
ATOM      7  C   UNL     1      25.744  19.955  34.868  1.00  0.00     0.093 A 
ATOM      8  C   UNL     1      27.103  19.727  34.637  1.00  0.00     0.123 A 
ATOM      9  C   UNL     1      27.986  20.801  34.589  1.00  0.00     0.094 A 
ATOM     10  C   UNL     1      27.530  22.104  34.801  1.00  0.00     0.146 A 
ATOM     11  O   UNL     1      28.408  23.099  34.758  1.00  0.00    -0.452 OA
ENDROOT
BRANCH   1  12
ATOM     12  C   UNL     1      29.156  25.389  34.863  1.00  0.00     0.025 A 
ATOM     13  C   UNL     1      30.043  25.628  35.928  1.00  0.00     0.016 A 
ATOM     14  C   UNL     1      31.030  26.610  35.816  1.00  0.00     0.051 A 
ATOM     15  C   UNL     1      31.137  27.377  34.648  1.00  0.00     0.157 A 
ATOM     16  C   UNL     1      29.254  26.173  33.703  1.00  0.00     0.062 A 
ATOM     17  C   UNL     1      30.242  27.158  33.588  1.00  0.00     0.158 A 
BRANCH  15  18
ATOM     18  O   UNL     1      32.125  28.354  34.539  1.00  0.00    -0.504 OA
ATOM     19  H   UNL     1      31.892  29.338  34.468  1.00  0.00     0.293 HD
ENDBRANCH  15  18
BRANCH  17  20
ATOM     20  O   UNL     1      30.317  27.907  32.414  1.00  0.00    -0.504 OA
ATOM     21  H   UNL     1      31.200  28.101  31.956  1.00  0.00     0.293 HD
ENDBRANCH  17  20
ENDBRANCH   1  12
BRANCH   2  22
ATOM     22  O   UNL     1      26.430  26.028  35.613  1.00  0.00    -0.502 OA
ATOM     23  H   UNL     1      25.692  26.265  36.265  1.00  0.00     0.293 HD
ENDBRANCH   2  22
BRANCH   6  24
ATOM     24  O   UNL     1      23.864  21.381  35.177  1.00  0.00    -0.507 OA
ATOM     25  H   UNL     1      23.187  20.890  34.613  1.00  0.00     0.293 HD
ENDBRANCH   6  24
BRANCH   8  26
ATOM     26  O   UNL     1      27.582  18.433  34.444  1.00  0.00    -0.508 OA
ATOM     27  H   UNL     1      28.043  17.922  35.187  1.00  0.00     0.293 HD
ENDBRANCH   8  26
TORSDOF 6
ENDMDL
MODEL 4
REMARK VINA RESULT:    -6.559      2.169      3.693
REMARK INTER + INTRA:          -8.183
REMARK INTER:                  -8.687
REMARK INTRA:                   0.504
REMARK UNBOUND:                -0.281
REMARK SMILES O=c1c(O)c(-c2ccc(O)c(O)c2)oc2cc(O)cc(O)c12
REMARK SMILES IDX 5 1 3 2 2 3 1 4 22 5 20 6 19 7 17 8 16 9 15 10 14 11 6 12
REMARK SMILES IDX 7 13 8 14 9 15 13 16 11 17 10 18 12 20 4 22 21 24 18 26
REMARK H PARENT 10 19 12 21 4 23 21 25 18 27
REMARK Flexibility Score: inf
ROOT
ATOM      1  C   UNL     1      26.956  24.040  34.734  1.00  0.00     0.180 A 
ATOM      2  C   UNL     1      26.183  24.872  35.563  1.00  0.00     0.208 A 
ATOM      3  C   UNL     1      25.277  24.284  36.460  1.00  0.00     0.238 A 
ATOM      4  O   UNL     1      24.627  25.031  37.238  1.00  0.00    -0.285 OA
ATOM      5  C   UNL     1      25.143  22.876  36.507  1.00  0.00     0.111 A 
ATOM      6  C   UNL     1      24.227  22.177  37.349  1.00  0.00     0.134 A 
ATOM      7  C   UNL     1      24.272  20.778  37.406  1.00  0.00     0.093 A 
ATOM      8  C   UNL     1      25.156  20.052  36.603  1.00  0.00     0.123 A 
ATOM      9  C   UNL     1      26.011  20.724  35.734  1.00  0.00     0.094 A 
ATOM     10  C   UNL     1      26.015  22.120  35.682  1.00  0.00     0.146 A 
ATOM     11  O   UNL     1      26.855  22.721  34.847  1.00  0.00    -0.452 OA
ENDROOT
BRANCH   1  12
ATOM     12  C   UNL     1      27.915  24.585  33.745  1.00  0.00     0.025 A 
ATOM     13  C   UNL     1      28.871  23.763  33.124  1.00  0.00     0.016 A 
ATOM     14  C   UNL     1      29.781  24.304  32.211  1.00  0.00     0.051 A 
ATOM     15  C   UNL     1      29.758  25.674  31.917  1.00  0.00     0.157 A 
ATOM     16  C   UNL     1      27.910  25.961  33.462  1.00  0.00     0.062 A 
ATOM     17  C   UNL     1      28.819  26.505  32.549  1.00  0.00     0.158 A 
BRANCH  15  18
ATOM     18  O   UNL     1      30.666  26.209  31.005  1.00  0.00    -0.504 OA
ATOM     19  H   UNL     1      31.424  25.655  30.624  1.00  0.00     0.293 HD
ENDBRANCH  15  18
BRANCH  17  20
ATOM     20  O   UNL     1      28.774  27.874  32.283  1.00  0.00    -0.504 OA
ATOM     21  H   UNL     1      28.932  28.246  31.354  1.00  0.00     0.293 HD
ENDBRANCH  17  20
ENDBRANCH   1  12
BRANCH   2  22
ATOM     22  O   UNL     1      26.347  26.259  35.517  1.00  0.00    -0.502 OA
ATOM     23  H   UNL     1      25.836  26.846  34.869  1.00  0.00     0.293 HD
ENDBRANCH   2  22
BRANCH   6  24
ATOM     24  O   UNL     1      23.243  22.801  38.122  1.00  0.00    -0.507 OA
ATOM     25  H   UNL     1      23.222  22.806  39.130  1.00  0.00     0.293 HD
ENDBRANCH   6  24
BRANCH   8  26
ATOM     26  O   UNL     1      25.183  18.660  36.655  1.00  0.00    -0.508 OA
ATOM     27  H   UNL     1      25.851  18.122  36.117  1.00  0.00     0.293 HD
ENDBRANCH   8  26
TORSDOF 6
ENDMDL
MODEL 5
REMARK VINA RESULT:    -6.415      1.788      7.226
REMARK INTER + INTRA:          -8.009
REMARK INTER:                  -7.707
REMARK INTRA:                  -0.302
REMARK UNBOUND:                -0.281
REMARK SMILES O=c1c(O)c(-c2ccc(O)c(O)c2)oc2cc(O)cc(O)c12
REMARK SMILES IDX 5 1 3 2 2 3 1 4 22 5 20 6 19 7 17 8 16 9 15 10 14 11 6 12
REMARK SMILES IDX 7 13 8 14 9 15 13 16 11 17 10 18 12 20 4 22 21 24 18 26
REMARK H PARENT 10 19 12 21 4 23 21 25 18 27
REMARK Flexibility Score: inf
ROOT
ATOM      1  C   UNL     1      27.545  23.565  35.062  1.00  0.00     0.180 A 
ATOM      2  C   UNL     1      28.040  24.398  36.080  1.00  0.00     0.208 A 
ATOM      3  C   UNL     1      28.895  25.457  35.736  1.00  0.00     0.238 A 
ATOM      4  O   UNL     1      29.292  26.233  36.645  1.00  0.00    -0.285 OA
ATOM      5  C   UNL     1      29.257  25.662  34.383  1.00  0.00     0.111 A 
ATOM      6  C   UNL     1      30.148  26.679  33.927  1.00  0.00     0.134 A 
ATOM      7  C   UNL     1      30.331  26.869  32.551  1.00  0.00     0.093 A 
ATOM      8  C   UNL     1      29.706  26.037  31.619  1.00  0.00     0.123 A 
ATOM      9  C   UNL     1      28.883  25.004  32.057  1.00  0.00     0.094 A 
ATOM     10  C   UNL     1      28.651  24.811  33.421  1.00  0.00     0.146 A 
ATOM     11  O   UNL     1      27.850  23.822  33.795  1.00  0.00    -0.452 OA
ENDROOT
BRANCH   1  12
ATOM     12  C   UNL     1      26.659  22.413  35.348  1.00  0.00     0.025 A 
ATOM     13  C   UNL     1      25.278  22.583  35.547  1.00  0.00     0.016 A 
ATOM     14  C   UNL     1      24.466  21.485  35.838  1.00  0.00     0.051 A 
ATOM     15  C   UNL     1      25.022  20.203  35.951  1.00  0.00     0.157 A 
ATOM     16  C   UNL     1      27.215  21.130  35.482  1.00  0.00     0.062 A 
ATOM     17  C   UNL     1      26.404  20.028  35.774  1.00  0.00     0.158 A 
BRANCH  15  18
ATOM     18  O   UNL     1      24.208  19.109  36.240  1.00  0.00    -0.504 OA
ATOM     19  H   UNL     1      23.351  19.211  36.771  1.00  0.00     0.293 HD
ENDBRANCH  15  18
BRANCH  17  20
ATOM     20  O   UNL     1      26.990  18.767  35.885  1.00  0.00    -0.504 OA
ATOM     21  H   UNL     1      27.185  18.342  36.784  1.00  0.00     0.293 HD
ENDBRANCH  17  20
ENDBRANCH   1  12
BRANCH   2  22
ATOM     22  O   UNL     1      27.654  24.193  37.407  1.00  0.00    -0.502 OA
ATOM     23  H   UNL     1      27.869  24.853  38.145  1.00  0.00     0.293 HD
ENDBRANCH   2  22
BRANCH   6  24
ATOM     24  O   UNL     1      30.892  27.504  34.775  1.00  0.00    -0.507 OA
ATOM     25  H   UNL     1      30.507  28.255  35.328  1.00  0.00     0.293 HD
ENDBRANCH   6  24
BRANCH   8  26
ATOM     26  O   UNL     1      29.907  26.224  30.253  1.00  0.00    -0.508 OA
ATOM     27  H   UNL     1      30.488  26.976  29.901  1.00  0.00     0.293 HD
ENDBRANCH   8  26
TORSDOF 6
ENDMDL
MODEL 6
REMARK VINA RESULT:    -6.171      1.785      3.610
REMARK INTER + INTRA:          -7.715
REMARK INTER:                  -7.413
REMARK INTRA:                  -0.302
REMARK UNBOUND:                -0.281
REMARK SMILES O=c1c(O)c(-c2ccc(O)c(O)c2)oc2cc(O)cc(O)c12
REMARK SMILES IDX 5 1 3 2 2 3 1 4 22 5 20 6 19 7 17 8 16 9 15 10 14 11 6 12
REMARK SMILES IDX 7 13 8 14 9 15 13 16 11 17 10 18 12 20 4 22 21 24 18 26
REMARK H PARENT 10 19 12 21 4 23 21 25 18 27
REMARK Flexibility Score: inf
ROOT
ATOM      1  C   UNL     1      28.839  22.838  33.951  1.00  0.00     0.180 A 
ATOM      2  C   UNL     1      27.722  22.490  34.730  1.00  0.00     0.208 A 
ATOM      3  C   UNL     1      27.543  21.148  35.101  1.00  0.00     0.238 A 
ATOM      4  O   UNL     1      26.571  20.851  35.844  1.00  0.00    -0.285 OA
ATOM      5  C   UNL     1      28.472  20.168  34.676  1.00  0.00     0.111 A 
ATOM      6  C   UNL     1      28.367  18.774  34.959  1.00  0.00     0.134 A 
ATOM      7  C   UNL     1      29.414  17.915  34.599  1.00  0.00     0.093 A 
ATOM      8  C   UNL     1      30.530  18.391  33.907  1.00  0.00     0.123 A 
ATOM      9  C   UNL     1      30.613  19.740  33.573  1.00  0.00     0.094 A 
ATOM     10  C   UNL     1      29.603  20.628  33.952  1.00  0.00     0.146 A 
ATOM     11  O   UNL     1      29.728  21.908  33.623  1.00  0.00    -0.452 OA
ENDROOT
BRANCH   1  12
ATOM     12  C   UNL     1      29.083  24.228  33.500  1.00  0.00     0.025 A 
ATOM     13  C   UNL     1      28.751  24.643  32.197  1.00  0.00     0.016 A 
ATOM     14  C   UNL     1      29.012  25.952  31.786  1.00  0.00     0.051 A 
ATOM     15  C   UNL     1      29.620  26.862  32.662  1.00  0.00     0.157 A 
ATOM     16  C   UNL     1      29.710  25.137  34.367  1.00  0.00     0.062 A 
ATOM     17  C   UNL     1      29.973  26.449  33.958  1.00  0.00     0.158 A 
BRANCH  15  18
ATOM     18  O   UNL     1      29.877  28.167  32.249  1.00  0.00    -0.504 OA
ATOM     19  H   UNL     1      29.194  28.907  32.373  1.00  0.00     0.293 HD
ENDBRANCH  15  18
BRANCH  17  20
ATOM     20  O   UNL     1      30.585  27.327  34.852  1.00  0.00    -0.504 OA
ATOM     21  H   UNL     1      31.306  27.975  34.560  1.00  0.00     0.293 HD
ENDBRANCH  17  20
ENDBRANCH   1  12
BRANCH   2  22
ATOM     22  O   UNL     1      26.828  23.476  35.158  1.00  0.00    -0.502 OA
ATOM     23  H   UNL     1      26.843  23.854  36.098  1.00  0.00     0.293 HD
ENDBRANCH   2  22
BRANCH   6  24
ATOM     24  O   UNL     1      27.254  18.181  35.563  1.00  0.00    -0.507 OA
ATOM     25  H   UNL     1      26.968  18.336  36.518  1.00  0.00     0.293 HD
ENDBRANCH   6  24
BRANCH   8  26
ATOM     26  O   UNL     1      31.559  17.527  33.539  1.00  0.00    -0.508 OA
ATOM     27  H   UNL     1      32.273  17.241  34.198  1.00  0.00     0.293 HD
ENDBRANCH   8  26
TORSDOF 6
ENDMDL
MODEL 7
REMARK VINA RESULT:    -6.099      2.229      2.869
REMARK INTER + INTRA:          -7.628
REMARK INTER:                  -8.020
REMARK INTRA:                   0.392
REMARK UNBOUND:                -0.281
REMARK SMILES O=c1c(O)c(-c2ccc(O)c(O)c2)oc2cc(O)cc(O)c12
REMARK SMILES IDX 5 1 3 2 2 3 1 4 22 5 20 6 19 7 17 8 16 9 15 10 14 11 6 12
REMARK SMILES IDX 7 13 8 14 9 15 13 16 11 17 10 18 12 20 4 22 21 24 18 26
REMARK H PARENT 10 19 12 21 4 23 21 25 18 27
REMARK Flexibility Score: inf
ROOT
ATOM      1  C   UNL     1      29.109  21.877  33.654  1.00  0.00     0.180 A 
ATOM      2  C   UNL     1      30.122  21.126  33.033  1.00  0.00     0.208 A 
ATOM      3  C   UNL     1      30.272  19.773  33.374  1.00  0.00     0.238 A 
ATOM      4  O   UNL     1      31.145  19.091  32.775  1.00  0.00    -0.285 OA
ATOM      5  C   UNL     1      29.419  19.191  34.343  1.00  0.00     0.111 A 
ATOM      6  C   UNL     1      29.508  17.840  34.795  1.00  0.00     0.134 A 
ATOM      7  C   UNL     1      28.529  17.336  35.661  1.00  0.00     0.093 A 
ATOM      8  C   UNL     1      27.504  18.154  36.143  1.00  0.00     0.123 A 
ATOM      9  C   UNL     1      27.444  19.489  35.755  1.00  0.00     0.094 A 
ATOM     10  C   UNL     1      28.384  20.011  34.863  1.00  0.00     0.146 A 
ATOM     11  O   UNL     1      28.283  21.287  34.510  1.00  0.00    -0.452 OA
ENDROOT
BRANCH   1  12
ATOM     12  C   UNL     1      28.905  23.316  33.365  1.00  0.00     0.025 A 
ATOM     13  C   UNL     1      29.418  23.907  32.197  1.00  0.00     0.016 A 
ATOM     14  C   UNL     1      29.233  25.271  31.957  1.00  0.00     0.051 A 
ATOM     15  C   UNL     1      28.546  26.066  32.884  1.00  0.00     0.157 A 
ATOM     16  C   UNL     1      28.235  24.121  34.300  1.00  0.00     0.062 A 
ATOM     17  C   UNL     1      28.048  25.487  34.062  1.00  0.00     0.158 A 
BRANCH  15  18
ATOM     18  O   UNL     1      28.362  27.426  32.640  1.00  0.00    -0.504 OA
ATOM     19  H   UNL     1      28.325  27.795  31.697  1.00  0.00     0.293 HD
ENDBRANCH  15  18
BRANCH  17  20
ATOM     20  O   UNL     1      27.366  26.251  35.009  1.00  0.00    -0.504 OA
ATOM     21  H   UNL     1      27.400  27.264  35.008  1.00  0.00     0.293 HD
ENDBRANCH  17  20
ENDBRANCH   1  12
BRANCH   2  22
ATOM     22  O   UNL     1      30.939  21.714  32.063  1.00  0.00    -0.502 OA
ATOM     23  H   UNL     1      30.653  21.809  31.095  1.00  0.00     0.293 HD
ENDBRANCH   2  22
BRANCH   6  24
ATOM     24  O   UNL     1      30.544  16.967  34.448  1.00  0.00    -0.507 OA
ATOM     25  H   UNL     1      31.015  16.961  33.556  1.00  0.00     0.293 HD
ENDBRANCH   6  24
BRANCH   8  26
ATOM     26  O   UNL     1      26.544  17.647  37.016  1.00  0.00    -0.508 OA
ATOM     27  H   UNL     1      26.564  16.683  37.326  1.00  0.00     0.293 HD
ENDBRANCH   8  26
TORSDOF 6
ENDMDL
MODEL 8
REMARK VINA RESULT:    -6.070      2.746      4.588
REMARK INTER + INTRA:          -7.593
REMARK INTER:                  -7.304
REMARK INTRA:                  -0.290
REMARK UNBOUND:                -0.281
REMARK SMILES O=c1c(O)c(-c2ccc(O)c(O)c2)oc2cc(O)cc(O)c12
REMARK SMILES IDX 5 1 3 2 2 3 1 4 22 5 20 6 19 7 17 8 16 9 15 10 14 11 6 12
REMARK SMILES IDX 7 13 8 14 9 15 13 16 11 17 10 18 12 20 4 22 21 24 18 26
REMARK H PARENT 10 19 12 21 4 23 21 25 18 27
REMARK Flexibility Score: inf
ROOT
ATOM      1  C   UNL     1      27.730  23.568  34.791  1.00  0.00     0.180 A 
ATOM      2  C   UNL     1      28.555  23.991  33.735  1.00  0.00     0.208 A 
ATOM      3  C   UNL     1      29.397  23.055  33.114  1.00  0.00     0.238 A 
ATOM      4  O   UNL     1      30.095  23.427  32.134  1.00  0.00    -0.285 OA
ATOM      5  C   UNL     1      29.416  21.713  33.565  1.00  0.00     0.111 A 
ATOM      6  C   UNL     1      30.259  20.692  33.035  1.00  0.00     0.134 A 
ATOM      7  C   UNL     1      30.099  19.370  33.470  1.00  0.00     0.093 A 
ATOM      8  C   UNL     1      29.172  19.046  34.463  1.00  0.00     0.123 A 
ATOM      9  C   UNL     1      28.387  20.046  35.029  1.00  0.00     0.094 A 
ATOM     10  C   UNL     1      28.497  21.368  34.590  1.00  0.00     0.146 A 
ATOM     11  O   UNL     1      27.721  22.289  35.148  1.00  0.00    -0.452 OA
ENDROOT
BRANCH   1  12
ATOM     12  C   UNL     1      26.833  24.501  35.513  1.00  0.00     0.025 A 
ATOM     13  C   UNL     1      25.461  24.576  35.213  1.00  0.00     0.016 A 
ATOM     14  C   UNL     1      24.639  25.480  35.890  1.00  0.00     0.051 A 
ATOM     15  C   UNL     1      25.176  26.331  36.865  1.00  0.00     0.157 A 
ATOM     16  C   UNL     1      27.370  25.370  36.476  1.00  0.00     0.062 A 
ATOM     17  C   UNL     1      26.549  26.276  37.156  1.00  0.00     0.158 A 
BRANCH  15  18
ATOM     18  O   UNL     1      24.353  27.230  37.541  1.00  0.00    -0.504 OA
ATOM     19  H   UNL     1      23.343  27.190  37.458  1.00  0.00     0.293 HD
ENDBRANCH  15  18
BRANCH  17  20
ATOM     20  O   UNL     1      27.116  27.114  38.116  1.00  0.00    -0.504 OA
ATOM     21  H   UNL     1      27.216  28.111  37.968  1.00  0.00     0.293 HD
ENDBRANCH  17  20
ENDBRANCH   1  12
BRANCH   2  22
ATOM     22  O   UNL     1      28.506  25.315  33.291  1.00  0.00    -0.502 OA
ATOM     23  H   UNL     1      28.728  26.100  33.891  1.00  0.00     0.293 HD
ENDBRANCH   2  22
BRANCH   6  24
ATOM     24  O   UNL     1      31.279  20.924  32.107  1.00  0.00    -0.507 OA
ATOM     25  H   UNL     1      31.819  21.774  32.048  1.00  0.00     0.293 HD
ENDBRANCH   6  24
BRANCH   8  26
ATOM     26  O   UNL     1      29.031  17.731  34.901  1.00  0.00    -0.508 OA
ATOM     27  H   UNL     1      28.118  17.309  35.028  1.00  0.00     0.293 HD
ENDBRANCH   8  26
TORSDOF 6
ENDMDL
MODEL 9
REMARK VINA RESULT:    -5.998      1.652      3.197
REMARK INTER + INTRA:          -7.506
REMARK INTER:                  -7.229
REMARK INTRA:                  -0.277
REMARK UNBOUND:                -0.281
REMARK SMILES O=c1c(O)c(-c2ccc(O)c(O)c2)oc2cc(O)cc(O)c12
REMARK SMILES IDX 5 1 3 2 2 3 1 4 22 5 20 6 19 7 17 8 16 9 15 10 14 11 6 12
REMARK SMILES IDX 7 13 8 14 9 15 13 16 11 17 10 18 12 20 4 22 21 24 18 26
REMARK H PARENT 10 19 12 21 4 23 21 25 18 27
REMARK Flexibility Score: inf
ROOT
ATOM      1  C   UNL     1      27.525  23.580  34.460  1.00  0.00     0.180 A 
ATOM      2  C   UNL     1      26.153  23.591  34.761  1.00  0.00     0.208 A 
ATOM      3  C   UNL     1      25.552  22.416  35.240  1.00  0.00     0.238 A 
ATOM      4  O   UNL     1      24.334  22.446  35.559  1.00  0.00    -0.285 OA
ATOM      5  C   UNL     1      26.326  21.241  35.398  1.00  0.00     0.111 A 
ATOM      6  C   UNL     1      25.812  19.985  35.837  1.00  0.00     0.134 A 
ATOM      7  C   UNL     1      26.695  18.925  36.081  1.00  0.00     0.093 A 
ATOM      8  C   UNL     1      28.064  19.058  35.838  1.00  0.00     0.123 A 
ATOM      9  C   UNL     1      28.567  20.262  35.352  1.00  0.00     0.094 A 
ATOM     10  C   UNL     1      27.716  21.348  35.134  1.00  0.00     0.146 A 
ATOM     11  O   UNL     1      28.238  22.481  34.680  1.00  0.00    -0.452 OA
ENDROOT
BRANCH   1  12
ATOM     12  C   UNL     1      28.225  24.772  33.927  1.00  0.00     0.025 A 
ATOM     13  C   UNL     1      28.053  25.186  32.594  1.00  0.00     0.016 A 
ATOM     14  C   UNL     1      28.742  26.299  32.107  1.00  0.00     0.051 A 
ATOM     15  C   UNL     1      29.621  27.007  32.937  1.00  0.00     0.157 A 
ATOM     16  C   UNL     1      29.123  25.472  34.749  1.00  0.00     0.062 A 
ATOM     17  C   UNL     1      29.813  26.588  34.264  1.00  0.00     0.158 A 
BRANCH  15  18
ATOM     18  O   UNL     1      30.305  28.118  32.448  1.00  0.00    -0.504 OA
ATOM     19  H   UNL     1      30.431  28.268  31.453  1.00  0.00     0.293 HD
ENDBRANCH  15  18
BRANCH  17  20
ATOM     20  O   UNL     1      30.686  27.266  35.114  1.00  0.00    -0.504 OA
ATOM     21  H   UNL     1      31.303  26.777  35.753  1.00  0.00     0.293 HD
ENDBRANCH  17  20
ENDBRANCH   1  12
BRANCH   2  22
ATOM     22  O   UNL     1      25.411  24.767  34.619  1.00  0.00    -0.502 OA
ATOM     23  H   UNL     1      25.841  25.662  34.418  1.00  0.00     0.293 HD
ENDBRANCH   2  22
BRANCH   6  24
ATOM     24  O   UNL     1      24.452  19.718  36.022  1.00  0.00    -0.507 OA
ATOM     25  H   UNL     1      24.044  18.796  36.038  1.00  0.00     0.293 HD
ENDBRANCH   6  24
BRANCH   8  26
ATOM     26  O   UNL     1      28.933  17.993  36.068  1.00  0.00    -0.508 OA
ATOM     27  H   UNL     1      29.215  17.368  35.323  1.00  0.00     0.293 HD
ENDBRANCH   8  26
TORSDOF 6
ENDMDL
