MODEL 1
REMARK VINA RESULT:    -4.512      0.000      0.000
REMARK INTER + INTRA:          -5.259
REMARK INTER:                  -5.039
REMARK INTRA:                  -0.220
REMARK UNBOUND:                -0.220
REMARK SMILES CC(C)c1ccc(C(=O)[O-])cc1
REMARK SMILES IDX 7 1 6 2 11 3 5 4 12 5 4 6 8 7 9 8 10 9 2 10 1 11 3 12
REMARK H PARENT
REMARK Flexibility Score: inf
ROOT
ATOM      1  C   UNL     1      58.516  26.922  49.911  1.00  0.00    -0.003 A 
ATOM      2  C   UNL     1      58.145  28.254  50.164  1.00  0.00     0.010 A 
ATOM      3  C   UNL     1      57.521  25.931  49.890  1.00  0.00     0.010 A 
ATOM      4  C   UNL     1      56.807  28.587  50.392  1.00  0.00     0.004 A 
ATOM      5  C   UNL     1      56.182  26.264  50.117  1.00  0.00     0.004 A 
ATOM      6  C   UNL     1      55.810  27.597  50.370  1.00  0.00    -0.045 A 
ENDROOT
BRANCH   1   7
ATOM      7  C   UNL     1      59.932  26.565  49.670  1.00  0.00     0.071 C 
ATOM      8  O   UNL     1      60.327  25.379  49.822  1.00  0.00    -0.545 OA
ATOM      9  O   UNL     1      60.845  27.534  49.270  1.00  0.00    -0.545 OA
ENDBRANCH   1   7
BRANCH   6  10
ATOM     10  C   UNL     1      54.361  27.973  50.619  1.00  0.00     0.013 C 
ATOM     11  C   UNL     1      54.155  29.487  50.498  1.00  0.00     0.012 C 
ATOM     12  C   UNL     1      53.423  27.211  49.675  1.00  0.00     0.012 C 
ENDBRANCH   6  10
TORSDOF 2
ENDMDL
MODEL 2
REMARK VINA RESULT:    -4.495      0.080      1.681
REMARK INTER + INTRA:          -5.240
REMARK INTER:                  -5.021
REMARK INTRA:                  -0.219
REMARK UNBOUND:                -0.220
REMARK SMILES CC(C)c1ccc(C(=O)[O-])cc1
REMARK SMILES IDX 7 1 6 2 11 3 5 4 12 5 4 6 8 7 9 8 10 9 2 10 1 11 3 12
REMARK H PARENT
REMARK Flexibility Score: inf
ROOT
ATOM      1  C   UNL     1      58.473  26.987  49.901  1.00  0.00    -0.003 A 
ATOM      2  C   UNL     1      57.478  25.997  49.860  1.00  0.00     0.010 A 
ATOM      3  C   UNL     1      58.103  28.313  50.180  1.00  0.00     0.010 A 
ATOM      4  C   UNL     1      56.139  26.326  50.092  1.00  0.00     0.004 A 
ATOM      5  C   UNL     1      56.764  28.643  50.412  1.00  0.00     0.004 A 
ATOM      6  C   UNL     1      55.767  27.651  50.371  1.00  0.00    -0.045 A 
ENDROOT
BRANCH   1   7
ATOM      7  C   UNL     1      59.892  26.644  49.657  1.00  0.00     0.071 C 
ATOM      8  O   UNL     1      60.705  27.522  49.265  1.00  0.00    -0.545 OA
ATOM      9  O   UNL     1      60.347  25.345  49.858  1.00  0.00    -0.545 OA
ENDBRANCH   1   7
BRANCH   6  10
ATOM     10  C   UNL     1      54.310  27.995  50.620  1.00  0.00     0.013 C 
ATOM     11  C   UNL     1      54.073  29.506  50.515  1.00  0.00     0.012 C 
ATOM     12  C   UNL     1      53.389  27.224  49.666  1.00  0.00     0.012 C 
ENDBRANCH   6  10
TORSDOF 2
ENDMDL
MODEL 3
REMARK VINA RESULT:    -4.418     12.849     13.762
REMARK INTER + INTRA:          -5.155
REMARK INTER:                  -4.937
REMARK INTRA:                  -0.219
REMARK UNBOUND:                -0.220
REMARK SMILES CC(C)c1ccc(C(=O)[O-])cc1
REMARK SMILES IDX 7 1 6 2 11 3 5 4 12 5 4 6 8 7 9 8 10 9 2 10 1 11 3 12
REMARK H PARENT
REMARK Flexibility Score: inf
ROOT
ATOM      1  C   UNL     1      63.088  31.179  61.069  1.00  0.00    -0.003 A 
ATOM      2  C   UNL     1      64.206  32.030  61.057  1.00  0.00     0.010 A 
ATOM      3  C   UNL     1      61.812  31.729  60.863  1.00  0.00     0.010 A 
ATOM      4  C   UNL     1      64.051  33.403  60.845  1.00  0.00     0.004 A 
ATOM      5  C   UNL     1      61.656  33.102  60.651  1.00  0.00     0.004 A 
ATOM      6  C   UNL     1      62.776  33.955  60.638  1.00  0.00    -0.045 A 
ENDROOT
BRANCH   1   7
ATOM      7  C   UNL     1      63.247  29.725  61.293  1.00  0.00     0.071 C 
ATOM      8  O   UNL     1      62.318  29.052  61.812  1.00  0.00    -0.545 OA
ATOM      9  O   UNL     1      64.426  29.082  60.931  1.00  0.00    -0.545 OA
ENDBRANCH   1   7
BRANCH   6  10
ATOM     10  C   UNL     1      62.622  35.447  60.410  1.00  0.00     0.013 C 
ATOM     11  C   UNL     1      61.161  35.883  60.576  1.00  0.00     0.012 C 
ATOM     12  C   UNL     1      63.545  36.247  61.336  1.00  0.00     0.012 C 
ENDBRANCH   6  10
TORSDOF 2
ENDMDL
MODEL 4
REMARK VINA RESULT:    -4.414     12.858     13.769
REMARK INTER + INTRA:          -5.151
REMARK INTER:                  -4.931
REMARK INTRA:                  -0.220
REMARK UNBOUND:                -0.220
REMARK SMILES CC(C)c1ccc(C(=O)[O-])cc1
REMARK SMILES IDX 7 1 6 2 11 3 5 4 12 5 4 6 8 7 9 8 10 9 2 10 1 11 3 12
REMARK H PARENT
REMARK Flexibility Score: inf
ROOT
ATOM      1  C   UNL     1      63.069  31.224  61.083  1.00  0.00    -0.003 A 
ATOM      2  C   UNL     1      61.781  31.746  60.877  1.00  0.00     0.010 A 
ATOM      3  C   UNL     1      64.169  32.096  61.055  1.00  0.00     0.010 A 
ATOM      4  C   UNL     1      61.598  33.112  60.646  1.00  0.00     0.004 A 
ATOM      5  C   UNL     1      63.987  33.462  60.825  1.00  0.00     0.004 A 
ATOM      6  C   UNL     1      62.697  33.986  60.619  1.00  0.00    -0.045 A 
ENDROOT
BRANCH   1   7
ATOM      7  C   UNL     1      63.268  29.778  61.328  1.00  0.00     0.071 C 
ATOM      8  O   UNL     1      62.323  29.065  61.759  1.00  0.00    -0.545 OA
ATOM      9  O   UNL     1      64.502  29.185  61.085  1.00  0.00    -0.545 OA
ENDBRANCH   1   7
BRANCH   6  10
ATOM     10  C   UNL     1      62.484  35.467  60.367  1.00  0.00     0.013 C 
ATOM     11  C   UNL     1      61.006  35.846  60.522  1.00  0.00     0.012 C 
ATOM     12  C   UNL     1      63.371  36.317  61.284  1.00  0.00     0.012 C 
ENDBRANCH   6  10
TORSDOF 2
ENDMDL
MODEL 5
REMARK VINA RESULT:    -4.200     13.370     14.398
REMARK INTER + INTRA:          -4.911
REMARK INTER:                  -4.693
REMARK INTRA:                  -0.218
REMARK UNBOUND:                -0.220
REMARK SMILES CC(C)c1ccc(C(=O)[O-])cc1
REMARK SMILES IDX 7 1 6 2 11 3 5 4 12 5 4 6 8 7 9 8 10 9 2 10 1 11 3 12
REMARK H PARENT
REMARK Flexibility Score: inf
ROOT
ATOM      1  C   UNL     1      62.771  34.816  60.842  1.00  0.00    -0.003 A 
ATOM      2  C   UNL     1      64.041  34.235  60.992  1.00  0.00     0.010 A 
ATOM      3  C   UNL     1      61.660  33.981  60.638  1.00  0.00     0.010 A 
ATOM      4  C   UNL     1      64.197  32.846  60.938  1.00  0.00     0.004 A 
ATOM      5  C   UNL     1      61.815  32.593  60.585  1.00  0.00     0.004 A 
ATOM      6  C   UNL     1      63.087  32.010  60.735  1.00  0.00    -0.045 A 
ENDROOT
BRANCH   1   7
ATOM      7  C   UNL     1      62.601  36.285  60.898  1.00  0.00     0.071 C 
ATOM      8  O   UNL     1      61.452  36.794  60.988  1.00  0.00    -0.545 OA
ATOM      9  O   UNL     1      63.709  37.125  60.852  1.00  0.00    -0.545 OA
ENDBRANCH   1   7
BRANCH   6  10
ATOM     10  C   UNL     1      63.271  30.505  60.679  1.00  0.00     0.013 C 
ATOM     11  C   UNL     1      64.744  30.121  60.861  1.00  0.00     0.012 C 
ATOM     12  C   UNL     1      62.386  29.801  61.715  1.00  0.00     0.012 C 
ENDBRANCH   6  10
TORSDOF 2
ENDMDL
MODEL 6
REMARK VINA RESULT:    -4.171      3.205      5.136
REMARK INTER + INTRA:          -4.878
REMARK INTER:                  -4.662
REMARK INTRA:                  -0.217
REMARK UNBOUND:                -0.220
REMARK SMILES CC(C)c1ccc(C(=O)[O-])cc1
REMARK SMILES IDX 7 1 6 2 11 3 5 4 12 5 4 6 8 7 9 8 10 9 2 10 1 11 3 12
REMARK H PARENT
REMARK Flexibility Score: inf
ROOT
ATOM      1  C   UNL     1      55.249  27.561  50.161  1.00  0.00    -0.003 A 
ATOM      2  C   UNL     1      56.169  28.580  50.458  1.00  0.00     0.010 A 
ATOM      3  C   UNL     1      55.726  26.261  49.926  1.00  0.00     0.010 A 
ATOM      4  C   UNL     1      57.539  28.305  50.519  1.00  0.00     0.004 A 
ATOM      5  C   UNL     1      57.095  25.985  49.987  1.00  0.00     0.004 A 
ATOM      6  C   UNL     1      58.018  27.005  50.285  1.00  0.00    -0.045 A 
ENDROOT
BRANCH   1   7
ATOM      7  C   UNL     1      53.799  27.847  50.095  1.00  0.00     0.071 C 
ATOM      8  O   UNL     1      53.382  29.035  50.060  1.00  0.00    -0.545 OA
ATOM      9  O   UNL     1      52.876  26.808  50.070  1.00  0.00    -0.545 OA
ENDBRANCH   1   7
BRANCH   6  10
ATOM     10  C   UNL     1      59.506  26.720  50.354  1.00  0.00     0.013 C 
ATOM     11  C   UNL     1      59.793  25.228  50.148  1.00  0.00     0.012 C 
ATOM     12  C   UNL     1      60.280  27.576  49.344  1.00  0.00     0.012 C 
ENDBRANCH   6  10
TORSDOF 2
ENDMDL
MODEL 7
REMARK VINA RESULT:    -4.106     12.977     13.976
REMARK INTER + INTRA:          -4.807
REMARK INTER:                  -4.591
REMARK INTRA:                  -0.215
REMARK UNBOUND:                -0.220
REMARK SMILES CC(C)c1ccc(C(=O)[O-])cc1
REMARK SMILES IDX 7 1 6 2 11 3 5 4 12 5 4 6 8 7 9 8 10 9 2 10 1 11 3 12
REMARK H PARENT
REMARK Flexibility Score: inf
ROOT
ATOM      1  C   UNL     1      63.040  32.103  60.590  1.00  0.00    -0.003 A 
ATOM      2  C   UNL     1      61.810  32.780  60.551  1.00  0.00     0.010 A 
ATOM      3  C   UNL     1      64.216  32.841  60.802  1.00  0.00     0.010 A 
ATOM      4  C   UNL     1      61.757  34.167  60.718  1.00  0.00     0.004 A 
ATOM      5  C   UNL     1      64.164  34.228  60.970  1.00  0.00     0.004 A 
ATOM      6  C   UNL     1      62.933  34.907  60.931  1.00  0.00    -0.045 A 
ENDROOT
BRANCH   1   7
ATOM      7  C   UNL     1      63.101  30.635  60.413  1.00  0.00     0.071 C 
ATOM      8  O   UNL     1      62.479  30.078  59.470  1.00  0.00    -0.545 OA
ATOM      9  O   UNL     1      63.848  29.851  61.284  1.00  0.00    -0.545 OA
ENDBRANCH   1   7
BRANCH   6  10
ATOM     10  C   UNL     1      62.861  36.411  61.112  1.00  0.00     0.013 C 
ATOM     11  C   UNL     1      63.944  37.118  60.290  1.00  0.00     0.012 C 
ATOM     12  C   UNL     1      61.467  36.944  60.761  1.00  0.00     0.012 C 
ENDBRANCH   6  10
TORSDOF 2
ENDMDL
MODEL 8
REMARK VINA RESULT:    -3.983      2.854      5.053
REMARK INTER + INTRA:          -4.669
REMARK INTER:                  -4.453
REMARK INTRA:                  -0.216
REMARK UNBOUND:                -0.220
REMARK SMILES CC(C)c1ccc(C(=O)[O-])cc1
REMARK SMILES IDX 7 1 6 2 11 3 5 4 12 5 4 6 8 7 9 8 10 9 2 10 1 11 3 12
REMARK H PARENT
REMARK Flexibility Score: inf
ROOT
ATOM      1  C   UNL     1      56.525  27.788  50.273  1.00  0.00    -0.003 A 
ATOM      2  C   UNL     1      57.678  28.584  50.164  1.00  0.00     0.010 A 
ATOM      3  C   UNL     1      56.651  26.392  50.197  1.00  0.00     0.010 A 
ATOM      4  C   UNL     1      58.932  27.994  49.982  1.00  0.00     0.004 A 
ATOM      5  C   UNL     1      57.905  25.801  50.015  1.00  0.00     0.004 A 
ATOM      6  C   UNL     1      59.061  26.597  49.907  1.00  0.00    -0.045 A 
ENDROOT
BRANCH   1   7
ATOM      7  C   UNL     1      55.195  28.408  50.465  1.00  0.00     0.071 C 
ATOM      8  O   UNL     1      55.052  29.391  51.240  1.00  0.00    -0.545 OA
ATOM      9  O   UNL     1      54.083  27.914  49.792  1.00  0.00    -0.545 OA
ENDBRANCH   1   7
BRANCH   6  10
ATOM     10  C   UNL     1      60.429  25.970  49.709  1.00  0.00     0.013 C 
ATOM     11  C   UNL     1      61.542  27.009  49.884  1.00  0.00     0.012 C 
ATOM     12  C   UNL     1      60.632  24.779  50.653  1.00  0.00     0.012 C 
ENDBRANCH   6  10
TORSDOF 2
ENDMDL
MODEL 9
REMARK VINA RESULT:    -2.213      1.813      2.427
REMARK INTER + INTRA:          -2.692
REMARK INTER:                  -2.478
REMARK INTRA:                  -0.214
REMARK UNBOUND:                -0.220
REMARK SMILES CC(C)c1ccc(C(=O)[O-])cc1
REMARK SMILES IDX 7 1 6 2 11 3 5 4 12 5 4 6 8 7 9 8 10 9 2 10 1 11 3 12
REMARK H PARENT
REMARK Flexibility Score: inf
ROOT
ATOM      1  C   UNL     1      58.525  28.191  50.896  1.00  0.00    -0.003 A 
ATOM      2  C   UNL     1      57.375  28.114  50.094  1.00  0.00     0.010 A 
ATOM      3  C   UNL     1      58.379  28.254  52.292  1.00  0.00     0.010 A 
ATOM      4  C   UNL     1      56.103  28.102  50.675  1.00  0.00     0.004 A 
ATOM      5  C   UNL     1      57.108  28.240  52.874  1.00  0.00     0.004 A 
ATOM      6  C   UNL     1      55.955  28.163  52.071  1.00  0.00    -0.045 A 
ENDROOT
BRANCH   1   7
ATOM      7  C   UNL     1      59.873  28.205  50.285  1.00  0.00     0.071 C 
ATOM      8  O   UNL     1      60.024  28.518  49.075  1.00  0.00    -0.545 OA
ATOM      9  O   UNL     1      60.993  27.873  51.041  1.00  0.00    -0.545 OA
ENDBRANCH   1   7
BRANCH   6  10
ATOM     10  C   UNL     1      54.569  28.149  52.689  1.00  0.00     0.013 C 
ATOM     11  C   UNL     1      53.490  28.405  51.630  1.00  0.00     0.012 C 
ATOM     12  C   UNL     1      54.310  26.834  53.434  1.00  0.00     0.012 C 
ENDBRANCH   6  10
TORSDOF 2
ENDMDL
