MODEL 1
REMARK VINA RESULT:     5.053      0.000      0.000
REMARK INTER + INTRA:           5.655
REMARK INTER:                   5.792
REMARK INTRA:                  -0.137
REMARK UNBOUND:                -0.137
REMARK SMILES O=C([O-])C=Cc1ccc(O)cc1
REMARK SMILES IDX 6 1 7 2 12 3 8 4 11 5 9 6 5 7 4 8 2 9 1 10 3 11 10 12
REMARK H PARENT 10 13
REMARK Flexibility Score: inf
ROOT
ATOM      1  C   UNL     1     -30.933  39.964 -25.966  1.00  0.00    -0.025 A 
ATOM      2  C   UNL     1     -29.884  40.907 -25.947  1.00  0.00     0.012 A 
ATOM      3  C   UNL     1     -30.615  38.598 -26.054  1.00  0.00     0.012 A 
ATOM      4  C   UNL     1     -28.551  40.483 -25.990  1.00  0.00     0.047 A 
ATOM      5  C   UNL     1     -29.281  38.180 -26.097  1.00  0.00     0.047 A 
ATOM      6  C   UNL     1     -28.247  39.118 -26.063  1.00  0.00     0.115 A 
ENDROOT
BRANCH   1   7
ATOM      7  C   UNL     1     -32.363  40.360 -25.933  1.00  0.00     0.010 C 
ATOM      8  C   UNL     1     -33.103  40.387 -24.816  1.00  0.00     0.025 C 
BRANCH   8   9
ATOM      9  C   UNL     1     -34.524  40.775 -24.824  1.00  0.00     0.064 C 
ATOM     10  O   UNL     1     -35.099  41.121 -25.891  1.00  0.00    -0.545 OA
ATOM     11  O   UNL     1     -35.242  40.760 -23.636  1.00  0.00    -0.545 OA
ENDBRANCH   8   9
ENDBRANCH   1   7
BRANCH   6  12
ATOM     12  O   UNL     1     -26.923  38.687 -26.106  1.00  0.00    -0.508 OA
ATOM     13  H   UNL     1     -26.168  39.257 -25.745  1.00  0.00     0.293 HD
ENDBRANCH   6  12
TORSDOF 3
ENDMDL
