MODEL 1
REMARK VINA RESULT:    -4.174      0.000      0.000
REMARK INTER + INTRA:          -5.324
REMARK INTER:                  -5.027
REMARK INTRA:                  -0.296
REMARK UNBOUND:                -0.296
REMARK SMILES O=c1c(O)c(-c2ccc(O)c(O)c2)oc2cc(O)cc(O)c12
REMARK SMILES IDX 5 1 3 2 2 3 1 4 22 5 20 6 19 7 17 8 16 9 15 10 14 11 6 12
REMARK SMILES IDX 7 13 8 14 9 15 13 16 11 17 10 18 12 20 4 22 21 24 18 26
REMARK H PARENT 10 19 12 21 4 23 21 25 18 27
REMARK Flexibility Score: inf
ROOT
ATOM      1  C   UNL     1      63.363  48.392  14.497  1.00  0.00     0.180 A 
ATOM      2  C   UNL     1      63.862  47.195  13.955  1.00  0.00     0.208 A 
ATOM      3  C   UNL     1      64.676  46.372  14.750  1.00  0.00     0.238 A 
ATOM      4  O   UNL     1      65.163  45.330  14.241  1.00  0.00    -0.285 OA
ATOM      5  C   UNL     1      64.968  46.749  16.084  1.00  0.00     0.111 A 
ATOM      6  C   UNL     1      65.747  45.972  16.993  1.00  0.00     0.134 A 
ATOM      7  C   UNL     1      66.080  46.504  18.245  1.00  0.00     0.093 A 
ATOM      8  C   UNL     1      65.609  47.753  18.646  1.00  0.00     0.123 A 
ATOM      9  C   UNL     1      64.796  48.495  17.788  1.00  0.00     0.094 A 
ATOM     10  C   UNL     1      64.476  48.007  16.518  1.00  0.00     0.146 A 
ATOM     11  O   UNL     1      63.709  48.749  15.729  1.00  0.00    -0.452 OA
ENDROOT
BRANCH   1  12
ATOM     12  C   UNL     1      62.479  49.297  13.729  1.00  0.00     0.025 A 
ATOM     13  C   UNL     1      61.088  49.210  13.898  1.00  0.00     0.016 A 
ATOM     14  C   UNL     1      60.233  50.040  13.169  1.00  0.00     0.051 A 
ATOM     15  C   UNL     1      60.752  50.956  12.249  1.00  0.00     0.157 A 
ATOM     16  C   UNL     1      62.998  50.205  12.789  1.00  0.00     0.062 A 
ATOM     17  C   UNL     1      62.141  51.038  12.054  1.00  0.00     0.158 A 
BRANCH  15  18
ATOM     18  O   UNL     1      59.875  51.773  11.537  1.00  0.00    -0.504 OA
ATOM     19  H   UNL     1      59.865  51.798  10.524  1.00  0.00     0.293 HD
ENDBRANCH  15  18
BRANCH  17  20
ATOM     20  O   UNL     1      62.665  51.939  11.128  1.00  0.00    -0.504 OA
ATOM     21  H   UNL     1      62.258  52.856  10.991  1.00  0.00     0.293 HD
ENDBRANCH  17  20
ENDBRANCH   1  12
BRANCH   2  22
ATOM     22  O   UNL     1      63.580  46.853  12.629  1.00  0.00    -0.502 OA
ATOM     23  H   UNL     1      64.155  47.159  11.854  1.00  0.00     0.293 HD
ENDBRANCH   2  22
BRANCH   6  24
ATOM     24  O   UNL     1      66.193  44.674  16.727  1.00  0.00    -0.507 OA
ATOM     25  H   UNL     1      66.692  44.093  17.383  1.00  0.00     0.293 HD
ENDBRANCH   6  24
BRANCH   8  26
ATOM     26  O   UNL     1      65.947  48.244  19.905  1.00  0.00    -0.508 OA
ATOM     27  H   UNL     1      66.583  49.025  20.017  1.00  0.00     0.293 HD
ENDBRANCH   8  26
TORSDOF 6
ENDMDL
MODEL 2
REMARK VINA RESULT:    -3.968      0.720      1.505
REMARK INTER + INTRA:          -5.076
REMARK INTER:                  -4.810
REMARK INTRA:                  -0.266
REMARK UNBOUND:                -0.296
REMARK SMILES O=c1c(O)c(-c2ccc(O)c(O)c2)oc2cc(O)cc(O)c12
REMARK SMILES IDX 5 1 3 2 2 3 1 4 22 5 20 6 19 7 17 8 16 9 15 10 14 11 6 12
REMARK SMILES IDX 7 13 8 14 9 15 13 16 11 17 10 18 12 20 4 22 21 24 18 26
REMARK H PARENT 10 19 12 21 4 23 21 25 18 27
REMARK Flexibility Score: inf
ROOT
ATOM      1  C   UNL     1      63.453  48.527  14.263  1.00  0.00     0.180 A 
ATOM      2  C   UNL     1      64.104  47.454  13.630  1.00  0.00     0.208 A 
ATOM      3  C   UNL     1      64.988  46.658  14.375  1.00  0.00     0.238 A 
ATOM      4  O   UNL     1      65.609  45.733  13.789  1.00  0.00    -0.285 OA
ATOM      5  C   UNL     1      65.199  46.934  15.748  1.00  0.00     0.111 A 
ATOM      6  C   UNL     1      66.041  46.168  16.608  1.00  0.00     0.134 A 
ATOM      7  C   UNL     1      66.276  46.610  17.916  1.00  0.00     0.093 A 
ATOM      8  C   UNL     1      65.650  47.752  18.415  1.00  0.00     0.123 A 
ATOM      9  C   UNL     1      64.777  48.475  17.600  1.00  0.00     0.094 A 
ATOM     10  C   UNL     1      64.550  48.079  16.279  1.00  0.00     0.146 A 
ATOM     11  O   UNL     1      63.721  48.800  15.535  1.00  0.00    -0.452 OA
ENDROOT
BRANCH   1  12
ATOM     12  C   UNL     1      62.488  49.394  13.551  1.00  0.00     0.025 A 
ATOM     13  C   UNL     1      62.964  50.390  12.683  1.00  0.00     0.016 A 
ATOM     14  C   UNL     1      62.073  51.233  12.016  1.00  0.00     0.051 A 
ATOM     15  C   UNL     1      60.695  51.106  12.215  1.00  0.00     0.157 A 
ATOM     16  C   UNL     1      61.102  49.281  13.766  1.00  0.00     0.062 A 
ATOM     17  C   UNL     1      60.206  50.128  13.098  1.00  0.00     0.158 A 
BRANCH  15  18
ATOM     18  O   UNL     1      59.829  51.960  11.534  1.00  0.00    -0.504 OA
ATOM     19  H   UNL     1      59.475  52.813  11.950  1.00  0.00     0.293 HD
ENDBRANCH  15  18
BRANCH  17  20
ATOM     20  O   UNL     1      58.834  50.004  13.313  1.00  0.00    -0.504 OA
ATOM     21  H   UNL     1      58.295  50.746  13.744  1.00  0.00     0.293 HD
ENDBRANCH  17  20
ENDBRANCH   1  12
BRANCH   2  22
ATOM     22  O   UNL     1      63.898  47.212  12.268  1.00  0.00    -0.502 OA
ATOM     23  H   UNL     1      64.652  47.229  11.593  1.00  0.00     0.293 HD
ENDBRANCH   2  22
BRANCH   6  24
ATOM     24  O   UNL     1      66.644  44.962  16.239  1.00  0.00    -0.507 OA
ATOM     25  H   UNL     1      66.225  44.270  15.637  1.00  0.00     0.293 HD
ENDBRANCH   6  24
BRANCH   8  26
ATOM     26  O   UNL     1      65.895  48.154  19.726  1.00  0.00    -0.508 OA
ATOM     27  H   UNL     1      66.240  47.505  20.424  1.00  0.00     0.293 HD
ENDBRANCH   8  26
TORSDOF 6
ENDMDL
MODEL 3
REMARK VINA RESULT:    -3.956      4.252      6.136
REMARK INTER + INTRA:          -5.062
REMARK INTER:                  -4.771
REMARK INTRA:                  -0.291
REMARK UNBOUND:                -0.296
REMARK SMILES O=c1c(O)c(-c2ccc(O)c(O)c2)oc2cc(O)cc(O)c12
REMARK SMILES IDX 5 1 3 2 2 3 1 4 22 5 20 6 19 7 17 8 16 9 15 10 14 11 6 12
REMARK SMILES IDX 7 13 8 14 9 15 13 16 11 17 10 18 12 20 4 22 21 24 18 26
REMARK H PARENT 10 19 12 21 4 23 21 25 18 27
REMARK Flexibility Score: inf
ROOT
ATOM      1  C   UNL     1      62.860  50.082  19.124  1.00  0.00     0.180 A 
ATOM      2  C   UNL     1      63.352  49.118  20.022  1.00  0.00     0.208 A 
ATOM      3  C   UNL     1      64.295  48.182  19.569  1.00  0.00     0.238 A 
ATOM      4  O   UNL     1      64.689  47.289  20.363  1.00  0.00    -0.285 OA
ATOM      5  C   UNL     1      64.748  48.231  18.228  1.00  0.00     0.111 A 
ATOM      6  C   UNL     1      65.732  47.359  17.674  1.00  0.00     0.134 A 
ATOM      7  C   UNL     1      66.008  47.414  16.302  1.00  0.00     0.093 A 
ATOM      8  C   UNL     1      65.386  48.351  15.478  1.00  0.00     0.123 A 
ATOM      9  C   UNL     1      64.466  49.250  16.022  1.00  0.00     0.094 A 
ATOM     10  C   UNL     1      64.143  49.195  17.381  1.00  0.00     0.146 A 
ATOM     11  O   UNL     1      63.256  50.061  17.856  1.00  0.00    -0.452 OA
ENDROOT
BRANCH   1  12
ATOM     12  C   UNL     1      61.885  51.116  19.534  1.00  0.00     0.025 A 
ATOM     13  C   UNL     1      62.340  52.404  19.862  1.00  0.00     0.016 A 
ATOM     14  C   UNL     1      61.439  53.390  20.271  1.00  0.00     0.051 A 
ATOM     15  C   UNL     1      60.075  53.103  20.375  1.00  0.00     0.157 A 
ATOM     16  C   UNL     1      60.515  50.823  19.659  1.00  0.00     0.062 A 
ATOM     17  C   UNL     1      59.609  51.812  20.072  1.00  0.00     0.158 A 
BRANCH  15  18
ATOM     18  O   UNL     1      59.199  54.107  20.785  1.00  0.00    -0.504 OA
ATOM     19  H   UNL     1      58.194  53.981  20.779  1.00  0.00     0.293 HD
ENDBRANCH  15  18
BRANCH  17  20
ATOM     20  O   UNL     1      58.252  51.514  20.187  1.00  0.00    -0.504 OA
ATOM     21  H   UNL     1      57.690  51.881  20.946  1.00  0.00     0.293 HD
ENDBRANCH  17  20
ENDBRANCH   1  12
BRANCH   2  22
ATOM     22  O   UNL     1      62.874  49.074  21.336  1.00  0.00    -0.502 OA
ATOM     23  H   UNL     1      63.021  49.830  21.993  1.00  0.00     0.293 HD
ENDBRANCH   2  22
BRANCH   6  24
ATOM     24  O   UNL     1      66.479  46.446  18.425  1.00  0.00    -0.507 OA
ATOM     25  H   UNL     1      66.240  46.134  19.354  1.00  0.00     0.293 HD
ENDBRANCH   6  24
BRANCH   8  26
ATOM     26  O   UNL     1      65.696  48.388  14.121  1.00  0.00    -0.508 OA
ATOM     27  H   UNL     1      65.622  49.243  13.583  1.00  0.00     0.293 HD
ENDBRANCH   8  26
TORSDOF 6
ENDMDL
MODEL 4
REMARK VINA RESULT:    -3.913      4.402      6.909
REMARK INTER + INTRA:          -5.009
REMARK INTER:                  -4.725
REMARK INTRA:                  -0.285
REMARK UNBOUND:                -0.296
REMARK SMILES O=c1c(O)c(-c2ccc(O)c(O)c2)oc2cc(O)cc(O)c12
REMARK SMILES IDX 5 1 3 2 2 3 1 4 22 5 20 6 19 7 17 8 16 9 15 10 14 11 6 12
REMARK SMILES IDX 7 13 8 14 9 15 13 16 11 17 10 18 12 20 4 22 21 24 18 26
REMARK H PARENT 10 19 12 21 4 23 21 25 18 27
REMARK Flexibility Score: inf
ROOT
ATOM      1  C   UNL     1      62.790  49.613  18.089  1.00  0.00     0.180 A 
ATOM      2  C   UNL     1      61.488  49.087  18.016  1.00  0.00     0.208 A 
ATOM      3  C   UNL     1      60.456  49.721  18.726  1.00  0.00     0.238 A 
ATOM      4  O   UNL     1      59.304  49.213  18.700  1.00  0.00    -0.285 OA
ATOM      5  C   UNL     1      60.734  50.881  19.488  1.00  0.00     0.111 A 
ATOM      6  C   UNL     1      59.758  51.627  20.214  1.00  0.00     0.134 A 
ATOM      7  C   UNL     1      60.168  52.682  21.039  1.00  0.00     0.093 A 
ATOM      8  C   UNL     1      61.509  53.059  21.113  1.00  0.00     0.123 A 
ATOM      9  C   UNL     1      62.464  52.375  20.360  1.00  0.00     0.094 A 
ATOM     10  C   UNL     1      62.090  51.295  19.556  1.00  0.00     0.146 A 
ATOM     11  O   UNL     1      63.031  50.663  18.865  1.00  0.00    -0.452 OA
ENDROOT
BRANCH   1  12
ATOM     12  C   UNL     1      63.923  49.016  17.348  1.00  0.00     0.025 A 
ATOM     13  C   UNL     1      64.331  49.587  16.132  1.00  0.00     0.016 A 
ATOM     14  C   UNL     1      65.385  49.029  15.405  1.00  0.00     0.051 A 
ATOM     15  C   UNL     1      66.037  47.884  15.872  1.00  0.00     0.157 A 
ATOM     16  C   UNL     1      64.567  47.852  17.806  1.00  0.00     0.062 A 
ATOM     17  C   UNL     1      65.625  47.289  17.077  1.00  0.00     0.158 A 
BRANCH  15  18
ATOM     18  O   UNL     1      67.087  47.349  15.127  1.00  0.00    -0.504 OA
ATOM     19  H   UNL     1      67.271  46.354  15.092  1.00  0.00     0.293 HD
ENDBRANCH  15  18
BRANCH  17  20
ATOM     20  O   UNL     1      66.261  46.139  17.542  1.00  0.00    -0.504 OA
ATOM     21  H   UNL     1      66.868  46.159  18.354  1.00  0.00     0.293 HD
ENDBRANCH  17  20
ENDBRANCH   1  12
BRANCH   2  22
ATOM     22  O   UNL     1      61.239  47.928  17.274  1.00  0.00    -0.502 OA
ATOM     23  H   UNL     1      61.290  47.907  16.264  1.00  0.00     0.293 HD
ENDBRANCH   2  22
BRANCH   6  24
ATOM     24  O   UNL     1      58.382  51.392  20.140  1.00  0.00    -0.507 OA
ATOM     25  H   UNL     1      57.954  50.478  20.141  1.00  0.00     0.293 HD
ENDBRANCH   6  24
BRANCH   8  26
ATOM     26  O   UNL     1      61.879  54.124  21.931  1.00  0.00    -0.508 OA
ATOM     27  H   UNL     1      61.527  55.061  21.774  1.00  0.00     0.293 HD
ENDBRANCH   8  26
TORSDOF 6
ENDMDL
MODEL 5
REMARK VINA RESULT:    -3.907      2.288      7.082
REMARK INTER + INTRA:          -5.003
REMARK INTER:                  -4.674
REMARK INTRA:                  -0.329
REMARK UNBOUND:                -0.296
REMARK SMILES O=c1c(O)c(-c2ccc(O)c(O)c2)oc2cc(O)cc(O)c12
REMARK SMILES IDX 5 1 3 2 2 3 1 4 22 5 20 6 19 7 17 8 16 9 15 10 14 11 6 12
REMARK SMILES IDX 7 13 8 14 9 15 13 16 11 17 10 18 12 20 4 22 21 24 18 26
REMARK H PARENT 10 19 12 21 4 23 21 25 18 27
REMARK Flexibility Score: inf
ROOT
ATOM      1  C   UNL     1      62.011  48.973  13.444  1.00  0.00     0.180 A 
ATOM      2  C   UNL     1      61.911  47.887  12.557  1.00  0.00     0.208 A 
ATOM      3  C   UNL     1      61.084  48.003  11.428  1.00  0.00     0.238 A 
ATOM      4  O   UNL     1      60.958  47.008  10.667  1.00  0.00    -0.285 OA
ATOM      5  C   UNL     1      60.379  49.208  11.192  1.00  0.00     0.111 A 
ATOM      6  C   UNL     1      59.545  49.449  10.060  1.00  0.00     0.134 A 
ATOM      7  C   UNL     1      58.793  50.629   9.996  1.00  0.00     0.093 A 
ATOM      8  C   UNL     1      58.894  51.603  10.989  1.00  0.00     0.123 A 
ATOM      9  C   UNL     1      59.753  51.403  12.071  1.00  0.00     0.094 A 
ATOM     10  C   UNL     1      60.489  50.220  12.180  1.00  0.00     0.146 A 
ATOM     11  O   UNL     1      61.286  50.065  13.231  1.00  0.00    -0.452 OA
ENDROOT
BRANCH   1  12
ATOM     12  C   UNL     1      62.882  48.935  14.640  1.00  0.00     0.025 A 
ATOM     13  C   UNL     1      62.357  48.483  15.862  1.00  0.00     0.016 A 
ATOM     14  C   UNL     1      63.155  48.458  17.009  1.00  0.00     0.051 A 
ATOM     15  C   UNL     1      64.481  48.897  16.958  1.00  0.00     0.157 A 
ATOM     16  C   UNL     1      64.210  49.395  14.595  1.00  0.00     0.062 A 
ATOM     17  C   UNL     1      65.012  49.372  15.746  1.00  0.00     0.158 A 
BRANCH  15  18
ATOM     18  O   UNL     1      65.254  48.858  18.117  1.00  0.00    -0.504 OA
ATOM     19  H   UNL     1      66.255  48.701  18.093  1.00  0.00     0.293 HD
ENDBRANCH  15  18
BRANCH  17  20
ATOM     20  O   UNL     1      66.329  49.825  15.690  1.00  0.00    -0.504 OA
ATOM     21  H   UNL     1      66.713  50.432  16.405  1.00  0.00     0.293 HD
ENDBRANCH  17  20
ENDBRANCH   1  12
BRANCH   2  22
ATOM     22  O   UNL     1      62.600  46.698  12.820  1.00  0.00    -0.502 OA
ATOM     23  H   UNL     1      63.338  46.353  12.220  1.00  0.00     0.293 HD
ENDBRANCH   2  22
BRANCH   6  24
ATOM     24  O   UNL     1      59.440  48.583   8.968  1.00  0.00    -0.507 OA
ATOM     25  H   UNL     1      60.031  47.781   8.812  1.00  0.00     0.293 HD
ENDBRANCH   6  24
BRANCH   8  26
ATOM     26  O   UNL     1      58.144  52.772  10.885  1.00  0.00    -0.508 OA
ATOM     27  H   UNL     1      57.190  52.762  10.543  1.00  0.00     0.293 HD
ENDBRANCH   8  26
TORSDOF 6
ENDMDL
MODEL 6
REMARK VINA RESULT:    -3.898      1.709      2.084
REMARK INTER + INTRA:          -4.992
REMARK INTER:                  -4.701
REMARK INTRA:                  -0.291
REMARK UNBOUND:                -0.296
REMARK SMILES O=c1c(O)c(-c2ccc(O)c(O)c2)oc2cc(O)cc(O)c12
REMARK SMILES IDX 5 1 3 2 2 3 1 4 22 5 20 6 19 7 17 8 16 9 15 10 14 11 6 12
REMARK SMILES IDX 7 13 8 14 9 15 13 16 11 17 10 18 12 20 4 22 21 24 18 26
REMARK H PARENT 10 19 12 21 4 23 21 25 18 27
REMARK Flexibility Score: inf
ROOT
ATOM      1  C   UNL     1      63.469  48.810  14.844  1.00  0.00     0.180 A 
ATOM      2  C   UNL     1      64.731  48.191  14.814  1.00  0.00     0.208 A 
ATOM      3  C   UNL     1      65.392  47.930  16.025  1.00  0.00     0.238 A 
ATOM      4  O   UNL     1      66.545  47.426  15.988  1.00  0.00    -0.285 OA
ATOM      5  C   UNL     1      64.776  48.275  17.252  1.00  0.00     0.111 A 
ATOM      6  C   UNL     1      65.336  48.019  18.540  1.00  0.00     0.134 A 
ATOM      7  C   UNL     1      64.698  48.521  19.681  1.00  0.00     0.093 A 
ATOM      8  C   UNL     1      63.490  49.211  19.588  1.00  0.00     0.123 A 
ATOM      9  C   UNL     1      62.903  49.414  18.338  1.00  0.00     0.094 A 
ATOM     10  C   UNL     1      63.534  48.957  17.178  1.00  0.00     0.146 A 
ATOM     11  O   UNL     1      62.947  49.180  16.008  1.00  0.00    -0.452 OA
ENDROOT
BRANCH   1  12
ATOM     12  C   UNL     1      62.701  49.094  13.612  1.00  0.00     0.025 A 
ATOM     13  C   UNL     1      61.691  48.206  13.208  1.00  0.00     0.016 A 
ATOM     14  C   UNL     1      60.967  48.444  12.037  1.00  0.00     0.051 A 
ATOM     15  C   UNL     1      61.250  49.559  11.244  1.00  0.00     0.157 A 
ATOM     16  C   UNL     1      62.999  50.205  12.802  1.00  0.00     0.062 A 
ATOM     17  C   UNL     1      62.274  50.443  11.625  1.00  0.00     0.158 A 
BRANCH  15  18
ATOM     18  O   UNL     1      60.510  49.772  10.082  1.00  0.00    -0.504 OA
ATOM     19  H   UNL     1      60.761  50.483   9.406  1.00  0.00     0.293 HD
ENDBRANCH  15  18
BRANCH  17  20
ATOM     20  O   UNL     1      62.573  51.550  10.831  1.00  0.00    -0.504 OA
ATOM     21  H   UNL     1      63.255  52.242  11.120  1.00  0.00     0.293 HD
ENDBRANCH  17  20
ENDBRANCH   1  12
BRANCH   2  22
ATOM     22  O   UNL     1      65.332  47.879  13.590  1.00  0.00    -0.502 OA
ATOM     23  H   UNL     1      66.222  48.268  13.307  1.00  0.00     0.293 HD
ENDBRANCH   2  22
BRANCH   6  24
ATOM     24  O   UNL     1      66.491  47.261  18.752  1.00  0.00    -0.507 OA
ATOM     25  H   UNL     1      66.743  46.831  19.629  1.00  0.00     0.293 HD
ENDBRANCH   6  24
BRANCH   8  26
ATOM     26  O   UNL     1      62.876  49.682  20.746  1.00  0.00    -0.508 OA
ATOM     27  H   UNL     1      63.036  49.245  21.647  1.00  0.00     0.293 HD
ENDBRANCH   8  26
TORSDOF 6
ENDMDL
MODEL 7
REMARK VINA RESULT:    -3.880      2.501      7.341
REMARK INTER + INTRA:          -4.970
REMARK INTER:                  -4.647
REMARK INTRA:                  -0.323
REMARK UNBOUND:                -0.296
REMARK SMILES O=c1c(O)c(-c2ccc(O)c(O)c2)oc2cc(O)cc(O)c12
REMARK SMILES IDX 5 1 3 2 2 3 1 4 22 5 20 6 19 7 17 8 16 9 15 10 14 11 6 12
REMARK SMILES IDX 7 13 8 14 9 15 13 16 11 17 10 18 12 20 4 22 21 24 18 26
REMARK H PARENT 10 19 12 21 4 23 21 25 18 27
REMARK Flexibility Score: inf
ROOT
ATOM      1  C   UNL     1      61.822  49.032  13.928  1.00  0.00     0.180 A 
ATOM      2  C   UNL     1      60.797  48.832  14.869  1.00  0.00     0.208 A 
ATOM      3  C   UNL     1      59.495  49.256  14.560  1.00  0.00     0.238 A 
ATOM      4  O   UNL     1      58.594  49.123  15.428  1.00  0.00    -0.285 OA
ATOM      5  C   UNL     1      59.230  49.861  13.307  1.00  0.00     0.111 A 
ATOM      6  C   UNL     1      57.941  50.291  12.873  1.00  0.00     0.134 A 
ATOM      7  C   UNL     1      57.818  50.995  11.668  1.00  0.00     0.093 A 
ATOM      8  C   UNL     1      58.925  51.226  10.852  1.00  0.00     0.123 A 
ATOM      9  C   UNL     1      60.181  50.756  11.239  1.00  0.00     0.094 A 
ATOM     10  C   UNL     1      60.341  50.082  12.453  1.00  0.00     0.146 A 
ATOM     11  O   UNL     1      61.554  49.661  12.789  1.00  0.00    -0.452 OA
ENDROOT
BRANCH   1  12
ATOM     12  C   UNL     1      63.213  48.589  14.171  1.00  0.00     0.025 A 
ATOM     13  C   UNL     1      63.591  47.282  13.825  1.00  0.00     0.016 A 
ATOM     14  C   UNL     1      64.893  46.835  14.064  1.00  0.00     0.051 A 
ATOM     15  C   UNL     1      65.831  47.679  14.666  1.00  0.00     0.157 A 
ATOM     16  C   UNL     1      64.152  49.430  14.795  1.00  0.00     0.062 A 
ATOM     17  C   UNL     1      65.459  48.983  15.037  1.00  0.00     0.158 A 
BRANCH  15  18
ATOM     18  O   UNL     1      67.124  47.208  14.891  1.00  0.00    -0.504 OA
ATOM     19  H   UNL     1      67.476  47.025  15.823  1.00  0.00     0.293 HD
ENDBRANCH  15  18
BRANCH  17  20
ATOM     20  O   UNL     1      66.385  49.826  15.651  1.00  0.00    -0.504 OA
ATOM     21  H   UNL     1      67.264  50.062  15.206  1.00  0.00     0.293 HD
ENDBRANCH  17  20
ENDBRANCH   1  12
BRANCH   2  22
ATOM     22  O   UNL     1      61.085  48.252  16.109  1.00  0.00    -0.502 OA
ATOM     23  H   UNL     1      60.602  48.517  16.958  1.00  0.00     0.293 HD
ENDBRANCH   2  22
BRANCH   6  24
ATOM     24  O   UNL     1      56.755  50.032  13.568  1.00  0.00    -0.507 OA
ATOM     25  H   UNL     1      56.539  50.386  14.487  1.00  0.00     0.293 HD
ENDBRANCH   6  24
BRANCH   8  26
ATOM     26  O   UNL     1      58.763  51.916   9.653  1.00  0.00    -0.508 OA
ATOM     27  H   UNL     1      57.923  51.819   9.094  1.00  0.00     0.293 HD
ENDBRANCH   8  26
TORSDOF 6
ENDMDL
MODEL 8
REMARK VINA RESULT:    -3.845      1.617      7.149
REMARK INTER + INTRA:          -4.928
REMARK INTER:                  -4.630
REMARK INTRA:                  -0.298
REMARK UNBOUND:                -0.296
REMARK SMILES O=c1c(O)c(-c2ccc(O)c(O)c2)oc2cc(O)cc(O)c12
REMARK SMILES IDX 5 1 3 2 2 3 1 4 22 5 20 6 19 7 17 8 16 9 15 10 14 11 6 12
REMARK SMILES IDX 7 13 8 14 9 15 13 16 11 17 10 18 12 20 4 22 21 24 18 26
REMARK H PARENT 10 19 12 21 4 23 21 25 18 27
REMARK Flexibility Score: inf
ROOT
ATOM      1  C   UNL     1      62.717  48.464  15.502  1.00  0.00     0.180 A 
ATOM      2  C   UNL     1      61.352  48.507  15.831  1.00  0.00     0.208 A 
ATOM      3  C   UNL     1      60.452  49.104  14.934  1.00  0.00     0.238 A 
ATOM      4  O   UNL     1      59.239  49.187  15.260  1.00  0.00    -0.285 OA
ATOM      5  C   UNL     1      60.926  49.636  13.710  1.00  0.00     0.111 A 
ATOM      6  C   UNL     1      60.099  50.227  12.709  1.00  0.00     0.134 A 
ATOM      7  C   UNL     1      60.690  50.837  11.597  1.00  0.00     0.093 A 
ATOM      8  C   UNL     1      62.073  50.822  11.417  1.00  0.00     0.123 A 
ATOM      9  C   UNL     1      62.888  50.194  12.360  1.00  0.00     0.094 A 
ATOM     10  C   UNL     1      62.329  49.608  13.499  1.00  0.00     0.146 A 
ATOM     11  O   UNL     1      63.140  49.030  14.377  1.00  0.00    -0.452 OA
ENDROOT
BRANCH   1  12
ATOM     12  C   UNL     1      63.721  47.829  16.385  1.00  0.00     0.025 A 
ATOM     13  C   UNL     1      64.114  46.503  16.142  1.00  0.00     0.016 A 
ATOM     14  C   UNL     1      65.045  45.877  16.974  1.00  0.00     0.051 A 
ATOM     15  C   UNL     1      65.585  46.558  18.069  1.00  0.00     0.157 A 
ATOM     16  C   UNL     1      64.250  48.506  17.499  1.00  0.00     0.062 A 
ATOM     17  C   UNL     1      65.184  47.878  18.336  1.00  0.00     0.158 A 
BRANCH  15  18
ATOM     18  O   UNL     1      66.514  45.909  18.881  1.00  0.00    -0.504 OA
ATOM     19  H   UNL     1      67.507  46.099  18.824  1.00  0.00     0.293 HD
ENDBRANCH  15  18
BRANCH  17  20
ATOM     20  O   UNL     1      65.708  48.559  19.435  1.00  0.00    -0.504 OA
ATOM     21  H   UNL     1      65.504  49.537  19.599  1.00  0.00     0.293 HD
ENDBRANCH  17  20
ENDBRANCH   1  12
BRANCH   2  22
ATOM     22  O   UNL     1      60.907  47.995  17.055  1.00  0.00    -0.502 OA
ATOM     23  H   UNL     1      60.605  47.035  17.165  1.00  0.00     0.293 HD
ENDBRANCH   2  22
BRANCH   6  24
ATOM     24  O   UNL     1      58.701  50.216  12.745  1.00  0.00    -0.507 OA
ATOM     25  H   UNL     1      58.148  50.080  13.578  1.00  0.00     0.293 HD
ENDBRANCH   6  24
BRANCH   8  26
ATOM     26  O   UNL     1      62.627  51.426  10.290  1.00  0.00    -0.508 OA
ATOM     27  H   UNL     1      62.421  51.093   9.355  1.00  0.00     0.293 HD
ENDBRANCH   8  26
TORSDOF 6
ENDMDL
MODEL 9
REMARK VINA RESULT:    -2.917      2.645      7.666
REMARK INTER + INTRA:          -3.809
REMARK INTER:                  -3.492
REMARK INTRA:                  -0.318
REMARK UNBOUND:                -0.296
REMARK SMILES O=c1c(O)c(-c2ccc(O)c(O)c2)oc2cc(O)cc(O)c12
REMARK SMILES IDX 5 1 3 2 2 3 1 4 22 5 20 6 19 7 17 8 16 9 15 10 14 11 6 12
REMARK SMILES IDX 7 13 8 14 9 15 13 16 11 17 10 18 12 20 4 22 21 24 18 26
REMARK H PARENT 10 19 12 21 4 23 21 25 18 27
REMARK Flexibility Score: inf
ROOT
ATOM      1  C   UNL     1      62.809  48.953  12.270  1.00  0.00     0.180 A 
ATOM      2  C   UNL     1      61.501  48.510  12.535  1.00  0.00     0.208 A 
ATOM      3  C   UNL     1      60.483  48.798  11.612  1.00  0.00     0.238 A 
ATOM      4  O   UNL     1      59.305  48.446  11.882  1.00  0.00    -0.285 OA
ATOM      5  C   UNL     1      60.788  49.512  10.428  1.00  0.00     0.111 A 
ATOM      6  C   UNL     1      59.843  49.824   9.405  1.00  0.00     0.134 A 
ATOM      7  C   UNL     1      60.227  50.648   8.339  1.00  0.00     0.093 A 
ATOM      8  C   UNL     1      61.535  51.116   8.225  1.00  0.00     0.123 A 
ATOM      9  C   UNL     1      62.483  50.767   9.189  1.00  0.00     0.094 A 
ATOM     10  C   UNL     1      62.121  49.977  10.283  1.00  0.00     0.146 A 
ATOM     11  O   UNL     1      63.049  49.677  11.183  1.00  0.00    -0.452 OA
ENDROOT
BRANCH   1  12
ATOM     12  C   UNL     1      63.938  48.665  13.182  1.00  0.00     0.025 A 
ATOM     13  C   UNL     1      64.713  47.512  12.979  1.00  0.00     0.016 A 
ATOM     14  C   UNL     1      65.772  47.210  13.839  1.00  0.00     0.051 A 
ATOM     15  C   UNL     1      66.062  48.043  14.923  1.00  0.00     0.157 A 
ATOM     16  C   UNL     1      64.219  49.492  14.285  1.00  0.00     0.062 A 
ATOM     17  C   UNL     1      65.280  49.189  15.151  1.00  0.00     0.158 A 
BRANCH  15  18
ATOM     18  O   UNL     1      67.125  47.718  15.764  1.00  0.00    -0.504 OA
ATOM     19  H   UNL     1      67.071  46.959  16.432  1.00  0.00     0.293 HD
ENDBRANCH  15  18
BRANCH  17  20
ATOM     20  O   UNL     1      65.554  50.017  16.239  1.00  0.00    -0.504 OA
ATOM     21  H   UNL     1      64.819  50.519  16.722  1.00  0.00     0.293 HD
ENDBRANCH  17  20
ENDBRANCH   1  12
BRANCH   2  22
ATOM     22  O   UNL     1      61.218  47.825  13.721  1.00  0.00    -0.502 OA
ATOM     23  H   UNL     1      61.422  46.841  13.843  1.00  0.00     0.293 HD
ENDBRANCH   2  22
BRANCH   6  24
ATOM     24  O   UNL     1      58.534  49.333   9.374  1.00  0.00    -0.507 OA
ATOM     25  H   UNL     1      57.952  49.196  10.186  1.00  0.00     0.293 HD
ENDBRANCH   6  24
BRANCH   8  26
ATOM     26  O   UNL     1      61.886  51.920   7.143  1.00  0.00    -0.508 OA
ATOM     27  H   UNL     1      62.753  51.781   6.638  1.00  0.00     0.293 HD
ENDBRANCH   8  26
TORSDOF 6
ENDMDL
