MODEL 1
REMARK VINA RESULT:    -3.022      0.000      0.000
REMARK INTER + INTRA:          -3.826
REMARK INTER:                  -3.729
REMARK INTRA:                  -0.097
REMARK UNBOUND:                -0.097
REMARK SMILES CCCCCC(=O)[O-]
REMARK SMILES IDX 4 1 5 2 6 3 7 4 8 5 3 6 2 7 1 8
REMARK H PARENT
REMARK Flexibility Score: inf
ROOT
ATOM      1  C   UNL     1      11.561  -1.697 -26.577  1.00  0.00     0.006 C 
ENDROOT
BRANCH   1   2
ATOM      2  C   UNL     1      12.648  -0.644 -26.826  1.00  0.00     0.053 C 
BRANCH   2   3
ATOM      3  C   UNL     1      12.639  -0.162 -28.245  1.00  0.00     0.041 C 
ATOM      4  O   UNL     1      11.750   0.639 -28.637  1.00  0.00    -0.550 OA
ATOM      5  O   UNL     1      13.591  -0.627 -29.142  1.00  0.00    -0.550 OA
ENDBRANCH   2   3
ENDBRANCH   1   2
BRANCH   1   6
ATOM      6  C   UNL     1      11.708  -2.368 -25.200  1.00  0.00     0.000 C 
BRANCH   6   7
ATOM      7  C   UNL     1      13.035  -2.017 -24.512  1.00  0.00    -0.003 C 
ATOM      8  C   UNL     1      13.165  -2.645 -23.124  1.00  0.00     0.004 C 
ENDBRANCH   6   7
ENDBRANCH   1   6
TORSDOF 4
ENDMDL
MODEL 2
REMARK VINA RESULT:    -2.991     21.837     22.951
REMARK INTER + INTRA:          -3.788
REMARK INTER:                  -3.708
REMARK INTRA:                  -0.080
REMARK UNBOUND:                -0.097
REMARK SMILES CCCCCC(=O)[O-]
REMARK SMILES IDX 4 1 5 2 6 3 7 4 8 5 3 6 2 7 1 8
REMARK H PARENT
REMARK Flexibility Score: inf
ROOT
ATOM      1  C   UNL     1      -1.577 -12.985 -14.322  1.00  0.00     0.006 C 
ENDROOT
BRANCH   1   2
ATOM      2  C   UNL     1      -2.214 -14.374 -14.450  1.00  0.00     0.053 C 
BRANCH   2   3
ATOM      3  C   UNL     1      -2.200 -15.112 -13.146  1.00  0.00     0.041 C 
ATOM      4  O   UNL     1      -3.065 -14.862 -12.265  1.00  0.00    -0.550 OA
ATOM      5  O   UNL     1      -1.210 -16.053 -12.891  1.00  0.00    -0.550 OA
ENDBRANCH   2   3
ENDBRANCH   1   2
BRANCH   1   6
ATOM      6  C   UNL     1      -2.218 -11.963 -15.279  1.00  0.00     0.000 C 
BRANCH   6   7
ATOM      7  C   UNL     1      -1.423 -10.650 -15.357  1.00  0.00    -0.003 C 
ATOM      8  C   UNL     1      -0.529 -10.428 -14.137  1.00  0.00     0.004 C 
ENDBRANCH   6   7
ENDBRANCH   1   6
TORSDOF 4
ENDMDL
MODEL 3
REMARK VINA RESULT:    -2.981     12.676     14.241
REMARK INTER + INTRA:          -3.776
REMARK INTER:                  -3.640
REMARK INTRA:                  -0.136
REMARK UNBOUND:                -0.097
REMARK SMILES CCCCCC(=O)[O-]
REMARK SMILES IDX 4 1 5 2 6 3 7 4 8 5 3 6 2 7 1 8
REMARK H PARENT
REMARK Flexibility Score: inf
ROOT
ATOM      1  C   UNL     1      11.264 -12.527 -19.599  1.00  0.00     0.006 C 
ENDROOT
BRANCH   1   2
ATOM      2  C   UNL     1      12.145 -13.775 -19.453  1.00  0.00     0.053 C 
BRANCH   2   3
ATOM      3  C   UNL     1      12.843 -13.808 -18.128  1.00  0.00     0.041 C 
ATOM      4  O   UNL     1      12.260 -14.279 -17.115  1.00  0.00    -0.550 OA
ATOM      5  O   UNL     1      14.124 -13.288 -18.004  1.00  0.00    -0.550 OA
ENDBRANCH   2   3
ENDBRANCH   1   2
BRANCH   1   6
ATOM      6  C   UNL     1      11.473 -11.823 -20.951  1.00  0.00     0.000 C 
BRANCH   6   7
ATOM      7  C   UNL     1      12.823 -12.175 -21.596  1.00  0.00    -0.003 C 
ATOM      8  C   UNL     1      12.948 -11.651 -23.026  1.00  0.00     0.004 C 
ENDBRANCH   6   7
ENDBRANCH   1   6
TORSDOF 4
ENDMDL
MODEL 4
REMARK VINA RESULT:    -2.970     20.907     21.906
REMARK INTER + INTRA:          -3.762
REMARK INTER:                  -3.662
REMARK INTRA:                  -0.100
REMARK UNBOUND:                -0.097
REMARK SMILES CCCCCC(=O)[O-]
REMARK SMILES IDX 4 1 5 2 6 3 7 4 8 5 3 6 2 7 1 8
REMARK H PARENT
REMARK Flexibility Score: inf
ROOT
ATOM      1  C   UNL     1      -3.978 -10.301 -16.457  1.00  0.00     0.006 C 
ENDROOT
BRANCH   1   2
ATOM      2  C   UNL     1      -5.258 -11.142 -16.378  1.00  0.00     0.053 C 
BRANCH   2   3
ATOM      3  C   UNL     1      -5.294 -12.198 -17.441  1.00  0.00     0.041 C 
ATOM      4  O   UNL     1      -5.032 -11.902 -18.637  1.00  0.00    -0.550 OA
ATOM      5  O   UNL     1      -5.650 -13.499 -17.116  1.00  0.00    -0.550 OA
ENDBRANCH   2   3
ENDBRANCH   1   2
BRANCH   1   6
ATOM      6  C   UNL     1      -2.736 -11.090 -16.008  1.00  0.00     0.000 C 
BRANCH   6   7
ATOM      7  C   UNL     1      -1.666 -10.192 -15.368  1.00  0.00    -0.003 C 
ATOM      8  C   UNL     1      -0.848 -10.917 -14.300  1.00  0.00     0.004 C 
ENDBRANCH   6   7
ENDBRANCH   1   6
TORSDOF 4
ENDMDL
MODEL 5
REMARK VINA RESULT:    -2.969      4.738      6.285
REMARK INTER + INTRA:          -3.760
REMARK INTER:                  -3.616
REMARK INTRA:                  -0.144
REMARK UNBOUND:                -0.097
REMARK SMILES CCCCCC(=O)[O-]
REMARK SMILES IDX 4 1 5 2 6 3 7 4 8 5 3 6 2 7 1 8
REMARK H PARENT
REMARK Flexibility Score: inf
ROOT
ATOM      1  C   UNL     1      13.615  -5.326 -21.700  1.00  0.00     0.006 C 
ENDROOT
BRANCH   1   2
ATOM      2  C   UNL     1      13.110  -4.529 -22.909  1.00  0.00     0.053 C 
BRANCH   2   3
ATOM      3  C   UNL     1      13.024  -3.063 -22.610  1.00  0.00     0.041 C 
ATOM      4  O   UNL     1      13.832  -2.258 -23.143  1.00  0.00    -0.550 OA
ATOM      5  O   UNL     1      12.072  -2.592 -21.715  1.00  0.00    -0.550 OA
ENDBRANCH   2   3
ENDBRANCH   1   2
BRANCH   1   6
ATOM      6  C   UNL     1      12.526  -6.241 -21.112  1.00  0.00     0.000 C 
BRANCH   6   7
ATOM      7  C   UNL     1      12.298  -5.998 -19.612  1.00  0.00    -0.003 C 
ATOM      8  C   UNL     1      13.575  -5.587 -18.880  1.00  0.00     0.004 C 
ENDBRANCH   6   7
ENDBRANCH   1   6
TORSDOF 4
ENDMDL
MODEL 6
REMARK VINA RESULT:    -2.966      5.798      7.351
REMARK INTER + INTRA:          -3.757
REMARK INTER:                  -3.657
REMARK INTRA:                  -0.100
REMARK UNBOUND:                -0.097
REMARK SMILES CCCCCC(=O)[O-]
REMARK SMILES IDX 4 1 5 2 6 3 7 4 8 5 3 6 2 7 1 8
REMARK H PARENT
REMARK Flexibility Score: inf
ROOT
ATOM      1  C   UNL     1      12.798  -4.576 -22.448  1.00  0.00     0.006 C 
ENDROOT
BRANCH   1   2
ATOM      2  C   UNL     1      13.780  -5.309 -21.526  1.00  0.00     0.053 C 
BRANCH   2   3
ATOM      3  C   UNL     1      13.221  -5.481 -20.146  1.00  0.00     0.041 C 
ATOM      4  O   UNL     1      13.991  -5.517 -19.150  1.00  0.00    -0.550 OA
ATOM      5  O   UNL     1      11.853  -5.635 -19.965  1.00  0.00    -0.550 OA
ENDBRANCH   2   3
ENDBRANCH   1   2
BRANCH   1   6
ATOM      6  C   UNL     1      12.907  -3.047 -22.316  1.00  0.00     0.000 C 
BRANCH   6   7
ATOM      7  C   UNL     1      13.713  -2.412 -23.458  1.00  0.00    -0.003 C 
ATOM      8  C   UNL     1      12.844  -2.040 -24.659  1.00  0.00     0.004 C 
ENDBRANCH   6   7
ENDBRANCH   1   6
TORSDOF 4
ENDMDL
MODEL 7
REMARK VINA RESULT:    -2.954     15.357     16.398
REMARK INTER + INTRA:          -3.742
REMARK INTER:                  -3.640
REMARK INTRA:                  -0.102
REMARK UNBOUND:                -0.097
REMARK SMILES CCCCCC(=O)[O-]
REMARK SMILES IDX 4 1 5 2 6 3 7 4 8 5 3 6 2 7 1 8
REMARK H PARENT
REMARK Flexibility Score: inf
ROOT
ATOM      1  C   UNL     1      -3.712  -3.959 -26.814  1.00  0.00     0.006 C 
ENDROOT
BRANCH   1   2
ATOM      2  C   UNL     1      -4.977  -3.096 -26.905  1.00  0.00     0.053 C 
BRANCH   2   3
ATOM      3  C   UNL     1      -4.932  -1.945 -25.946  1.00  0.00     0.041 C 
ATOM      4  O   UNL     1      -5.149  -0.773 -26.351  1.00  0.00    -0.550 OA
ATOM      5  O   UNL     1      -4.618  -2.165 -24.611  1.00  0.00    -0.550 OA
ENDBRANCH   2   3
ENDBRANCH   1   2
BRANCH   1   6
ATOM      6  C   UNL     1      -2.446  -3.176 -27.203  1.00  0.00     0.000 C 
BRANCH   6   7
ATOM      7  C   UNL     1      -1.279  -4.097 -27.591  1.00  0.00    -0.003 C 
ATOM      8  C   UNL     1      -0.222  -3.387 -28.436  1.00  0.00     0.004 C 
ENDBRANCH   6   7
ENDBRANCH   1   6
TORSDOF 4
ENDMDL
MODEL 8
REMARK VINA RESULT:    -2.934      5.113      6.426
REMARK INTER + INTRA:          -3.718
REMARK INTER:                  -3.625
REMARK INTRA:                  -0.093
REMARK UNBOUND:                -0.097
REMARK SMILES CCCCCC(=O)[O-]
REMARK SMILES IDX 4 1 5 2 6 3 7 4 8 5 3 6 2 7 1 8
REMARK H PARENT
REMARK Flexibility Score: inf
ROOT
ATOM      1  C   UNL     1      10.926  -2.723 -20.405  1.00  0.00     0.006 C 
ENDROOT
BRANCH   1   2
ATOM      2  C   UNL     1      11.290  -2.450 -21.870  1.00  0.00     0.053 C 
BRANCH   2   3
ATOM      3  C   UNL     1      12.638  -3.004 -22.218  1.00  0.00     0.041 C 
ATOM      4  O   UNL     1      13.430  -2.340 -22.938  1.00  0.00    -0.550 OA
ATOM      5  O   UNL     1      13.004  -4.268 -21.776  1.00  0.00    -0.550 OA
ENDBRANCH   2   3
ENDBRANCH   1   2
BRANCH   1   6
ATOM      6  C   UNL     1      11.208  -1.509 -19.502  1.00  0.00     0.000 C 
BRANCH   6   7
ATOM      7  C   UNL     1      10.158  -0.399 -19.662  1.00  0.00    -0.003 C 
ATOM      8  C   UNL     1      10.554   0.896 -18.953  1.00  0.00     0.004 C 
ENDBRANCH   6   7
ENDBRANCH   1   6
TORSDOF 4
ENDMDL
MODEL 9
REMARK VINA RESULT:    -2.889     20.459     21.370
REMARK INTER + INTRA:          -3.662
REMARK INTER:                  -3.575
REMARK INTRA:                  -0.088
REMARK UNBOUND:                -0.097
REMARK SMILES CCCCCC(=O)[O-]
REMARK SMILES IDX 4 1 5 2 6 3 7 4 8 5 3 6 2 7 1 8
REMARK H PARENT
REMARK Flexibility Score: inf
ROOT
ATOM      1  C   UNL     1      -2.763 -10.427 -16.317  1.00  0.00     0.006 C 
ENDROOT
BRANCH   1   2
ATOM      2  C   UNL     1      -4.127  -9.750 -16.506  1.00  0.00     0.053 C 
BRANCH   2   3
ATOM      3  C   UNL     1      -5.158 -10.713 -17.012  1.00  0.00     0.041 C 
ATOM      4  O   UNL     1      -5.766 -11.470 -16.209  1.00  0.00    -0.550 OA
ATOM      5  O   UNL     1      -5.422 -10.797 -18.372  1.00  0.00    -0.550 OA
ENDBRANCH   2   3
ENDBRANCH   1   2
BRANCH   1   6
ATOM      6  C   UNL     1      -1.764  -9.523 -15.573  1.00  0.00     0.000 C 
BRANCH   6   7
ATOM      7  C   UNL     1      -0.948 -10.287 -14.521  1.00  0.00    -0.003 C 
ATOM      8  C   UNL     1      -1.203 -11.794 -14.555  1.00  0.00     0.004 C 
ENDBRANCH   6   7
ENDBRANCH   1   6
TORSDOF 4
ENDMDL
