MODEL 1
REMARK VINA RESULT:    -5.177      0.000      0.000
REMARK INTER + INTRA:          -9.837
REMARK INTER:                  -9.111
REMARK INTRA:                  -0.726
REMARK UNBOUND:                -0.726
REMARK SMILES CCCCCCCCCCCCCCC(=O)[O-]
REMARK SMILES IDX 9 1 10 2 11 3 12 4 13 5 14 6 15 7 16 8 17 9 8 10 7 11 6 12
REMARK SMILES IDX 5 13 4 14 3 15 2 16 1 17
REMARK H PARENT
REMARK Flexibility Score: inf
ROOT
ATOM      1  C   UNL     1     -24.110  46.174  86.871  1.00  0.00     0.000 C 
ENDROOT
BRANCH   1   2
ATOM      2  C   UNL     1     -25.624  46.459  86.804  1.00  0.00     0.000 C 
BRANCH   2   3
ATOM      3  C   UNL     1     -26.338  46.531  88.168  1.00  0.00     0.000 C 
BRANCH   3   4
ATOM      4  C   UNL     1     -26.059  45.345  89.109  1.00  0.00     0.000 C 
BRANCH   4   5
ATOM      5  C   UNL     1     -27.040  45.279  90.292  1.00  0.00     0.006 C 
BRANCH   5   6
ATOM      6  C   UNL     1     -27.064  43.891  90.945  1.00  0.00     0.053 C 
BRANCH   6   7
ATOM      7  C   UNL     1     -28.219  43.071  90.458  1.00  0.00     0.041 C 
ATOM      8  O   UNL     1     -29.132  42.723  91.253  1.00  0.00    -0.550 OA
ATOM      9  O   UNL     1     -28.269  42.659  89.132  1.00  0.00    -0.550 OA
ENDBRANCH   6   7
ENDBRANCH   5   6
ENDBRANCH   4   5
ENDBRANCH   3   4
ENDBRANCH   2   3
ENDBRANCH   1   2
BRANCH   1  10
ATOM     10  C   UNL     1     -23.257  46.952  85.853  1.00  0.00     0.000 C 
BRANCH  10  11
ATOM     11  C   UNL     1     -22.090  46.124  85.295  1.00  0.00    -0.000 C 
BRANCH  11  12
ATOM     12  C   UNL     1     -21.112  45.733  86.413  1.00  0.00    -0.000 C 
BRANCH  12  13
ATOM     13  C   UNL     1     -20.772  44.232  86.410  1.00  0.00    -0.000 C 
BRANCH  13  14
ATOM     14  C   UNL     1     -19.744  43.796  85.345  1.00  0.00    -0.000 C 
BRANCH  14  15
ATOM     15  C   UNL     1     -18.396  44.539  85.398  1.00  0.00    -0.000 C 
BRANCH  15  16
ATOM     16  C   UNL     1     -18.027  45.197  84.060  1.00  0.00    -0.003 C 
ATOM     17  C   UNL     1     -17.987  46.717  84.189  1.00  0.00     0.004 C 
ENDBRANCH  15  16
ENDBRANCH  14  15
ENDBRANCH  13  14
ENDBRANCH  12  13
ENDBRANCH  11  12
ENDBRANCH  10  11
ENDBRANCH   1  10
TORSDOF 13
ENDMDL
MODEL 2
REMARK VINA RESULT:    -5.132      1.179      1.788
REMARK INTER + INTRA:          -9.758
REMARK INTER:                  -8.996
REMARK INTRA:                  -0.761
REMARK UNBOUND:                -0.726
REMARK SMILES CCCCCCCCCCCCCCC(=O)[O-]
REMARK SMILES IDX 9 1 10 2 11 3 12 4 13 5 14 6 15 7 16 8 17 9 8 10 7 11 6 12
REMARK SMILES IDX 5 13 4 14 3 15 2 16 1 17
REMARK H PARENT
REMARK Flexibility Score: inf
ROOT
ATOM      1  C   UNL     1     -23.354  45.705  87.074  1.00  0.00     0.000 C 
ENDROOT
BRANCH   1   2
ATOM      2  C   UNL     1     -24.581  46.576  86.737  1.00  0.00     0.000 C 
BRANCH   2   3
ATOM      3  C   UNL     1     -25.941  45.986  87.163  1.00  0.00     0.000 C 
BRANCH   3   4
ATOM      4  C   UNL     1     -26.222  46.035  88.675  1.00  0.00     0.000 C 
BRANCH   4   5
ATOM      5  C   UNL     1     -26.311  44.637  89.311  1.00  0.00     0.006 C 
BRANCH   5   6
ATOM      6  C   UNL     1     -27.221  44.620  90.547  1.00  0.00     0.053 C 
BRANCH   6   7
ATOM      7  C   UNL     1     -27.985  43.337  90.653  1.00  0.00     0.041 C 
ATOM      8  O   UNL     1     -28.115  42.765  91.767  1.00  0.00    -0.550 OA
ATOM      9  O   UNL     1     -28.525  42.752  89.514  1.00  0.00    -0.550 OA
ENDBRANCH   6   7
ENDBRANCH   5   6
ENDBRANCH   4   5
ENDBRANCH   3   4
ENDBRANCH   2   3
ENDBRANCH   1   2
BRANCH   1  10
ATOM     10  C   UNL     1     -22.120  45.952  86.187  1.00  0.00     0.000 C 
BRANCH  10  11
ATOM     11  C   UNL     1     -20.954  45.007  86.512  1.00  0.00    -0.000 C 
BRANCH  11  12
ATOM     12  C   UNL     1     -20.470  44.279  85.250  1.00  0.00    -0.000 C 
BRANCH  12  13
ATOM     13  C   UNL     1     -18.937  44.167  85.174  1.00  0.00    -0.000 C 
BRANCH  13  14
ATOM     14  C   UNL     1     -18.261  45.114  84.162  1.00  0.00    -0.000 C 
BRANCH  14  15
ATOM     15  C   UNL     1     -19.010  46.434  83.902  1.00  0.00    -0.000 C 
BRANCH  15  16
ATOM     16  C   UNL     1     -19.550  46.539  82.468  1.00  0.00    -0.003 C 
ATOM     17  C   UNL     1     -21.076  46.539  82.456  1.00  0.00     0.004 C 
ENDBRANCH  15  16
ENDBRANCH  14  15
ENDBRANCH  13  14
ENDBRANCH  12  13
ENDBRANCH  11  12
ENDBRANCH  10  11
ENDBRANCH   1  10
TORSDOF 13
ENDMDL
MODEL 3
REMARK VINA RESULT:    -5.079      5.232      6.913
REMARK INTER + INTRA:          -9.665
REMARK INTER:                  -8.538
REMARK INTRA:                  -1.126
REMARK UNBOUND:                -0.726
REMARK SMILES CCCCCCCCCCCCCCC(=O)[O-]
REMARK SMILES IDX 9 1 10 2 11 3 12 4 13 5 14 6 15 7 16 8 17 9 8 10 7 11 6 12
REMARK SMILES IDX 5 13 4 14 3 15 2 16 1 17
REMARK H PARENT
REMARK Flexibility Score: inf
ROOT
ATOM      1  C   UNL     1     -20.018  41.536  86.724  1.00  0.00     0.000 C 
ENDROOT
BRANCH   1   2
ATOM      2  C   UNL     1     -21.351  40.824  87.035  1.00  0.00     0.000 C 
BRANCH   2   3
ATOM      3  C   UNL     1     -21.340  39.296  86.833  1.00  0.00     0.000 C 
BRANCH   3   4
ATOM      4  C   UNL     1     -20.413  38.522  87.786  1.00  0.00     0.000 C 
BRANCH   4   5
ATOM      5  C   UNL     1     -20.599  38.927  89.258  1.00  0.00     0.006 C 
BRANCH   5   6
ATOM      6  C   UNL     1     -19.422  38.479  90.135  1.00  0.00     0.053 C 
BRANCH   6   7
ATOM      7  C   UNL     1     -18.652  39.648  90.666  1.00  0.00     0.041 C 
ATOM      8  O   UNL     1     -17.687  39.468  91.456  1.00  0.00    -0.550 OA
ATOM      9  O   UNL     1     -19.022  40.941  90.317  1.00  0.00    -0.550 OA
ENDBRANCH   6   7
ENDBRANCH   5   6
ENDBRANCH   4   5
ENDBRANCH   3   4
ENDBRANCH   2   3
ENDBRANCH   1   2
BRANCH   1  10
ATOM     10  C   UNL     1     -20.160  42.920  86.067  1.00  0.00     0.000 C 
BRANCH  10  11
ATOM     11  C   UNL     1     -20.722  43.981  87.026  1.00  0.00    -0.000 C 
BRANCH  11  12
ATOM     12  C   UNL     1     -21.442  45.094  86.251  1.00  0.00    -0.000 C 
BRANCH  12  13
ATOM     13  C   UNL     1     -20.938  45.236  84.803  1.00  0.00    -0.000 C 
BRANCH  13  14
ATOM     14  C   UNL     1     -20.222  46.565  84.487  1.00  0.00    -0.000 C 
BRANCH  14  15
ATOM     15  C   UNL     1     -18.936  46.430  83.651  1.00  0.00    -0.000 C 
BRANCH  15  16
ATOM     16  C   UNL     1     -18.221  45.089  83.872  1.00  0.00    -0.003 C 
ATOM     17  C   UNL     1     -17.223  45.182  85.022  1.00  0.00     0.004 C 
ENDBRANCH  15  16
ENDBRANCH  14  15
ENDBRANCH  13  14
ENDBRANCH  12  13
ENDBRANCH  11  12
ENDBRANCH  10  11
ENDBRANCH   1  10
TORSDOF 13
ENDMDL
MODEL 4
REMARK VINA RESULT:    -5.062      6.781      9.488
REMARK INTER + INTRA:          -9.635
REMARK INTER:                  -8.173
REMARK INTRA:                  -1.462
REMARK UNBOUND:                -0.726
REMARK SMILES CCCCCCCCCCCCCCC(=O)[O-]
REMARK SMILES IDX 9 1 10 2 11 3 12 4 13 5 14 6 15 7 16 8 17 9 8 10 7 11 6 12
REMARK SMILES IDX 5 13 4 14 3 15 2 16 1 17
REMARK H PARENT
REMARK Flexibility Score: inf
ROOT
ATOM      1  C   UNL     1     -19.676  38.510  89.274  1.00  0.00     0.000 C 
ENDROOT
BRANCH   1   2
ATOM      2  C   UNL     1     -20.245  37.720  88.078  1.00  0.00     0.000 C 
BRANCH   2   3
ATOM      3  C   UNL     1     -21.087  38.548  87.086  1.00  0.00     0.000 C 
BRANCH   3   4
ATOM      4  C   UNL     1     -20.576  38.537  85.635  1.00  0.00     0.000 C 
BRANCH   4   5
ATOM      5  C   UNL     1     -19.304  37.690  85.457  1.00  0.00     0.006 C 
BRANCH   5   6
ATOM      6  C   UNL     1     -19.055  37.322  83.988  1.00  0.00     0.053 C 
BRANCH   6   7
ATOM      7  C   UNL     1     -17.670  36.790  83.779  1.00  0.00     0.041 C 
ATOM      8  O   UNL     1     -16.787  37.509  83.243  1.00  0.00    -0.550 OA
ATOM      9  O   UNL     1     -17.365  35.485  84.145  1.00  0.00    -0.550 OA
ENDBRANCH   6   7
ENDBRANCH   5   6
ENDBRANCH   4   5
ENDBRANCH   3   4
ENDBRANCH   2   3
ENDBRANCH   1   2
BRANCH   1  10
ATOM     10  C   UNL     1     -20.734  39.129  90.205  1.00  0.00     0.000 C 
BRANCH  10  11
ATOM     11  C   UNL     1     -20.433  40.594  90.558  1.00  0.00    -0.000 C 
BRANCH  11  12
ATOM     12  C   UNL     1     -20.154  41.417  89.292  1.00  0.00    -0.000 C 
BRANCH  12  13
ATOM     13  C   UNL     1     -21.437  41.968  88.643  1.00  0.00    -0.000 C 
BRANCH  13  14
ATOM     14  C   UNL     1     -21.371  42.148  87.112  1.00  0.00    -0.000 C 
BRANCH  14  15
ATOM     15  C   UNL     1     -19.952  42.130  86.514  1.00  0.00    -0.000 C 
BRANCH  15  16
ATOM     16  C   UNL     1     -19.684  43.323  85.585  1.00  0.00    -0.003 C 
ATOM     17  C   UNL     1     -20.659  44.464  85.862  1.00  0.00     0.004 C 
ENDBRANCH  15  16
ENDBRANCH  14  15
ENDBRANCH  13  14
ENDBRANCH  12  13
ENDBRANCH  11  12
ENDBRANCH  10  11
ENDBRANCH   1  10
TORSDOF 13
ENDMDL
MODEL 5
REMARK VINA RESULT:    -5.054      1.159      1.944
REMARK INTER + INTRA:          -9.621
REMARK INTER:                  -8.782
REMARK INTRA:                  -0.839
REMARK UNBOUND:                -0.726
REMARK SMILES CCCCCCCCCCCCCCC(=O)[O-]
REMARK SMILES IDX 9 1 10 2 11 3 12 4 13 5 14 6 15 7 16 8 17 9 8 10 7 11 6 12
REMARK SMILES IDX 5 13 4 14 3 15 2 16 1 17
REMARK H PARENT
REMARK Flexibility Score: inf
ROOT
ATOM      1  C   UNL     1     -24.678  46.389  86.886  1.00  0.00     0.000 C 
ENDROOT
BRANCH   1   2
ATOM      2  C   UNL     1     -25.906  45.843  87.641  1.00  0.00     0.000 C 
BRANCH   2   3
ATOM      3  C   UNL     1     -26.472  46.775  88.731  1.00  0.00     0.000 C 
BRANCH   3   4
ATOM      4  C   UNL     1     -26.747  46.097  90.085  1.00  0.00     0.000 C 
BRANCH   4   5
ATOM      5  C   UNL     1     -26.010  44.756  90.241  1.00  0.00     0.006 C 
BRANCH   5   6
ATOM      6  C   UNL     1     -26.753  43.793  91.176  1.00  0.00     0.053 C 
BRANCH   6   7
ATOM      7  C   UNL     1     -27.898  43.122  90.483  1.00  0.00     0.041 C 
ATOM      8  O   UNL     1     -27.829  42.854  89.255  1.00  0.00    -0.550 OA
ATOM      9  O   UNL     1     -29.059  42.825  91.187  1.00  0.00    -0.550 OA
ENDBRANCH   6   7
ENDBRANCH   5   6
ENDBRANCH   4   5
ENDBRANCH   3   4
ENDBRANCH   2   3
ENDBRANCH   1   2
BRANCH   1  10
ATOM     10  C   UNL     1     -23.351  45.677  87.207  1.00  0.00     0.000 C 
BRANCH  10  11
ATOM     11  C   UNL     1     -22.135  46.369  86.571  1.00  0.00    -0.000 C 
BRANCH  11  12
ATOM     12  C   UNL     1     -21.637  45.586  85.348  1.00  0.00    -0.000 C 
BRANCH  12  13
ATOM     13  C   UNL     1     -21.646  46.425  84.057  1.00  0.00    -0.000 C 
BRANCH  13  14
ATOM     14  C   UNL     1     -20.685  45.938  82.953  1.00  0.00    -0.000 C 
BRANCH  14  15
ATOM     15  C   UNL     1     -19.525  46.897  82.630  1.00  0.00    -0.000 C 
BRANCH  15  16
ATOM     16  C   UNL     1     -18.491  46.982  83.761  1.00  0.00    -0.003 C 
ATOM     17  C   UNL     1     -17.945  45.600  84.111  1.00  0.00     0.004 C 
ENDBRANCH  15  16
ENDBRANCH  14  15
ENDBRANCH  13  14
ENDBRANCH  12  13
ENDBRANCH  11  12
ENDBRANCH  10  11
ENDBRANCH   1  10
TORSDOF 13
ENDMDL
MODEL 6
REMARK VINA RESULT:    -4.993      6.551      8.959
REMARK INTER + INTRA:          -9.515
REMARK INTER:                  -8.776
REMARK INTRA:                  -0.739
REMARK UNBOUND:                -0.726
REMARK SMILES CCCCCCCCCCCCCCC(=O)[O-]
REMARK SMILES IDX 9 1 10 2 11 3 12 4 13 5 14 6 15 7 16 8 17 9 8 10 7 11 6 12
REMARK SMILES IDX 5 13 4 14 3 15 2 16 1 17
REMARK H PARENT
REMARK Flexibility Score: inf
ROOT
ATOM      1  C   UNL     1     -20.035  40.906  86.762  1.00  0.00     0.000 C 
ENDROOT
BRANCH   1   2
ATOM      2  C   UNL     1     -20.455  39.745  87.687  1.00  0.00     0.000 C 
BRANCH   2   3
ATOM      3  C   UNL     1     -20.566  38.368  87.002  1.00  0.00     0.000 C 
BRANCH   3   4
ATOM      4  C   UNL     1     -20.212  38.359  85.504  1.00  0.00     0.000 C 
BRANCH   4   5
ATOM      5  C   UNL     1     -19.080  37.375  85.165  1.00  0.00     0.006 C 
BRANCH   5   6
ATOM      6  C   UNL     1     -18.765  37.351  83.664  1.00  0.00     0.053 C 
BRANCH   6   7
ATOM      7  C   UNL     1     -17.452  36.685  83.385  1.00  0.00     0.041 C 
ATOM      8  O   UNL     1     -16.417  37.375  83.196  1.00  0.00    -0.550 OA
ATOM      9  O   UNL     1     -17.381  35.300  83.298  1.00  0.00    -0.550 OA
ENDBRANCH   6   7
ENDBRANCH   5   6
ENDBRANCH   4   5
ENDBRANCH   3   4
ENDBRANCH   2   3
ENDBRANCH   1   2
BRANCH   1  10
ATOM     10  C   UNL     1     -20.431  42.307  87.261  1.00  0.00     0.000 C 
BRANCH  10  11
ATOM     11  C   UNL     1     -20.401  43.366  86.148  1.00  0.00    -0.000 C 
BRANCH  11  12
ATOM     12  C   UNL     1     -21.346  44.532  86.475  1.00  0.00    -0.000 C 
BRANCH  12  13
ATOM     13  C   UNL     1     -21.297  45.654  85.422  1.00  0.00    -0.000 C 
BRANCH  13  14
ATOM     14  C   UNL     1     -20.327  45.407  84.248  1.00  0.00    -0.000 C 
BRANCH  14  15
ATOM     15  C   UNL     1     -19.563  46.652  83.761  1.00  0.00    -0.000 C 
BRANCH  15  16
ATOM     16  C   UNL     1     -18.102  46.675  84.231  1.00  0.00    -0.003 C 
ATOM     17  C   UNL     1     -17.601  45.266  84.535  1.00  0.00     0.004 C 
ENDBRANCH  15  16
ENDBRANCH  14  15
ENDBRANCH  13  14
ENDBRANCH  12  13
ENDBRANCH  11  12
ENDBRANCH  10  11
ENDBRANCH   1  10
TORSDOF 13
ENDMDL
MODEL 7
REMARK VINA RESULT:    -4.962      1.338      2.674
REMARK INTER + INTRA:          -9.459
REMARK INTER:                  -8.034
REMARK INTRA:                  -1.425
REMARK UNBOUND:                -0.726
REMARK SMILES CCCCCCCCCCCCCCC(=O)[O-]
REMARK SMILES IDX 9 1 10 2 11 3 12 4 13 5 14 6 15 7 16 8 17 9 8 10 7 11 6 12
REMARK SMILES IDX 5 13 4 14 3 15 2 16 1 17
REMARK H PARENT
REMARK Flexibility Score: inf
ROOT
ATOM      1  C   UNL     1     -23.791  46.144  86.979  1.00  0.00     0.000 C 
ENDROOT
BRANCH   1   2
ATOM      2  C   UNL     1     -25.287  46.386  86.693  1.00  0.00     0.000 C 
BRANCH   2   3
ATOM      3  C   UNL     1     -26.262  45.618  87.607  1.00  0.00     0.000 C 
BRANCH   3   4
ATOM      4  C   UNL     1     -25.937  45.691  89.109  1.00  0.00     0.000 C 
BRANCH   4   5
ATOM      5  C   UNL     1     -26.043  44.326  89.810  1.00  0.00     0.006 C 
BRANCH   5   6
ATOM      6  C   UNL     1     -27.242  44.257  90.764  1.00  0.00     0.053 C 
BRANCH   6   7
ATOM      7  C   UNL     1     -28.209  43.187  90.360  1.00  0.00     0.041 C 
ATOM      8  O   UNL     1     -28.988  42.680  91.210  1.00  0.00    -0.550 OA
ATOM      9  O   UNL     1     -28.225  42.723  89.050  1.00  0.00    -0.550 OA
ENDBRANCH   6   7
ENDBRANCH   5   6
ENDBRANCH   4   5
ENDBRANCH   3   4
ENDBRANCH   2   3
ENDBRANCH   1   2
BRANCH   1  10
ATOM     10  C   UNL     1     -22.828  46.727  85.929  1.00  0.00     0.000 C 
BRANCH  10  11
ATOM     11  C   UNL     1     -21.393  46.198  86.078  1.00  0.00    -0.000 C 
BRANCH  11  12
ATOM     12  C   UNL     1     -20.996  45.344  84.865  1.00  0.00    -0.000 C 
BRANCH  12  13
ATOM     13  C   UNL     1     -20.422  43.972  85.264  1.00  0.00    -0.000 C 
BRANCH  13  14
ATOM     14  C   UNL     1     -20.392  43.691  86.781  1.00  0.00    -0.000 C 
BRANCH  14  15
ATOM     15  C   UNL     1     -21.175  42.443  87.228  1.00  0.00    -0.000 C 
BRANCH  15  16
ATOM     16  C   UNL     1     -22.544  42.785  87.832  1.00  0.00    -0.003 C 
ATOM     17  C   UNL     1     -22.390  43.563  89.136  1.00  0.00     0.004 C 
ENDBRANCH  15  16
ENDBRANCH  14  15
ENDBRANCH  13  14
ENDBRANCH  12  13
ENDBRANCH  11  12
ENDBRANCH  10  11
ENDBRANCH   1  10
TORSDOF 13
ENDMDL
MODEL 8
REMARK VINA RESULT:    -4.933      1.929      2.993
REMARK INTER + INTRA:          -9.408
REMARK INTER:                  -8.904
REMARK INTRA:                  -0.504
REMARK UNBOUND:                -0.726
REMARK SMILES CCCCCCCCCCCCCCC(=O)[O-]
REMARK SMILES IDX 9 1 10 2 11 3 12 4 13 5 14 6 15 7 16 8 17 9 8 10 7 11 6 12
REMARK SMILES IDX 5 13 4 14 3 15 2 16 1 17
REMARK H PARENT
REMARK Flexibility Score: inf
ROOT
ATOM      1  C   UNL     1     -21.848  43.471  88.003  1.00  0.00     0.000 C 
ENDROOT
BRANCH   1   2
ATOM      2  C   UNL     1     -22.879  43.357  89.145  1.00  0.00     0.000 C 
BRANCH   2   3
ATOM      3  C   UNL     1     -24.044  44.364  89.079  1.00  0.00     0.000 C 
BRANCH   3   4
ATOM      4  C   UNL     1     -25.224  44.052  90.016  1.00  0.00     0.000 C 
BRANCH   4   5
ATOM      5  C   UNL     1     -26.547  44.671  89.535  1.00  0.00     0.006 C 
BRANCH   5   6
ATOM      6  C   UNL     1     -27.687  44.453  90.539  1.00  0.00     0.053 C 
BRANCH   6   7
ATOM      7  C   UNL     1     -28.443  43.192  90.252  1.00  0.00     0.041 C 
ATOM      8  O   UNL     1     -28.380  42.658  89.114  1.00  0.00    -0.550 OA
ATOM      9  O   UNL     1     -29.245  42.625  91.234  1.00  0.00    -0.550 OA
ENDBRANCH   6   7
ENDBRANCH   5   6
ENDBRANCH   4   5
ENDBRANCH   3   4
ENDBRANCH   2   3
ENDBRANCH   1   2
BRANCH   1  10
ATOM     10  C   UNL     1     -21.481  42.138  87.325  1.00  0.00     0.000 C 
BRANCH  10  11
ATOM     11  C   UNL     1     -20.273  42.261  86.385  1.00  0.00    -0.000 C 
BRANCH  11  12
ATOM     12  C   UNL     1     -20.284  43.609  85.651  1.00  0.00    -0.000 C 
BRANCH  12  13
ATOM     13  C   UNL     1     -18.871  44.173  85.416  1.00  0.00    -0.000 C 
BRANCH  13  14
ATOM     14  C   UNL     1     -18.657  44.852  84.047  1.00  0.00    -0.000 C 
BRANCH  14  15
ATOM     15  C   UNL     1     -19.238  46.273  83.926  1.00  0.00    -0.000 C 
BRANCH  15  16
ATOM     16  C   UNL     1     -19.736  46.592  82.509  1.00  0.00    -0.003 C 
ATOM     17  C   UNL     1     -21.256  46.483  82.425  1.00  0.00     0.004 C 
ENDBRANCH  15  16
ENDBRANCH  14  15
ENDBRANCH  13  14
ENDBRANCH  12  13
ENDBRANCH  11  12
ENDBRANCH  10  11
ENDBRANCH   1  10
TORSDOF 13
ENDMDL
