MODEL 1
REMARK VINA RESULT:    -3.829      0.000      0.000
REMARK INTER + INTRA:          -8.841
REMARK INTER:                  -6.739
REMARK INTRA:                  -2.102
REMARK UNBOUND:                -2.102
REMARK SMILES CCCCCCCCCCCCCCC(=O)[O-]
REMARK SMILES IDX 9 1 10 2 11 3 12 4 13 5 14 6 15 7 16 8 17 9 8 10 7 11 6 12
REMARK SMILES IDX 5 13 4 14 3 15 2 16 1 17
REMARK H PARENT
REMARK Flexibility Score: inf
ROOT
ATOM      1  C   UNL     1      -6.345  -0.614   9.113  1.00  0.00     0.000 C 
ENDROOT
BRANCH   1   2
ATOM      2  C   UNL     1      -7.765  -0.161   8.726  1.00  0.00     0.000 C 
BRANCH   2   3
ATOM      3  C   UNL     1      -8.827  -1.279   8.694  1.00  0.00     0.000 C 
BRANCH   3   4
ATOM      4  C   UNL     1      -8.591  -2.436   9.682  1.00  0.00     0.000 C 
BRANCH   4   5
ATOM      5  C   UNL     1      -8.272  -3.766   8.976  1.00  0.00     0.006 C 
BRANCH   5   6
ATOM      6  C   UNL     1      -8.342  -3.640   7.448  1.00  0.00     0.053 C 
BRANCH   6   7
ATOM      7  C   UNL     1      -7.364  -4.548   6.769  1.00  0.00     0.041 C 
ATOM      8  O   UNL     1      -7.421  -5.793   6.951  1.00  0.00    -0.550 OA
ATOM      9  O   UNL     1      -6.370  -4.017   5.956  1.00  0.00    -0.550 OA
ENDBRANCH   6   7
ENDBRANCH   5   6
ENDBRANCH   4   5
ENDBRANCH   3   4
ENDBRANCH   2   3
ENDBRANCH   1   2
BRANCH   1  10
ATOM     10  C   UNL     1      -5.471  -0.946   7.892  1.00  0.00     0.000 C 
BRANCH  10  11
ATOM     11  C   UNL     1      -4.477  -2.085   8.170  1.00  0.00    -0.000 C 
BRANCH  11  12
ATOM     12  C   UNL     1      -4.811  -2.862   9.457  1.00  0.00    -0.000 C 
BRANCH  12  13
ATOM     13  C   UNL     1      -4.568  -4.374   9.316  1.00  0.00    -0.000 C 
BRANCH  13  14
ATOM     14  C   UNL     1      -3.629  -4.714   8.146  1.00  0.00    -0.000 C 
BRANCH  14  15
ATOM     15  C   UNL     1      -2.212  -5.080   8.614  1.00  0.00    -0.000 C 
BRANCH  15  16
ATOM     16  C   UNL     1      -1.256  -3.877   8.607  1.00  0.00    -0.003 C 
ATOM     17  C   UNL     1      -1.082  -3.306  10.011  1.00  0.00     0.004 C 
ENDBRANCH  15  16
ENDBRANCH  14  15
ENDBRANCH  13  14
ENDBRANCH  12  13
ENDBRANCH  11  12
ENDBRANCH  10  11
ENDBRANCH   1  10
TORSDOF 13
ENDMDL
MODEL 2
REMARK VINA RESULT:    -3.815      2.198      5.671
REMARK INTER + INTRA:          -8.817
REMARK INTER:                  -6.979
REMARK INTRA:                  -1.838
REMARK UNBOUND:                -2.102
REMARK SMILES CCCCCCCCCCCCCCC(=O)[O-]
REMARK SMILES IDX 9 1 10 2 11 3 12 4 13 5 14 6 15 7 16 8 17 9 8 10 7 11 6 12
REMARK SMILES IDX 5 13 4 14 3 15 2 16 1 17
REMARK H PARENT
REMARK Flexibility Score: inf
ROOT
ATOM      1  C   UNL     1      -6.949  -4.248   6.347  1.00  0.00     0.000 C 
ENDROOT
BRANCH   1   2
ATOM      2  C   UNL     1      -7.429  -5.240   7.423  1.00  0.00     0.000 C 
BRANCH   2   3
ATOM      3  C   UNL     1      -6.648  -5.199   8.753  1.00  0.00     0.000 C 
BRANCH   3   4
ATOM      4  C   UNL     1      -5.930  -3.870   9.051  1.00  0.00     0.000 C 
BRANCH   4   5
ATOM      5  C   UNL     1      -4.488  -4.071   9.548  1.00  0.00     0.006 C 
BRANCH   5   6
ATOM      6  C   UNL     1      -3.600  -4.739   8.491  1.00  0.00     0.053 C 
BRANCH   6   7
ATOM      7  C   UNL     1      -3.145  -3.765   7.448  1.00  0.00     0.041 C 
ATOM      8  O   UNL     1      -2.396  -2.802   7.762  1.00  0.00    -0.550 OA
ATOM      9  O   UNL     1      -3.573  -3.902   6.133  1.00  0.00    -0.550 OA
ENDBRANCH   6   7
ENDBRANCH   5   6
ENDBRANCH   4   5
ENDBRANCH   3   4
ENDBRANCH   2   3
ENDBRANCH   1   2
BRANCH   1  10
ATOM     10  C   UNL     1      -7.853  -4.234   5.102  1.00  0.00     0.000 C 
BRANCH  10  11
ATOM     11  C   UNL     1      -8.315  -2.817   4.726  1.00  0.00    -0.000 C 
BRANCH  11  12
ATOM     12  C   UNL     1      -9.345  -2.246   5.717  1.00  0.00    -0.000 C 
BRANCH  12  13
ATOM     13  C   UNL     1      -8.738  -1.193   6.659  1.00  0.00    -0.000 C 
BRANCH  13  14
ATOM     14  C   UNL     1      -8.723  -1.652   8.127  1.00  0.00    -0.000 C 
BRANCH  14  15
ATOM     15  C   UNL     1      -9.741  -2.770   8.406  1.00  0.00    -0.000 C 
BRANCH  15  16
ATOM     16  C   UNL     1      -9.690  -3.268   9.859  1.00  0.00    -0.003 C 
ATOM     17  C   UNL     1      -9.661  -2.098  10.839  1.00  0.00     0.004 C 
ENDBRANCH  15  16
ENDBRANCH  14  15
ENDBRANCH  13  14
ENDBRANCH  12  13
ENDBRANCH  11  12
ENDBRANCH  10  11
ENDBRANCH   1  10
TORSDOF 13
ENDMDL
MODEL 3
REMARK VINA RESULT:    -3.794     11.306     14.899
REMARK INTER + INTRA:          -8.780
REMARK INTER:                  -6.959
REMARK INTRA:                  -1.822
REMARK UNBOUND:                -2.102
REMARK SMILES CCCCCCCCCCCCCCC(=O)[O-]
REMARK SMILES IDX 9 1 10 2 11 3 12 4 13 5 14 6 15 7 16 8 17 9 8 10 7 11 6 12
REMARK SMILES IDX 5 13 4 14 3 15 2 16 1 17
REMARK H PARENT
REMARK Flexibility Score: inf
ROOT
ATOM      1  C   UNL     1       7.496   0.106   9.613  1.00  0.00     0.000 C 
ENDROOT
BRANCH   1   2
ATOM      2  C   UNL     1       8.827   0.867   9.466  1.00  0.00     0.000 C 
BRANCH   2   3
ATOM      3  C   UNL     1       8.913   2.199  10.240  1.00  0.00     0.000 C 
BRANCH   3   4
ATOM      4  C   UNL     1       9.490   3.384   9.445  1.00  0.00     0.000 C 
BRANCH   4   5
ATOM      5  C   UNL     1       8.411   4.164   8.672  1.00  0.00     0.006 C 
BRANCH   5   6
ATOM      6  C   UNL     1       8.523   3.954   7.156  1.00  0.00     0.053 C 
BRANCH   6   7
ATOM      7  C   UNL     1       7.601   4.860   6.398  1.00  0.00     0.041 C 
ATOM      8  O   UNL     1       7.435   6.052   6.770  1.00  0.00    -0.550 OA
ATOM      9  O   UNL     1       6.902   4.378   5.298  1.00  0.00    -0.550 OA
ENDBRANCH   6   7
ENDBRANCH   5   6
ENDBRANCH   4   5
ENDBRANCH   3   4
ENDBRANCH   2   3
ENDBRANCH   1   2
BRANCH   1  10
ATOM     10  C   UNL     1       6.268   1.003   9.383  1.00  0.00     0.000 C 
BRANCH  10  11
ATOM     11  C   UNL     1       6.090   1.392   7.906  1.00  0.00    -0.000 C 
BRANCH  11  12
ATOM     12  C   UNL     1       5.021   2.481   7.704  1.00  0.00    -0.000 C 
BRANCH  12  13
ATOM     13  C   UNL     1       4.844   3.374   8.943  1.00  0.00    -0.000 C 
BRANCH  13  14
ATOM     14  C   UNL     1       4.631   4.853   8.579  1.00  0.00    -0.000 C 
BRANCH  14  15
ATOM     15  C   UNL     1       3.286   5.398   9.084  1.00  0.00    -0.000 C 
BRANCH  15  16
ATOM     16  C   UNL     1       2.213   5.438   7.986  1.00  0.00    -0.003 C 
ATOM     17  C   UNL     1       1.317   4.204   8.048  1.00  0.00     0.004 C 
ENDBRANCH  15  16
ENDBRANCH  14  15
ENDBRANCH  13  14
ENDBRANCH  12  13
ENDBRANCH  11  12
ENDBRANCH  10  11
ENDBRANCH   1  10
TORSDOF 13
ENDMDL
MODEL 4
REMARK VINA RESULT:    -3.770      1.732      2.694
REMARK INTER + INTRA:          -8.738
REMARK INTER:                  -7.223
REMARK INTRA:                  -1.515
REMARK UNBOUND:                -2.102
REMARK SMILES CCCCCCCCCCCCCCC(=O)[O-]
REMARK SMILES IDX 9 1 10 2 11 3 12 4 13 5 14 6 15 7 16 8 17 9 8 10 7 11 6 12
REMARK SMILES IDX 5 13 4 14 3 15 2 16 1 17
REMARK H PARENT
REMARK Flexibility Score: inf
ROOT
ATOM      1  C   UNL     1      -6.638  -4.791   8.832  1.00  0.00     0.000 C 
ENDROOT
BRANCH   1   2
ATOM      2  C   UNL     1      -7.207  -3.376   9.044  1.00  0.00     0.000 C 
BRANCH   2   3
ATOM      3  C   UNL     1      -8.726  -3.309   9.308  1.00  0.00     0.000 C 
BRANCH   3   4
ATOM      4  C   UNL     1      -9.593  -3.003   8.074  1.00  0.00     0.000 C 
BRANCH   4   5
ATOM      5  C   UNL     1      -8.770  -2.486   6.880  1.00  0.00     0.006 C 
BRANCH   5   6
ATOM      6  C   UNL     1      -8.959  -3.355   5.630  1.00  0.00     0.053 C 
BRANCH   6   7
ATOM      7  C   UNL     1      -7.829  -4.320   5.444  1.00  0.00     0.041 C 
ATOM      8  O   UNL     1      -8.006  -5.551   5.642  1.00  0.00    -0.550 OA
ATOM      9  O   UNL     1      -6.570  -3.856   5.082  1.00  0.00    -0.550 OA
ENDBRANCH   6   7
ENDBRANCH   5   6
ENDBRANCH   4   5
ENDBRANCH   3   4
ENDBRANCH   2   3
ENDBRANCH   1   2
BRANCH   1  10
ATOM     10  C   UNL     1      -5.102  -4.833   8.900  1.00  0.00     0.000 C 
BRANCH  10  11
ATOM     11  C   UNL     1      -4.441  -3.877   7.895  1.00  0.00    -0.000 C 
BRANCH  11  12
ATOM     12  C   UNL     1      -2.950  -4.189   7.670  1.00  0.00    -0.000 C 
BRANCH  12  13
ATOM     13  C   UNL     1      -2.256  -4.707   8.940  1.00  0.00    -0.000 C 
BRANCH  13  14
ATOM     14  C   UNL     1      -1.678  -3.572   9.801  1.00  0.00    -0.000 C 
BRANCH  14  15
ATOM     15  C   UNL     1      -2.555  -3.253  11.023  1.00  0.00    -0.000 C 
BRANCH  15  16
ATOM     16  C   UNL     1      -3.151  -1.838  10.970  1.00  0.00    -0.003 C 
ATOM     17  C   UNL     1      -2.692  -1.095   9.718  1.00  0.00     0.004 C 
ENDBRANCH  15  16
ENDBRANCH  14  15
ENDBRANCH  13  14
ENDBRANCH  12  13
ENDBRANCH  11  12
ENDBRANCH  10  11
ENDBRANCH   1  10
TORSDOF 13
ENDMDL
MODEL 5
REMARK VINA RESULT:    -3.757      1.536      3.357
REMARK INTER + INTRA:          -8.714
REMARK INTER:                  -6.544
REMARK INTRA:                  -2.170
REMARK UNBOUND:                -2.102
REMARK SMILES CCCCCCCCCCCCCCC(=O)[O-]
REMARK SMILES IDX 9 1 10 2 11 3 12 4 13 5 14 6 15 7 16 8 17 9 8 10 7 11 6 12
REMARK SMILES IDX 5 13 4 14 3 15 2 16 1 17
REMARK H PARENT
REMARK Flexibility Score: inf
ROOT
ATOM      1  C   UNL     1      -5.658  -4.795   8.322  1.00  0.00     0.000 C 
ENDROOT
BRANCH   1   2
ATOM      2  C   UNL     1      -7.125  -4.891   8.782  1.00  0.00     0.000 C 
BRANCH   2   3
ATOM      3  C   UNL     1      -7.795  -3.546   9.131  1.00  0.00     0.000 C 
BRANCH   3   4
ATOM      4  C   UNL     1      -8.989  -3.158   8.241  1.00  0.00     0.000 C 
BRANCH   4   5
ATOM      5  C   UNL     1      -8.557  -2.531   6.903  1.00  0.00     0.006 C 
BRANCH   5   6
ATOM      6  C   UNL     1      -8.924  -3.416   5.705  1.00  0.00     0.053 C 
BRANCH   6   7
ATOM      7  C   UNL     1      -7.818  -4.362   5.351  1.00  0.00     0.041 C 
ATOM      8  O   UNL     1      -8.025  -5.604   5.338  1.00  0.00    -0.550 OA
ATOM      9  O   UNL     1      -6.549  -3.873   5.063  1.00  0.00    -0.550 OA
ENDBRANCH   6   7
ENDBRANCH   5   6
ENDBRANCH   4   5
ENDBRANCH   3   4
ENDBRANCH   2   3
ENDBRANCH   1   2
BRANCH   1  10
ATOM     10  C   UNL     1      -4.661  -4.833   9.493  1.00  0.00     0.000 C 
BRANCH  10  11
ATOM     11  C   UNL     1      -3.268  -4.316   9.098  1.00  0.00    -0.000 C 
BRANCH  11  12
ATOM     12  C   UNL     1      -3.128  -4.088   7.582  1.00  0.00    -0.000 C 
BRANCH  12  13
ATOM     13  C   UNL     1      -2.344  -2.809   7.246  1.00  0.00    -0.000 C 
BRANCH  13  14
ATOM     14  C   UNL     1      -3.100  -1.531   7.646  1.00  0.00    -0.000 C 
BRANCH  14  15
ATOM     15  C   UNL     1      -4.532  -1.493   7.089  1.00  0.00    -0.000 C 
BRANCH  15  16
ATOM     16  C   UNL     1      -5.529  -0.847   8.062  1.00  0.00    -0.003 C 
ATOM     17  C   UNL     1      -5.118  -1.092   9.512  1.00  0.00     0.004 C 
ENDBRANCH  15  16
ENDBRANCH  14  15
ENDBRANCH  13  14
ENDBRANCH  12  13
ENDBRANCH  11  12
ENDBRANCH  10  11
ENDBRANCH   1  10
TORSDOF 13
ENDMDL
MODEL 6
REMARK VINA RESULT:    -3.751      2.396      4.647
REMARK INTER + INTRA:          -8.703
REMARK INTER:                  -7.077
REMARK INTRA:                  -1.627
REMARK UNBOUND:                -2.102
REMARK SMILES CCCCCCCCCCCCCCC(=O)[O-]
REMARK SMILES IDX 9 1 10 2 11 3 12 4 13 5 14 6 15 7 16 8 17 9 8 10 7 11 6 12
REMARK SMILES IDX 5 13 4 14 3 15 2 16 1 17
REMARK H PARENT
REMARK Flexibility Score: inf
ROOT
ATOM      1  C   UNL     1      -1.110  -3.694   8.609  1.00  0.00     0.000 C 
ENDROOT
BRANCH   1   2
ATOM      2  C   UNL     1      -2.001  -4.936   8.799  1.00  0.00     0.000 C 
BRANCH   2   3
ATOM      3  C   UNL     1      -3.415  -4.831   8.189  1.00  0.00     0.000 C 
BRANCH   3   4
ATOM      4  C   UNL     1      -4.569  -4.822   9.207  1.00  0.00     0.000 C 
BRANCH   4   5
ATOM      5  C   UNL     1      -5.487  -3.596   9.057  1.00  0.00     0.006 C 
BRANCH   5   6
ATOM      6  C   UNL     1      -6.211  -3.579   7.705  1.00  0.00     0.053 C 
BRANCH   6   7
ATOM      7  C   UNL     1      -7.379  -4.517   7.685  1.00  0.00     0.041 C 
ATOM      8  O   UNL     1      -8.456  -4.202   8.257  1.00  0.00    -0.550 OA
ATOM      9  O   UNL     1      -7.268  -5.753   7.059  1.00  0.00    -0.550 OA
ENDBRANCH   6   7
ENDBRANCH   5   6
ENDBRANCH   4   5
ENDBRANCH   3   4
ENDBRANCH   2   3
ENDBRANCH   1   2
BRANCH   1  10
ATOM     10  C   UNL     1      -0.745  -3.013   9.940  1.00  0.00     0.000 C 
BRANCH  10  11
ATOM     11  C   UNL     1      -1.588  -1.757  10.210  1.00  0.00    -0.000 C 
BRANCH  11  12
ATOM     12  C   UNL     1      -2.822  -2.047  11.084  1.00  0.00    -0.000 C 
BRANCH  12  13
ATOM     13  C   UNL     1      -2.583  -3.189  12.084  1.00  0.00    -0.000 C 
BRANCH  13  14
ATOM     14  C   UNL     1      -2.603  -2.708  13.545  1.00  0.00    -0.000 C 
BRANCH  14  15
ATOM     15  C   UNL     1      -1.210  -2.731  14.193  1.00  0.00    -0.000 C 
BRANCH  15  16
ATOM     16  C   UNL     1      -0.295  -3.810  13.594  1.00  0.00    -0.003 C 
ATOM     17  C   UNL     1      -0.043  -4.935  14.595  1.00  0.00     0.004 C 
ENDBRANCH  15  16
ENDBRANCH  14  15
ENDBRANCH  13  14
ENDBRANCH  12  13
ENDBRANCH  11  12
ENDBRANCH  10  11
ENDBRANCH   1  10
TORSDOF 13
ENDMDL
MODEL 7
REMARK VINA RESULT:    -3.725     12.344     14.636
REMARK INTER + INTRA:          -8.658
REMARK INTER:                  -7.145
REMARK INTRA:                  -1.513
REMARK UNBOUND:                -2.102
REMARK SMILES CCCCCCCCCCCCCCC(=O)[O-]
REMARK SMILES IDX 9 1 10 2 11 3 12 4 13 5 14 6 15 7 16 8 17 9 8 10 7 11 6 12
REMARK SMILES IDX 5 13 4 14 3 15 2 16 1 17
REMARK H PARENT
REMARK Flexibility Score: inf
ROOT
ATOM      1  C   UNL     1       3.067   4.955   7.243  1.00  0.00     0.000 C 
ENDROOT
BRANCH   1   2
ATOM      2  C   UNL     1       3.074   3.516   6.692  1.00  0.00     0.000 C 
BRANCH   2   3
ATOM      3  C   UNL     1       3.816   3.328   5.352  1.00  0.00     0.000 C 
BRANCH   3   4
ATOM      4  C   UNL     1       5.215   2.696   5.461  1.00  0.00     0.000 C 
BRANCH   4   5
ATOM      5  C   UNL     1       6.239   3.351   4.517  1.00  0.00     0.006 C 
BRANCH   5   6
ATOM      6  C   UNL     1       7.564   3.660   5.226  1.00  0.00     0.053 C 
BRANCH   6   7
ATOM      7  C   UNL     1       7.929   5.108   5.122  1.00  0.00     0.041 C 
ATOM      8  O   UNL     1       7.576   5.918   6.019  1.00  0.00    -0.550 OA
ATOM      9  O   UNL     1       8.635   5.570   4.017  1.00  0.00    -0.550 OA
ENDBRANCH   6   7
ENDBRANCH   5   6
ENDBRANCH   4   5
ENDBRANCH   3   4
ENDBRANCH   2   3
ENDBRANCH   1   2
BRANCH   1  10
ATOM     10  C   UNL     1       3.732   5.067   8.626  1.00  0.00     0.000 C 
BRANCH  10  11
ATOM     11  C   UNL     1       5.258   4.898   8.561  1.00  0.00    -0.000 C 
BRANCH  11  12
ATOM     12  C   UNL     1       5.731   3.551   9.137  1.00  0.00    -0.000 C 
BRANCH  12  13
ATOM     13  C   UNL     1       7.135   3.158   8.649  1.00  0.00    -0.000 C 
BRANCH  13  14
ATOM     14  C   UNL     1       8.192   4.229   8.969  1.00  0.00    -0.000 C 
BRANCH  14  15
ATOM     15  C   UNL     1       9.548   3.621   9.362  1.00  0.00    -0.000 C 
BRANCH  15  16
ATOM     16  C   UNL     1       9.405   2.278  10.094  1.00  0.00    -0.003 C 
ATOM     17  C   UNL     1       9.609   2.448  11.598  1.00  0.00     0.004 C 
ENDBRANCH  15  16
ENDBRANCH  14  15
ENDBRANCH  13  14
ENDBRANCH  12  13
ENDBRANCH  11  12
ENDBRANCH  10  11
ENDBRANCH   1  10
TORSDOF 13
ENDMDL
MODEL 8
REMARK VINA RESULT:    -3.691      1.758      5.251
REMARK INTER + INTRA:          -8.598
REMARK INTER:                  -6.477
REMARK INTRA:                  -2.121
REMARK UNBOUND:                -2.102
REMARK SMILES CCCCCCCCCCCCCCC(=O)[O-]
REMARK SMILES IDX 9 1 10 2 11 3 12 4 13 5 14 6 15 7 16 8 17 9 8 10 7 11 6 12
REMARK SMILES IDX 5 13 4 14 3 15 2 16 1 17
REMARK H PARENT
REMARK Flexibility Score: inf
ROOT
ATOM      1  C   UNL     1      -7.625  -4.178   7.930  1.00  0.00     0.000 C 
ENDROOT
BRANCH   1   2
ATOM      2  C   UNL     1      -6.304  -4.923   8.204  1.00  0.00     0.000 C 
BRANCH   2   3
ATOM      3  C   UNL     1      -5.317  -4.192   9.136  1.00  0.00     0.000 C 
BRANCH   3   4
ATOM      4  C   UNL     1      -3.989  -4.927   9.392  1.00  0.00     0.000 C 
BRANCH   4   5
ATOM      5  C   UNL     1      -2.992  -4.779   8.229  1.00  0.00     0.006 C 
BRANCH   5   6
ATOM      6  C   UNL     1      -2.682  -3.309   7.918  1.00  0.00     0.053 C 
BRANCH   6   7
ATOM      7  C   UNL     1      -3.066  -2.942   6.518  1.00  0.00     0.041 C 
ATOM      8  O   UNL     1      -2.681  -1.851   6.020  1.00  0.00    -0.550 OA
ATOM      9  O   UNL     1      -3.874  -3.791   5.772  1.00  0.00    -0.550 OA
ENDBRANCH   6   7
ENDBRANCH   5   6
ENDBRANCH   4   5
ENDBRANCH   3   4
ENDBRANCH   2   3
ENDBRANCH   1   2
BRANCH   1  10
ATOM     10  C   UNL     1      -8.270  -3.619   9.210  1.00  0.00     0.000 C 
BRANCH  10  11
ATOM     11  C   UNL     1      -9.400  -2.620   8.912  1.00  0.00    -0.000 C 
BRANCH  11  12
ATOM     12  C   UNL     1      -9.188  -1.261   9.604  1.00  0.00    -0.000 C 
BRANCH  12  13
ATOM     13  C   UNL     1      -7.707  -0.971   9.896  1.00  0.00    -0.000 C 
BRANCH  13  14
ATOM     14  C   UNL     1      -7.067  -0.049   8.844  1.00  0.00    -0.000 C 
BRANCH  14  15
ATOM     15  C   UNL     1      -5.867  -0.701   8.139  1.00  0.00    -0.000 C 
BRANCH  15  16
ATOM     16  C   UNL     1      -6.170  -1.081   6.682  1.00  0.00    -0.003 C 
ATOM     17  C   UNL     1      -7.474  -0.444   6.208  1.00  0.00     0.004 C 
ENDBRANCH  15  16
ENDBRANCH  14  15
ENDBRANCH  13  14
ENDBRANCH  12  13
ENDBRANCH  11  12
ENDBRANCH  10  11
ENDBRANCH   1  10
TORSDOF 13
ENDMDL
MODEL 9
REMARK VINA RESULT:    -3.664      2.405      5.146
REMARK INTER + INTRA:          -8.552
REMARK INTER:                  -6.695
REMARK INTRA:                  -1.857
REMARK UNBOUND:                -2.102
REMARK SMILES CCCCCCCCCCCCCCC(=O)[O-]
REMARK SMILES IDX 9 1 10 2 11 3 12 4 13 5 14 6 15 7 16 8 17 9 8 10 7 11 6 12
REMARK SMILES IDX 5 13 4 14 3 15 2 16 1 17
REMARK H PARENT
REMARK Flexibility Score: inf
ROOT
ATOM      1  C   UNL     1      -8.495  -1.159   9.191  1.00  0.00     0.000 C 
ENDROOT
BRANCH   1   2
ATOM      2  C   UNL     1      -9.055  -2.537   8.792  1.00  0.00     0.000 C 
BRANCH   2   3
ATOM      3  C   UNL     1      -8.133  -3.736   9.098  1.00  0.00     0.000 C 
BRANCH   3   4
ATOM      4  C   UNL     1      -6.635  -3.495   8.840  1.00  0.00     0.000 C 
BRANCH   4   5
ATOM      5  C   UNL     1      -5.833  -4.803   8.725  1.00  0.00     0.006 C 
BRANCH   5   6
ATOM      6  C   UNL     1      -4.451  -4.692   9.382  1.00  0.00     0.053 C 
BRANCH   6   7
ATOM      7  C   UNL     1      -3.345  -4.765   8.374  1.00  0.00     0.041 C 
ATOM      8  O   UNL     1      -2.194  -5.141   8.721  1.00  0.00    -0.550 OA
ATOM      9  O   UNL     1      -3.579  -4.390   7.057  1.00  0.00    -0.550 OA
ENDBRANCH   6   7
ENDBRANCH   5   6
ENDBRANCH   4   5
ENDBRANCH   3   4
ENDBRANCH   2   3
ENDBRANCH   1   2
BRANCH   1  10
ATOM     10  C   UNL     1      -8.640  -0.110   8.074  1.00  0.00     0.000 C 
BRANCH  10  11
ATOM     11  C   UNL     1      -8.175  -0.637   6.707  1.00  0.00    -0.000 C 
BRANCH  11  12
ATOM     12  C   UNL     1      -9.009  -0.076   5.540  1.00  0.00    -0.000 C 
BRANCH  12  13
ATOM     13  C   UNL     1      -9.436  -1.164   4.541  1.00  0.00    -0.000 C 
BRANCH  13  14
ATOM     14  C   UNL     1      -9.600  -2.542   5.203  1.00  0.00    -0.000 C 
BRANCH  14  15
ATOM     15  C   UNL     1      -8.766  -3.632   4.513  1.00  0.00    -0.000 C 
BRANCH  15  16
ATOM     16  C   UNL     1      -7.593  -4.117   5.377  1.00  0.00    -0.003 C 
ATOM     17  C   UNL     1      -6.318  -3.341   5.056  1.00  0.00     0.004 C 
ENDBRANCH  15  16
ENDBRANCH  14  15
ENDBRANCH  13  14
ENDBRANCH  12  13
ENDBRANCH  11  12
ENDBRANCH  10  11
ENDBRANCH   1  10
TORSDOF 13
ENDMDL
