MODEL 1
REMARK VINA RESULT:    -3.968      0.000      0.000
REMARK INTER + INTRA:          -4.463
REMARK INTER:                  -4.432
REMARK INTRA:                  -0.032
REMARK UNBOUND:                -0.032
REMARK SMILES CCCC(=O)[O-]
REMARK SMILES IDX 3 1 4 2 5 3 6 4 2 5 1 6
REMARK H PARENT
REMARK Flexibility Score: inf
ROOT
ATOM      1  C   UNL     1      18.382  -7.481  21.046  1.00  0.00     0.052 C 
ENDROOT
BRANCH   1   2
ATOM      2  C   UNL     1      18.779  -7.988  22.396  1.00  0.00     0.041 C 
ATOM      3  O   UNL     1      17.902  -8.197  23.276  1.00  0.00    -0.550 OA
ATOM      4  O   UNL     1      20.109  -8.276  22.668  1.00  0.00    -0.550 OA
ENDBRANCH   1   2
BRANCH   1   5
ATOM      5  C   UNL     1      18.966  -6.087  20.804  1.00  0.00     0.003 C 
ATOM      6  C   UNL     1      18.637  -5.145  21.958  1.00  0.00     0.004 C 
ENDBRANCH   1   5
TORSDOF 2
ENDMDL
MODEL 2
REMARK VINA RESULT:    -3.751      1.465      1.833
REMARK INTER + INTRA:          -4.221
REMARK INTER:                  -4.163
REMARK INTRA:                  -0.058
REMARK UNBOUND:                -0.032
REMARK SMILES CCCC(=O)[O-]
REMARK SMILES IDX 3 1 4 2 5 3 6 4 2 5 1 6
REMARK H PARENT
REMARK Flexibility Score: inf
ROOT
ATOM      1  C   UNL     1      18.249  -7.531  22.667  1.00  0.00     0.052 C 
ENDROOT
BRANCH   1   2
ATOM      2  C   UNL     1      19.413  -7.061  23.480  1.00  0.00     0.041 C 
ATOM      3  O   UNL     1      19.340  -5.981  24.125  1.00  0.00    -0.550 OA
ATOM      4  O   UNL     1      20.560  -7.839  23.567  1.00  0.00    -0.550 OA
ENDBRANCH   1   2
BRANCH   1   5
ATOM      5  C   UNL     1      18.641  -7.658  21.193  1.00  0.00     0.003 C 
ATOM      6  C   UNL     1      18.626  -6.298  20.500  1.00  0.00     0.004 C 
ENDBRANCH   1   5
TORSDOF 2
ENDMDL
MODEL 3
REMARK VINA RESULT:    -3.740      1.017      2.016
REMARK INTER + INTRA:          -4.209
REMARK INTER:                  -4.138
REMARK INTRA:                  -0.071
REMARK UNBOUND:                -0.032
REMARK SMILES CCCC(=O)[O-]
REMARK SMILES IDX 3 1 4 2 5 3 6 4 2 5 1 6
REMARK H PARENT
REMARK Flexibility Score: inf
ROOT
ATOM      1  C   UNL     1      19.231  -6.063  23.421  1.00  0.00     0.052 C 
ENDROOT
BRANCH   1   2
ATOM      2  C   UNL     1      19.073  -7.544  23.279  1.00  0.00     0.041 C 
ATOM      3  O   UNL     1      20.088  -8.291  23.271  1.00  0.00    -0.550 OA
ATOM      4  O   UNL     1      17.805  -8.104  23.204  1.00  0.00    -0.550 OA
ENDBRANCH   1   2
BRANCH   1   5
ATOM      5  C   UNL     1      18.615  -5.340  22.221  1.00  0.00     0.003 C 
ATOM      6  C   UNL     1      19.370  -5.665  20.935  1.00  0.00     0.004 C 
ENDBRANCH   1   5
TORSDOF 2
ENDMDL
MODEL 4
REMARK VINA RESULT:    -3.649      2.219      2.935
REMARK INTER + INTRA:          -4.107
REMARK INTER:                  -4.090
REMARK INTRA:                  -0.017
REMARK UNBOUND:                -0.032
REMARK SMILES CCCC(=O)[O-]
REMARK SMILES IDX 3 1 4 2 5 3 6 4 2 5 1 6
REMARK H PARENT
REMARK Flexibility Score: inf
ROOT
ATOM      1  C   UNL     1      18.450  -7.460  21.382  1.00  0.00     0.052 C 
ENDROOT
BRANCH   1   2
ATOM      2  C   UNL     1      18.784  -6.018  21.172  1.00  0.00     0.041 C 
ATOM      3  O   UNL     1      18.664  -5.195  22.119  1.00  0.00    -0.550 OA
ATOM      4  O   UNL     1      19.277  -5.589  19.947  1.00  0.00    -0.550 OA
ENDBRANCH   1   2
BRANCH   1   5
ATOM      5  C   UNL     1      18.908  -7.921  22.768  1.00  0.00     0.003 C 
ATOM      6  C   UNL     1      17.719  -8.116  23.705  1.00  0.00     0.004 C 
ENDBRANCH   1   5
TORSDOF 2
ENDMDL
MODEL 5
REMARK VINA RESULT:    -2.767     20.117     20.816
REMARK INTER + INTRA:          -3.122
REMARK INTER:                  -3.116
REMARK INTRA:                  -0.006
REMARK UNBOUND:                -0.032
REMARK SMILES CCCC(=O)[O-]
REMARK SMILES IDX 3 1 4 2 5 3 6 4 2 5 1 6
REMARK H PARENT
REMARK Flexibility Score: inf
ROOT
ATOM      1  C   UNL     1       3.006   6.610  22.766  1.00  0.00     0.052 C 
ENDROOT
BRANCH   1   2
ATOM      2  C   UNL     1       3.685   7.624  21.901  1.00  0.00     0.041 C 
ATOM      3  O   UNL     1       3.222   7.897  20.762  1.00  0.00    -0.550 OA
ATOM      4  O   UNL     1       4.801   8.303  22.372  1.00  0.00    -0.550 OA
ENDBRANCH   1   2
BRANCH   1   5
ATOM      5  C   UNL     1       4.037   5.701  23.439  1.00  0.00     0.003 C 
ATOM      6  C   UNL     1       3.363   4.517  24.125  1.00  0.00     0.004 C 
ENDBRANCH   1   5
TORSDOF 2
ENDMDL
MODEL 6
REMARK VINA RESULT:    -2.367     14.559     15.141
REMARK INTER + INTRA:          -2.675
REMARK INTER:                  -2.665
REMARK INTRA:                  -0.010
REMARK UNBOUND:                -0.032
REMARK SMILES CCCC(=O)[O-]
REMARK SMILES IDX 3 1 4 2 5 3 6 4 2 5 1 6
REMARK H PARENT
REMARK Flexibility Score: inf
ROOT
ATOM      1  C   UNL     1      18.318  -7.125   6.292  1.00  0.00     0.052 C 
ENDROOT
BRANCH   1   2
ATOM      2  C   UNL     1      19.081  -7.278   7.569  1.00  0.00     0.041 C 
ATOM      3  O   UNL     1      19.011  -6.389   8.458  1.00  0.00    -0.550 OA
ATOM      4  O   UNL     1      19.830  -8.424   7.798  1.00  0.00    -0.550 OA
ENDBRANCH   1   2
BRANCH   1   5
ATOM      5  C   UNL     1      16.865  -6.736   6.578  1.00  0.00     0.003 C 
ATOM      6  C   UNL     1      16.156  -6.282   5.306  1.00  0.00     0.004 C 
ENDBRANCH   1   5
TORSDOF 2
ENDMDL
MODEL 7
REMARK VINA RESULT:    -2.258     14.872     15.489
REMARK INTER + INTRA:          -2.554
REMARK INTER:                  -2.513
REMARK INTRA:                  -0.041
REMARK UNBOUND:                -0.032
REMARK SMILES CCCC(=O)[O-]
REMARK SMILES IDX 3 1 4 2 5 3 6 4 2 5 1 6
REMARK H PARENT
REMARK Flexibility Score: inf
ROOT
ATOM      1  C   UNL     1      18.949  -6.800   6.001  1.00  0.00     0.052 C 
ENDROOT
BRANCH   1   2
ATOM      2  C   UNL     1      19.216  -7.219   7.411  1.00  0.00     0.041 C 
ATOM      3  O   UNL     1      19.747  -8.336   7.651  1.00  0.00    -0.550 OA
ATOM      4  O   UNL     1      18.926  -6.355   8.459  1.00  0.00    -0.550 OA
ENDBRANCH   1   2
BRANCH   1   5
ATOM      5  C   UNL     1      20.253  -6.751   5.200  1.00  0.00     0.003 C 
ATOM      6  C   UNL     1      20.825  -5.337   5.165  1.00  0.00     0.004 C 
ENDBRANCH   1   5
TORSDOF 2
ENDMDL
