MODEL 1
REMARK VINA RESULT:    -5.000      0.000      0.000
REMARK INTER + INTRA:          -8.650
REMARK INTER:                  -7.631
REMARK INTRA:                  -1.019
REMARK UNBOUND:                -1.019
REMARK SMILES CCCCCCCCCCC(=O)[O-]
REMARK SMILES IDX 7 1 8 2 9 3 10 4 11 5 12 6 13 7 6 8 5 9 4 10 3 11 2 12 1 13
REMARK H PARENT
REMARK Flexibility Score: inf
ROOT
ATOM      1  C   UNL     1      19.282  22.414  10.273  1.00  0.00     0.000 C 
ENDROOT
BRANCH   1   2
ATOM      2  C   UNL     1      18.015  23.277  10.232  1.00  0.00     0.000 C 
BRANCH   2   3
ATOM      3  C   UNL     1      18.368  24.771  10.180  1.00  0.00     0.006 C 
BRANCH   3   4
ATOM      4  C   UNL     1      17.613  25.506   9.065  1.00  0.00     0.053 C 
BRANCH   4   5
ATOM      5  C   UNL     1      17.954  26.965   9.033  1.00  0.00     0.041 C 
ATOM      6  O   UNL     1      19.152  27.333   8.915  1.00  0.00    -0.550 OA
ATOM      7  O   UNL     1      16.945  27.917   9.102  1.00  0.00    -0.550 OA
ENDBRANCH   4   5
ENDBRANCH   3   4
ENDBRANCH   2   3
ENDBRANCH   1   2
BRANCH   1   8
ATOM      8  C   UNL     1      20.542  23.287  10.321  1.00  0.00     0.000 C 
BRANCH   8   9
ATOM      9  C   UNL     1      21.615  22.758   9.357  1.00  0.00    -0.000 C 
BRANCH   9  10
ATOM     10  C   UNL     1      21.397  23.229   7.911  1.00  0.00    -0.000 C 
BRANCH  10  11
ATOM     11  C   UNL     1      21.319  22.063   6.914  1.00  0.00    -0.000 C 
BRANCH  11  12
ATOM     12  C   UNL     1      20.057  22.166   6.049  1.00  0.00    -0.003 C 
ATOM     13  C   UNL     1      19.084  23.197   6.614  1.00  0.00     0.004 C 
ENDBRANCH  11  12
ENDBRANCH  10  11
ENDBRANCH   9  10
ENDBRANCH   8   9
ENDBRANCH   1   8
TORSDOF 9
ENDMDL
MODEL 2
REMARK VINA RESULT:    -4.980      2.370      4.942
REMARK INTER + INTRA:          -8.620
REMARK INTER:                  -7.797
REMARK INTRA:                  -0.823
REMARK UNBOUND:                -1.019
REMARK SMILES CCCCCCCCCCC(=O)[O-]
REMARK SMILES IDX 7 1 8 2 9 3 10 4 11 5 12 6 13 7 6 8 5 9 4 10 3 11 2 12 1 13
REMARK H PARENT
REMARK Flexibility Score: inf
ROOT
ATOM      1  C   UNL     1      19.178  22.761   6.041  1.00  0.00     0.000 C 
ENDROOT
BRANCH   1   2
ATOM      2  C   UNL     1      20.489  22.127   6.522  1.00  0.00     0.000 C 
BRANCH   2   3
ATOM      3  C   UNL     1      21.204  23.038   7.530  1.00  0.00     0.006 C 
BRANCH   3   4
ATOM      4  C   UNL     1      21.561  22.302   8.827  1.00  0.00     0.053 C 
BRANCH   4   5
ATOM      5  C   UNL     1      20.667  22.709   9.959  1.00  0.00     0.041 C 
ATOM      6  O   UNL     1      20.944  23.722  10.653  1.00  0.00    -0.550 OA
ATOM      7  O   UNL     1      19.511  21.986  10.227  1.00  0.00    -0.550 OA
ENDBRANCH   4   5
ENDBRANCH   3   4
ENDBRANCH   2   3
ENDBRANCH   1   2
BRANCH   1   8
ATOM      8  C   UNL     1      18.187  22.923   7.200  1.00  0.00     0.000 C 
BRANCH   8   9
ATOM      9  C   UNL     1      17.257  24.124   6.965  1.00  0.00    -0.000 C 
BRANCH   9  10
ATOM     10  C   UNL     1      17.288  25.132   8.124  1.00  0.00    -0.000 C 
BRANCH  10  11
ATOM     11  C   UNL     1      18.717  25.532   8.523  1.00  0.00    -0.000 C 
BRANCH  11  12
ATOM     12  C   UNL     1      18.757  26.977   9.035  1.00  0.00    -0.003 C 
ATOM     13  C   UNL     1      17.388  27.642   8.920  1.00  0.00     0.004 C 
ENDBRANCH  11  12
ENDBRANCH  10  11
ENDBRANCH   9  10
ENDBRANCH   8   9
ENDBRANCH   1   8
TORSDOF 9
ENDMDL
MODEL 3
REMARK VINA RESULT:    -4.875      1.225      2.988
REMARK INTER + INTRA:          -8.459
REMARK INTER:                  -7.214
REMARK INTRA:                  -1.245
REMARK UNBOUND:                -1.019
REMARK SMILES CCCCCCCCCCC(=O)[O-]
REMARK SMILES IDX 7 1 8 2 9 3 10 4 11 5 12 6 13 7 6 8 5 9 4 10 3 11 2 12 1 13
REMARK H PARENT
REMARK Flexibility Score: inf
ROOT
ATOM      1  C   UNL     1      18.476  22.260   6.715  1.00  0.00     0.000 C 
ENDROOT
BRANCH   1   2
ATOM      2  C   UNL     1      17.516  23.435   6.492  1.00  0.00     0.000 C 
BRANCH   2   3
ATOM      3  C   UNL     1      17.281  24.208   7.797  1.00  0.00     0.006 C 
BRANCH   3   4
ATOM      4  C   UNL     1      18.360  25.272   8.044  1.00  0.00     0.053 C 
BRANCH   4   5
ATOM      5  C   UNL     1      18.182  25.944   9.371  1.00  0.00     0.041 C 
ATOM      6  O   UNL     1      18.676  27.083   9.576  1.00  0.00    -0.550 OA
ATOM      7  O   UNL     1      17.441  25.325  10.370  1.00  0.00    -0.550 OA
ENDBRANCH   4   5
ENDBRANCH   3   4
ENDBRANCH   2   3
ENDBRANCH   1   2
BRANCH   1   8
ATOM      8  C   UNL     1      19.719  22.388   5.828  1.00  0.00     0.000 C 
BRANCH   8   9
ATOM      9  C   UNL     1      20.998  22.087   6.625  1.00  0.00    -0.000 C 
BRANCH   9  10
ATOM     10  C   UNL     1      21.258  23.113   7.738  1.00  0.00    -0.000 C 
BRANCH  10  11
ATOM     11  C   UNL     1      21.445  22.457   9.115  1.00  0.00    -0.000 C 
BRANCH  11  12
ATOM     12  C   UNL     1      20.577  23.150  10.173  1.00  0.00    -0.003 C 
ATOM     13  C   UNL     1      19.330  22.327  10.488  1.00  0.00     0.004 C 
ENDBRANCH  11  12
ENDBRANCH  10  11
ENDBRANCH   9  10
ENDBRANCH   8   9
ENDBRANCH   1   8
TORSDOF 9
ENDMDL
MODEL 4
REMARK VINA RESULT:    -4.824      2.341      4.659
REMARK INTER + INTRA:          -8.381
REMARK INTER:                  -7.087
REMARK INTRA:                  -1.294
REMARK UNBOUND:                -1.019
REMARK SMILES CCCCCCCCCCC(=O)[O-]
REMARK SMILES IDX 7 1 8 2 9 3 10 4 11 5 12 6 13 7 6 8 5 9 4 10 3 11 2 12 1 13
REMARK H PARENT
REMARK Flexibility Score: inf
ROOT
ATOM      1  C   UNL     1      20.788  22.122   6.554  1.00  0.00     0.000 C 
ENDROOT
BRANCH   1   2
ATOM      2  C   UNL     1      21.231  23.110   7.641  1.00  0.00     0.000 C 
BRANCH   2   3
ATOM      3  C   UNL     1      21.419  22.396   8.988  1.00  0.00     0.006 C 
BRANCH   3   4
ATOM      4  C   UNL     1      20.633  23.073  10.118  1.00  0.00     0.053 C 
BRANCH   4   5
ATOM      5  C   UNL     1      19.311  22.406  10.350  1.00  0.00     0.041 C 
ATOM      6  O   UNL     1      18.417  22.987  11.019  1.00  0.00    -0.550 OA
ATOM      7  O   UNL     1      19.057  21.157   9.798  1.00  0.00    -0.550 OA
ENDBRANCH   4   5
ENDBRANCH   3   4
ENDBRANCH   2   3
ENDBRANCH   1   2
BRANCH   1   8
ATOM      8  C   UNL     1      19.261  22.085   6.432  1.00  0.00     0.000 C 
BRANCH   8   9
ATOM      9  C   UNL     1      18.662  23.492   6.583  1.00  0.00    -0.000 C 
BRANCH   9  10
ATOM     10  C   UNL     1      17.438  23.519   7.510  1.00  0.00    -0.000 C 
BRANCH  10  11
ATOM     11  C   UNL     1      17.232  24.887   8.179  1.00  0.00    -0.000 C 
BRANCH  11  12
ATOM     12  C   UNL     1      18.576  25.581   8.429  1.00  0.00    -0.003 C 
ATOM     13  C   UNL     1      18.379  26.943   9.089  1.00  0.00     0.004 C 
ENDBRANCH  11  12
ENDBRANCH  10  11
ENDBRANCH   9  10
ENDBRANCH   8   9
ENDBRANCH   1   8
TORSDOF 9
ENDMDL
MODEL 5
REMARK VINA RESULT:    -4.800      1.101      3.022
REMARK INTER + INTRA:          -8.346
REMARK INTER:                  -7.511
REMARK INTRA:                  -0.835
REMARK UNBOUND:                -1.019
REMARK SMILES CCCCCCCCCCC(=O)[O-]
REMARK SMILES IDX 7 1 8 2 9 3 10 4 11 5 12 6 13 7 6 8 5 9 4 10 3 11 2 12 1 13
REMARK H PARENT
REMARK Flexibility Score: inf
ROOT
ATOM      1  C   UNL     1      19.662  24.238   8.023  1.00  0.00     0.000 C 
ENDROOT
BRANCH   1   2
ATOM      2  C   UNL     1      18.263  24.011   7.436  1.00  0.00     0.000 C 
BRANCH   2   3
ATOM      3  C   UNL     1      17.247  24.991   8.043  1.00  0.00     0.006 C 
BRANCH   3   4
ATOM      4  C   UNL     1      17.755  25.621   9.346  1.00  0.00     0.053 C 
BRANCH   4   5
ATOM      5  C   UNL     1      17.957  27.099   9.204  1.00  0.00     0.041 C 
ATOM      6  O   UNL     1      19.110  27.594   9.307  1.00  0.00    -0.550 OA
ATOM      7  O   UNL     1      16.875  27.925   8.928  1.00  0.00    -0.550 OA
ENDBRANCH   4   5
ENDBRANCH   3   4
ENDBRANCH   2   3
ENDBRANCH   1   2
BRANCH   1   8
ATOM      8  C   UNL     1      20.571  23.032   7.761  1.00  0.00     0.000 C 
BRANCH   8   9
ATOM      9  C   UNL     1      21.102  22.446   9.079  1.00  0.00    -0.000 C 
BRANCH   9  10
ATOM     10  C   UNL     1      20.177  22.733  10.271  1.00  0.00    -0.000 C 
BRANCH  10  11
ATOM     11  C   UNL     1      18.980  21.772  10.335  1.00  0.00    -0.000 C 
BRANCH  11  12
ATOM     12  C   UNL     1      18.248  21.898  11.677  1.00  0.00    -0.003 C 
ATOM     13  C   UNL     1      16.986  22.746  11.539  1.00  0.00     0.004 C 
ENDBRANCH  11  12
ENDBRANCH  10  11
ENDBRANCH   9  10
ENDBRANCH   8   9
ENDBRANCH   1   8
TORSDOF 9
ENDMDL
MODEL 6
REMARK VINA RESULT:    -4.772      0.991      2.121
REMARK INTER + INTRA:          -8.303
REMARK INTER:                  -7.282
REMARK INTRA:                  -1.020
REMARK UNBOUND:                -1.019
REMARK SMILES CCCCCCCCCCC(=O)[O-]
REMARK SMILES IDX 7 1 8 2 9 3 10 4 11 5 12 6 13 7 6 8 5 9 4 10 3 11 2 12 1 13
REMARK H PARENT
REMARK Flexibility Score: inf
ROOT
ATOM      1  C   UNL     1      21.150  22.961   9.310  1.00  0.00     0.000 C 
ENDROOT
BRANCH   1   2
ATOM      2  C   UNL     1      19.950  23.723   9.886  1.00  0.00     0.000 C 
BRANCH   2   3
ATOM      3  C   UNL     1      19.456  24.795   8.903  1.00  0.00     0.006 C 
BRANCH   3   4
ATOM      4  C   UNL     1      18.174  25.483   9.391  1.00  0.00     0.053 C 
BRANCH   4   5
ATOM      5  C   UNL     1      18.219  26.963   9.162  1.00  0.00     0.041 C 
ATOM      6  O   UNL     1      17.151  27.624   9.074  1.00  0.00    -0.550 OA
ATOM      7  O   UNL     1      19.442  27.617   9.078  1.00  0.00    -0.550 OA
ENDBRANCH   4   5
ENDBRANCH   3   4
ENDBRANCH   2   3
ENDBRANCH   1   2
BRANCH   1   8
ATOM      8  C   UNL     1      21.334  23.268   7.819  1.00  0.00     0.000 C 
BRANCH   8   9
ATOM      9  C   UNL     1      21.371  21.974   6.992  1.00  0.00    -0.000 C 
BRANCH   9  10
ATOM     10  C   UNL     1      20.390  21.999   5.810  1.00  0.00    -0.000 C 
BRANCH  10  11
ATOM     11  C   UNL     1      18.923  21.893   6.256  1.00  0.00    -0.000 C 
BRANCH  11  12
ATOM     12  C   UNL     1      18.121  23.114   5.790  1.00  0.00    -0.003 C 
ATOM     13  C   UNL     1      16.875  23.316   6.649  1.00  0.00     0.004 C 
ENDBRANCH  11  12
ENDBRANCH  10  11
ENDBRANCH   9  10
ENDBRANCH   8   9
ENDBRANCH   1   8
TORSDOF 9
ENDMDL
MODEL 7
REMARK VINA RESULT:    -4.770      2.621      4.625
REMARK INTER + INTRA:          -8.299
REMARK INTER:                  -7.065
REMARK INTRA:                  -1.235
REMARK UNBOUND:                -1.019
REMARK SMILES CCCCCCCCCCC(=O)[O-]
REMARK SMILES IDX 7 1 8 2 9 3 10 4 11 5 12 6 13 7 6 8 5 9 4 10 3 11 2 12 1 13
REMARK H PARENT
REMARK Flexibility Score: inf
ROOT
ATOM      1  C   UNL     1      21.478  22.508   9.105  1.00  0.00     0.000 C 
ENDROOT
BRANCH   1   2
ATOM      2  C   UNL     1      21.298  23.325   7.819  1.00  0.00     0.000 C 
BRANCH   2   3
ATOM      3  C   UNL     1      20.752  22.448   6.683  1.00  0.00     0.006 C 
BRANCH   3   4
ATOM      4  C   UNL     1      19.289  22.772   6.351  1.00  0.00     0.053 C 
BRANCH   4   5
ATOM      5  C   UNL     1      18.346  21.811   7.006  1.00  0.00     0.041 C 
ATOM      6  O   UNL     1      17.110  22.052   7.031  1.00  0.00    -0.550 OA
ATOM      7  O   UNL     1      18.828  20.633   7.563  1.00  0.00    -0.550 OA
ENDBRANCH   4   5
ENDBRANCH   3   4
ENDBRANCH   2   3
ENDBRANCH   1   2
BRANCH   1   8
ATOM      8  C   UNL     1      20.848  23.224  10.305  1.00  0.00     0.000 C 
BRANCH   8   9
ATOM      9  C   UNL     1      19.433  22.695  10.581  1.00  0.00    -0.000 C 
BRANCH   9  10
ATOM     10  C   UNL     1      18.336  23.655  10.096  1.00  0.00    -0.000 C 
BRANCH  10  11
ATOM     11  C   UNL     1      18.796  25.121  10.082  1.00  0.00    -0.000 C 
BRANCH  11  12
ATOM     12  C   UNL     1      18.598  25.743   8.695  1.00  0.00    -0.003 C 
ATOM     13  C   UNL     1      18.971  27.224   8.696  1.00  0.00     0.004 C 
ENDBRANCH  11  12
ENDBRANCH  10  11
ENDBRANCH   9  10
ENDBRANCH   8   9
ENDBRANCH   1   8
TORSDOF 9
ENDMDL
MODEL 8
REMARK VINA RESULT:    -4.743      1.201      2.861
REMARK INTER + INTRA:          -8.258
REMARK INTER:                  -7.375
REMARK INTRA:                  -0.883
REMARK UNBOUND:                -1.019
REMARK SMILES CCCCCCCCCCC(=O)[O-]
REMARK SMILES IDX 7 1 8 2 9 3 10 4 11 5 12 6 13 7 6 8 5 9 4 10 3 11 2 12 1 13
REMARK H PARENT
REMARK Flexibility Score: inf
ROOT
ATOM      1  C   UNL     1      17.284  23.819   6.446  1.00  0.00     0.000 C 
ENDROOT
BRANCH   1   2
ATOM      2  C   UNL     1      17.068  24.409   7.845  1.00  0.00     0.000 C 
BRANCH   2   3
ATOM      3  C   UNL     1      18.409  24.706   8.531  1.00  0.00     0.006 C 
BRANCH   3   4
ATOM      4  C   UNL     1      18.268  25.730   9.665  1.00  0.00     0.053 C 
BRANCH   4   5
ATOM      5  C   UNL     1      18.300  27.136   9.148  1.00  0.00     0.041 C 
ATOM      6  O   UNL     1      19.384  27.644   8.758  1.00  0.00    -0.550 OA
ATOM      7  O   UNL     1      17.126  27.875   9.070  1.00  0.00    -0.550 OA
ENDBRANCH   4   5
ENDBRANCH   3   4
ENDBRANCH   2   3
ENDBRANCH   1   2
BRANCH   1   8
ATOM      8  C   UNL     1      17.871  22.405   6.529  1.00  0.00     0.000 C 
BRANCH   8   9
ATOM      9  C   UNL     1      18.841  22.143   5.367  1.00  0.00    -0.000 C 
BRANCH   9  10
ATOM     10  C   UNL     1      20.310  22.112   5.816  1.00  0.00    -0.000 C 
BRANCH  10  11
ATOM     11  C   UNL     1      20.461  21.951   7.337  1.00  0.00    -0.000 C 
BRANCH  11  12
ATOM     12  C   UNL     1      21.508  22.925   7.889  1.00  0.00    -0.003 C 
ATOM     13  C   UNL     1      21.529  22.906   9.415  1.00  0.00     0.004 C 
ENDBRANCH  11  12
ENDBRANCH  10  11
ENDBRANCH   9  10
ENDBRANCH   8   9
ENDBRANCH   1   8
TORSDOF 9
ENDMDL
