MODEL 1
REMARK VINA RESULT:    -3.185      0.000      0.000
REMARK INTER + INTRA:          -3.190
REMARK INTER:                  -3.929
REMARK INTRA:                   0.739
REMARK UNBOUND:                 0.739
REMARK SMILES CC1=CC=CC(C)(C)CC1=O
REMARK SMILES IDX 1 1 2 2 3 3 10 4 11 5 9 6 4 8 5 9 6 10 7 11 8 12
REMARK H PARENT
REMARK Flexibility Score: 80.00
ROOT
ATOM      1  C   UNL     1       1.236   5.301  61.613  1.00  0.00     0.048 C 
ATOM      2  C   UNL     1       2.627   5.080  62.160  1.00  0.00    -0.008 C 
ATOM      3  C   UNL     1       3.133   3.830  62.099  1.00  0.00     0.007 C 
ENDROOT
BRANCH   2   4
ATOM      4  C   UNL     1       3.355   6.276  62.653  1.00  0.00     0.159 C 
ATOM      5  O   UNL     1       2.864   7.418  62.441  1.00  0.00    -0.295 OA
BRANCH   4   6
ATOM      6  C   UNL     1       4.647   6.203  63.409  1.00  0.00     0.091 CG0
ATOM      7  G   UNL     1       5.769   5.484  62.628  1.00  0.00     0.000 G0
ENDBRANCH   4   6
ENDBRANCH   2   4
BRANCH   3   8
ATOM      8  C   UNL     1       4.457   3.318  62.524  1.00  0.00    -0.003 C 
ATOM      9  C   UNL     1       5.590   3.994  62.750  1.00  0.00    -0.020 C 
BRANCH   9  10
ATOM     10  C   UNL     1       5.780   5.489  62.647  1.00  0.00    -0.010 CG0
ATOM     11  C   UNL     1       5.889   5.906  61.162  1.00  0.00     0.016 C 
ATOM     12  C   UNL     1       7.109   5.858  63.344  1.00  0.00     0.016 C 
ATOM     13  G   UNL     1       4.632   6.211  63.386  1.00  0.00     0.000 G0
ENDBRANCH   9  10
ENDBRANCH   3   8
TORSDOF 0
ENDMDL
MODEL 2
REMARK VINA RESULT:    -3.095      4.556      6.287
REMARK INTER + INTRA:          -3.080
REMARK INTER:                  -3.830
REMARK INTRA:                   0.749
REMARK UNBOUND:                 0.739
REMARK SMILES CC1=CC=CC(C)(C)CC1=O
REMARK SMILES IDX 1 1 2 2 3 3 10 4 11 5 9 6 4 8 5 9 6 10 7 11 8 12
REMARK H PARENT
REMARK Flexibility Score: 80.00
ROOT
ATOM      1  C   UNL     1       0.934   5.063  62.056  1.00  0.00     0.048 C 
ATOM      2  C   UNL     1       0.017   5.088  63.256  1.00  0.00    -0.008 C 
ATOM      3  C   UNL     1      -1.254   4.667  63.082  1.00  0.00     0.007 C 
ENDROOT
BRANCH   2   4
ATOM      4  C   UNL     1       0.612   5.504  64.551  1.00  0.00     0.159 C 
ATOM      5  O   UNL     1       1.865   5.629  64.633  1.00  0.00    -0.295 OA
BRANCH   4   6
ATOM      6  C   UNL     1      -0.198   5.800  65.776  1.00  0.00     0.091 CG0
ATOM      7  G   UNL     1      -1.060   4.605  66.239  1.00  0.00     0.000 G0
ENDBRANCH   4   6
ENDBRANCH   2   4
BRANCH   3   8
ATOM      8  C   UNL     1      -2.360   4.553  64.062  1.00  0.00    -0.003 C 
ATOM      9  C   UNL     1      -2.303   4.517  65.399  1.00  0.00    -0.020 C 
BRANCH   9  10
ATOM     10  C   UNL     1      -1.058   4.615  66.248  1.00  0.00    -0.010 CG0
ATOM     11  C   UNL     1      -0.298   3.268  66.229  1.00  0.00     0.016 C 
ATOM     12  C   UNL     1      -1.485   4.900  67.706  1.00  0.00     0.016 C 
ATOM     13  G   UNL     1      -0.189   5.796  65.762  1.00  0.00     0.000 G0
ENDBRANCH   9  10
ENDBRANCH   3   8
TORSDOF 0
ENDMDL
MODEL 3
REMARK VINA RESULT:    -3.047      5.786      6.969
REMARK INTER + INTRA:          -3.021
REMARK INTER:                  -3.780
REMARK INTRA:                   0.759
REMARK UNBOUND:                 0.739
REMARK SMILES CC1=CC=CC(C)(C)CC1=O
REMARK SMILES IDX 1 1 2 2 3 3 10 4 11 5 9 6 4 8 5 9 6 10 7 11 8 12
REMARK H PARENT
REMARK Flexibility Score: 80.00
ROOT
ATOM      1  C   UNL     1      -4.368   3.951  63.479  1.00  0.00     0.048 C 
ATOM      2  C   UNL     1      -2.989   4.155  64.061  1.00  0.00    -0.008 C 
ATOM      3  C   UNL     1      -1.989   4.464  63.209  1.00  0.00     0.007 C 
ENDROOT
BRANCH   2   4
ATOM      4  C   UNL     1      -2.861   4.073  65.538  1.00  0.00     0.159 C 
ATOM      5  O   UNL     1      -3.910   4.020  66.238  1.00  0.00    -0.295 OA
BRANCH   4   6
ATOM      6  C   UNL     1      -1.545   4.036  66.252  1.00  0.00     0.091 CG0
ATOM      7  G   UNL     1      -0.657   5.264  65.957  1.00  0.00     0.000 G0
ENDBRANCH   4   6
ENDBRANCH   2   4
BRANCH   3   8
ATOM      8  C   UNL     1      -0.559   4.743  63.481  1.00  0.00    -0.003 C 
ATOM      9  C   UNL     1       0.027   5.098  64.631  1.00  0.00    -0.020 C 
BRANCH   9  10
ATOM     10  C   UNL     1      -0.653   5.276  65.968  1.00  0.00    -0.010 CG0
ATOM     11  C   UNL     1      -1.433   6.611  65.992  1.00  0.00     0.016 C 
ATOM     12  C   UNL     1       0.437   5.341  67.062  1.00  0.00     0.016 C 
ATOM     13  G   UNL     1      -1.553   4.055  66.260  1.00  0.00     0.000 G0
ENDBRANCH   9  10
ENDBRANCH   3   8
TORSDOF 0
ENDMDL
MODEL 4
REMARK VINA RESULT:    -3.001      4.262      5.349
REMARK INTER + INTRA:          -2.964
REMARK INTER:                  -3.723
REMARK INTRA:                   0.758
REMARK UNBOUND:                 0.739
REMARK SMILES CC1=CC=CC(C)(C)CC1=O
REMARK SMILES IDX 1 1 2 2 3 3 10 4 11 5 9 6 4 8 5 9 6 10 7 11 8 12
REMARK H PARENT
REMARK Flexibility Score: 80.00
ROOT
ATOM      1  C   UNL     1      -2.731   4.370  63.558  1.00  0.00     0.048 C 
ATOM      2  C   UNL     1      -1.340   4.700  64.042  1.00  0.00    -0.008 C 
ATOM      3  C   UNL     1      -0.354   4.763  63.120  1.00  0.00     0.007 C 
ENDROOT
BRANCH   2   4
ATOM      4  C   UNL     1      -1.182   5.004  65.486  1.00  0.00     0.159 C 
ATOM      5  O   UNL     1      -2.216   5.140  66.196  1.00  0.00    -0.295 OA
BRANCH   4   6
ATOM      6  C   UNL     1       0.149   5.149  66.160  1.00  0.00     0.091 CG0
ATOM      7  G   UNL     1       1.028   6.257  65.540  1.00  0.00     0.000 G0
ENDBRANCH   4   6
ENDBRANCH   2   4
BRANCH   3   8
ATOM      8  C   UNL     1       1.083   5.085  63.285  1.00  0.00    -0.003 C 
ATOM      9  C   UNL     1       1.695   5.720  64.292  1.00  0.00    -0.020 C 
BRANCH   9  10
ATOM     10  C   UNL     1       1.045   6.249  65.548  1.00  0.00    -0.010 CG0
ATOM     11  C   UNL     1       0.275   7.553  65.236  1.00  0.00     0.016 C 
ATOM     12  C   UNL     1       2.158   6.585  66.567  1.00  0.00     0.016 C 
ATOM     13  G   UNL     1       0.142   5.158  66.165  1.00  0.00     0.000 G0
ENDBRANCH   9  10
ENDBRANCH   3   8
TORSDOF 0
ENDMDL
MODEL 5
REMARK VINA RESULT:    -2.947     16.317     17.699
REMARK INTER + INTRA:          -2.898
REMARK INTER:                  -3.648
REMARK INTRA:                   0.751
REMARK UNBOUND:                 0.739
REMARK SMILES CC1=CC=CC(C)(C)CC1=O
REMARK SMILES IDX 1 1 2 2 3 3 10 4 11 5 9 6 4 8 5 9 6 10 7 11 8 12
REMARK H PARENT
REMARK Flexibility Score: 80.00
ROOT
ATOM      1  C   UNL     1       6.350  20.281  75.272  1.00  0.00     0.048 C 
ATOM      2  C   UNL     1       5.309  19.447  74.564  1.00  0.00    -0.008 C 
ATOM      3  C   UNL     1       5.536  19.126  73.272  1.00  0.00     0.007 C 
ENDROOT
BRANCH   2   4
ATOM      4  C   UNL     1       4.153  18.983  75.371  1.00  0.00     0.159 C 
ATOM      5  O   UNL     1       4.190  19.121  76.624  1.00  0.00    -0.295 OA
BRANCH   4   6
ATOM      6  C   UNL     1       2.925  18.365  74.776  1.00  0.00     0.091 CG0
ATOM      7  G   UNL     1       3.220  17.087  73.960  1.00  0.00     0.000 G0
ENDBRANCH   4   6
ENDBRANCH   2   4
BRANCH   3   8
ATOM      8  C   UNL     1       4.725  18.311  72.338  1.00  0.00    -0.003 C 
ATOM      9  C   UNL     1       3.750  17.435  72.610  1.00  0.00    -0.020 C 
BRANCH   9  10
ATOM     10  C   UNL     1       3.215  17.083  73.978  1.00  0.00    -0.010 CG0
ATOM     11  C   UNL     1       4.197  16.132  74.701  1.00  0.00     0.016 C 
ATOM     12  C   UNL     1       1.874  16.335  73.797  1.00  0.00     0.016 C 
ATOM     13  G   UNL     1       2.940  18.376  74.777  1.00  0.00     0.000 G0
ENDBRANCH   9  10
ENDBRANCH   3   8
TORSDOF 0
ENDMDL
MODEL 6
REMARK VINA RESULT:    -2.926     16.483     17.913
REMARK INTER + INTRA:          -2.871
REMARK INTER:                  -3.623
REMARK INTRA:                   0.752
REMARK UNBOUND:                 0.739
REMARK SMILES CC1=CC=CC(C)(C)CC1=O
REMARK SMILES IDX 1 1 2 2 3 3 10 4 11 5 9 6 4 8 5 9 6 10 7 11 8 12
REMARK H PARENT
REMARK Flexibility Score: 80.00
ROOT
ATOM      1  C   UNL     1       7.137  20.935  73.908  1.00  0.00     0.048 C 
ATOM      2  C   UNL     1       6.130  19.875  74.287  1.00  0.00    -0.008 C 
ATOM      3  C   UNL     1       5.410  20.069  75.412  1.00  0.00     0.007 C 
ENDROOT
BRANCH   2   4
ATOM      4  C   UNL     1       5.960  18.739  73.346  1.00  0.00     0.159 C 
ATOM      5  O   UNL     1       6.516  18.797  72.215  1.00  0.00    -0.295 OA
BRANCH   4   6
ATOM      6  C   UNL     1       5.169  17.509  73.671  1.00  0.00     0.091 CG0
ATOM      7  G   UNL     1       3.691  17.806  74.008  1.00  0.00     0.000 G0
ENDBRANCH   4   6
ENDBRANCH   2   4
BRANCH   3   8
ATOM      8  C   UNL     1       4.346  19.232  76.017  1.00  0.00    -0.003 C 
ATOM      9  C   UNL     1       3.597  18.279  75.449  1.00  0.00    -0.020 C 
BRANCH   9  10
ATOM     10  C   UNL     1       3.684  17.802  74.019  1.00  0.00    -0.010 CG0
ATOM     11  C   UNL     1       3.019  18.832  73.076  1.00  0.00     0.016 C 
ATOM     12  C   UNL     1       2.900  16.475  73.901  1.00  0.00     0.016 C 
ATOM     13  G   UNL     1       5.158  17.523  73.652  1.00  0.00     0.000 G0
ENDBRANCH   9  10
ENDBRANCH   3   8
TORSDOF 0
ENDMDL
MODEL 7
REMARK VINA RESULT:    -2.924      3.186      3.775
REMARK INTER + INTRA:          -2.869
REMARK INTER:                  -3.616
REMARK INTRA:                   0.747
REMARK UNBOUND:                 0.739
REMARK SMILES CC1=CC=CC(C)(C)CC1=O
REMARK SMILES IDX 1 1 2 2 3 3 10 4 11 5 9 6 4 8 5 9 6 10 7 11 8 12
REMARK H PARENT
REMARK Flexibility Score: 80.00
ROOT
ATOM      1  C   UNL     1      -0.989   4.716  63.125  1.00  0.00     0.048 C 
ATOM      2  C   UNL     1       0.277   5.492  62.848  1.00  0.00    -0.008 C 
ATOM      3  C   UNL     1       1.027   5.110  61.792  1.00  0.00     0.007 C 
ENDROOT
BRANCH   2   4
ATOM      4  C   UNL     1       0.554   6.663  63.717  1.00  0.00     0.159 C 
ATOM      5  O   UNL     1      -0.354   7.077  64.489  1.00  0.00    -0.295 OA
BRANCH   4   6
ATOM      6  C   UNL     1       1.869   7.382  63.740  1.00  0.00     0.091 CG0
ATOM      7  G   UNL     1       2.259   7.980  62.371  1.00  0.00     0.000 G0
ENDBRANCH   4   6
ENDBRANCH   2   4
BRANCH   3   8
ATOM      8  C   UNL     1       2.287   5.685  61.263  1.00  0.00    -0.003 C 
ATOM      9  C   UNL     1       2.817   6.895  61.475  1.00  0.00    -0.020 C 
BRANCH   9  10
ATOM     10  C   UNL     1       2.247   7.983  62.356  1.00  0.00    -0.010 CG0
ATOM     11  C   UNL     1       1.065   8.676  61.641  1.00  0.00     0.016 C 
ATOM     12  C   UNL     1       3.349   9.042  62.592  1.00  0.00     0.016 C 
ATOM     13  G   UNL     1       1.850   7.389  63.725  1.00  0.00     0.000 G0
ENDBRANCH   9  10
ENDBRANCH   3   8
TORSDOF 0
ENDMDL
MODEL 8
REMARK VINA RESULT:    -2.889     15.810     17.187
REMARK INTER + INTRA:          -2.825
REMARK INTER:                  -3.569
REMARK INTRA:                   0.744
REMARK UNBOUND:                 0.739
REMARK SMILES CC1=CC=CC(C)(C)CC1=O
REMARK SMILES IDX 1 1 2 2 3 3 10 4 11 5 9 6 4 8 5 9 6 10 7 11 8 12
REMARK H PARENT
REMARK Flexibility Score: 80.00
ROOT
ATOM      1  C   UNL     1       4.177  19.059  74.628  1.00  0.00     0.048 C 
ATOM      2  C   UNL     1       2.913  18.238  74.719  1.00  0.00    -0.008 C 
ATOM      3  C   UNL     1       1.752  18.836  74.377  1.00  0.00     0.007 C 
ENDROOT
BRANCH   2   4
ATOM      4  C   UNL     1       3.061  16.813  75.107  1.00  0.00     0.159 C 
ATOM      5  O   UNL     1       4.215  16.302  75.123  1.00  0.00    -0.295 OA
BRANCH   4   6
ATOM      6  C   UNL     1       1.908  15.939  75.499  1.00  0.00     0.091 CG0
ATOM      7  G   UNL     1       0.856  15.782  74.379  1.00  0.00     0.000 G0
ENDBRANCH   4   6
ENDBRANCH   2   4
BRANCH   3   8
ATOM      8  C   UNL     1       0.375  18.288  74.340  1.00  0.00    -0.003 C 
ATOM      9  C   UNL     1      -0.025  17.011  74.324  1.00  0.00    -0.020 C 
BRANCH   9  10
ATOM     10  C   UNL     1       0.864  15.791  74.370  1.00  0.00    -0.010 CG0
ATOM     11  C   UNL     1       1.495  15.543  72.981  1.00  0.00     0.016 C 
ATOM     12  C   UNL     1      -0.011  14.566  74.721  1.00  0.00     0.016 C 
ATOM     13  G   UNL     1       1.922  15.960  75.483  1.00  0.00     0.000 G0
ENDBRANCH   9  10
ENDBRANCH   3   8
TORSDOF 0
ENDMDL
MODEL 9
REMARK VINA RESULT:    -2.813      1.841      3.248
REMARK INTER + INTRA:          -2.732
REMARK INTER:                  -3.496
REMARK INTRA:                   0.764
REMARK UNBOUND:                 0.739
REMARK SMILES CC1=CC=CC(C)(C)CC1=O
REMARK SMILES IDX 1 1 2 2 3 3 10 4 11 5 9 6 4 8 5 9 6 10 7 11 8 12
REMARK H PARENT
REMARK Flexibility Score: 80.00
ROOT
ATOM      1  C   UNL     1       4.602   2.879  63.116  1.00  0.00     0.048 C 
ATOM      2  C   UNL     1       4.094   4.115  62.412  1.00  0.00    -0.008 C 
ATOM      3  C   UNL     1       2.772   4.184  62.146  1.00  0.00     0.007 C 
ENDROOT
BRANCH   2   4
ATOM      4  C   UNL     1       5.080   5.190  62.137  1.00  0.00     0.159 C 
ATOM      5  O   UNL     1       6.225   5.113  62.662  1.00  0.00    -0.295 OA
BRANCH   4   6
ATOM      6  C   UNL     1       4.797   6.365  61.253  1.00  0.00     0.091 CG0
ATOM      7  G   UNL     1       3.597   7.212  61.733  1.00  0.00     0.000 G0
ENDBRANCH   4   6
ENDBRANCH   2   4
BRANCH   3   8
ATOM      8  C   UNL     1       1.987   5.264  61.501  1.00  0.00    -0.003 C 
ATOM      9  C   UNL     1       2.309   6.551  61.323  1.00  0.00    -0.020 C 
BRANCH   9  10
ATOM     10  C   UNL     1       3.602   7.217  61.730  1.00  0.00    -0.010 CG0
ATOM     11  C   UNL     1       3.613   7.461  63.257  1.00  0.00     0.016 C 
ATOM     12  C   UNL     1       3.680   8.592  61.028  1.00  0.00     0.016 C 
ATOM     13  G   UNL     1       4.798   6.365  61.254  1.00  0.00     0.000 G0
ENDBRANCH   9  10
ENDBRANCH   3   8
TORSDOF 0
ENDMDL
