MODEL 1
REMARK VINA RESULT:    -4.264      0.000      0.000
REMARK INTER + INTRA:          -6.382
REMARK INTER:                  -6.258
REMARK INTRA:                  -0.123
REMARK UNBOUND:                -0.123
REMARK SMILES O=C([O-])CCCCCCCC(=O)[O-]
REMARK SMILES IDX 7 1 6 2 5 3 4 4 2 5 1 6 3 7 8 8 9 9 10 10 11 11 12 12 13 13
REMARK H PARENT
REMARK Flexibility Score: inf
ROOT
ATOM      1  C   UNL     1       2.793   6.039   3.393  1.00  0.00     0.000 C 
ENDROOT
BRANCH   1   2
ATOM      2  C   UNL     1       3.361   4.641   3.698  1.00  0.00     0.000 C 
BRANCH   2   3
ATOM      3  C   UNL     1       4.085   4.511   5.052  1.00  0.00     0.006 C 
BRANCH   3   4
ATOM      4  C   UNL     1       5.491   3.912   4.924  1.00  0.00     0.053 C 
BRANCH   4   5
ATOM      5  C   UNL     1       5.976   3.428   6.254  1.00  0.00     0.041 C 
ATOM      6  O   UNL     1       6.370   2.240   6.390  1.00  0.00    -0.550 OA
ATOM      7  O   UNL     1       6.040   4.302   7.331  1.00  0.00    -0.550 OA
ENDBRANCH   4   5
ENDBRANCH   3   4
ENDBRANCH   2   3
ENDBRANCH   1   2
BRANCH   1   8
ATOM      8  C   UNL     1       1.753   6.502   4.428  1.00  0.00     0.000 C 
BRANCH   8   9
ATOM      9  C   UNL     1       1.228   7.919   4.143  1.00  0.00     0.006 C 
BRANCH   9  10
ATOM     10  C   UNL     1       0.304   8.442   5.252  1.00  0.00     0.053 C 
BRANCH  10  11
ATOM     11  C   UNL     1      -1.127   8.201   4.893  1.00  0.00     0.041 C 
ATOM     12  O   UNL     1      -1.449   7.196   4.206  1.00  0.00    -0.550 OA
ATOM     13  O   UNL     1      -2.103   9.114   5.274  1.00  0.00    -0.550 OA
ENDBRANCH  10  11
ENDBRANCH   9  10
ENDBRANCH   8   9
ENDBRANCH   1   8
TORSDOF 8
ENDMDL
MODEL 2
REMARK VINA RESULT:    -4.243     12.157     12.793
REMARK INTER + INTRA:          -6.351
REMARK INTER:                  -6.024
REMARK INTRA:                  -0.327
REMARK UNBOUND:                -0.123
REMARK SMILES O=C([O-])CCCCCCCC(=O)[O-]
REMARK SMILES IDX 7 1 6 2 5 3 4 4 2 5 1 6 3 7 8 8 9 9 10 10 11 11 12 12 13 13
REMARK H PARENT
REMARK Flexibility Score: inf
ROOT
ATOM      1  C   UNL     1      -3.065  -4.767   2.624  1.00  0.00     0.000 C 
ENDROOT
BRANCH   1   2
ATOM      2  C   UNL     1      -2.860  -6.200   3.149  1.00  0.00     0.000 C 
BRANCH   2   3
ATOM      3  C   UNL     1      -1.475  -6.479   3.762  1.00  0.00     0.006 C 
BRANCH   3   4
ATOM      4  C   UNL     1      -1.212  -7.973   3.992  1.00  0.00     0.053 C 
BRANCH   4   5
ATOM      5  C   UNL     1      -0.039  -8.164   4.901  1.00  0.00     0.041 C 
ATOM      6  O   UNL     1       1.108  -7.786   4.543  1.00  0.00    -0.550 OA
ATOM      7  O   UNL     1      -0.221  -8.712   6.164  1.00  0.00    -0.550 OA
ENDBRANCH   4   5
ENDBRANCH   3   4
ENDBRANCH   2   3
ENDBRANCH   1   2
BRANCH   1   8
ATOM      8  C   UNL     1      -3.298  -3.744   3.749  1.00  0.00     0.000 C 
BRANCH   8   9
ATOM      9  C   UNL     1      -4.530  -4.081   4.605  1.00  0.00     0.006 C 
BRANCH   9  10
ATOM     10  C   UNL     1      -4.332  -3.736   6.088  1.00  0.00     0.053 C 
BRANCH  10  11
ATOM     11  C   UNL     1      -5.655  -3.574   6.766  1.00  0.00     0.041 C 
ATOM     12  O   UNL     1      -6.036  -4.417   7.621  1.00  0.00    -0.550 OA
ATOM     13  O   UNL     1      -6.492  -2.521   6.418  1.00  0.00    -0.550 OA
ENDBRANCH  10  11
ENDBRANCH   9  10
ENDBRANCH   8   9
ENDBRANCH   1   8
TORSDOF 8
ENDMDL
MODEL 3
REMARK VINA RESULT:    -4.196     12.182     14.567
REMARK INTER + INTRA:          -6.282
REMARK INTER:                  -6.038
REMARK INTRA:                  -0.244
REMARK UNBOUND:                -0.123
REMARK SMILES O=C([O-])CCCCCCCC(=O)[O-]
REMARK SMILES IDX 7 1 6 2 5 3 4 4 2 5 1 6 3 7 8 8 9 9 10 10 11 11 12 12 13 13
REMARK H PARENT
REMARK Flexibility Score: inf
ROOT
ATOM      1  C   UNL     1      -2.134  -5.504   4.320  1.00  0.00     0.000 C 
ENDROOT
BRANCH   1   2
ATOM      2  C   UNL     1      -3.454  -4.767   4.029  1.00  0.00     0.000 C 
BRANCH   2   3
ATOM      3  C   UNL     1      -4.070  -4.030   5.233  1.00  0.00     0.006 C 
BRANCH   3   4
ATOM      4  C   UNL     1      -5.436  -3.408   4.920  1.00  0.00     0.053 C 
BRANCH   4   5
ATOM      5  C   UNL     1      -5.995  -2.733   6.134  1.00  0.00     0.041 C 
ATOM      6  O   UNL     1      -6.100  -1.479   6.169  1.00  0.00    -0.550 OA
ATOM      7  O   UNL     1      -6.446  -3.494   7.205  1.00  0.00    -0.550 OA
ENDBRANCH   4   5
ENDBRANCH   3   4
ENDBRANCH   2   3
ENDBRANCH   1   2
BRANCH   1   8
ATOM      8  C   UNL     1      -1.850  -6.640   3.321  1.00  0.00     0.000 C 
BRANCH   8   9
ATOM      9  C   UNL     1      -1.204  -7.864   3.991  1.00  0.00     0.006 C 
BRANCH   9  10
ATOM     10  C   UNL     1      -0.978  -7.665   5.496  1.00  0.00     0.053 C 
BRANCH  10  11
ATOM     11  C   UNL     1       0.184  -8.483   5.961  1.00  0.00     0.041 C 
ATOM     12  O   UNL     1       0.259  -8.853   7.162  1.00  0.00    -0.550 OA
ATOM     13  O   UNL     1       1.211  -8.798   5.079  1.00  0.00    -0.550 OA
ENDBRANCH  10  11
ENDBRANCH   9  10
ENDBRANCH   8   9
ENDBRANCH   1   8
TORSDOF 8
ENDMDL
MODEL 4
REMARK VINA RESULT:    -4.176      1.273      6.624
REMARK INTER + INTRA:          -6.253
REMARK INTER:                  -5.906
REMARK INTRA:                  -0.347
REMARK UNBOUND:                -0.123
REMARK SMILES O=C([O-])CCCCCCCC(=O)[O-]
REMARK SMILES IDX 7 1 6 2 5 3 4 4 2 5 1 6 3 7 8 8 9 9 10 10 11 11 12 12 13 13
REMARK H PARENT
REMARK Flexibility Score: inf
ROOT
ATOM      1  C   UNL     1       3.163   5.743   3.204  1.00  0.00     0.000 C 
ENDROOT
BRANCH   1   2
ATOM      2  C   UNL     1       1.719   5.699   2.670  1.00  0.00     0.000 C 
BRANCH   2   3
ATOM      3  C   UNL     1       0.692   6.492   3.500  1.00  0.00     0.006 C 
BRANCH   3   4
ATOM      4  C   UNL     1       1.208   7.869   3.935  1.00  0.00     0.053 C 
BRANCH   4   5
ATOM      5  C   UNL     1       0.509   8.321   5.179  1.00  0.00     0.041 C 
ATOM      6  O   UNL     1      -0.450   9.133   5.106  1.00  0.00    -0.550 OA
ATOM      7  O   UNL     1       0.884   7.805   6.413  1.00  0.00    -0.550 OA
ENDBRANCH   4   5
ENDBRANCH   3   4
ENDBRANCH   2   3
ENDBRANCH   1   2
BRANCH   1   8
ATOM      8  C   UNL     1       3.578   4.442   3.914  1.00  0.00     0.000 C 
BRANCH   8   9
ATOM      9  C   UNL     1       3.805   4.640   5.422  1.00  0.00     0.006 C 
BRANCH   9  10
ATOM     10  C   UNL     1       4.293   3.363   6.120  1.00  0.00     0.053 C 
BRANCH  10  11
ATOM     11  C   UNL     1       5.716   3.518   6.553  1.00  0.00     0.041 C 
ATOM     12  O   UNL     1       6.605   2.752   6.097  1.00  0.00    -0.550 OA
ATOM     13  O   UNL     1       6.055   4.476   7.501  1.00  0.00    -0.550 OA
ENDBRANCH  10  11
ENDBRANCH   9  10
ENDBRANCH   8   9
ENDBRANCH   1   8
TORSDOF 8
ENDMDL
MODEL 5
REMARK VINA RESULT:    -4.157     13.492     14.599
REMARK INTER + INTRA:          -6.225
REMARK INTER:                  -5.949
REMARK INTRA:                  -0.276
REMARK UNBOUND:                -0.123
REMARK SMILES O=C([O-])CCCCCCCC(=O)[O-]
REMARK SMILES IDX 7 1 6 2 5 3 4 4 2 5 1 6 3 7 8 8 9 9 10 10 11 11 12 12 13 13
REMARK H PARENT
REMARK Flexibility Score: inf
ROOT
ATOM      1  C   UNL     1      -1.835  -5.354  -0.360  1.00  0.00     0.000 C 
ENDROOT
BRANCH   1   2
ATOM      2  C   UNL     1      -2.763  -4.838   0.755  1.00  0.00     0.000 C 
BRANCH   2   3
ATOM      3  C   UNL     1      -2.143  -4.819   2.165  1.00  0.00     0.006 C 
BRANCH   3   4
ATOM      4  C   UNL     1      -2.534  -6.039   3.007  1.00  0.00     0.053 C 
BRANCH   4   5
ATOM      5  C   UNL     1      -1.333  -6.886   3.290  1.00  0.00     0.041 C 
ATOM      6  O   UNL     1      -1.429  -7.888   4.047  1.00  0.00    -0.550 OA
ATOM      7  O   UNL     1      -0.120  -6.599   2.677  1.00  0.00    -0.550 OA
ENDBRANCH   4   5
ENDBRANCH   3   4
ENDBRANCH   2   3
ENDBRANCH   1   2
BRANCH   1   8
ATOM      8  C   UNL     1      -2.376  -5.065  -1.771  1.00  0.00     0.000 C 
BRANCH   8   9
ATOM      9  C   UNL     1      -3.130  -6.264  -2.370  1.00  0.00     0.006 C 
BRANCH   9  10
ATOM     10  C   UNL     1      -4.543  -6.423  -1.792  1.00  0.00     0.053 C 
BRANCH  10  11
ATOM     11  C   UNL     1      -5.547  -6.538  -2.895  1.00  0.00     0.041 C 
ATOM     12  O   UNL     1      -5.410  -5.864  -3.949  1.00  0.00    -0.550 OA
ATOM     13  O   UNL     1      -6.662  -7.353  -2.740  1.00  0.00    -0.550 OA
ENDBRANCH  10  11
ENDBRANCH   9  10
ENDBRANCH   8   9
ENDBRANCH   1   8
TORSDOF 8
ENDMDL
MODEL 6
REMARK VINA RESULT:    -4.047      5.221      7.510
REMARK INTER + INTRA:          -6.063
REMARK INTER:                  -5.743
REMARK INTRA:                  -0.320
REMARK UNBOUND:                -0.123
REMARK SMILES O=C([O-])CCCCCCCC(=O)[O-]
REMARK SMILES IDX 7 1 6 2 5 3 4 4 2 5 1 6 3 7 8 8 9 9 10 10 11 11 12 12 13 13
REMARK H PARENT
REMARK Flexibility Score: inf
ROOT
ATOM      1  C   UNL     1       3.184   5.209   0.102  1.00  0.00     0.000 C 
ENDROOT
BRANCH   1   2
ATOM      2  C   UNL     1       2.276   5.223   1.346  1.00  0.00     0.000 C 
BRANCH   2   3
ATOM      3  C   UNL     1       2.907   5.836   2.609  1.00  0.00     0.006 C 
BRANCH   3   4
ATOM      4  C   UNL     1       1.936   5.899   3.795  1.00  0.00     0.053 C 
BRANCH   4   5
ATOM      5  C   UNL     1       1.006   7.062   3.648  1.00  0.00     0.041 C 
ATOM      6  O   UNL     1       1.390   8.222   3.954  1.00  0.00    -0.550 OA
ATOM      7  O   UNL     1      -0.267   6.872   3.126  1.00  0.00    -0.550 OA
ENDBRANCH   4   5
ENDBRANCH   3   4
ENDBRANCH   2   3
ENDBRANCH   1   2
BRANCH   1   8
ATOM      8  C   UNL     1       2.400   5.361  -1.213  1.00  0.00     0.000 C 
BRANCH   8   9
ATOM      9  C   UNL     1       3.071   6.342  -2.189  1.00  0.00     0.006 C 
BRANCH   9  10
ATOM     10  C   UNL     1       4.513   6.684  -1.785  1.00  0.00     0.053 C 
BRANCH  10  11
ATOM     11  C   UNL     1       5.484   5.906  -2.614  1.00  0.00     0.041 C 
ATOM     12  O   UNL     1       6.359   5.190  -2.060  1.00  0.00    -0.550 OA
ATOM     13  O   UNL     1       5.456   6.009  -3.999  1.00  0.00    -0.550 OA
ENDBRANCH  10  11
ENDBRANCH   9  10
ENDBRANCH   8   9
ENDBRANCH   1   8
TORSDOF 8
ENDMDL
MODEL 7
REMARK VINA RESULT:    -4.024      5.450      6.538
REMARK INTER + INTRA:          -6.030
REMARK INTER:                  -5.696
REMARK INTRA:                  -0.334
REMARK UNBOUND:                -0.123
REMARK SMILES O=C([O-])CCCCCCCC(=O)[O-]
REMARK SMILES IDX 7 1 6 2 5 3 4 4 2 5 1 6 3 7 8 8 9 9 10 10 11 11 12 12 13 13
REMARK H PARENT
REMARK Flexibility Score: inf
ROOT
ATOM      1  C   UNL     1       3.194   5.097  -0.119  1.00  0.00     0.000 C 
ENDROOT
BRANCH   1   2
ATOM      2  C   UNL     1       2.650   5.304  -1.545  1.00  0.00     0.000 C 
BRANCH   2   3
ATOM      3  C   UNL     1       3.294   6.464  -2.327  1.00  0.00     0.006 C 
BRANCH   3   4
ATOM      4  C   UNL     1       4.731   6.762  -1.883  1.00  0.00     0.053 C 
BRANCH   4   5
ATOM      5  C   UNL     1       5.710   6.163  -2.843  1.00  0.00     0.041 C 
ATOM      6  O   UNL     1       6.908   5.986  -2.498  1.00  0.00    -0.550 OA
ATOM      7  O   UNL     1       5.288   5.753  -4.101  1.00  0.00    -0.550 OA
ENDBRANCH   4   5
ENDBRANCH   3   4
ENDBRANCH   2   3
ENDBRANCH   1   2
BRANCH   1   8
ATOM      8  C   UNL     1       2.107   5.238   0.962  1.00  0.00     0.000 C 
BRANCH   8   9
ATOM      9  C   UNL     1       2.650   4.984   2.379  1.00  0.00     0.006 C 
BRANCH   9  10
ATOM     10  C   UNL     1       2.917   6.282   3.152  1.00  0.00     0.053 C 
BRANCH  10  11
ATOM     11  C   UNL     1       1.650   6.799   3.754  1.00  0.00     0.041 C 
ATOM     12  O   UNL     1       1.509   8.031   3.976  1.00  0.00    -0.550 OA
ATOM     13  O   UNL     1       0.641   5.916   4.119  1.00  0.00    -0.550 OA
ENDBRANCH  10  11
ENDBRANCH   9  10
ENDBRANCH   8   9
ENDBRANCH   1   8
TORSDOF 8
ENDMDL
MODEL 8
REMARK VINA RESULT:    -4.007     13.306     15.265
REMARK INTER + INTRA:          -6.004
REMARK INTER:                  -5.622
REMARK INTRA:                  -0.383
REMARK UNBOUND:                -0.123
REMARK SMILES O=C([O-])CCCCCCCC(=O)[O-]
REMARK SMILES IDX 7 1 6 2 5 3 4 4 2 5 1 6 3 7 8 8 9 9 10 10 11 11 12 12 13 13
REMARK H PARENT
REMARK Flexibility Score: inf
ROOT
ATOM      1  C   UNL     1      -2.792  -5.010  -0.363  1.00  0.00     0.000 C 
ENDROOT
BRANCH   1   2
ATOM      2  C   UNL     1      -2.290  -5.415  -1.761  1.00  0.00     0.000 C 
BRANCH   2   3
ATOM      3  C   UNL     1      -3.175  -6.433  -2.504  1.00  0.00     0.006 C 
BRANCH   3   4
ATOM      4  C   UNL     1      -4.528  -6.662  -1.819  1.00  0.00     0.053 C 
BRANCH   4   5
ATOM      5  C   UNL     1      -5.625  -6.002  -2.593  1.00  0.00     0.041 C 
ATOM      6  O   UNL     1      -6.377  -6.686  -3.335  1.00  0.00    -0.550 OA
ATOM      7  O   UNL     1      -5.849  -4.638  -2.454  1.00  0.00    -0.550 OA
ENDBRANCH   4   5
ENDBRANCH   3   4
ENDBRANCH   2   3
ENDBRANCH   1   2
BRANCH   1   8
ATOM      8  C   UNL     1      -1.722  -5.182   0.730  1.00  0.00     0.000 C 
BRANCH   8   9
ATOM      9  C   UNL     1      -2.246  -4.818   2.129  1.00  0.00     0.006 C 
BRANCH   9  10
ATOM     10  C   UNL     1      -2.746  -6.041   2.910  1.00  0.00     0.053 C 
BRANCH  10  11
ATOM     11  C   UNL     1      -1.626  -6.654   3.689  1.00  0.00     0.041 C 
ATOM     12  O   UNL     1      -0.668  -5.942   4.089  1.00  0.00    -0.550 OA
ATOM     13  O   UNL     1      -1.614  -8.023   3.932  1.00  0.00    -0.550 OA
ENDBRANCH  10  11
ENDBRANCH   9  10
ENDBRANCH   8   9
ENDBRANCH   1   8
TORSDOF 8
ENDMDL
MODEL 9
REMARK VINA RESULT:    -3.997     14.138     16.085
REMARK INTER + INTRA:          -5.990
REMARK INTER:                  -5.597
REMARK INTRA:                  -0.393
REMARK UNBOUND:                -0.123
REMARK SMILES O=C([O-])CCCCCCCC(=O)[O-]
REMARK SMILES IDX 7 1 6 2 5 3 4 4 2 5 1 6 3 7 8 8 9 9 10 10 11 11 12 12 13 13
REMARK H PARENT
REMARK Flexibility Score: inf
ROOT
ATOM      1  C   UNL     1      -3.153  -6.338  -2.325  1.00  0.00     0.000 C 
ENDROOT
BRANCH   1   2
ATOM      2  C   UNL     1      -4.623  -6.639  -1.978  1.00  0.00     0.000 C 
BRANCH   2   3
ATOM      3  C   UNL     1      -5.644  -6.244  -3.061  1.00  0.00     0.006 C 
BRANCH   3   4
ATOM      4  C   UNL     1      -6.716  -5.275  -2.548  1.00  0.00     0.053 C 
BRANCH   4   5
ATOM      5  C   UNL     1      -7.861  -5.204  -3.509  1.00  0.00     0.041 C 
ATOM      6  O   UNL     1      -7.808  -5.824  -4.604  1.00  0.00    -0.550 OA
ATOM      7  O   UNL     1      -9.008  -4.496  -3.173  1.00  0.00    -0.550 OA
ENDBRANCH   4   5
ENDBRANCH   3   4
ENDBRANCH   2   3
ENDBRANCH   1   2
BRANCH   1   8
ATOM      8  C   UNL     1      -2.458  -5.458  -1.271  1.00  0.00     0.000 C 
BRANCH   8   9
ATOM      9  C   UNL     1      -3.414  -5.011  -0.153  1.00  0.00     0.006 C 
BRANCH   9  10
ATOM     10  C   UNL     1      -2.681  -4.345   1.020  1.00  0.00     0.053 C 
BRANCH  10  11
ATOM     11  C   UNL     1      -2.231  -5.375   2.006  1.00  0.00     0.041 C 
ATOM     12  O   UNL     1      -1.032  -5.761   2.016  1.00  0.00    -0.550 OA
ATOM     13  O   UNL     1      -3.145  -5.947   2.882  1.00  0.00    -0.550 OA
ENDBRANCH  10  11
ENDBRANCH   9  10
ENDBRANCH   8   9
ENDBRANCH   1   8
TORSDOF 8
ENDMDL
