MODEL 1
REMARK VINA RESULT:    -3.865      0.000      0.000
REMARK INTER + INTRA:          -4.024
REMARK INTER:                  -4.769
REMARK INTRA:                   0.745
REMARK UNBOUND:                 0.745
REMARK SMILES CC1=CC=CC(C)(C)CC1=O
REMARK SMILES IDX 1 1 2 2 3 3 10 4 11 5 9 6 4 8 5 9 6 10 7 11 8 12
REMARK H PARENT
REMARK Flexibility Score: 80.00
ROOT
ATOM      1  C   UNL     1      20.412  -9.636  63.574  1.00  0.00     0.048 C 
ATOM      2  C   UNL     1      19.395  -9.834  64.673  1.00  0.00    -0.008 C 
ATOM      3  C   UNL     1      19.759  -9.502  65.930  1.00  0.00     0.007 C 
ENDROOT
BRANCH   2   4
ATOM      4  C   UNL     1      18.101 -10.453  64.292  1.00  0.00     0.159 C 
ATOM      5  O   UNL     1      17.982 -10.956  63.140  1.00  0.00    -0.295 OA
BRANCH   4   6
ATOM      6  C   UNL     1      16.911 -10.504  65.200  1.00  0.00     0.091 CG0
ATOM      7  G   UNL     1      17.188 -11.246  66.526  1.00  0.00     0.000 G0
ENDBRANCH   4   6
ENDBRANCH   2   4
BRANCH   3   8
ATOM      8  C   UNL     1      19.001  -9.606  67.199  1.00  0.00    -0.003 C 
ATOM      9  C   UNL     1      17.919 -10.344  67.478  1.00  0.00    -0.020 C 
BRANCH   9  10
ATOM     10  C   UNL     1      17.181 -11.250  66.522  1.00  0.00    -0.010 CG0
ATOM     11  C   UNL     1      15.809 -11.597  67.145  1.00  0.00     0.016 C 
ATOM     12  C   UNL     1      17.964 -12.569  66.332  1.00  0.00     0.016 C 
ATOM     13  G   UNL     1      16.930 -10.508  65.191  1.00  0.00     0.000 G0
ENDBRANCH   9  10
ENDBRANCH   3   8
TORSDOF 0
ENDMDL
MODEL 2
REMARK VINA RESULT:    -3.702      1.372      2.209
REMARK INTER + INTRA:          -3.822
REMARK INTER:                  -4.577
REMARK INTRA:                   0.755
REMARK UNBOUND:                 0.745
REMARK SMILES CC1=CC=CC(C)(C)CC1=O
REMARK SMILES IDX 1 1 2 2 3 3 10 4 11 5 9 6 4 8 5 9 6 10 7 11 8 12
REMARK H PARENT
REMARK Flexibility Score: 80.00
ROOT
ATOM      1  C   UNL     1      20.853  -9.717  63.659  1.00  0.00     0.048 C 
ATOM      2  C   UNL     1      19.500 -10.169  64.155  1.00  0.00    -0.008 C 
ATOM      3  C   UNL     1      18.412  -9.530  63.675  1.00  0.00     0.007 C 
ENDROOT
BRANCH   2   4
ATOM      4  C   UNL     1      19.481 -11.231  65.192  1.00  0.00     0.159 C 
ATOM      5  O   UNL     1      20.570 -11.577  65.730  1.00  0.00    -0.295 OA
BRANCH   4   6
ATOM      6  C   UNL     1      18.234 -11.932  65.634  1.00  0.00     0.091 CG0
ATOM      7  G   UNL     1      17.156 -10.972  66.181  1.00  0.00     0.000 G0
ENDBRANCH   4   6
ENDBRANCH   2   4
BRANCH   3   8
ATOM      8  C   UNL     1      16.977  -9.728  63.989  1.00  0.00    -0.003 C 
ATOM      9  C   UNL     1      16.420 -10.327  65.049  1.00  0.00    -0.020 C 
BRANCH   9  10
ATOM     10  C   UNL     1      17.150 -10.986  66.194  1.00  0.00    -0.010 CG0
ATOM     11  C   UNL     1      16.136 -11.841  66.988  1.00  0.00     0.016 C 
ATOM     12  C   UNL     1      17.717  -9.910  67.148  1.00  0.00     0.016 C 
ATOM     13  G   UNL     1      18.243 -11.927  65.641  1.00  0.00     0.000 G0
ENDBRANCH   9  10
ENDBRANCH   3   8
TORSDOF 0
ENDMDL
MODEL 3
REMARK VINA RESULT:    -3.643      1.484      2.221
REMARK INTER + INTRA:          -3.750
REMARK INTER:                  -4.504
REMARK INTRA:                   0.754
REMARK UNBOUND:                 0.745
REMARK SMILES CC1=CC=CC(C)(C)CC1=O
REMARK SMILES IDX 1 1 2 2 3 3 10 4 11 5 9 6 4 8 5 9 6 10 7 11 8 12
REMARK H PARENT
REMARK Flexibility Score: 80.00
ROOT
ATOM      1  C   UNL     1      17.603  -9.783  63.069  1.00  0.00     0.048 C 
ATOM      2  C   UNL     1      18.259  -9.919  64.423  1.00  0.00    -0.008 C 
ATOM      3  C   UNL     1      19.606  -9.839  64.477  1.00  0.00     0.007 C 
ENDROOT
BRANCH   2   4
ATOM      4  C   UNL     1      17.372 -10.207  65.578  1.00  0.00     0.159 C 
ATOM      5  O   UNL     1      16.170 -10.522  65.359  1.00  0.00    -0.295 OA
BRANCH   4   6
ATOM      6  C   UNL     1      17.823 -10.131  67.004  1.00  0.00     0.091 CG0
ATOM      7  G   UNL     1      18.995 -11.084  67.324  1.00  0.00     0.000 G0
ENDBRANCH   4   6
ENDBRANCH   2   4
BRANCH   3   8
ATOM      8  C   UNL     1      20.521  -9.958  65.636  1.00  0.00    -0.003 C 
ATOM      9  C   UNL     1      20.288 -10.489  66.843  1.00  0.00    -0.020 C 
BRANCH   9  10
ATOM     10  C   UNL     1      18.987 -11.084  67.326  1.00  0.00    -0.010 CG0
ATOM     11  C   UNL     1      19.062 -11.229  68.864  1.00  0.00     0.016 C 
ATOM     12  C   UNL     1      18.796 -12.495  66.724  1.00  0.00     0.016 C 
ATOM     13  G   UNL     1      17.822 -10.128  66.991  1.00  0.00     0.000 G0
ENDBRANCH   9  10
ENDBRANCH   3   8
TORSDOF 0
ENDMDL
MODEL 4
REMARK VINA RESULT:    -3.610      1.628      2.753
REMARK INTER + INTRA:          -3.709
REMARK INTER:                  -4.455
REMARK INTRA:                   0.746
REMARK UNBOUND:                 0.745
REMARK SMILES CC1=CC=CC(C)(C)CC1=O
REMARK SMILES IDX 1 1 2 2 3 3 10 4 11 5 9 6 4 8 5 9 6 10 7 11 8 12
REMARK H PARENT
REMARK Flexibility Score: 80.00
ROOT
ATOM      1  C   UNL     1      17.549  -9.599  63.399  1.00  0.00     0.048 C 
ATOM      2  C   UNL     1      17.727 -10.374  64.684  1.00  0.00    -0.008 C 
ATOM      3  C   UNL     1      16.613 -10.802  65.316  1.00  0.00     0.007 C 
ENDROOT
BRANCH   2   4
ATOM      4  C   UNL     1      19.112 -10.534  65.190  1.00  0.00     0.159 C 
ATOM      5  O   UNL     1      20.039  -9.867  64.652  1.00  0.00    -0.295 OA
BRANCH   4   6
ATOM      6  C   UNL     1      19.482 -11.462  66.307  1.00  0.00     0.091 CG0
ATOM      7  G   UNL     1      18.740 -11.154  67.625  1.00  0.00     0.000 G0
ENDBRANCH   4   6
ENDBRANCH   2   4
BRANCH   3   8
ATOM      8  C   UNL     1      16.467 -11.551  66.586  1.00  0.00    -0.003 C 
ATOM      9  C   UNL     1      17.350 -11.703  67.582  1.00  0.00    -0.020 C 
BRANCH   9  10
ATOM     10  C   UNL     1      18.755 -11.150  67.628  1.00  0.00    -0.010 CG0
ATOM     11  C   UNL     1      19.522 -11.871  68.760  1.00  0.00     0.016 C 
ATOM     12  C   UNL     1      18.718  -9.642  67.963  1.00  0.00     0.016 C 
ATOM     13  G   UNL     1      19.474 -11.447  66.294  1.00  0.00     0.000 G0
ENDBRANCH   9  10
ENDBRANCH   3   8
TORSDOF 0
ENDMDL
MODEL 5
REMARK VINA RESULT:    -3.581      1.405      3.454
REMARK INTER + INTRA:          -3.673
REMARK INTER:                  -4.432
REMARK INTRA:                   0.759
REMARK UNBOUND:                 0.745
REMARK SMILES CC1=CC=CC(C)(C)CC1=O
REMARK SMILES IDX 1 1 2 2 3 3 10 4 11 5 9 6 4 8 5 9 6 10 7 11 8 12
REMARK H PARENT
REMARK Flexibility Score: 80.00
ROOT
ATOM      1  C   UNL     1      15.393 -11.792  66.949  1.00  0.00     0.048 C 
ATOM      2  C   UNL     1      16.783 -11.292  66.633  1.00  0.00    -0.008 C 
ATOM      3  C   UNL     1      17.231 -10.216  67.315  1.00  0.00     0.007 C 
ENDROOT
BRANCH   2   4
ATOM      4  C   UNL     1      17.515 -11.978  65.539  1.00  0.00     0.159 C 
ATOM      5  O   UNL     1      16.884 -12.775  64.790  1.00  0.00    -0.295 OA
BRANCH   4   6
ATOM      6  C   UNL     1      18.978 -11.789  65.279  1.00  0.00     0.091 CG0
ATOM      7  G   UNL     1      19.352 -10.330  64.937  1.00  0.00     0.000 G0
ENDBRANCH   4   6
ENDBRANCH   2   4
BRANCH   3   8
ATOM      8  C   UNL     1      18.519  -9.492  67.209  1.00  0.00    -0.003 C 
ATOM      9  C   UNL     1      19.419  -9.510  66.216  1.00  0.00    -0.020 C 
BRANCH   9  10
ATOM     10  C   UNL     1      19.337 -10.322  64.946  1.00  0.00    -0.010 CG0
ATOM     11  C   UNL     1      20.732 -10.321  64.280  1.00  0.00     0.016 C 
ATOM     12  C   UNL     1      18.339  -9.667  63.964  1.00  0.00     0.016 C 
ATOM     13  G   UNL     1      18.967 -11.783  65.285  1.00  0.00     0.000 G0
ENDBRANCH   9  10
ENDBRANCH   3   8
TORSDOF 0
ENDMDL
MODEL 6
REMARK VINA RESULT:    -3.579      1.897      3.660
REMARK INTER + INTRA:          -3.671
REMARK INTER:                  -4.413
REMARK INTRA:                   0.742
REMARK UNBOUND:                 0.745
REMARK SMILES CC1=CC=CC(C)(C)CC1=O
REMARK SMILES IDX 1 1 2 2 3 3 10 4 11 5 9 6 4 8 5 9 6 10 7 11 8 12
REMARK H PARENT
REMARK Flexibility Score: 80.00
ROOT
ATOM      1  C   UNL     1      14.350 -11.921  64.888  1.00  0.00     0.048 C 
ATOM      2  C   UNL     1      15.653 -11.157  64.860  1.00  0.00    -0.008 C 
ATOM      3  C   UNL     1      16.133 -10.783  63.654  1.00  0.00     0.007 C 
ENDROOT
BRANCH   2   4
ATOM      4  C   UNL     1      16.341 -10.946  66.158  1.00  0.00     0.159 C 
ATOM      5  O   UNL     1      15.936 -11.579  67.172  1.00  0.00    -0.295 OA
BRANCH   4   6
ATOM      6  C   UNL     1      17.493 -10.006  66.339  1.00  0.00     0.091 CG0
ATOM      7  G   UNL     1      18.711 -10.358  65.458  1.00  0.00     0.000 G0
ENDBRANCH   4   6
ENDBRANCH   2   4
BRANCH   3   8
ATOM      8  C   UNL     1      17.378 -10.057  63.309  1.00  0.00    -0.003 C 
ATOM      9  C   UNL     1      18.482  -9.877  64.046  1.00  0.00    -0.020 C 
BRANCH   9  10
ATOM     10  C   UNL     1      18.708 -10.366  65.457  1.00  0.00    -0.010 CG0
ATOM     11  C   UNL     1      19.933  -9.622  66.036  1.00  0.00     0.016 C 
ATOM     12  C   UNL     1      19.029 -11.878  65.447  1.00  0.00     0.016 C 
ATOM     13  G   UNL     1      17.481 -10.023  66.330  1.00  0.00     0.000 G0
ENDBRANCH   9  10
ENDBRANCH   3   8
TORSDOF 0
ENDMDL
MODEL 7
REMARK VINA RESULT:    -3.565      1.399      1.768
REMARK INTER + INTRA:          -3.654
REMARK INTER:                  -4.409
REMARK INTRA:                   0.755
REMARK UNBOUND:                 0.745
REMARK SMILES CC1=CC=CC(C)(C)CC1=O
REMARK SMILES IDX 1 1 2 2 3 3 10 4 11 5 9 6 4 8 5 9 6 10 7 11 8 12
REMARK H PARENT
REMARK Flexibility Score: 80.00
ROOT
ATOM      1  C   UNL     1      20.060  -9.627  64.732  1.00  0.00     0.048 C 
ATOM      2  C   UNL     1      18.675 -10.081  65.129  1.00  0.00    -0.008 C 
ATOM      3  C   UNL     1      18.493 -10.497  66.400  1.00  0.00     0.007 C 
ENDROOT
BRANCH   2   4
ATOM      4  C   UNL     1      17.641 -10.105  64.064  1.00  0.00     0.159 C 
ATOM      5  O   UNL     1      18.001  -9.960  62.862  1.00  0.00    -0.295 OA
BRANCH   4   6
ATOM      6  C   UNL     1      16.179 -10.280  64.336  1.00  0.00     0.091 CG0
ATOM      7  G   UNL     1      15.845 -11.614  65.038  1.00  0.00     0.000 G0
ENDBRANCH   4   6
ENDBRANCH   2   4
BRANCH   3   8
ATOM      8  C   UNL     1      17.275 -11.015  67.066  1.00  0.00    -0.003 C 
ATOM      9  C   UNL     1      16.155 -11.502  66.517  1.00  0.00    -0.020 C 
BRANCH   9  10
ATOM     10  C   UNL     1      15.854 -11.613  65.041  1.00  0.00    -0.010 CG0
ATOM     11  C   UNL     1      14.339 -11.872  64.873  1.00  0.00     0.016 C 
ATOM     12  C   UNL     1      16.613 -12.816  64.436  1.00  0.00     0.016 C 
ATOM     13  G   UNL     1      16.194 -10.280  64.339  1.00  0.00     0.000 G0
ENDBRANCH   9  10
ENDBRANCH   3   8
TORSDOF 0
ENDMDL
MODEL 8
REMARK VINA RESULT:    -3.528      2.135      3.209
REMARK INTER + INTRA:          -3.609
REMARK INTER:                  -4.364
REMARK INTRA:                   0.756
REMARK UNBOUND:                 0.745
REMARK SMILES CC1=CC=CC(C)(C)CC1=O
REMARK SMILES IDX 1 1 2 2 3 3 10 4 11 5 9 6 4 8 5 9 6 10 7 11 8 12
REMARK H PARENT
REMARK Flexibility Score: 80.00
ROOT
ATOM      1  C   UNL     1      20.321 -12.378  69.067  1.00  0.00     0.048 C 
ATOM      2  C   UNL     1      19.705 -11.845  67.795  1.00  0.00    -0.008 C 
ATOM      3  C   UNL     1      20.316 -10.802  67.194  1.00  0.00     0.007 C 
ENDROOT
BRANCH   2   4
ATOM      4  C   UNL     1      18.430 -12.461  67.351  1.00  0.00     0.159 C 
ATOM      5  O   UNL     1      17.818 -13.231  68.143  1.00  0.00    -0.295 OA
BRANCH   4   6
ATOM      6  C   UNL     1      17.828 -12.232  65.999  1.00  0.00     0.091 CG0
ATOM      7  G   UNL     1      17.502 -10.748  65.721  1.00  0.00     0.000 G0
ENDBRANCH   4   6
ENDBRANCH   2   4
BRANCH   3   8
ATOM      8  C   UNL     1      19.941 -10.057  65.969  1.00  0.00    -0.003 C 
ATOM      9  C   UNL     1      18.760 -10.007  65.340  1.00  0.00    -0.020 C 
BRANCH   9  10
ATOM     10  C   UNL     1      17.503 -10.746  65.732  1.00  0.00    -0.010 CG0
ATOM     11  C   UNL     1      16.515 -10.685  64.544  1.00  0.00     0.016 C 
ATOM     12  C   UNL     1      16.837 -10.052  66.942  1.00  0.00     0.016 C 
ATOM     13  G   UNL     1      17.835 -12.230  66.004  1.00  0.00     0.000 G0
ENDBRANCH   9  10
ENDBRANCH   3   8
TORSDOF 0
ENDMDL
MODEL 9
REMARK VINA RESULT:    -3.406      1.829      3.295
REMARK INTER + INTRA:          -3.457
REMARK INTER:                  -4.218
REMARK INTRA:                   0.761
REMARK UNBOUND:                 0.745
REMARK SMILES CC1=CC=CC(C)(C)CC1=O
REMARK SMILES IDX 1 1 2 2 3 3 10 4 11 5 9 6 4 8 5 9 6 10 7 11 8 12
REMARK H PARENT
REMARK Flexibility Score: 80.00
ROOT
ATOM      1  C   UNL     1      18.266  -9.939  67.981  1.00  0.00     0.048 C 
ATOM      2  C   UNL     1      18.163 -10.298  66.517  1.00  0.00    -0.008 C 
ATOM      3  C   UNL     1      18.863  -9.549  65.638  1.00  0.00     0.007 C 
ENDROOT
BRANCH   2   4
ATOM      4  C   UNL     1      17.237 -11.399  66.154  1.00  0.00     0.159 C 
ATOM      5  O   UNL     1      16.442 -11.840  67.031  1.00  0.00    -0.295 OA
BRANCH   4   6
ATOM      6  C   UNL     1      17.199 -12.034  64.799  1.00  0.00     0.091 CG0
ATOM      7  G   UNL     1      16.865 -11.037  63.668  1.00  0.00     0.000 G0
ENDBRANCH   4   6
ENDBRANCH   2   4
BRANCH   3   8
ATOM      8  C   UNL     1      18.941  -9.639  64.161  1.00  0.00    -0.003 C 
ATOM      9  C   UNL     1      18.110 -10.250  63.308  1.00  0.00    -0.020 C 
BRANCH   9  10
ATOM     10  C   UNL     1      16.874 -11.039  63.669  1.00  0.00    -0.010 CG0
ATOM     11  C   UNL     1      16.438 -11.853  62.429  1.00  0.00     0.016 C 
ATOM     12  C   UNL     1      15.721 -10.076  64.036  1.00  0.00     0.016 C 
ATOM     13  G   UNL     1      17.204 -12.033  64.804  1.00  0.00     0.000 G0
ENDBRANCH   9  10
ENDBRANCH   3   8
TORSDOF 0
ENDMDL
