MODEL 1
REMARK VINA RESULT:    -3.417      0.000      0.000
REMARK INTER + INTRA:          -4.338
REMARK INTER:                  -4.116
REMARK INTRA:                  -0.222
REMARK UNBOUND:                -0.222
REMARK SMILES OCC(O)CO
REMARK SMILES IDX 3 1 5 2 6 3 2 5 1 6 4 8
REMARK H PARENT 6 4 1 7 4 9
REMARK Flexibility Score: inf
ROOT
ATOM      1  C   UNL     1      -3.351   7.757  22.461  1.00  0.00     0.165 C 
ENDROOT
BRANCH   1   2
ATOM      2  C   UNL     1      -1.973   7.127  22.209  1.00  0.00     0.190 C 
BRANCH   2   3
ATOM      3  O   UNL     1      -1.052   7.521  23.191  1.00  0.00    -0.394 OA
ATOM      4  H   UNL     1      -0.883   6.723  23.757  1.00  0.00     0.210 HD
ENDBRANCH   2   3
ENDBRANCH   1   2
BRANCH   1   5
ATOM      5  C   UNL     1      -3.531   8.189  23.927  1.00  0.00     0.190 C 
BRANCH   5   6
ATOM      6  O   UNL     1      -3.413   7.090  24.793  1.00  0.00    -0.394 OA
ATOM      7  H   UNL     1      -4.272   7.017  25.283  1.00  0.00     0.210 HD
ENDBRANCH   5   6
ENDBRANCH   1   5
BRANCH   1   8
ATOM      8  O   UNL     1      -4.347   6.832  22.107  1.00  0.00    -0.388 OA
ATOM      9  H   UNL     1      -4.594   6.345  22.937  1.00  0.00     0.211 HD
ENDBRANCH   1   8
TORSDOF 5
ENDMDL
MODEL 2
REMARK VINA RESULT:    -3.404      1.716      2.490
REMARK INTER + INTRA:          -4.323
REMARK INTER:                  -4.320
REMARK INTRA:                  -0.002
REMARK UNBOUND:                -0.222
REMARK SMILES OCC(O)CO
REMARK SMILES IDX 3 1 5 2 6 3 2 5 1 6 4 8
REMARK H PARENT 6 4 1 7 4 9
REMARK Flexibility Score: inf
ROOT
ATOM      1  C   UNL     1      -2.203   7.766  22.284  1.00  0.00     0.165 C 
ENDROOT
BRANCH   1   2
ATOM      2  C   UNL     1      -1.869   7.342  23.722  1.00  0.00     0.190 C 
BRANCH   2   3
ATOM      3  O   UNL     1      -1.139   6.145  23.737  1.00  0.00    -0.394 OA
ATOM      4  H   UNL     1      -0.180   6.396  23.687  1.00  0.00     0.210 HD
ENDBRANCH   2   3
ENDBRANCH   1   2
BRANCH   1   5
ATOM      5  C   UNL     1      -3.689   7.548  21.947  1.00  0.00     0.190 C 
BRANCH   5   6
ATOM      6  O   UNL     1      -4.060   8.282  20.809  1.00  0.00    -0.394 OA
ATOM      7  H   UNL     1      -3.488   9.093  20.791  1.00  0.00     0.210 HD
ENDBRANCH   5   6
ENDBRANCH   1   5
BRANCH   1   8
ATOM      8  O   UNL     1      -1.397   7.037  21.394  1.00  0.00    -0.388 OA
ATOM      9  H   UNL     1      -0.957   7.697  20.797  1.00  0.00     0.211 HD
ENDBRANCH   1   8
TORSDOF 5
ENDMDL
MODEL 3
REMARK VINA RESULT:    -3.392      0.890      2.813
REMARK INTER + INTRA:          -4.308
REMARK INTER:                  -4.306
REMARK INTRA:                  -0.002
REMARK UNBOUND:                -0.222
REMARK SMILES OCC(O)CO
REMARK SMILES IDX 3 1 5 2 6 3 2 5 1 6 4 8
REMARK H PARENT 6 4 1 7 4 9
REMARK Flexibility Score: inf
ROOT
ATOM      1  C   UNL     1      -3.427   7.756  22.936  1.00  0.00     0.165 C 
ENDROOT
BRANCH   1   2
ATOM      2  C   UNL     1      -4.618   7.326  22.069  1.00  0.00     0.190 C 
BRANCH   2   3
ATOM      3  O   UNL     1      -5.601   6.691  22.842  1.00  0.00    -0.394 OA
ATOM      4  H   UNL     1      -5.266   5.776  23.032  1.00  0.00     0.210 HD
ENDBRANCH   2   3
ENDBRANCH   1   2
BRANCH   1   5
ATOM      5  C   UNL     1      -2.081   7.321  22.329  1.00  0.00     0.190 C 
BRANCH   5   6
ATOM      6  O   UNL     1      -1.042   7.445  23.265  1.00  0.00    -0.394 OA
ATOM      7  H   UNL     1      -0.904   8.416  23.413  1.00  0.00     0.210 HD
ENDBRANCH   5   6
ENDBRANCH   1   5
BRANCH   1   8
ATOM      8  O   UNL     1      -3.574   7.204  24.220  1.00  0.00    -0.388 OA
ATOM      9  H   UNL     1      -4.527   7.318  24.474  1.00  0.00     0.211 HD
ENDBRANCH   1   8
TORSDOF 5
ENDMDL
MODEL 4
REMARK VINA RESULT:    -3.382     16.634     17.588
REMARK INTER + INTRA:          -4.296
REMARK INTER:                  -4.115
REMARK INTRA:                  -0.181
REMARK UNBOUND:                -0.222
REMARK SMILES OCC(O)CO
REMARK SMILES IDX 3 1 5 2 6 3 2 5 1 6 4 8
REMARK H PARENT 6 4 1 7 4 9
REMARK Flexibility Score: inf
ROOT
ATOM      1  C   UNL     1       4.907  17.907  34.964  1.00  0.00     0.165 C 
ENDROOT
BRANCH   1   2
ATOM      2  C   UNL     1       4.147  17.017  35.959  1.00  0.00     0.190 C 
BRANCH   2   3
ATOM      3  O   UNL     1       5.010  16.100  36.574  1.00  0.00    -0.394 OA
ATOM      4  H   UNL     1       5.523  16.605  37.257  1.00  0.00     0.210 HD
ENDBRANCH   2   3
ENDBRANCH   1   2
BRANCH   1   5
ATOM      5  C   UNL     1       5.275  17.151  33.675  1.00  0.00     0.190 C 
BRANCH   5   6
ATOM      6  O   UNL     1       5.468  15.784  33.931  1.00  0.00    -0.394 OA
ATOM      7  H   UNL     1       5.506  15.329  33.050  1.00  0.00     0.210 HD
ENDBRANCH   5   6
ENDBRANCH   1   5
BRANCH   1   8
ATOM      8  O   UNL     1       6.069  18.395  35.583  1.00  0.00    -0.388 OA
ATOM      9  H   UNL     1       6.256  19.284  35.183  1.00  0.00     0.211 HD
ENDBRANCH   1   8
TORSDOF 5
ENDMDL
MODEL 5
REMARK VINA RESULT:    -3.368      1.357      1.528
REMARK INTER + INTRA:          -4.280
REMARK INTER:                  -4.058
REMARK INTRA:                  -0.222
REMARK UNBOUND:                -0.222
REMARK SMILES OCC(O)CO
REMARK SMILES IDX 3 1 5 2 6 3 2 5 1 6 4 8
REMARK H PARENT 6 4 1 7 4 9
REMARK Flexibility Score: inf
ROOT
ATOM      1  C   UNL     1      -3.204   7.848  23.432  1.00  0.00     0.165 C 
ENDROOT
BRANCH   1   2
ATOM      2  C   UNL     1      -2.684   7.393  22.061  1.00  0.00     0.190 C 
BRANCH   2   3
ATOM      3  O   UNL     1      -1.473   8.026  21.746  1.00  0.00    -0.394 OA
ATOM      4  H   UNL     1      -1.652   9.003  21.753  1.00  0.00     0.210 HD
ENDBRANCH   2   3
ENDBRANCH   1   2
BRANCH   1   5
ATOM      5  C   UNL     1      -2.220   7.507  24.566  1.00  0.00     0.190 C 
BRANCH   5   6
ATOM      6  O   UNL     1      -1.443   6.385  24.238  1.00  0.00    -0.394 OA
ATOM      7  H   UNL     1      -1.509   6.267  23.255  1.00  0.00     0.210 HD
ENDBRANCH   5   6
ENDBRANCH   1   5
BRANCH   1   8
ATOM      8  O   UNL     1      -4.445   7.239  23.675  1.00  0.00    -0.388 OA
ATOM      9  H   UNL     1      -4.770   7.585  24.548  1.00  0.00     0.211 HD
ENDBRANCH   1   8
TORSDOF 5
ENDMDL
MODEL 6
REMARK VINA RESULT:    -3.318      2.493      3.422
REMARK INTER + INTRA:          -4.218
REMARK INTER:                  -3.995
REMARK INTRA:                  -0.224
REMARK UNBOUND:                -0.222
REMARK SMILES OCC(O)CO
REMARK SMILES IDX 3 1 5 2 6 3 2 5 1 6 4 8
REMARK H PARENT 6 4 1 7 4 9
REMARK Flexibility Score: inf
ROOT
ATOM      1  C   UNL     1      -4.524   9.261  22.293  1.00  0.00     0.165 C 
ENDROOT
BRANCH   1   2
ATOM      2  C   UNL     1      -4.872   9.735  20.874  1.00  0.00     0.190 C 
BRANCH   2   3
ATOM      3  O   UNL     1      -4.582   8.743  19.926  1.00  0.00    -0.394 OA
ATOM      4  H   UNL     1      -4.888   9.090  19.048  1.00  0.00     0.210 HD
ENDBRANCH   2   3
ENDBRANCH   1   2
BRANCH   1   5
ATOM      5  C   UNL     1      -5.104   7.868  22.596  1.00  0.00     0.190 C 
BRANCH   5   6
ATOM      6  O   UNL     1      -4.236   6.856  22.159  1.00  0.00    -0.394 OA
ATOM      7  H   UNL     1      -4.401   6.735  21.188  1.00  0.00     0.210 HD
ENDBRANCH   5   6
ENDBRANCH   1   5
BRANCH   1   8
ATOM      8  O   UNL     1      -5.013  10.197  23.219  1.00  0.00    -0.388 OA
ATOM      9  H   UNL     1      -5.930  10.441  22.924  1.00  0.00     0.211 HD
ENDBRANCH   1   8
TORSDOF 5
ENDMDL
MODEL 7
REMARK VINA RESULT:    -3.314      1.747      2.663
REMARK INTER + INTRA:          -4.214
REMARK INTER:                  -4.187
REMARK INTRA:                  -0.027
REMARK UNBOUND:                -0.222
REMARK SMILES OCC(O)CO
REMARK SMILES IDX 3 1 5 2 6 3 2 5 1 6 4 8
REMARK H PARENT 6 4 1 7 4 9
REMARK Flexibility Score: inf
ROOT
ATOM      1  C   UNL     1      -3.841   7.538  21.662  1.00  0.00     0.165 C 
ENDROOT
BRANCH   1   2
ATOM      2  C   UNL     1      -2.559   7.658  22.498  1.00  0.00     0.190 C 
BRANCH   2   3
ATOM      3  O   UNL     1      -1.497   8.149  21.724  1.00  0.00    -0.394 OA
ATOM      4  H   UNL     1      -1.878   8.389  20.840  1.00  0.00     0.210 HD
ENDBRANCH   2   3
ENDBRANCH   1   2
BRANCH   1   5
ATOM      5  C   UNL     1      -4.384   8.913  21.234  1.00  0.00     0.190 C 
BRANCH   5   6
ATOM      6  O   UNL     1      -4.546   8.978  19.841  1.00  0.00    -0.394 OA
ATOM      7  H   UNL     1      -5.389   9.474  19.672  1.00  0.00     0.210 HD
ENDBRANCH   5   6
ENDBRANCH   1   5
BRANCH   1   8
ATOM      8  O   UNL     1      -4.811   6.851  22.411  1.00  0.00    -0.388 OA
ATOM      9  H   UNL     1      -5.496   6.529  21.767  1.00  0.00     0.211 HD
ENDBRANCH   1   8
TORSDOF 5
ENDMDL
MODEL 8
REMARK VINA RESULT:    -3.271      2.598      2.734
REMARK INTER + INTRA:          -4.163
REMARK INTER:                  -3.939
REMARK INTRA:                  -0.223
REMARK UNBOUND:                -0.222
REMARK SMILES OCC(O)CO
REMARK SMILES IDX 3 1 5 2 6 3 2 5 1 6 4 8
REMARK H PARENT 6 4 1 7 4 9
REMARK Flexibility Score: inf
ROOT
ATOM      1  C   UNL     1      -5.599   7.901  22.324  1.00  0.00     0.165 C 
ENDROOT
BRANCH   1   2
ATOM      2  C   UNL     1      -4.207   7.625  21.734  1.00  0.00     0.190 C 
BRANCH   2   3
ATOM      3  O   UNL     1      -3.645   8.795  21.203  1.00  0.00    -0.394 OA
ATOM      4  H   UNL     1      -3.738   8.733  20.217  1.00  0.00     0.210 HD
ENDBRANCH   2   3
ENDBRANCH   1   2
BRANCH   1   5
ATOM      5  C   UNL     1      -5.523   8.699  23.638  1.00  0.00     0.190 C 
BRANCH   5   6
ATOM      6  O   UNL     1      -5.192  10.040  23.393  1.00  0.00    -0.394 OA
ATOM      7  H   UNL     1      -4.889  10.095  22.450  1.00  0.00     0.210 HD
ENDBRANCH   5   6
ENDBRANCH   1   5
BRANCH   1   8
ATOM      8  O   UNL     1      -6.252   6.677  22.543  1.00  0.00    -0.388 OA
ATOM      9  H   UNL     1      -7.222   6.878  22.614  1.00  0.00     0.211 HD
ENDBRANCH   1   8
TORSDOF 5
ENDMDL
MODEL 9
REMARK VINA RESULT:    -3.245      2.670      3.464
REMARK INTER + INTRA:          -4.131
REMARK INTER:                  -3.908
REMARK INTRA:                  -0.222
REMARK UNBOUND:                -0.222
REMARK SMILES OCC(O)CO
REMARK SMILES IDX 3 1 5 2 6 3 2 5 1 6 4 8
REMARK H PARENT 6 4 1 7 4 9
REMARK Flexibility Score: inf
ROOT
ATOM      1  C   UNL     1      -5.217   7.744  22.653  1.00  0.00     0.165 C 
ENDROOT
BRANCH   1   2
ATOM      2  C   UNL     1      -5.944   8.946  23.275  1.00  0.00     0.190 C 
BRANCH   2   3
ATOM      3  O   UNL     1      -5.068  10.026  23.457  1.00  0.00    -0.394 OA
ATOM      4  H   UNL     1      -4.267   9.839  22.902  1.00  0.00     0.210 HD
ENDBRANCH   2   3
ENDBRANCH   1   2
BRANCH   1   5
ATOM      5  C   UNL     1      -4.607   8.083  21.281  1.00  0.00     0.190 C 
BRANCH   5   6
ATOM      6  O   UNL     1      -3.411   8.803  21.426  1.00  0.00    -0.394 OA
ATOM      7  H   UNL     1      -3.080   8.998  20.512  1.00  0.00     0.210 HD
ENDBRANCH   5   6
ENDBRANCH   1   5
BRANCH   1   8
ATOM      8  O   UNL     1      -6.122   6.678  22.526  1.00  0.00    -0.388 OA
ATOM      9  H   UNL     1      -6.227   6.280  23.430  1.00  0.00     0.211 HD
ENDBRANCH   1   8
TORSDOF 5
ENDMDL
