MODEL 1
REMARK VINA RESULT:    -6.898      0.000      0.000
REMARK INTER + INTRA:          -8.374
REMARK INTER:                  -8.107
REMARK INTRA:                  -0.267
REMARK UNBOUND:                -0.267
REMARK SMILES O=c1cc(-c2ccc(O)c(O)c2)oc2cc(O)cc(O)c12
REMARK SMILES IDX 4 1 3 2 2 3 1 4 21 5 19 6 18 7 16 8 15 9 14 10 13 11 5 12
REMARK SMILES IDX 6 13 7 14 8 15 12 16 10 17 9 18 11 20 20 22 17 24
REMARK H PARENT 9 19 11 21 20 23 17 25
REMARK Flexibility Score: inf
ROOT
ATOM      1  C   UNL     1     116.644 121.448 121.794  1.00  0.00     0.138 A 
ATOM      2  C   UNL     1     116.884 120.489 122.788  1.00  0.00     0.100 A 
ATOM      3  C   UNL     1     117.066 120.895 124.111  1.00  0.00     0.197 A 
ATOM      4  O   UNL     1     117.218 120.006 124.988  1.00  0.00    -0.289 OA
ATOM      5  C   UNL     1     117.037 122.272 124.434  1.00  0.00     0.107 A 
ATOM      6  C   UNL     1     117.250 122.804 125.741  1.00  0.00     0.134 A 
ATOM      7  C   UNL     1     117.083 124.176 125.962  1.00  0.00     0.093 A 
ATOM      8  C   UNL     1     116.770 125.043 124.912  1.00  0.00     0.123 A 
ATOM      9  C   UNL     1     116.613 124.541 123.623  1.00  0.00     0.094 A 
ATOM     10  C   UNL     1     116.739 123.171 123.376  1.00  0.00     0.146 A 
ATOM     11  O   UNL     1     116.568 122.732 122.134  1.00  0.00    -0.456 OA
ENDROOT
BRANCH   1  12
ATOM     12  C   UNL     1     116.445 121.073 120.371  1.00  0.00     0.021 A 
ATOM     13  C   UNL     1     117.308 121.531 119.359  1.00  0.00     0.016 A 
ATOM     14  C   UNL     1     117.092 121.169 118.026  1.00  0.00     0.051 A 
ATOM     15  C   UNL     1     116.008 120.353 117.682  1.00  0.00     0.157 A 
ATOM     16  C   UNL     1     115.351 120.264 120.015  1.00  0.00     0.062 A 
ATOM     17  C   UNL     1     115.132 119.901 118.682  1.00  0.00     0.158 A 
BRANCH  15  18
ATOM     18  O   UNL     1     115.796 119.994 116.351  1.00  0.00    -0.504 OA
ATOM     19  H   UNL     1     115.150 119.256 116.096  1.00  0.00     0.293 HD
ENDBRANCH  15  18
BRANCH  17  20
ATOM     20  O   UNL     1     114.042 119.089 118.371  1.00  0.00    -0.504 OA
ATOM     21  H   UNL     1     114.020 118.510 117.540  1.00  0.00     0.293 HD
ENDBRANCH  17  20
ENDBRANCH   1  12
BRANCH   6  22
ATOM     22  O   UNL     1     117.648 122.038 126.840  1.00  0.00    -0.507 OA
ATOM     23  H   UNL     1     117.377 122.215 127.795  1.00  0.00     0.293 HD
ENDBRANCH   6  22
BRANCH   8  24
ATOM     24  O   UNL     1     116.621 126.410 125.139  1.00  0.00    -0.508 OA
ATOM     25  H   UNL     1     117.012 126.856 125.961  1.00  0.00     0.293 HD
ENDBRANCH   8  24
TORSDOF 5
ENDMDL
MODEL 2
REMARK VINA RESULT:    -6.895      5.308      6.031
REMARK INTER + INTRA:          -8.371
REMARK INTER:                  -8.107
REMARK INTRA:                  -0.264
REMARK UNBOUND:                -0.267
REMARK SMILES O=c1cc(-c2ccc(O)c(O)c2)oc2cc(O)cc(O)c12
REMARK SMILES IDX 4 1 3 2 2 3 1 4 21 5 19 6 18 7 16 8 15 9 14 10 13 11 5 12
REMARK SMILES IDX 6 13 7 14 8 15 12 16 10 17 9 18 11 20 20 22 17 24
REMARK H PARENT 9 19 11 21 20 23 17 25
REMARK Flexibility Score: inf
ROOT
ATOM      1  C   UNL     1     121.370 122.414 121.757  1.00  0.00     0.138 A 
ATOM      2  C   UNL     1     120.380 122.170 122.720  1.00  0.00     0.100 A 
ATOM      3  C   UNL     1     120.746 121.977 124.053  1.00  0.00     0.197 A 
ATOM      4  O   UNL     1     119.831 121.822 124.903  1.00  0.00    -0.289 OA
ATOM      5  C   UNL     1     122.113 122.000 124.417  1.00  0.00     0.107 A 
ATOM      6  C   UNL     1     122.605 121.776 125.738  1.00  0.00     0.134 A 
ATOM      7  C   UNL     1     123.971 121.938 126.001  1.00  0.00     0.093 A 
ATOM      8  C   UNL     1     124.870 122.256 124.980  1.00  0.00     0.123 A 
ATOM      9  C   UNL     1     124.407 122.423 123.677  1.00  0.00     0.094 A 
ATOM     10  C   UNL     1     123.044 122.302 123.389  1.00  0.00     0.146 A 
ATOM     11  O   UNL     1     122.643 122.484 122.135  1.00  0.00    -0.456 OA
ENDROOT
BRANCH   1  12
ATOM     12  C   UNL     1     121.037 122.624 120.325  1.00  0.00     0.021 A 
ATOM     13  C   UNL     1     121.545 121.782 119.318  1.00  0.00     0.016 A 
ATOM     14  C   UNL     1     121.223 122.009 117.977  1.00  0.00     0.051 A 
ATOM     15  C   UNL     1     120.398 123.082 117.619  1.00  0.00     0.157 A 
ATOM     16  C   UNL     1     120.220 123.707 119.956  1.00  0.00     0.062 A 
ATOM     17  C   UNL     1     119.896 123.936 118.614  1.00  0.00     0.158 A 
BRANCH  15  18
ATOM     18  O   UNL     1     120.079 123.304 116.279  1.00  0.00    -0.504 OA
ATOM     19  H   UNL     1     120.702 123.022 115.532  1.00  0.00     0.293 HD
ENDBRANCH  15  18
BRANCH  17  20
ATOM     20  O   UNL     1     119.075 125.015 118.290  1.00  0.00    -0.504 OA
ATOM     21  H   UNL     1     118.534 125.042 117.434  1.00  0.00     0.293 HD
ENDBRANCH  17  20
ENDBRANCH   1  12
BRANCH   6  22
ATOM     22  O   UNL     1     121.806 121.373 126.812  1.00  0.00    -0.507 OA
ATOM     23  H   UNL     1     121.214 121.984 127.352  1.00  0.00     0.293 HD
ENDBRANCH   6  22
BRANCH   8  24
ATOM     24  O   UNL     1     126.229 122.399 125.249  1.00  0.00    -0.508 OA
ATOM     25  H   UNL     1     126.783 123.125 124.807  1.00  0.00     0.293 HD
ENDBRANCH   8  24
TORSDOF 5
ENDMDL
MODEL 3
REMARK VINA RESULT:    -6.873      5.391      6.121
REMARK INTER + INTRA:          -8.346
REMARK INTER:                  -8.081
REMARK INTRA:                  -0.265
REMARK UNBOUND:                -0.267
REMARK SMILES O=c1cc(-c2ccc(O)c(O)c2)oc2cc(O)cc(O)c12
REMARK SMILES IDX 4 1 3 2 2 3 1 4 21 5 19 6 18 7 16 8 15 9 14 10 13 11 5 12
REMARK SMILES IDX 6 13 7 14 8 15 12 16 10 17 9 18 11 20 20 22 17 24
REMARK H PARENT 9 19 11 21 20 23 17 25
REMARK Flexibility Score: inf
ROOT
ATOM      1  C   UNL     1     117.713 116.645 121.714  1.00  0.00     0.138 A 
ATOM      2  C   UNL     1     118.674 116.895 122.702  1.00  0.00     0.100 A 
ATOM      3  C   UNL     1     118.272 117.082 124.026  1.00  0.00     0.197 A 
ATOM      4  O   UNL     1     119.163 117.244 124.900  1.00  0.00    -0.289 OA
ATOM      5  C   UNL     1     116.896 117.047 124.354  1.00  0.00     0.107 A 
ATOM      6  C   UNL     1     116.367 117.264 125.662  1.00  0.00     0.134 A 
ATOM      7  C   UNL     1     114.997 117.090 125.889  1.00  0.00     0.093 A 
ATOM      8  C   UNL     1     114.128 116.766 124.844  1.00  0.00     0.123 A 
ATOM      9  C   UNL     1     114.627 116.606 123.553  1.00  0.00     0.094 A 
ATOM     10  C   UNL     1     115.995 116.739 123.301  1.00  0.00     0.146 A 
ATOM     11  O   UNL     1     116.431 116.563 122.058  1.00  0.00    -0.456 OA
ENDROOT
BRANCH   1  12
ATOM     12  C   UNL     1     118.085 116.440 120.290  1.00  0.00     0.021 A 
ATOM     13  C   UNL     1     117.667 117.329 119.283  1.00  0.00     0.016 A 
ATOM     14  C   UNL     1     118.023 117.107 117.950  1.00  0.00     0.051 A 
ATOM     15  C   UNL     1     118.794 115.992 117.600  1.00  0.00     0.157 A 
ATOM     16  C   UNL     1     118.848 115.316 119.929  1.00  0.00     0.062 A 
ATOM     17  C   UNL     1     119.206 115.091 118.595  1.00  0.00     0.158 A 
BRANCH  15  18
ATOM     18  O   UNL     1     119.148 115.775 116.269  1.00  0.00    -0.504 OA
ATOM     19  H   UNL     1     119.893 115.136 116.015  1.00  0.00     0.293 HD
ENDBRANCH  15  18
BRANCH  17  20
ATOM     20  O   UNL     1     119.973 113.970 118.279  1.00  0.00    -0.504 OA
ATOM     21  H   UNL     1     119.708 113.037 118.571  1.00  0.00     0.293 HD
ENDBRANCH  17  20
ENDBRANCH   1  12
BRANCH   6  22
ATOM     22  O   UNL     1     117.135 117.673 126.756  1.00  0.00    -0.507 OA
ATOM     23  H   UNL     1     116.954 117.417 127.715  1.00  0.00     0.293 HD
ENDBRANCH   6  22
BRANCH   8  24
ATOM     24  O   UNL     1     112.763 116.611 125.076  1.00  0.00    -0.508 OA
ATOM     25  H   UNL     1     112.402 116.417 126.003  1.00  0.00     0.293 HD
ENDBRANCH   8  24
TORSDOF 5
ENDMDL
MODEL 4
REMARK VINA RESULT:    -6.867      6.916      8.549
REMARK INTER + INTRA:          -8.338
REMARK INTER:                  -8.073
REMARK INTRA:                  -0.265
REMARK UNBOUND:                -0.267
REMARK SMILES O=c1cc(-c2ccc(O)c(O)c2)oc2cc(O)cc(O)c12
REMARK SMILES IDX 4 1 3 2 2 3 1 4 21 5 19 6 18 7 16 8 15 9 14 10 13 11 5 12
REMARK SMILES IDX 6 13 7 14 8 15 12 16 10 17 9 18 11 20 20 22 17 24
REMARK H PARENT 9 19 11 21 20 23 17 25
REMARK Flexibility Score: inf
ROOT
ATOM      1  C   UNL     1     122.408 117.761 121.739  1.00  0.00     0.138 A 
ATOM      2  C   UNL     1     122.174 118.735 122.719  1.00  0.00     0.100 A 
ATOM      3  C   UNL     1     121.984 118.349 124.046  1.00  0.00     0.197 A 
ATOM      4  O   UNL     1     121.838 119.250 124.912  1.00  0.00    -0.289 OA
ATOM      5  C   UNL     1     122.000 116.975 124.388  1.00  0.00     0.107 A 
ATOM      6  C   UNL     1     121.778 116.463 125.701  1.00  0.00     0.134 A 
ATOM      7  C   UNL     1     121.933 115.092 125.941  1.00  0.00     0.093 A 
ATOM      8  C   UNL     1     122.241 114.209 124.903  1.00  0.00     0.123 A 
ATOM      9  C   UNL     1     122.406 114.692 123.608  1.00  0.00     0.094 A 
ATOM     10  C   UNL     1     122.293 116.060 123.343  1.00  0.00     0.146 A 
ATOM     11  O   UNL     1     122.472 116.481 122.095  1.00  0.00    -0.456 OA
ENDROOT
BRANCH   1  12
ATOM     12  C   UNL     1     122.615 118.116 120.312  1.00  0.00     0.021 A 
ATOM     13  C   UNL     1     121.722 117.694 119.309  1.00  0.00     0.016 A 
ATOM     14  C   UNL     1     121.946 118.035 117.972  1.00  0.00     0.051 A 
ATOM     15  C   UNL     1     123.067 118.793 117.613  1.00  0.00     0.157 A 
ATOM     16  C   UNL     1     123.744 118.866 119.941  1.00  0.00     0.062 A 
ATOM     17  C   UNL     1     123.971 119.209 118.604  1.00  0.00     0.158 A 
BRANCH  15  18
ATOM     18  O   UNL     1     123.286 119.132 116.279  1.00  0.00    -0.504 OA
ATOM     19  H   UNL     1     124.097 118.798 115.772  1.00  0.00     0.293 HD
ENDBRANCH  15  18
BRANCH  17  20
ATOM     20  O   UNL     1     125.099 119.963 118.279  1.00  0.00    -0.504 OA
ATOM     21  H   UNL     1     125.044 120.953 118.075  1.00  0.00     0.293 HD
ENDBRANCH  17  20
ENDBRANCH   1  12
BRANCH   6  22
ATOM     22  O   UNL     1     121.384 117.246 126.789  1.00  0.00    -0.507 OA
ATOM     23  H   UNL     1     121.445 118.252 126.828  1.00  0.00     0.293 HD
ENDBRANCH   6  22
BRANCH   8  24
ATOM     24  O   UNL     1     122.377 112.844 125.148  1.00  0.00    -0.508 OA
ATOM     25  H   UNL     1     121.925 112.400 125.940  1.00  0.00     0.293 HD
ENDBRANCH   8  24
TORSDOF 5
ENDMDL
MODEL 5
REMARK VINA RESULT:    -6.760      2.726      7.303
REMARK INTER + INTRA:          -8.212
REMARK INTER:                  -7.928
REMARK INTRA:                  -0.284
REMARK UNBOUND:                -0.267
REMARK SMILES O=c1cc(-c2ccc(O)c(O)c2)oc2cc(O)cc(O)c12
REMARK SMILES IDX 4 1 3 2 2 3 1 4 21 5 19 6 18 7 16 8 15 9 14 10 13 11 5 12
REMARK SMILES IDX 6 13 7 14 8 15 12 16 10 17 9 18 11 20 20 22 17 24
REMARK H PARENT 9 19 11 21 20 23 17 25
REMARK Flexibility Score: inf
ROOT
ATOM      1  C   UNL     1     116.859 120.569 122.050  1.00  0.00     0.138 A 
ATOM      2  C   UNL     1     115.970 120.657 120.970  1.00  0.00     0.100 A 
ATOM      3  C   UNL     1     115.939 119.640 120.016  1.00  0.00     0.197 A 
ATOM      4  O   UNL     1     115.086 119.717 119.093  1.00  0.00    -0.289 OA
ATOM      5  C   UNL     1     116.826 118.542 120.129  1.00  0.00     0.107 A 
ATOM      6  C   UNL     1     116.910 117.467 119.194  1.00  0.00     0.134 A 
ATOM      7  C   UNL     1     117.745 116.378 119.471  1.00  0.00     0.093 A 
ATOM      8  C   UNL     1     118.542 116.353 120.618  1.00  0.00     0.123 A 
ATOM      9  C   UNL     1     118.506 117.422 121.509  1.00  0.00     0.094 A 
ATOM     10  C   UNL     1     117.658 118.508 121.279  1.00  0.00     0.146 A 
ATOM     11  O   UNL     1     117.644 119.501 122.162  1.00  0.00    -0.456 OA
ENDROOT
BRANCH   1  12
ATOM     12  C   UNL     1     116.936 121.624 123.093  1.00  0.00     0.021 A 
ATOM     13  C   UNL     1     117.208 121.314 124.438  1.00  0.00     0.016 A 
ATOM     14  C   UNL     1     117.265 122.325 125.400  1.00  0.00     0.051 A 
ATOM     15  C   UNL     1     117.042 123.660 125.039  1.00  0.00     0.157 A 
ATOM     16  C   UNL     1     116.701 122.964 122.740  1.00  0.00     0.062 A 
ATOM     17  C   UNL     1     116.757 123.979 123.702  1.00  0.00     0.158 A 
BRANCH  15  18
ATOM     18  O   UNL     1     117.100 124.666 126.003  1.00  0.00    -0.504 OA
ATOM     19  H   UNL     1     117.017 125.644 125.754  1.00  0.00     0.293 HD
ENDBRANCH  15  18
BRANCH  17  20
ATOM     20  O   UNL     1     116.527 125.298 123.310  1.00  0.00    -0.504 OA
ATOM     21  H   UNL     1     117.242 126.012 123.379  1.00  0.00     0.293 HD
ENDBRANCH  17  20
ENDBRANCH   1  12
BRANCH   6  22
ATOM     22  O   UNL     1     116.222 117.433 117.978  1.00  0.00    -0.507 OA
ATOM     23  H   UNL     1     115.947 116.593 117.494  1.00  0.00     0.293 HD
ENDBRANCH   6  22
BRANCH   8  24
ATOM     24  O   UNL     1     119.382 115.271 120.877  1.00  0.00    -0.508 OA
ATOM     25  H   UNL     1     120.360 115.403 121.107  1.00  0.00     0.293 HD
ENDBRANCH   8  24
TORSDOF 5
ENDMDL
MODEL 6
REMARK VINA RESULT:    -6.754      6.150      8.286
REMARK INTER + INTRA:          -8.206
REMARK INTER:                  -7.923
REMARK INTRA:                  -0.283
REMARK UNBOUND:                -0.267
REMARK SMILES O=c1cc(-c2ccc(O)c(O)c2)oc2cc(O)cc(O)c12
REMARK SMILES IDX 4 1 3 2 2 3 1 4 21 5 19 6 18 7 16 8 15 9 14 10 13 11 5 12
REMARK SMILES IDX 6 13 7 14 8 15 12 16 10 17 9 18 11 20 20 22 17 24
REMARK H PARENT 9 19 11 21 20 23 17 25
REMARK Flexibility Score: inf
ROOT
ATOM      1  C   UNL     1     122.135 118.455 122.139  1.00  0.00     0.138 A 
ATOM      2  C   UNL     1     123.035 118.396 121.067  1.00  0.00     0.100 A 
ATOM      3  C   UNL     1     123.060 119.428 120.128  1.00  0.00     0.197 A 
ATOM      4  O   UNL     1     123.921 119.376 119.212  1.00  0.00    -0.289 OA
ATOM      5  C   UNL     1     122.156 120.510 120.249  1.00  0.00     0.107 A 
ATOM      6  C   UNL     1     122.064 121.598 119.328  1.00  0.00     0.134 A 
ATOM      7  C   UNL     1     121.211 122.671 119.614  1.00  0.00     0.093 A 
ATOM      8  C   UNL     1     120.404 122.667 120.754  1.00  0.00     0.123 A 
ATOM      9  C   UNL     1     120.447 121.586 121.630  1.00  0.00     0.094 A 
ATOM     10  C   UNL     1     121.313 120.515 121.391  1.00  0.00     0.146 A 
ATOM     11  O   UNL     1     121.334 119.510 122.260  1.00  0.00    -0.456 OA
ENDROOT
BRANCH   1  12
ATOM     12  C   UNL     1     122.064 117.384 123.166  1.00  0.00     0.021 A 
ATOM     13  C   UNL     1     121.811 117.674 124.520  1.00  0.00     0.016 A 
ATOM     14  C   UNL     1     121.759 116.647 125.466  1.00  0.00     0.051 A 
ATOM     15  C   UNL     1     121.969 115.318 125.081  1.00  0.00     0.157 A 
ATOM     16  C   UNL     1     122.286 116.048 122.789  1.00  0.00     0.062 A 
ATOM     17  C   UNL     1     122.235 115.018 123.735  1.00  0.00     0.158 A 
BRANCH  15  18
ATOM     18  O   UNL     1     121.916 114.297 126.029  1.00  0.00    -0.504 OA
ATOM     19  H   UNL     1     121.792 113.328 125.759  1.00  0.00     0.293 HD
ENDBRANCH  15  18
BRANCH  17  20
ATOM     20  O   UNL     1     122.451 113.704 123.319  1.00  0.00    -0.504 OA
ATOM     21  H   UNL     1     123.029 113.481 122.518  1.00  0.00     0.293 HD
ENDBRANCH  17  20
ENDBRANCH   1  12
BRANCH   6  22
ATOM     22  O   UNL     1     122.763 121.659 118.120  1.00  0.00    -0.507 OA
ATOM     23  H   UNL     1     123.687 121.286 117.968  1.00  0.00     0.293 HD
ENDBRANCH   6  22
BRANCH   8  24
ATOM     24  O   UNL     1     119.546 123.733 121.021  1.00  0.00    -0.508 OA
ATOM     25  H   UNL     1     119.665 124.634 120.571  1.00  0.00     0.293 HD
ENDBRANCH   8  24
TORSDOF 5
ENDMDL
MODEL 7
REMARK VINA RESULT:    -6.738      4.434      7.718
REMARK INTER + INTRA:          -8.186
REMARK INTER:                  -7.902
REMARK INTRA:                  -0.284
REMARK UNBOUND:                -0.267
REMARK SMILES O=c1cc(-c2ccc(O)c(O)c2)oc2cc(O)cc(O)c12
REMARK SMILES IDX 4 1 3 2 2 3 1 4 21 5 19 6 18 7 16 8 15 9 14 10 13 11 5 12
REMARK SMILES IDX 6 13 7 14 8 15 12 16 10 17 9 18 11 20 20 22 17 24
REMARK H PARENT 9 19 11 21 20 23 17 25
REMARK Flexibility Score: inf
ROOT
ATOM      1  C   UNL     1     120.524 122.158 122.078  1.00  0.00     0.138 A 
ATOM      2  C   UNL     1     120.627 123.033 120.988  1.00  0.00     0.100 A 
ATOM      3  C   UNL     1     119.614 123.064 120.029  1.00  0.00     0.197 A 
ATOM      4  O   UNL     1     119.705 123.903 119.096  1.00  0.00    -0.289 OA
ATOM      5  C   UNL     1     118.506 122.190 120.148  1.00  0.00     0.107 A 
ATOM      6  C   UNL     1     117.434 122.106 119.209  1.00  0.00     0.134 A 
ATOM      7  C   UNL     1     116.334 121.287 119.492  1.00  0.00     0.093 A 
ATOM      8  C   UNL     1     116.295 120.505 120.649  1.00  0.00     0.123 A 
ATOM      9  C   UNL     1     117.361 120.540 121.544  1.00  0.00     0.094 A 
ATOM     10  C   UNL     1     118.458 121.373 121.308  1.00  0.00     0.146 A 
ATOM     11  O   UNL     1     119.447 121.387 122.195  1.00  0.00    -0.456 OA
ENDROOT
BRANCH   1  12
ATOM     12  C   UNL     1     121.573 122.083 123.127  1.00  0.00     0.021 A 
ATOM     13  C   UNL     1     121.254 121.834 124.475  1.00  0.00     0.016 A 
ATOM     14  C   UNL     1     122.261 121.778 125.442  1.00  0.00     0.051 A 
ATOM     15  C   UNL     1     123.599 121.979 125.083  1.00  0.00     0.157 A 
ATOM     16  C   UNL     1     122.918 122.296 122.777  1.00  0.00     0.062 A 
ATOM     17  C   UNL     1     123.928 122.241 123.744  1.00  0.00     0.158 A 
BRANCH  15  18
ATOM     18  O   UNL     1     124.601 121.921 126.052  1.00  0.00    -0.504 OA
ATOM     19  H   UNL     1     124.656 121.155 126.713  1.00  0.00     0.293 HD
ENDBRANCH  15  18
BRANCH  17  20
ATOM     20  O   UNL     1     125.251 122.447 123.354  1.00  0.00    -0.504 OA
ATOM     21  H   UNL     1     125.999 122.564 124.028  1.00  0.00     0.293 HD
ENDBRANCH  17  20
ENDBRANCH   1  12
BRANCH   6  22
ATOM     22  O   UNL     1     117.413 122.779 117.985  1.00  0.00    -0.507 OA
ATOM     23  H   UNL     1     116.808 122.551 117.211  1.00  0.00     0.293 HD
ENDBRANCH   6  22
BRANCH   8  24
ATOM     24  O   UNL     1     115.203 119.681 120.913  1.00  0.00    -0.508 OA
ATOM     25  H   UNL     1     114.899 118.975 120.252  1.00  0.00     0.293 HD
ENDBRANCH   8  24
TORSDOF 5
ENDMDL
MODEL 8
REMARK VINA RESULT:    -6.713      5.885      7.926
REMARK INTER + INTRA:          -8.157
REMARK INTER:                  -7.873
REMARK INTRA:                  -0.284
REMARK UNBOUND:                -0.267
REMARK SMILES O=c1cc(-c2ccc(O)c(O)c2)oc2cc(O)cc(O)c12
REMARK SMILES IDX 4 1 3 2 2 3 1 4 21 5 19 6 18 7 16 8 15 9 14 10 13 11 5 12
REMARK SMILES IDX 6 13 7 14 8 15 12 16 10 17 9 18 11 20 20 22 17 24
REMARK H PARENT 9 19 11 21 20 23 17 25
REMARK Flexibility Score: inf
ROOT
ATOM      1  C   UNL     1     118.501 116.914 121.979  1.00  0.00     0.138 A 
ATOM      2  C   UNL     1     118.382 116.058 120.875  1.00  0.00     0.100 A 
ATOM      3  C   UNL     1     119.386 116.039 119.906  1.00  0.00     0.197 A 
ATOM      4  O   UNL     1     119.281 115.216 118.959  1.00  0.00    -0.289 OA
ATOM      5  C   UNL     1     120.500 116.904 120.029  1.00  0.00     0.107 A 
ATOM      6  C   UNL     1     121.563 116.998 119.082  1.00  0.00     0.134 A 
ATOM      7  C   UNL     1     122.671 117.806 119.368  1.00  0.00     0.093 A 
ATOM      8  C   UNL     1     122.725 118.568 120.537  1.00  0.00     0.123 A 
ATOM      9  C   UNL     1     121.668 118.523 121.442  1.00  0.00     0.094 A 
ATOM     10  C   UNL     1     120.564 117.700 121.203  1.00  0.00     0.146 A 
ATOM     11  O   UNL     1     119.583 117.676 122.099  1.00  0.00    -0.456 OA
ENDROOT
BRANCH   1  12
ATOM     12  C   UNL     1     117.462 116.977 123.039  1.00  0.00     0.021 A 
ATOM     13  C   UNL     1     117.794 117.219 124.385  1.00  0.00     0.016 A 
ATOM     14  C   UNL     1     116.797 117.264 125.363  1.00  0.00     0.051 A 
ATOM     15  C   UNL     1     115.456 117.058 125.017  1.00  0.00     0.157 A 
ATOM     16  C   UNL     1     116.115 116.759 122.702  1.00  0.00     0.062 A 
ATOM     17  C   UNL     1     115.115 116.803 123.679  1.00  0.00     0.158 A 
BRANCH  15  18
ATOM     18  O   UNL     1     114.464 117.104 125.996  1.00  0.00    -0.504 OA
ATOM     19  H   UNL     1     113.792 117.861 126.035  1.00  0.00     0.293 HD
ENDBRANCH  15  18
BRANCH  17  20
ATOM     20  O   UNL     1     113.788 116.591 123.302  1.00  0.00    -0.504 OA
ATOM     21  H   UNL     1     113.020 117.089 123.734  1.00  0.00     0.293 HD
ENDBRANCH  17  20
ENDBRANCH   1  12
BRANCH   6  22
ATOM     22  O   UNL     1     121.568 116.346 117.846  1.00  0.00    -0.507 OA
ATOM     23  H   UNL     1     121.426 116.796 116.955  1.00  0.00     0.293 HD
ENDBRANCH   6  22
BRANCH   8  24
ATOM     24  O   UNL     1     123.824 119.381 120.806  1.00  0.00    -0.508 OA
ATOM     25  H   UNL     1     124.741 118.989 120.991  1.00  0.00     0.293 HD
ENDBRANCH   8  24
TORSDOF 5
ENDMDL
MODEL 9
REMARK VINA RESULT:    -6.556      6.777      9.459
REMARK INTER + INTRA:          -7.972
REMARK INTER:                  -7.656
REMARK INTRA:                  -0.316
REMARK UNBOUND:                -0.267
REMARK SMILES O=c1cc(-c2ccc(O)c(O)c2)oc2cc(O)cc(O)c12
REMARK SMILES IDX 4 1 3 2 2 3 1 4 21 5 19 6 18 7 16 8 15 9 14 10 13 11 5 12
REMARK SMILES IDX 6 13 7 14 8 15 12 16 10 17 9 18 11 20 20 22 17 24
REMARK H PARENT 9 19 11 21 20 23 17 25
REMARK Flexibility Score: inf
ROOT
ATOM      1  C   UNL     1     122.172 117.865 122.179  1.00  0.00     0.138 A 
ATOM      2  C   UNL     1     122.199 119.244 122.430  1.00  0.00     0.100 A 
ATOM      3  C   UNL     1     122.275 120.139 121.362  1.00  0.00     0.197 A 
ATOM      4  O   UNL     1     122.235 121.371 121.616  1.00  0.00    -0.289 OA
ATOM      5  C   UNL     1     122.354 119.647 120.037  1.00  0.00     0.107 A 
ATOM      6  C   UNL     1     122.475 120.466 118.873  1.00  0.00     0.134 A 
ATOM      7  C   UNL     1     122.428 119.872 117.606  1.00  0.00     0.093 A 
ATOM      8  C   UNL     1     122.325 118.486 117.462  1.00  0.00     0.123 A 
ATOM      9  C   UNL     1     122.261 117.675 118.592  1.00  0.00     0.094 A 
ATOM     10  C   UNL     1     122.270 118.240 119.870  1.00  0.00     0.146 A 
ATOM     11  O   UNL     1     122.192 117.431 120.922  1.00  0.00    -0.456 OA
ENDROOT
BRANCH   1  12
ATOM     12  C   UNL     1     122.093 116.868 123.277  1.00  0.00     0.021 A 
ATOM     13  C   UNL     1     121.847 117.254 124.608  1.00  0.00     0.016 A 
ATOM     14  C   UNL     1     121.787 116.295 125.623  1.00  0.00     0.051 A 
ATOM     15  C   UNL     1     121.982 114.940 125.330  1.00  0.00     0.157 A 
ATOM     16  C   UNL     1     122.300 115.507 122.993  1.00  0.00     0.062 A 
ATOM     17  C   UNL     1     122.241 114.545 124.007  1.00  0.00     0.158 A 
BRANCH  15  18
ATOM     18  O   UNL     1     121.921 113.987 126.346  1.00  0.00    -0.504 OA
ATOM     19  H   UNL     1     122.210 113.028 126.193  1.00  0.00     0.293 HD
ENDBRANCH  15  18
BRANCH  17  20
ATOM     20  O   UNL     1     122.441 113.204 123.683  1.00  0.00    -0.504 OA
ATOM     21  H   UNL     1     123.235 112.679 124.029  1.00  0.00     0.293 HD
ENDBRANCH  17  20
ENDBRANCH   1  12
BRANCH   6  22
ATOM     22  O   UNL     1     122.667 121.850 118.908  1.00  0.00    -0.507 OA
ATOM     23  H   UNL     1     121.935 122.536 118.808  1.00  0.00     0.293 HD
ENDBRANCH   6  22
BRANCH   8  24
ATOM     24  O   UNL     1     122.295 117.904 116.196  1.00  0.00    -0.508 OA
ATOM     25  H   UNL     1     122.284 116.897 116.077  1.00  0.00     0.293 HD
ENDBRANCH   8  24
TORSDOF 5
ENDMDL
