MODEL 1
REMARK VINA RESULT:    -2.327      0.000      0.000
REMARK INTER + INTRA:          -2.327
REMARK INTER:                  -2.327
REMARK INTRA:                   0.000
REMARK UNBOUND:                 0.000
REMARK SMILES CC(=O)[O-]
REMARK SMILES IDX 1 1 2 2 3 3 4 4
REMARK H PARENT
REMARK Flexibility Score: inf
ROOT
ATOM      1  C   UNL     1      61.453  28.224  24.970  1.00  0.00     0.063 C 
ATOM      2  C   UNL     1      60.734  27.247  25.837  1.00  0.00     0.038 C 
ATOM      3  O   UNL     1      61.121  27.046  27.018  1.00  0.00    -0.550 OA
ATOM      4  O   UNL     1      59.603  26.595  25.363  1.00  0.00    -0.550 OA
ENDROOT
TORSDOF 0
ENDMDL
MODEL 2
REMARK VINA RESULT:    -2.305     12.811     13.486
REMARK INTER + INTRA:          -2.305
REMARK INTER:                  -2.305
REMARK INTRA:                   0.000
REMARK UNBOUND:                 0.000
REMARK SMILES CC(=O)[O-]
REMARK SMILES IDX 1 1 2 2 3 3 4 4
REMARK H PARENT
REMARK Flexibility Score: inf
ROOT
ATOM      1  C   UNL     1      61.128  28.881  13.345  1.00  0.00     0.063 C 
ATOM      2  C   UNL     1      59.939  28.689  12.466  1.00  0.00     0.038 C 
ATOM      3  O   UNL     1      59.941  29.144  11.292  1.00  0.00    -0.550 OA
ATOM      4  O   UNL     1      58.847  27.961  12.921  1.00  0.00    -0.550 OA
ENDROOT
TORSDOF 0
ENDMDL
MODEL 3
REMARK VINA RESULT:    -2.214     15.226     15.769
REMARK INTER + INTRA:          -2.214
REMARK INTER:                  -2.214
REMARK INTRA:                   0.000
REMARK UNBOUND:                 0.000
REMARK SMILES CC(=O)[O-]
REMARK SMILES IDX 1 1 2 2 3 3 4 4
REMARK H PARENT
REMARK Flexibility Score: inf
ROOT
ATOM      1  C   UNL     1      60.177  29.098  11.020  1.00  0.00     0.063 C 
ATOM      2  C   UNL     1      61.329  28.591  10.220  1.00  0.00     0.038 C 
ATOM      3  O   UNL     1      61.126  27.936   9.164  1.00  0.00    -0.550 OA
ATOM      4  O   UNL     1      62.630  28.886  10.608  1.00  0.00    -0.550 OA
ENDROOT
TORSDOF 0
ENDMDL
MODEL 4
REMARK VINA RESULT:    -2.210     15.259     15.742
REMARK INTER + INTRA:          -2.210
REMARK INTER:                  -2.210
REMARK INTRA:                   0.000
REMARK UNBOUND:                 0.000
REMARK SMILES CC(=O)[O-]
REMARK SMILES IDX 1 1 2 2 3 3 4 4
REMARK H PARENT
REMARK Flexibility Score: inf
ROOT
ATOM      1  C   UNL     1      60.293  29.033  11.119  1.00  0.00     0.063 C 
ATOM      2  C   UNL     1      61.385  28.630  10.186  1.00  0.00     0.038 C 
ATOM      3  O   UNL     1      62.578  28.938  10.441  1.00  0.00    -0.550 OA
ATOM      4  O   UNL     1      61.095  27.868   9.062  1.00  0.00    -0.550 OA
ENDROOT
TORSDOF 0
ENDMDL
MODEL 5
REMARK VINA RESULT:    -2.183     14.348     14.886
REMARK INTER + INTRA:          -2.183
REMARK INTER:                  -2.183
REMARK INTRA:                   0.000
REMARK UNBOUND:                 0.000
REMARK SMILES CC(=O)[O-]
REMARK SMILES IDX 1 1 2 2 3 3 4 4
REMARK H PARENT
REMARK Flexibility Score: inf
ROOT
ATOM      1  C   UNL     1      59.939  28.654  12.427  1.00  0.00     0.063 C 
ATOM      2  C   UNL     1      60.199  29.385  11.154  1.00  0.00     0.038 C 
ATOM      3  O   UNL     1      60.702  30.538  11.179  1.00  0.00    -0.550 OA
ATOM      4  O   UNL     1      59.937  28.773   9.934  1.00  0.00    -0.550 OA
ENDROOT
TORSDOF 0
ENDMDL
MODEL 6
REMARK VINA RESULT:    -2.152      1.539      1.832
REMARK INTER + INTRA:          -2.152
REMARK INTER:                  -2.152
REMARK INTRA:                   0.000
REMARK UNBOUND:                 0.000
REMARK SMILES CC(=O)[O-]
REMARK SMILES IDX 1 1 2 2 3 3 4 4
REMARK H PARENT
REMARK Flexibility Score: inf
ROOT
ATOM      1  C   UNL     1      60.701  27.802  25.371  1.00  0.00     0.063 C 
ATOM      2  C   UNL     1      61.520  27.256  26.491  1.00  0.00     0.038 C 
ATOM      3  O   UNL     1      61.034  27.179  27.650  1.00  0.00    -0.550 OA
ATOM      4  O   UNL     1      62.802  26.780  26.248  1.00  0.00    -0.550 OA
ENDROOT
TORSDOF 0
ENDMDL
MODEL 7
REMARK VINA RESULT:    -2.134      3.281      3.431
REMARK INTER + INTRA:          -2.134
REMARK INTER:                  -2.134
REMARK INTRA:                   0.000
REMARK UNBOUND:                 0.000
REMARK SMILES CC(=O)[O-]
REMARK SMILES IDX 1 1 2 2 3 3 4 4
REMARK H PARENT
REMARK Flexibility Score: inf
ROOT
ATOM      1  C   UNL     1      61.964  27.232  27.820  1.00  0.00     0.063 C 
ATOM      2  C   UNL     1      61.613  28.629  28.206  1.00  0.00     0.038 C 
ATOM      3  O   UNL     1      60.772  28.839  29.119  1.00  0.00    -0.550 OA
ATOM      4  O   UNL     1      62.253  29.701  27.598  1.00  0.00    -0.550 OA
ENDROOT
TORSDOF 0
ENDMDL
MODEL 8
REMARK VINA RESULT:    -2.096     12.064     12.621
REMARK INTER + INTRA:          -2.096
REMARK INTER:                  -2.096
REMARK INTRA:                   0.000
REMARK UNBOUND:                 0.000
REMARK SMILES CC(=O)[O-]
REMARK SMILES IDX 1 1 2 2 3 3 4 4
REMARK H PARENT
REMARK Flexibility Score: inf
ROOT
ATOM      1  C   UNL     1      60.437  28.257  13.016  1.00  0.00     0.063 C 
ATOM      2  C   UNL     1      61.660  28.969  13.486  1.00  0.00     0.038 C 
ATOM      3  O   UNL     1      62.746  28.836  12.864  1.00  0.00    -0.550 OA
ATOM      4  O   UNL     1      61.592  29.822  14.580  1.00  0.00    -0.550 OA
ENDROOT
TORSDOF 0
ENDMDL
MODEL 9
REMARK VINA RESULT:    -2.090     15.186     15.837
REMARK INTER + INTRA:          -2.090
REMARK INTER:                  -2.090
REMARK INTRA:                   0.000
REMARK UNBOUND:                 0.000
REMARK SMILES CC(=O)[O-]
REMARK SMILES IDX 1 1 2 2 3 3 4 4
REMARK H PARENT
REMARK Flexibility Score: inf
ROOT
ATOM      1  C   UNL     1      61.935  28.900  10.339  1.00  0.00     0.063 C 
ATOM      2  C   UNL     1      60.746  29.795  10.246  1.00  0.00     0.038 C 
ATOM      3  O   UNL     1      60.296  30.131   9.119  1.00  0.00    -0.550 OA
ATOM      4  O   UNL     1      60.099  30.216  11.400  1.00  0.00    -0.550 OA
ENDROOT
TORSDOF 0
ENDMDL
