MODEL 1
REMARK VINA RESULT:    -5.868      0.000      0.000
REMARK INTER + INTRA:          -7.518
REMARK INTER:                  -7.068
REMARK INTRA:                  -0.450
REMARK UNBOUND:                -0.450
REMARK SMILES O=c1c(O)c(-c2ccc(O)cc2O)oc2cc(O)cc(O)c12
REMARK SMILES IDX 5 1 3 2 2 3 1 4 22 5 20 6 19 7 17 8 16 9 15 10 14 11 6 12
REMARK SMILES IDX 8 13 7 14 9 15 11 16 12 17 10 18 13 20 4 22 21 24 18 26
REMARK H PARENT 10 19 13 21 4 23 21 25 18 27
REMARK Flexibility Score: inf
ROOT
ATOM      1  C   UNL     1      15.482  -7.547 714.216  1.00  0.00     0.184 A 
ATOM      2  C   UNL     1      16.850  -7.230 714.302  1.00  0.00     0.208 A 
ATOM      3  C   UNL     1      17.539  -6.876 713.131  1.00  0.00     0.238 A 
ATOM      4  O   UNL     1      18.768  -6.599 713.195  1.00  0.00    -0.285 OA
ATOM      5  C   UNL     1      16.848  -6.829 711.903  1.00  0.00     0.111 A 
ATOM      6  C   UNL     1      17.467  -6.478 710.679  1.00  0.00     0.134 A 
ATOM      7  C   UNL     1      16.708  -6.447 709.499  1.00  0.00     0.093 A 
ATOM      8  C   UNL     1      15.344  -6.758 709.521  1.00  0.00     0.123 A 
ATOM      9  C   UNL     1      14.730  -7.106 710.726  1.00  0.00     0.094 A 
ATOM     10  C   UNL     1      15.469  -7.144 711.912  1.00  0.00     0.146 A 
ATOM     11  O   UNL     1      14.859  -7.481 713.042  1.00  0.00    -0.451 OA
ENDROOT
BRANCH   1  12
ATOM     12  C   UNL     1      14.697  -7.947 715.407  1.00  0.00     0.063 A 
ATOM     13  C   UNL     1      13.918  -9.670 716.939  1.00  0.00     0.047 A 
ATOM     14  C   UNL     1      14.680  -9.288 715.833  1.00  0.00     0.020 A 
ATOM     15  C   UNL     1      13.155  -8.722 717.630  1.00  0.00     0.119 A 
ATOM     16  C   UNL     1      13.154  -7.390 717.207  1.00  0.00     0.093 A 
ATOM     17  C   UNL     1      13.918  -6.997 716.098  1.00  0.00     0.130 A 
BRANCH  15  18
ATOM     18  O   UNL     1      12.391  -9.094 718.734  1.00  0.00    -0.508 OA
ATOM     19  H   UNL     1      11.853  -9.952 718.741  1.00  0.00     0.293 HD
ENDBRANCH  15  18
BRANCH  17  20
ATOM     20  O   UNL     1      13.913  -5.662 715.691  1.00  0.00    -0.507 OA
ATOM     21  H   UNL     1      14.198  -4.915 716.313  1.00  0.00     0.293 HD
ENDBRANCH  17  20
ENDBRANCH   1  12
BRANCH   2  22
ATOM     22  O   UNL     1      17.500  -7.246 715.539  1.00  0.00    -0.502 OA
ATOM     23  H   UNL     1      18.035  -6.456 715.880  1.00  0.00     0.293 HD
ENDBRANCH   2  22
BRANCH   6  24
ATOM     24  O   UNL     1      18.826  -6.161 710.627  1.00  0.00    -0.507 OA
ATOM     25  H   UNL     1      19.315  -6.056 709.745  1.00  0.00     0.293 HD
ENDBRANCH   6  24
BRANCH   8  26
ATOM     26  O   UNL     1      14.591  -6.727 708.350  1.00  0.00    -0.508 OA
ATOM     27  H   UNL     1      13.950  -5.968 708.151  1.00  0.00     0.293 HD
ENDBRANCH   8  26
TORSDOF 6
ENDMDL
MODEL 2
REMARK VINA RESULT:    -5.848      1.336      2.844
REMARK INTER + INTRA:          -7.494
REMARK INTER:                  -7.197
REMARK INTRA:                  -0.298
REMARK UNBOUND:                -0.450
REMARK SMILES O=c1c(O)c(-c2ccc(O)cc2O)oc2cc(O)cc(O)c12
REMARK SMILES IDX 5 1 3 2 2 3 1 4 22 5 20 6 19 7 17 8 16 9 15 10 14 11 6 12
REMARK SMILES IDX 8 13 7 14 9 15 11 16 12 17 10 18 13 20 4 22 21 24 18 26
REMARK H PARENT 10 19 13 21 4 23 21 25 18 27
REMARK Flexibility Score: inf
ROOT
ATOM      1  C   UNL     1      15.156  -7.328 714.006  1.00  0.00     0.184 A 
ATOM      2  C   UNL     1      14.400  -6.798 712.943  1.00  0.00     0.208 A 
ATOM      3  C   UNL     1      15.070  -6.300 711.815  1.00  0.00     0.238 A 
ATOM      4  O   UNL     1      14.402  -5.816 710.861  1.00  0.00    -0.285 OA
ATOM      5  C   UNL     1      16.477  -6.355 711.760  1.00  0.00     0.111 A 
ATOM      6  C   UNL     1      17.229  -5.879 710.659  1.00  0.00     0.134 A 
ATOM      7  C   UNL     1      18.629  -5.975 710.678  1.00  0.00     0.093 A 
ATOM      8  C   UNL     1      19.289  -6.540 711.775  1.00  0.00     0.123 A 
ATOM      9  C   UNL     1      18.552  -7.010 712.863  1.00  0.00     0.094 A 
ATOM     10  C   UNL     1      17.157  -6.921 712.865  1.00  0.00     0.146 A 
ATOM     11  O   UNL     1      16.482  -7.373 713.915  1.00  0.00    -0.451 OA
ENDROOT
BRANCH   1  12
ATOM     12  C   UNL     1      14.515  -7.853 715.234  1.00  0.00     0.063 A 
ATOM     13  C   UNL     1      13.837  -9.735 716.619  1.00  0.00     0.047 A 
ATOM     14  C   UNL     1      14.465  -9.238 715.475  1.00  0.00     0.020 A 
ATOM     15  C   UNL     1      13.241  -8.858 717.533  1.00  0.00     0.119 A 
ATOM     16  C   UNL     1      13.273  -7.481 717.295  1.00  0.00     0.093 A 
ATOM     17  C   UNL     1      13.905  -6.973 716.150  1.00  0.00     0.130 A 
BRANCH  15  18
ATOM     18  O   UNL     1      12.611  -9.345 718.676  1.00  0.00    -0.508 OA
ATOM     19  H   UNL     1      12.948  -9.116 719.604  1.00  0.00     0.293 HD
ENDBRANCH  15  18
BRANCH  17  20
ATOM     20  O   UNL     1      13.935  -5.596 715.929  1.00  0.00    -0.507 OA
ATOM     21  H   UNL     1      13.764  -4.933 716.677  1.00  0.00     0.293 HD
ENDBRANCH  17  20
ENDBRANCH   1  12
BRANCH   2  22
ATOM     22  O   UNL     1      13.003  -6.794 713.007  1.00  0.00    -0.502 OA
ATOM     23  H   UNL     1      12.490  -7.356 713.677  1.00  0.00     0.293 HD
ENDBRANCH   2  22
BRANCH   6  24
ATOM     24  O   UNL     1      16.598  -5.312 709.550  1.00  0.00    -0.507 OA
ATOM     25  H   UNL     1      16.080  -4.443 709.618  1.00  0.00     0.293 HD
ENDBRANCH   6  24
BRANCH   8  26
ATOM     26  O   UNL     1      20.678  -6.636 711.793  1.00  0.00    -0.508 OA
ATOM     27  H   UNL     1      21.151  -7.408 712.249  1.00  0.00     0.293 HD
ENDBRANCH   8  26
TORSDOF 6
ENDMDL
MODEL 3
REMARK VINA RESULT:    -5.668      1.979      6.731
REMARK INTER + INTRA:          -7.277
REMARK INTER:                  -6.796
REMARK INTRA:                  -0.481
REMARK UNBOUND:                -0.450
REMARK SMILES O=c1c(O)c(-c2ccc(O)cc2O)oc2cc(O)cc(O)c12
REMARK SMILES IDX 5 1 3 2 2 3 1 4 22 5 20 6 19 7 17 8 16 9 15 10 14 11 6 12
REMARK SMILES IDX 8 13 7 14 9 15 11 16 12 17 10 18 13 20 4 22 21 24 18 26
REMARK H PARENT 10 19 13 21 4 23 21 25 18 27
REMARK Flexibility Score: inf
ROOT
ATOM      1  C   UNL     1      15.118  -6.788 715.343  1.00  0.00     0.184 A 
ATOM      2  C   UNL     1      14.687  -7.912 716.072  1.00  0.00     0.208 A 
ATOM      3  C   UNL     1      13.545  -7.798 716.881  1.00  0.00     0.238 A 
ATOM      4  O   UNL     1      13.155  -8.796 717.546  1.00  0.00    -0.285 OA
ATOM      5  C   UNL     1      12.848  -6.574 716.934  1.00  0.00     0.111 A 
ATOM      6  C   UNL     1      11.687  -6.377 717.721  1.00  0.00     0.134 A 
ATOM      7  C   UNL     1      11.046  -5.129 717.714  1.00  0.00     0.093 A 
ATOM      8  C   UNL     1      11.542  -4.077 716.936  1.00  0.00     0.123 A 
ATOM      9  C   UNL     1      12.686  -4.267 716.160  1.00  0.00     0.094 A 
ATOM     10  C   UNL     1      13.341  -5.502 716.154  1.00  0.00     0.146 A 
ATOM     11  O   UNL     1      14.430  -5.652 715.408  1.00  0.00    -0.451 OA
ENDROOT
BRANCH   1  12
ATOM     12  C   UNL     1      16.325  -6.832 714.484  1.00  0.00     0.063 A 
ATOM     13  C   UNL     1      18.745  -6.752 714.240  1.00  0.00     0.047 A 
ATOM     14  C   UNL     1      17.608  -6.739 715.051  1.00  0.00     0.020 A 
ATOM     15  C   UNL     1      18.616  -6.847 712.849  1.00  0.00     0.119 A 
ATOM     16  C   UNL     1      17.344  -6.925 712.274  1.00  0.00     0.093 A 
ATOM     17  C   UNL     1      16.197  -6.916 713.082  1.00  0.00     0.130 A 
BRANCH  15  18
ATOM     18  O   UNL     1      19.743  -6.860 712.031  1.00  0.00    -0.508 OA
ATOM     19  H   UNL     1      20.043  -7.702 711.556  1.00  0.00     0.293 HD
ENDBRANCH  15  18
BRANCH  17  20
ATOM     20  O   UNL     1      14.935  -7.001 712.495  1.00  0.00    -0.507 OA
ATOM     21  H   UNL     1      14.611  -6.312 711.827  1.00  0.00     0.293 HD
ENDBRANCH  17  20
ENDBRANCH   1  12
BRANCH   2  22
ATOM     22  O   UNL     1      15.374  -9.124 715.969  1.00  0.00    -0.502 OA
ATOM     23  H   UNL     1      15.058  -9.968 716.433  1.00  0.00     0.293 HD
ENDBRANCH   2  22
BRANCH   6  24
ATOM     24  O   UNL     1      11.169  -7.408 718.506  1.00  0.00    -0.507 OA
ATOM     25  H   UNL     1      10.270  -7.327 718.966  1.00  0.00     0.293 HD
ENDBRANCH   6  24
BRANCH   8  26
ATOM     26  O   UNL     1      10.905  -2.839 716.930  1.00  0.00    -0.508 OA
ATOM     27  H   UNL     1      11.428  -1.972 716.978  1.00  0.00     0.293 HD
ENDBRANCH   8  26
TORSDOF 6
ENDMDL
MODEL 4
REMARK VINA RESULT:    -5.561      2.325      3.095
REMARK INTER + INTRA:          -7.149
REMARK INTER:                  -6.703
REMARK INTRA:                  -0.446
REMARK UNBOUND:                -0.450
REMARK SMILES O=c1c(O)c(-c2ccc(O)cc2O)oc2cc(O)cc(O)c12
REMARK SMILES IDX 5 1 3 2 2 3 1 4 22 5 20 6 19 7 17 8 16 9 15 10 14 11 6 12
REMARK SMILES IDX 8 13 7 14 9 15 11 16 12 17 10 18 13 20 4 22 21 24 18 26
REMARK H PARENT 10 19 13 21 4 23 21 25 18 27
REMARK Flexibility Score: inf
ROOT
ATOM      1  C   UNL     1      16.195  -6.759 714.493  1.00  0.00     0.184 A 
ATOM      2  C   UNL     1      16.273  -5.447 714.998  1.00  0.00     0.208 A 
ATOM      3  C   UNL     1      17.200  -4.557 714.434  1.00  0.00     0.238 A 
ATOM      4  O   UNL     1      17.284  -3.382 714.885  1.00  0.00    -0.285 OA
ATOM      5  C   UNL     1      18.018  -4.985 713.369  1.00  0.00     0.111 A 
ATOM      6  C   UNL     1      18.974  -4.150 712.742  1.00  0.00     0.134 A 
ATOM      7  C   UNL     1      19.746  -4.649 711.682  1.00  0.00     0.093 A 
ATOM      8  C   UNL     1      19.579  -5.965 711.237  1.00  0.00     0.123 A 
ATOM      9  C   UNL     1      18.637  -6.792 711.852  1.00  0.00     0.094 A 
ATOM     10  C   UNL     1      17.860  -6.314 712.911  1.00  0.00     0.146 A 
ATOM     11  O   UNL     1      16.974  -7.125 713.480  1.00  0.00    -0.451 OA
ENDROOT
BRANCH   1  12
ATOM     12  C   UNL     1      15.253  -7.756 715.053  1.00  0.00     0.063 A 
ATOM     13  C   UNL     1      14.734  -9.484 716.686  1.00  0.00     0.047 A 
ATOM     14  C   UNL     1      15.611  -8.524 716.175  1.00  0.00     0.020 A 
ATOM     15  C   UNL     1      13.492  -9.697 716.078  1.00  0.00     0.119 A 
ATOM     16  C   UNL     1      13.132  -8.949 714.953  1.00  0.00     0.093 A 
ATOM     17  C   UNL     1      14.006  -7.981 714.435  1.00  0.00     0.130 A 
BRANCH  15  18
ATOM     18  O   UNL     1      12.611 -10.653 716.579  1.00  0.00    -0.508 OA
ATOM     19  H   UNL     1      12.867 -11.255 717.352  1.00  0.00     0.293 HD
ENDBRANCH  15  18
BRANCH  17  20
ATOM     20  O   UNL     1      13.630  -7.237 713.316  1.00  0.00    -0.507 OA
ATOM     21  H   UNL     1      14.156  -6.423 713.018  1.00  0.00     0.293 HD
ENDBRANCH  17  20
ENDBRANCH   1  12
BRANCH   2  22
ATOM     22  O   UNL     1      15.421  -5.038 716.028  1.00  0.00    -0.502 OA
ATOM     23  H   UNL     1      14.623  -5.589 716.323  1.00  0.00     0.293 HD
ENDBRANCH   2  22
BRANCH   6  24
ATOM     24  O   UNL     1      19.163  -2.832 713.164  1.00  0.00    -0.507 OA
ATOM     25  H   UNL     1      20.085  -2.414 713.208  1.00  0.00     0.293 HD
ENDBRANCH   6  24
BRANCH   8  26
ATOM     26  O   UNL     1      20.345  -6.460 710.185  1.00  0.00    -0.508 OA
ATOM     27  H   UNL     1      19.921  -6.753 709.312  1.00  0.00     0.293 HD
ENDBRANCH   8  26
TORSDOF 6
ENDMDL
MODEL 5
REMARK VINA RESULT:    -5.537      2.440      5.860
REMARK INTER + INTRA:          -7.120
REMARK INTER:                  -6.725
REMARK INTRA:                  -0.395
REMARK UNBOUND:                -0.450
REMARK SMILES O=c1c(O)c(-c2ccc(O)cc2O)oc2cc(O)cc(O)c12
REMARK SMILES IDX 5 1 3 2 2 3 1 4 22 5 20 6 19 7 17 8 16 9 15 10 14 11 6 12
REMARK SMILES IDX 8 13 7 14 9 15 11 16 12 17 10 18 13 20 4 22 21 24 18 26
REMARK H PARENT 10 19 13 21 4 23 21 25 18 27
REMARK Flexibility Score: inf
ROOT
ATOM      1  C   UNL     1      16.230  -7.110 713.308  1.00  0.00     0.184 A 
ATOM      2  C   UNL     1      16.208  -7.515 714.655  1.00  0.00     0.208 A 
ATOM      3  C   UNL     1      15.109  -8.253 715.125  1.00  0.00     0.238 A 
ATOM      4  O   UNL     1      15.076  -8.613 716.333  1.00  0.00    -0.285 OA
ATOM      5  C   UNL     1      14.064  -8.585 714.239  1.00  0.00     0.111 A 
ATOM      6  C   UNL     1      12.924  -9.328 714.631  1.00  0.00     0.134 A 
ATOM      7  C   UNL     1      11.929  -9.624 713.687  1.00  0.00     0.093 A 
ATOM      8  C   UNL     1      12.053  -9.194 712.361  1.00  0.00     0.123 A 
ATOM      9  C   UNL     1      13.175  -8.461 711.971  1.00  0.00     0.094 A 
ATOM     10  C   UNL     1      14.177  -8.153 712.897  1.00  0.00     0.146 A 
ATOM     11  O   UNL     1      15.232  -7.451 712.498  1.00  0.00    -0.451 OA
ENDROOT
BRANCH   1  12
ATOM     12  C   UNL     1      17.348  -6.315 712.750  1.00  0.00     0.063 A 
ATOM     13  C   UNL     1      19.505  -6.206 711.627  1.00  0.00     0.047 A 
ATOM     14  C   UNL     1      18.436  -6.953 712.128  1.00  0.00     0.020 A 
ATOM     15  C   UNL     1      19.506  -4.811 711.749  1.00  0.00     0.119 A 
ATOM     16  C   UNL     1      18.436  -4.168 712.377  1.00  0.00     0.093 A 
ATOM     17  C   UNL     1      17.358  -4.911 712.881  1.00  0.00     0.130 A 
BRANCH  15  18
ATOM     18  O   UNL     1      20.567  -4.057 711.253  1.00  0.00    -0.508 OA
ATOM     19  H   UNL     1      21.103  -3.440 711.851  1.00  0.00     0.293 HD
ENDBRANCH  15  18
BRANCH  17  20
ATOM     20  O   UNL     1      16.294  -4.256 713.500  1.00  0.00    -0.507 OA
ATOM     21  H   UNL     1      16.037  -4.448 714.462  1.00  0.00     0.293 HD
ENDBRANCH  17  20
ENDBRANCH   1  12
BRANCH   2  22
ATOM     22  O   UNL     1      17.278  -7.207 715.501  1.00  0.00    -0.502 OA
ATOM     23  H   UNL     1      18.125  -7.761 715.527  1.00  0.00     0.293 HD
ENDBRANCH   2  22
BRANCH   6  24
ATOM     24  O   UNL     1      12.773  -9.771 715.946  1.00  0.00    -0.507 OA
ATOM     25  H   UNL     1      11.871 -10.049 716.314  1.00  0.00     0.293 HD
ENDBRANCH   6  24
BRANCH   8  26
ATOM     26  O   UNL     1      11.065  -9.488 711.425  1.00  0.00    -0.508 OA
ATOM     27  H   UNL     1      10.123  -9.732 711.707  1.00  0.00     0.293 HD
ENDBRANCH   8  26
TORSDOF 6
ENDMDL
MODEL 6
REMARK VINA RESULT:    -5.527      1.872      6.836
REMARK INTER + INTRA:          -7.108
REMARK INTER:                  -6.636
REMARK INTRA:                  -0.472
REMARK UNBOUND:                -0.450
REMARK SMILES O=c1c(O)c(-c2ccc(O)cc2O)oc2cc(O)cc(O)c12
REMARK SMILES IDX 5 1 3 2 2 3 1 4 22 5 20 6 19 7 17 8 16 9 15 10 14 11 6 12
REMARK SMILES IDX 8 13 7 14 9 15 11 16 12 17 10 18 13 20 4 22 21 24 18 26
REMARK H PARENT 10 19 13 21 4 23 21 25 18 27
REMARK Flexibility Score: inf
ROOT
ATOM      1  C   UNL     1      15.698  -6.214 714.592  1.00  0.00     0.184 A 
ATOM      2  C   UNL     1      15.163  -4.952 714.912  1.00  0.00     0.208 A 
ATOM      3  C   UNL     1      14.166  -4.868 715.897  1.00  0.00     0.238 A 
ATOM      4  O   UNL     1      13.673  -3.744 716.186  1.00  0.00    -0.285 OA
ATOM      5  C   UNL     1      13.735  -6.039 716.552  1.00  0.00     0.111 A 
ATOM      6  C   UNL     1      12.738  -6.042 717.558  1.00  0.00     0.134 A 
ATOM      7  C   UNL     1      12.368  -7.249 718.169  1.00  0.00     0.093 A 
ATOM      8  C   UNL     1      12.976  -8.453 717.794  1.00  0.00     0.123 A 
ATOM      9  C   UNL     1      13.959  -8.455 716.803  1.00  0.00     0.094 A 
ATOM     10  C   UNL     1      14.340  -7.263 716.181  1.00  0.00     0.146 A 
ATOM     11  O   UNL     1      15.275  -7.296 715.238  1.00  0.00    -0.451 OA
ENDROOT
BRANCH   1  12
ATOM     12  C   UNL     1      16.740  -6.378 713.550  1.00  0.00     0.063 A 
ATOM     13  C   UNL     1      17.389  -6.426 711.206  1.00  0.00     0.047 A 
ATOM     14  C   UNL     1      16.414  -6.244 712.189  1.00  0.00     0.020 A 
ATOM     15  C   UNL     1      18.701  -6.754 711.568  1.00  0.00     0.119 A 
ATOM     16  C   UNL     1      19.032  -6.903 712.917  1.00  0.00     0.093 A 
ATOM     17  C   UNL     1      18.059  -6.720 713.911  1.00  0.00     0.130 A 
BRANCH  15  18
ATOM     18  O   UNL     1      19.680  -6.939 710.595  1.00  0.00    -0.508 OA
ATOM     19  H   UNL     1      19.467  -7.372 709.704  1.00  0.00     0.293 HD
ENDBRANCH  15  18
BRANCH  17  20
ATOM     20  O   UNL     1      18.405  -6.865 715.255  1.00  0.00    -0.507 OA
ATOM     21  H   UNL     1      18.467  -7.777 715.693  1.00  0.00     0.293 HD
ENDBRANCH  17  20
ENDBRANCH   1  12
BRANCH   2  22
ATOM     22  O   UNL     1      15.639  -3.803 714.275  1.00  0.00    -0.502 OA
ATOM     23  H   UNL     1      15.642  -2.895 714.725  1.00  0.00     0.293 HD
ENDBRANCH   2  22
BRANCH   6  24
ATOM     24  O   UNL     1      12.114  -4.857 717.953  1.00  0.00    -0.507 OA
ATOM     25  H   UNL     1      11.493  -4.349 717.334  1.00  0.00     0.293 HD
ENDBRANCH   6  24
BRANCH   8  26
ATOM     26  O   UNL     1      12.609  -9.651 718.401  1.00  0.00    -0.508 OA
ATOM     27  H   UNL     1      12.987 -10.540 718.092  1.00  0.00     0.293 HD
ENDBRANCH   8  26
TORSDOF 6
ENDMDL
MODEL 7
REMARK VINA RESULT:    -5.448      2.072      6.627
REMARK INTER + INTRA:          -7.013
REMARK INTER:                  -6.538
REMARK INTRA:                  -0.475
REMARK UNBOUND:                -0.450
REMARK SMILES O=c1c(O)c(-c2ccc(O)cc2O)oc2cc(O)cc(O)c12
REMARK SMILES IDX 5 1 3 2 2 3 1 4 22 5 20 6 19 7 17 8 16 9 15 10 14 11 6 12
REMARK SMILES IDX 8 13 7 14 9 15 11 16 12 17 10 18 13 20 4 22 21 24 18 26
REMARK H PARENT 10 19 13 21 4 23 21 25 18 27
REMARK Flexibility Score: inf
ROOT
ATOM      1  C   UNL     1      15.922  -7.158 713.538  1.00  0.00     0.184 A 
ATOM      2  C   UNL     1      14.816  -7.479 712.729  1.00  0.00     0.208 A 
ATOM      3  C   UNL     1      13.810  -8.307 713.252  1.00  0.00     0.238 A 
ATOM      4  O   UNL     1      12.819  -8.608 712.532  1.00  0.00    -0.285 OA
ATOM      5  C   UNL     1      13.918  -8.784 714.574  1.00  0.00     0.111 A 
ATOM      6  C   UNL     1      12.947  -9.620 715.178  1.00  0.00     0.134 A 
ATOM      7  C   UNL     1      13.123 -10.047 716.502  1.00  0.00     0.093 A 
ATOM      8  C   UNL     1      14.250  -9.655 717.234  1.00  0.00     0.123 A 
ATOM      9  C   UNL     1      15.210  -8.832 716.642  1.00  0.00     0.094 A 
ATOM     10  C   UNL     1      15.053  -8.397 715.323  1.00  0.00     0.146 A 
ATOM     11  O   UNL     1      15.985  -7.617 714.785  1.00  0.00    -0.451 OA
ENDROOT
BRANCH   1  12
ATOM     12  C   UNL     1      17.028  -6.305 713.045  1.00  0.00     0.063 A 
ATOM     13  C   UNL     1      19.023  -6.018 711.681  1.00  0.00     0.047 A 
ATOM     14  C   UNL     1      17.963  -6.812 712.124  1.00  0.00     0.020 A 
ATOM     15  C   UNL     1      19.169  -4.710 712.157  1.00  0.00     0.119 A 
ATOM     16  C   UNL     1      18.254  -4.201 713.083  1.00  0.00     0.093 A 
ATOM     17  C   UNL     1      17.185  -4.992 713.532  1.00  0.00     0.130 A 
BRANCH  15  18
ATOM     18  O   UNL     1      20.223  -3.910 711.721  1.00  0.00    -0.508 OA
ATOM     19  H   UNL     1      20.093  -3.210 711.001  1.00  0.00     0.293 HD
ENDBRANCH  15  18
BRANCH  17  20
ATOM     20  O   UNL     1      16.275  -4.469 714.450  1.00  0.00    -0.507 OA
ATOM     21  H   UNL     1      16.496  -3.658 715.017  1.00  0.00     0.293 HD
ENDBRANCH  17  20
ENDBRANCH   1  12
BRANCH   2  22
ATOM     22  O   UNL     1      14.715  -6.959 711.436  1.00  0.00    -0.502 OA
ATOM     23  H   UNL     1      14.334  -7.494 710.664  1.00  0.00     0.293 HD
ENDBRANCH   2  22
BRANCH   6  24
ATOM     24  O   UNL     1      11.812 -10.026 714.473  1.00  0.00    -0.507 OA
ATOM     25  H   UNL     1      10.950  -9.494 714.499  1.00  0.00     0.293 HD
ENDBRANCH   6  24
BRANCH   8  26
ATOM     26  O   UNL     1      14.425 -10.079 718.548  1.00  0.00    -0.508 OA
ATOM     27  H   UNL     1      13.713 -10.614 719.032  1.00  0.00     0.293 HD
ENDBRANCH   8  26
TORSDOF 6
ENDMDL
MODEL 8
REMARK VINA RESULT:    -5.388      1.755      2.298
REMARK INTER + INTRA:          -6.941
REMARK INTER:                  -6.600
REMARK INTRA:                  -0.341
REMARK UNBOUND:                -0.450
REMARK SMILES O=c1c(O)c(-c2ccc(O)cc2O)oc2cc(O)cc(O)c12
REMARK SMILES IDX 5 1 3 2 2 3 1 4 22 5 20 6 19 7 17 8 16 9 15 10 14 11 6 12
REMARK SMILES IDX 8 13 7 14 9 15 11 16 12 17 10 18 13 20 4 22 21 24 18 26
REMARK H PARENT 10 19 13 21 4 23 21 25 18 27
REMARK Flexibility Score: inf
ROOT
ATOM      1  C   UNL     1      15.660  -6.179 714.933  1.00  0.00     0.184 A 
ATOM      2  C   UNL     1      16.752  -5.368 715.295  1.00  0.00     0.208 A 
ATOM      3  C   UNL     1      17.747  -5.103 714.340  1.00  0.00     0.238 A 
ATOM      4  O   UNL     1      18.734  -4.385 714.656  1.00  0.00    -0.285 OA
ATOM      5  C   UNL     1      17.625  -5.638 713.041  1.00  0.00     0.111 A 
ATOM      6  C   UNL     1      18.581  -5.416 712.020  1.00  0.00     0.134 A 
ATOM      7  C   UNL     1      18.384  -5.977 710.749  1.00  0.00     0.093 A 
ATOM      8  C   UNL     1      17.251  -6.754 710.481  1.00  0.00     0.123 A 
ATOM      9  C   UNL     1      16.307  -6.976 711.485  1.00  0.00     0.094 A 
ATOM     10  C   UNL     1      16.486  -6.427 712.758  1.00  0.00     0.146 A 
ATOM     11  O   UNL     1      15.573  -6.657 713.695  1.00  0.00    -0.451 OA
ENDROOT
BRANCH   1  12
ATOM     12  C   UNL     1      14.584  -6.515 715.895  1.00  0.00     0.063 A 
ATOM     13  C   UNL     1      12.827  -5.810 717.424  1.00  0.00     0.047 A 
ATOM     14  C   UNL     1      13.823  -5.496 716.496  1.00  0.00     0.020 A 
ATOM     15  C   UNL     1      12.585  -7.144 717.772  1.00  0.00     0.119 A 
ATOM     16  C   UNL     1      13.346  -8.162 717.191  1.00  0.00     0.093 A 
ATOM     17  C   UNL     1      14.346  -7.856 716.257  1.00  0.00     0.130 A 
BRANCH  15  18
ATOM     18  O   UNL     1      11.595  -7.467 718.697  1.00  0.00    -0.508 OA
ATOM     19  H   UNL     1      11.231  -6.779 719.346  1.00  0.00     0.293 HD
ENDBRANCH  15  18
BRANCH  17  20
ATOM     20  O   UNL     1      15.093  -8.883 715.680  1.00  0.00    -0.507 OA
ATOM     21  H   UNL     1      15.043  -9.085 714.688  1.00  0.00     0.293 HD
ENDBRANCH  17  20
ENDBRANCH   1  12
BRANCH   2  22
ATOM     22  O   UNL     1      16.826  -4.819 716.578  1.00  0.00    -0.502 OA
ATOM     23  H   UNL     1      16.052  -4.861 717.231  1.00  0.00     0.293 HD
ENDBRANCH   2  22
BRANCH   6  24
ATOM     24  O   UNL     1      19.720  -4.645 712.258  1.00  0.00    -0.507 OA
ATOM     25  H   UNL     1      19.748  -3.655 712.040  1.00  0.00     0.293 HD
ENDBRANCH   6  24
BRANCH   8  26
ATOM     26  O   UNL     1      17.056  -7.311 709.220  1.00  0.00    -0.508 OA
ATOM     27  H   UNL     1      17.720  -7.963 708.819  1.00  0.00     0.293 HD
ENDBRANCH   8  26
TORSDOF 6
ENDMDL
MODEL 9
REMARK VINA RESULT:    -5.026      2.181      6.879
REMARK INTER + INTRA:          -6.505
REMARK INTER:                  -6.094
REMARK INTRA:                  -0.411
REMARK UNBOUND:                -0.450
REMARK SMILES O=c1c(O)c(-c2ccc(O)cc2O)oc2cc(O)cc(O)c12
REMARK SMILES IDX 5 1 3 2 2 3 1 4 22 5 20 6 19 7 17 8 16 9 15 10 14 11 6 12
REMARK SMILES IDX 8 13 7 14 9 15 11 16 12 17 10 18 13 20 4 22 21 24 18 26
REMARK H PARENT 10 19 13 21 4 23 21 25 18 27
REMARK Flexibility Score: inf
ROOT
ATOM      1  C   UNL     1      15.463  -6.347 714.158  1.00  0.00     0.184 A 
ATOM      2  C   UNL     1      14.380  -7.239 714.043  1.00  0.00     0.208 A 
ATOM      3  C   UNL     1      13.290  -7.099 714.916  1.00  0.00     0.238 A 
ATOM      4  O   UNL     1      12.318  -7.898 714.828  1.00  0.00    -0.285 OA
ATOM      5  C   UNL     1      13.293  -6.064 715.873  1.00  0.00     0.111 A 
ATOM      6  C   UNL     1      12.232  -5.851 716.787  1.00  0.00     0.134 A 
ATOM      7  C   UNL     1      12.307  -4.793 717.706  1.00  0.00     0.093 A 
ATOM      8  C   UNL     1      13.420  -3.945 717.727  1.00  0.00     0.123 A 
ATOM      9  C   UNL     1      14.468  -4.152 716.828  1.00  0.00     0.094 A 
ATOM     10  C   UNL     1      14.413  -5.201 715.906  1.00  0.00     0.146 A 
ATOM     11  O   UNL     1      15.427  -5.376 715.065  1.00  0.00    -0.451 OA
ENDROOT
BRANCH   1  12
ATOM     12  C   UNL     1      16.654  -6.449 713.282  1.00  0.00     0.063 A 
ATOM     13  C   UNL     1      17.668  -6.300 711.075  1.00  0.00     0.047 A 
ATOM     14  C   UNL     1      16.552  -6.177 711.906  1.00  0.00     0.020 A 
ATOM     15  C   UNL     1      18.898  -6.705 711.605  1.00  0.00     0.119 A 
ATOM     16  C   UNL     1      19.007  -6.991 712.969  1.00  0.00     0.093 A 
ATOM     17  C   UNL     1      17.892  -6.868 713.811  1.00  0.00     0.130 A 
BRANCH  15  18
ATOM     18  O   UNL     1      20.017  -6.831 710.784  1.00  0.00    -0.508 OA
ATOM     19  H   UNL     1      20.169  -7.658 710.219  1.00  0.00     0.293 HD
ENDBRANCH  15  18
BRANCH  17  20
ATOM     20  O   UNL     1      18.016  -7.150 715.171  1.00  0.00    -0.507 OA
ATOM     21  H   UNL     1      17.286  -7.632 715.684  1.00  0.00     0.293 HD
ENDBRANCH  17  20
ENDBRANCH   1  12
BRANCH   2  22
ATOM     22  O   UNL     1      14.386  -8.231 713.058  1.00  0.00    -0.502 OA
ATOM     23  H   UNL     1      14.073  -8.055 712.110  1.00  0.00     0.293 HD
ENDBRANCH   2  22
BRANCH   6  24
ATOM     24  O   UNL     1      11.109  -6.680 716.789  1.00  0.00    -0.507 OA
ATOM     25  H   UNL     1      11.076  -7.534 716.244  1.00  0.00     0.293 HD
ENDBRANCH   6  24
BRANCH   8  26
ATOM     26  O   UNL     1      13.494  -2.895 718.639  1.00  0.00    -0.508 OA
ATOM     27  H   UNL     1      14.370  -2.426 718.838  1.00  0.00     0.293 HD
ENDBRANCH   8  26
TORSDOF 6
ENDMDL
