MODEL 1
REMARK VINA RESULT:    -3.488      0.000      0.000
REMARK INTER + INTRA:          -4.573
REMARK INTER:                  -4.100
REMARK INTRA:                  -0.474
REMARK UNBOUND:                -0.474
REMARK SMILES C=C(C)[C@@H]1CC[C@@]2(CO)CC[C@@]3(C)[C@H](CC[C@@H]4[C@@]5(C)CC[C@@H](O)C(C)(C)[C@H]5CC[C@@]43C)[C@@H]12
REMARK SMILES IDX 4 1 5 2 6 3 7 4 32 5 14 6 15 7 16 8 17 9 18 10 20 11 21 12
REMARK SMILES IDX 22 13 24 14 27 15 28 16 29 17 30 18 12 19 11 20 10 21 13 22
REMARK SMILES IDX 31 23 25 24 26 25 19 26 2 27 3 28 1 29 8 30 9 31 23 33
REMARK H PARENT 9 32 23 34
REMARK Flexibility Score: inf
ROOT
ATOM      1  C   UNL     1      38.888 -44.981  32.316  1.00  0.00     0.018 C 
ATOM      2  C   UNL     1      37.950 -45.074  31.109  1.00  0.00     0.009 C 
ATOM      3  C   UNL     1      38.837 -45.225  29.887  1.00  0.00     0.010 C 
ATOM      4  C   UNL     1      40.221 -44.600  30.225  1.00  0.00    -0.003 C 
ATOM      5  C   UNL     1      40.297 -44.577  31.786  1.00  0.00     0.008 C 
ATOM      6  C   UNL     1      40.876 -43.253  32.445  1.00  0.00    -0.000 C 
ATOM      7  C   UNL     1      42.418 -43.294  32.534  1.00  0.00     0.005 C 
ATOM      8  C   UNL     1      43.208 -42.508  31.482  1.00  0.00     0.005 C 
ATOM      9  C   UNL     1      42.700 -41.077  31.079  1.00  0.00     0.002 C 
ATOM     10  C   UNL     1      43.894 -39.993  31.037  1.00  0.00    -0.026 C 
ATOM     11  C   UNL     1      43.528 -38.767  30.090  1.00  0.00     0.010 C 
ATOM     12  C   UNL     1      43.312 -37.340  30.663  1.00  0.00     0.033 C 
ATOM     13  C   UNL     1      43.702 -37.086  32.130  1.00  0.00     0.120 C 
ATOM     14  C   UNL     1      44.789 -38.048  32.651  1.00  0.00    -0.006 C 
ATOM     15  C   UNL     1      44.330 -39.556  32.501  1.00  0.00     0.003 C 
ATOM     16  C   UNL     1      43.401 -40.125  33.628  1.00  0.00     0.005 C 
ATOM     17  C   UNL     1      41.885 -40.268  33.361  1.00  0.00     0.008 C 
ATOM     18  C   UNL     1      41.419 -40.673  31.908  1.00  0.00    -0.024 C 
ATOM     19  C   UNL     1      40.302 -41.865  31.921  1.00  0.00    -0.024 C 
ATOM     20  C   UNL     1      39.661 -42.103  30.496  1.00  0.00     0.008 C 
ATOM     21  C   UNL     1      40.329 -43.172  29.627  1.00  0.00     0.010 C 
ATOM     22  C   UNL     1      39.105 -41.412  32.863  1.00  0.00     0.012 C 
ATOM     23  C   UNL     1      40.731 -39.415  31.276  1.00  0.00     0.012 C 
ATOM     24  C   UNL     1      45.124 -37.683  34.125  1.00  0.00     0.014 C 
ATOM     25  C   UNL     1      46.111 -37.792  31.874  1.00  0.00     0.014 C 
ATOM     26  C   UNL     1      45.130 -40.670  30.327  1.00  0.00     0.012 C 
ENDROOT
BRANCH   1  27
ATOM     27  C   UNL     1      38.932 -46.270  33.145  1.00  0.00    -0.077 C 
ATOM     28  C   UNL     1      37.833 -46.616  34.125  1.00  0.00     0.039 C 
ATOM     29  C   UNL     1      39.872 -47.187  32.876  1.00  0.00     0.008 C 
ENDBRANCH   1  27
BRANCH   4  30
ATOM     30  C   UNL     1      41.374 -45.450  29.602  1.00  0.00     0.163 C 
BRANCH  30  31
ATOM     31  O   UNL     1      40.976 -46.134  28.443  1.00  0.00    -0.396 OA
ATOM     32  H   UNL     1      41.649 -45.937  27.743  1.00  0.00     0.210 HD
ENDBRANCH  30  31
ENDBRANCH   4  30
BRANCH  13  33
ATOM     33  O   UNL     1      42.558 -37.140  32.952  1.00  0.00    -0.393 OA
ATOM     34  H   UNL     1      42.777 -37.692  33.745  1.00  0.00     0.210 HD
ENDBRANCH  13  33
TORSDOF 4
ENDMDL
MODEL 2
REMARK VINA RESULT:    -2.165      2.068      7.550
REMARK INTER + INTRA:          -3.018
REMARK INTER:                  -2.981
REMARK INTRA:                  -0.037
REMARK UNBOUND:                -0.474
REMARK SMILES C=C(C)[C@@H]1CC[C@@]2(CO)CC[C@@]3(C)[C@H](CC[C@@H]4[C@@]5(C)CC[C@@H](O)C(C)(C)[C@H]5CC[C@@]43C)[C@@H]12
REMARK SMILES IDX 4 1 5 2 6 3 7 4 32 5 14 6 15 7 16 8 17 9 18 10 20 11 21 12
REMARK SMILES IDX 22 13 24 14 27 15 28 16 29 17 30 18 12 19 11 20 10 21 13 22
REMARK SMILES IDX 31 23 25 24 26 25 19 26 2 27 3 28 1 29 8 30 9 31 23 33
REMARK H PARENT 9 32 23 34
REMARK Flexibility Score: inf
ROOT
ATOM      1  C   UNL     1      44.242 -39.618  31.865  1.00  0.00     0.018 C 
ATOM      2  C   UNL     1      44.275 -39.215  33.343  1.00  0.00     0.009 C 
ATOM      3  C   UNL     1      44.585 -40.478  34.125  1.00  0.00     0.010 C 
ATOM      4  C   UNL     1      44.116 -41.692  33.272  1.00  0.00    -0.003 C 
ATOM      5  C   UNL     1      44.033 -41.162  31.804  1.00  0.00     0.008 C 
ATOM      6  C   UNL     1      42.761 -41.605  30.964  1.00  0.00    -0.000 C 
ATOM      7  C   UNL     1      42.982 -42.974  30.283  1.00  0.00     0.005 C 
ATOM      8  C   UNL     1      42.344 -44.202  30.940  1.00  0.00     0.005 C 
ATOM      9  C   UNL     1      40.882 -44.076  31.500  1.00  0.00     0.002 C 
ATOM     10  C   UNL     1      39.951 -45.321  31.069  1.00  0.00    -0.026 C 
ATOM     11  C   UNL     1      38.733 -45.509  32.076  1.00  0.00     0.010 C 
ATOM     12  C   UNL     1      37.266 -45.272  31.623  1.00  0.00     0.033 C 
ATOM     13  C   UNL     1      36.996 -45.095  30.119  1.00  0.00     0.120 C 
ATOM     14  C   UNL     1      38.058 -45.763  29.222  1.00  0.00    -0.006 C 
ATOM     15  C   UNL     1      39.505 -45.210  29.548  1.00  0.00     0.003 C 
ATOM     16  C   UNL     1      39.909 -43.853  28.874  1.00  0.00     0.005 C 
ATOM     17  C   UNL     1      39.881 -42.553  29.710  1.00  0.00     0.008 C 
ATOM     18  C   UNL     1      40.290 -42.637  31.232  1.00  0.00    -0.024 C 
ATOM     19  C   UNL     1      41.339 -41.459  31.662  1.00  0.00    -0.024 C 
ATOM     20  C   UNL     1      41.560 -41.394  33.225  1.00  0.00     0.008 C 
ATOM     21  C   UNL     1      42.740 -42.203  33.772  1.00  0.00     0.010 C 
ATOM     22  C   UNL     1      40.705 -40.060  31.256  1.00  0.00     0.012 C 
ATOM     23  C   UNL     1      38.989 -42.413  32.074  1.00  0.00     0.012 C 
ATOM     24  C   UNL     1      37.672 -45.547  27.731  1.00  0.00     0.014 C 
ATOM     25  C   UNL     1      37.997 -47.304  29.423  1.00  0.00     0.014 C 
ATOM     26  C   UNL     1      40.802 -46.638  31.246  1.00  0.00     0.012 C 
ENDROOT
BRANCH   1  27
ATOM     27  C   UNL     1      45.489 -39.173  31.093  1.00  0.00    -0.077 C 
ATOM     28  C   UNL     1      46.077 -37.791  31.270  1.00  0.00     0.039 C 
ATOM     29  C   UNL     1      46.169 -40.079  30.375  1.00  0.00     0.008 C 
ENDBRANCH   1  27
BRANCH   4  30
ATOM     30  C   UNL     1      45.125 -42.877  33.403  1.00  0.00     0.163 C 
BRANCH  30  31
ATOM     31  O   UNL     1      44.755 -43.991  32.634  1.00  0.00    -0.396 OA
ATOM     32  H   UNL     1      45.458 -44.677  32.758  1.00  0.00     0.210 HD
ENDBRANCH  30  31
ENDBRANCH   4  30
BRANCH  13  33
ATOM     33  O   UNL     1      36.877 -43.725  29.806  1.00  0.00    -0.393 OA
ATOM     34  H   UNL     1      36.155 -43.625  29.136  1.00  0.00     0.210 HD
ENDBRANCH  13  33
TORSDOF 4
ENDMDL
MODEL 3
REMARK VINA RESULT:    -1.518      1.466      7.612
REMARK INTER + INTRA:          -2.258
REMARK INTER:                  -1.598
REMARK INTRA:                  -0.660
REMARK UNBOUND:                -0.474
REMARK SMILES C=C(C)[C@@H]1CC[C@@]2(CO)CC[C@@]3(C)[C@H](CC[C@@H]4[C@@]5(C)CC[C@@H](O)C(C)(C)[C@H]5CC[C@@]43C)[C@@H]12
REMARK SMILES IDX 4 1 5 2 6 3 7 4 32 5 14 6 15 7 16 8 17 9 18 10 20 11 21 12
REMARK SMILES IDX 22 13 24 14 27 15 28 16 29 17 30 18 12 19 11 20 10 21 13 22
REMARK SMILES IDX 31 23 25 24 26 25 19 26 2 27 3 28 1 29 8 30 9 31 23 33
REMARK H PARENT 9 32 23 34
REMARK Flexibility Score: inf
ROOT
ATOM      1  C   UNL     1      45.014 -38.751  32.885  1.00  0.00     0.018 C 
ATOM      2  C   UNL     1      46.039 -38.743  31.745  1.00  0.00     0.009 C 
ATOM      3  C   UNL     1      45.272 -38.406  30.481  1.00  0.00     0.010 C 
ATOM      4  C   UNL     1      43.791 -38.834  30.695  1.00  0.00    -0.003 C 
ATOM      5  C   UNL     1      43.602 -38.917  32.244  1.00  0.00     0.008 C 
ATOM      6  C   UNL     1      42.793 -40.169  32.791  1.00  0.00    -0.000 C 
ATOM      7  C   UNL     1      41.270 -39.904  32.785  1.00  0.00     0.005 C 
ATOM      8  C   UNL     1      40.451 -40.515  31.643  1.00  0.00     0.005 C 
ATOM      9  C   UNL     1      40.774 -41.985  31.194  1.00  0.00     0.002 C 
ATOM     10  C   UNL     1      39.442 -42.877  31.016  1.00  0.00    -0.026 C 
ATOM     11  C   UNL     1      39.692 -44.099  30.027  1.00  0.00     0.010 C 
ATOM     12  C   UNL     1      39.658 -45.568  30.532  1.00  0.00     0.033 C 
ATOM     13  C   UNL     1      39.132 -45.828  31.955  1.00  0.00     0.120 C 
ATOM     14  C   UNL     1      38.163 -44.741  32.459  1.00  0.00    -0.006 C 
ATOM     15  C   UNL     1      38.844 -43.312  32.423  1.00  0.00     0.003 C 
ATOM     16  C   UNL     1      39.765 -42.939  33.636  1.00  0.00     0.005 C 
ATOM     17  C   UNL     1      41.300 -43.011  33.474  1.00  0.00     0.008 C 
ATOM     18  C   UNL     1      41.921 -42.613  32.077  1.00  0.00    -0.024 C 
ATOM     19  C   UNL     1      43.196 -41.601  32.227  1.00  0.00    -0.024 C 
ATOM     20  C   UNL     1      43.963 -41.396  30.861  1.00  0.00     0.008 C 
ATOM     21  C   UNL     1      43.520 -40.201  30.013  1.00  0.00     0.010 C 
ATOM     22  C   UNL     1      44.244 -42.269  33.217  1.00  0.00     0.012 C 
ATOM     23  C   UNL     1      42.462 -43.928  31.421  1.00  0.00     0.012 C 
ATOM     24  C   UNL     1      37.675 -45.119  33.886  1.00  0.00     0.014 C 
ATOM     25  C   UNL     1      36.876 -44.762  31.587  1.00  0.00     0.014 C 
ATOM     26  C   UNL     1      38.370 -41.993  30.269  1.00  0.00     0.012 C 
ENDROOT
BRANCH   1  27
ATOM     27  C   UNL     1      45.100 -37.510  33.779  1.00  0.00    -0.077 C 
ATOM     28  C   UNL     1      46.429 -36.875  34.125  1.00  0.00     0.039 C 
ATOM     29  C   UNL     1      43.970 -36.875  34.125  1.00  0.00     0.008 C 
ENDBRANCH   1  27
BRANCH   4  30
ATOM     30  C   UNL     1      42.820 -37.794  30.049  1.00  0.00     0.163 C 
BRANCH  30  31
ATOM     31  O   UNL     1      42.245 -36.932  30.994  1.00  0.00    -0.396 OA
ATOM     32  H   UNL     1      41.511 -36.448  30.537  1.00  0.00     0.210 HD
ENDBRANCH  30  31
ENDBRANCH   4  30
BRANCH  13  33
ATOM     33  O   UNL     1      40.211 -45.982  32.849  1.00  0.00    -0.393 OA
ATOM     34  H   UNL     1      41.048 -45.780  32.358  1.00  0.00     0.210 HD
ENDBRANCH  13  33
TORSDOF 4
ENDMDL
MODEL 4
REMARK VINA RESULT:    -0.997      2.144      4.303
REMARK INTER + INTRA:          -1.645
REMARK INTER:                  -1.074
REMARK INTRA:                  -0.572
REMARK UNBOUND:                -0.474
REMARK SMILES C=C(C)[C@@H]1CC[C@@]2(CO)CC[C@@]3(C)[C@H](CC[C@@H]4[C@@]5(C)CC[C@@H](O)C(C)(C)[C@H]5CC[C@@]43C)[C@@H]12
REMARK SMILES IDX 4 1 5 2 6 3 7 4 32 5 14 6 15 7 16 8 17 9 18 10 20 11 21 12
REMARK SMILES IDX 22 13 24 14 27 15 28 16 29 17 30 18 12 19 11 20 10 21 13 22
REMARK SMILES IDX 31 23 25 24 26 25 19 26 2 27 3 28 1 29 8 30 9 31 23 33
REMARK H PARENT 9 32 23 34
REMARK Flexibility Score: inf
ROOT
ATOM      1  C   UNL     1      38.455 -45.371  28.267  1.00  0.00     0.018 C 
ATOM      2  C   UNL     1      38.288 -46.793  28.812  1.00  0.00     0.009 C 
ATOM      3  C   UNL     1      37.686 -46.653  30.197  1.00  0.00     0.010 C 
ATOM      4  C   UNL     1      38.074 -45.248  30.744  1.00  0.00    -0.003 C 
ATOM      5  C   UNL     1      38.431 -44.396  29.484  1.00  0.00     0.008 C 
ATOM      6  C   UNL     1      39.722 -43.477  29.596  1.00  0.00    -0.000 C 
ATOM      7  C   UNL     1      39.386 -42.106  30.225  1.00  0.00     0.005 C 
ATOM      8  C   UNL     1      39.735 -41.902  31.703  1.00  0.00     0.005 C 
ATOM      9  C   UNL     1      41.111 -42.447  32.228  1.00  0.00     0.002 C 
ATOM     10  C   UNL     1      41.889 -41.367  33.140  1.00  0.00    -0.026 C 
ATOM     11  C   UNL     1      42.919 -42.076  34.125  1.00  0.00     0.010 C 
ATOM     12  C   UNL     1      44.451 -41.878  33.972  1.00  0.00     0.033 C 
ATOM     13  C   UNL     1      44.944 -40.788  33.004  1.00  0.00     0.120 C 
ATOM     14  C   UNL     1      43.922 -39.654  32.787  1.00  0.00    -0.006 C 
ATOM     15  C   UNL     1      42.546 -40.225  32.251  1.00  0.00     0.003 C 
ATOM     16  C   UNL     1      42.448 -40.498  30.710  1.00  0.00     0.005 C 
ATOM     17  C   UNL     1      42.564 -41.948  30.187  1.00  0.00     0.008 C 
ATOM     18  C   UNL     1      41.947 -43.107  31.064  1.00  0.00    -0.024 C 
ATOM     19  C   UNL     1      41.043 -44.143  30.179  1.00  0.00    -0.024 C 
ATOM     20  C   UNL     1      40.628 -45.428  31.000  1.00  0.00     0.008 C 
ATOM     21  C   UNL     1      39.276 -45.360  31.717  1.00  0.00     0.010 C 
ATOM     22  C   UNL     1      41.933 -44.670  28.973  1.00  0.00     0.012 C 
ATOM     23  C   UNL     1      43.143 -43.933  31.646  1.00  0.00     0.012 C 
ATOM     24  C   UNL     1      44.532 -38.599  31.821  1.00  0.00     0.014 C 
ATOM     25  C   UNL     1      43.719 -38.888  34.125  1.00  0.00     0.014 C 
ATOM     26  C   UNL     1      40.831 -40.704  34.104  1.00  0.00     0.012 C 
ENDROOT
BRANCH   1  27
ATOM     27  C   UNL     1      37.406 -45.003  27.212  1.00  0.00    -0.077 C 
ATOM     28  C   UNL     1      36.878 -43.592  27.082  1.00  0.00     0.039 C 
ATOM     29  C   UNL     1      37.072 -45.908  26.280  1.00  0.00     0.008 C 
ENDBRANCH   1  27
BRANCH   4  30
ATOM     30  C   UNL     1      36.886 -44.625  31.545  1.00  0.00     0.163 C 
BRANCH  30  31
ATOM     31  O   UNL     1      37.280 -44.130  32.798  1.00  0.00    -0.396 OA
ATOM     32  H   UNL     1      36.706 -44.566  33.477  1.00  0.00     0.210 HD
ENDBRANCH  30  31
ENDBRANCH   4  30
BRANCH  13  33
ATOM     33  O   UNL     1      45.312 -41.364  31.771  1.00  0.00    -0.393 OA
ATOM     34  H   UNL     1      45.695 -40.650  31.201  1.00  0.00     0.210 HD
ENDBRANCH  13  33
TORSDOF 4
ENDMDL
