MODEL 1
REMARK VINA RESULT:    -6.699      0.000      0.000
REMARK INTER + INTRA:         -13.774
REMARK INTER:                 -11.007
REMARK INTRA:                  -2.767
REMARK UNBOUND:                -2.767
REMARK SMILES C[C@@H]1O[C@@H](OC[C@H]2O[C@H](Oc3c(-c4ccc(O)c(O)c4)oc4cc(O)cc(O)c4c3=O)[C@@H](O)[C@H](O)[C@H]2O)[C@H](O)[C@@H](O)[C@@H]1O
REMARK SMILES IDX 7 1 36 2 34 3 32 4 9 5 8 6 6 7 5 8 4 9 1 10 2 11 42 12 3 13
REMARK SMILES IDX 40 14 38 15 43 16 41 18 39 20 37 22 35 24 10 26 11 27 12 28
REMARK SMILES IDX 30 29 21 30 29 31 31 32 22 33 27 34 23 35 26 36 24 37 13 38
REMARK SMILES IDX 20 39 14 40 18 41 15 42 16 43 19 44 17 46 28 48 25 50 33 52
REMARK H PARENT 43 17 41 19 39 21 37 23 35 25 19 45 17 47 28 49 25 51 33 53
REMARK Flexibility Score: inf
ROOT
ATOM      1  C   UNL     1       2.694  65.320  13.617  1.00  0.00     0.180 C 
ATOM      2  C   UNL     1       3.334  63.941  13.920  1.00  0.00     0.177 C 
ATOM      3  C   UNL     1       4.078  64.015  15.273  1.00  0.00     0.180 C 
ATOM      4  C   UNL     1       3.138  64.565  16.366  1.00  0.00     0.214 C 
ATOM      5  C   UNL     1       2.451  65.868  15.897  1.00  0.00     0.339 C 
ATOM      6  O   UNL     1       1.798  65.702  14.648  1.00  0.00    -0.332 OA
ENDROOT
BRANCH   1   7
ATOM      7  C   UNL     1       1.935  65.320  12.282  1.00  0.00     0.198 C 
BRANCH   7   8
ATOM      8  O   UNL     1       2.622  64.502  11.358  1.00  0.00    -0.347 OA
BRANCH   8   9
ATOM      9  C   UNL     1       2.649  65.019  10.035  1.00  0.00     0.281 C 
ATOM     10  C   UNL     1       1.818  66.701   7.615  1.00  0.00     0.041 C 
ATOM     11  C   UNL     1       0.929  65.974   8.651  1.00  0.00     0.150 C 
ATOM     12  C   UNL     1       0.422  64.594   8.224  1.00  0.00     0.174 C 
ATOM     13  O   UNL     1       1.527  65.888   9.928  1.00  0.00    -0.344 OA
ATOM     14  C   UNL     1       1.609  63.680   7.951  1.00  0.00     0.179 C 
ATOM     15  C   UNL     1       2.725  63.806   9.027  1.00  0.00     0.202 C 
BRANCH  12  16
ATOM     16  O   UNL     1      -0.382  64.683   7.077  1.00  0.00    -0.388 OA
ATOM     17  H   UNL     1      -1.303  64.869   7.397  1.00  0.00     0.211 HD
ENDBRANCH  12  16
BRANCH  14  18
ATOM     18  O   UNL     1       1.160  62.348   7.892  1.00  0.00    -0.387 OA
ATOM     19  H   UNL     1       0.176  62.368   7.782  1.00  0.00     0.211 HD
ENDBRANCH  14  18
BRANCH  15  20
ATOM     20  O   UNL     1       3.990  63.787   8.390  1.00  0.00    -0.385 OA
ATOM     21  H   UNL     1       4.523  64.532   8.771  1.00  0.00     0.211 HD
ENDBRANCH  15  20
ENDBRANCH   8   9
ENDBRANCH   7   8
ENDBRANCH   1   7
BRANCH   2  22
ATOM     22  O   UNL     1       2.356  62.932  13.997  1.00  0.00    -0.387 OA
ATOM     23  H   UNL     1       2.811  62.054  13.878  1.00  0.00     0.211 HD
ENDBRANCH   2  22
BRANCH   3  24
ATOM     24  O   UNL     1       5.230  64.824  15.214  1.00  0.00    -0.387 OA
ATOM     25  H   UNL     1       5.384  65.108  14.279  1.00  0.00     0.211 HD
ENDBRANCH   3  24
BRANCH   5  26
ATOM     26  O   UNL     1       3.403  66.935  15.855  1.00  0.00    -0.454 OA
BRANCH  26  27
ATOM     27  C   UNL     1       3.215  68.263  16.289  1.00  0.00     0.214 A 
ATOM     28  C   UNL     1       3.220  69.286  15.318  1.00  0.00     0.180 A 
ATOM     29  C   UNL     1       3.030  68.630  17.643  1.00  0.00     0.239 A 
ATOM     30  O   UNL     1       3.100  70.560  15.678  1.00  0.00    -0.452 OA
ATOM     31  C   UNL     1       2.887  69.993  17.980  1.00  0.00     0.111 A 
ATOM     32  O   UNL     1       2.988  67.753  18.540  1.00  0.00    -0.285 OA
ATOM     33  C   UNL     1       2.945  70.946  16.937  1.00  0.00     0.146 A 
ATOM     34  C   UNL     1       2.694  70.441  19.313  1.00  0.00     0.134 A 
ATOM     35  C   UNL     1       2.828  72.312  17.219  1.00  0.00     0.094 A 
ATOM     36  C   UNL     1       2.567  71.814  19.574  1.00  0.00     0.093 A 
ATOM     37  C   UNL     1       2.637  72.746  18.532  1.00  0.00     0.123 A 
BRANCH  28  38
ATOM     38  C   UNL     1       3.372  68.992  13.876  1.00  0.00     0.025 A 
ATOM     39  C   UNL     1       2.274  69.069  13.003  1.00  0.00     0.062 A 
ATOM     40  C   UNL     1       4.639  68.664  13.370  1.00  0.00     0.016 A 
ATOM     41  C   UNL     1       2.423  68.774  11.643  1.00  0.00     0.158 A 
ATOM     42  C   UNL     1       4.796  68.375  12.014  1.00  0.00     0.051 A 
ATOM     43  C   UNL     1       3.700  68.403  11.148  1.00  0.00     0.157 A 
BRANCH  41  44
ATOM     44  O   UNL     1       1.302  68.886  10.821  1.00  0.00    -0.504 OA
ATOM     45  H   UNL     1       0.421  69.279  11.118  1.00  0.00     0.293 HD
ENDBRANCH  41  44
BRANCH  43  46
ATOM     46  O   UNL     1       3.907  68.050   9.817  1.00  0.00    -0.504 OA
ATOM     47  H   UNL     1       4.407  68.626   9.157  1.00  0.00     0.293 HD
ENDBRANCH  43  46
ENDBRANCH  28  38
BRANCH  34  48
ATOM     48  O   UNL     1       2.629  69.537  20.379  1.00  0.00    -0.507 OA
ATOM     49  H   UNL     1       2.841  68.554  20.256  1.00  0.00     0.293 HD
ENDBRANCH  34  48
BRANCH  37  50
ATOM     50  O   UNL     1       2.508  74.110  18.792  1.00  0.00    -0.508 OA
ATOM     51  H   UNL     1       2.048  74.451  19.630  1.00  0.00     0.293 HD
ENDBRANCH  37  50
ENDBRANCH  26  27
ENDBRANCH   5  26
BRANCH   4  52
ATOM     52  O   UNL     1       2.155  63.619  16.689  1.00  0.00    -0.384 OA
ATOM     53  H   UNL     1       2.513  63.045  17.414  1.00  0.00     0.211 HD
ENDBRANCH   4  52
TORSDOF 16
ENDMDL
MODEL 2
REMARK VINA RESULT:    -6.675      1.982      9.590
REMARK INTER + INTRA:         -13.734
REMARK INTER:                 -10.908
REMARK INTRA:                  -2.827
REMARK UNBOUND:                -2.767
REMARK SMILES C[C@@H]1O[C@@H](OC[C@H]2O[C@H](Oc3c(-c4ccc(O)c(O)c4)oc4cc(O)cc(O)c4c3=O)[C@@H](O)[C@H](O)[C@H]2O)[C@H](O)[C@@H](O)[C@@H]1O
REMARK SMILES IDX 7 1 36 2 34 3 32 4 9 5 8 6 6 7 5 8 4 9 1 10 2 11 42 12 3 13
REMARK SMILES IDX 40 14 38 15 43 16 41 18 39 20 37 22 35 24 10 26 11 27 12 28
REMARK SMILES IDX 30 29 21 30 29 31 31 32 22 33 27 34 23 35 26 36 24 37 13 38
REMARK SMILES IDX 20 39 14 40 18 41 15 42 16 43 19 44 17 46 28 48 25 50 33 52
REMARK H PARENT 43 17 41 19 39 21 37 23 35 25 19 45 17 47 28 49 25 51 33 53
REMARK Flexibility Score: inf
ROOT
ATOM      1  C   UNL     1       2.974  70.282  13.618  1.00  0.00     0.180 C 
ATOM      2  C   UNL     1       3.782  71.591  13.429  1.00  0.00     0.177 C 
ATOM      3  C   UNL     1       4.534  71.532  12.080  1.00  0.00     0.180 C 
ATOM      4  C   UNL     1       3.552  71.188  10.940  1.00  0.00     0.214 C 
ATOM      5  C   UNL     1       2.705  69.946  11.301  1.00  0.00     0.339 C 
ATOM      6  O   UNL     1       2.056  70.093  12.554  1.00  0.00    -0.332 OA
ENDROOT
BRANCH   1   7
ATOM      7  C   UNL     1       2.199  70.271  14.944  1.00  0.00     0.198 C 
BRANCH   7   8
ATOM      8  O   UNL     1       2.910  71.027  15.903  1.00  0.00    -0.347 OA
BRANCH   8   9
ATOM      9  C   UNL     1       2.872  70.482  17.214  1.00  0.00     0.281 C 
ATOM     10  C   UNL     1       1.926  68.749  19.554  1.00  0.00     0.041 C 
ATOM     11  C   UNL     1       1.088  69.499  18.492  1.00  0.00     0.150 C 
ATOM     12  C   UNL     1       0.561  70.870  18.924  1.00  0.00     0.174 C 
ATOM     13  O   UNL     1       1.747  69.612  17.248  1.00  0.00    -0.344 OA
ATOM     14  C   UNL     1       1.733  71.776  19.273  1.00  0.00     0.179 C 
ATOM     15  C   UNL     1       2.900  71.673  18.250  1.00  0.00     0.202 C 
BRANCH  12  16
ATOM     16  O   UNL     1      -0.298  70.757  20.028  1.00  0.00    -0.388 OA
ATOM     17  H   UNL     1       0.086  70.049  20.608  1.00  0.00     0.211 HD
ENDBRANCH  12  16
BRANCH  14  18
ATOM     18  O   UNL     1       1.282  73.107  19.339  1.00  0.00    -0.387 OA
ATOM     19  H   UNL     1       1.884  73.598  19.953  1.00  0.00     0.211 HD
ENDBRANCH  14  18
BRANCH  15  20
ATOM     20  O   UNL     1       4.133  71.677  18.947  1.00  0.00    -0.385 OA
ATOM     21  H   UNL     1       4.299  70.749  19.258  1.00  0.00     0.211 HD
ENDBRANCH  15  20
ENDBRANCH   8   9
ENDBRANCH   7   8
ENDBRANCH   1   7
BRANCH   2  22
ATOM     22  O   UNL     1       2.936  72.715  13.426  1.00  0.00    -0.387 OA
ATOM     23  H   UNL     1       2.898  73.068  12.495  1.00  0.00     0.211 HD
ENDBRANCH   2  22
BRANCH   3  24
ATOM     24  O   UNL     1       5.578  70.586  12.082  1.00  0.00    -0.387 OA
ATOM     25  H   UNL     1       5.915  70.467  11.159  1.00  0.00     0.211 HD
ENDBRANCH   3  24
BRANCH   5  26
ATOM     26  O   UNL     1       3.519  68.771  11.265  1.00  0.00    -0.454 OA
BRANCH  26  27
ATOM     27  C   UNL     1       3.164  67.502  10.762  1.00  0.00     0.214 A 
ATOM     28  C   UNL     1       3.083  66.427  11.671  1.00  0.00     0.180 A 
ATOM     29  C   UNL     1       2.892  67.244   9.397  1.00  0.00     0.239 A 
ATOM     30  O   UNL     1       2.803  65.199  11.242  1.00  0.00    -0.452 OA
ATOM     31  C   UNL     1       2.581  65.929   8.987  1.00  0.00     0.111 A 
ATOM     32  O   UNL     1       2.922  68.174   8.556  1.00  0.00    -0.285 OA
ATOM     33  C   UNL     1       2.563  64.913   9.970  1.00  0.00     0.146 A 
ATOM     34  C   UNL     1       2.292  65.590   7.639  1.00  0.00     0.134 A 
ATOM     35  C   UNL     1       2.279  63.590   9.615  1.00  0.00     0.094 A 
ATOM     36  C   UNL     1       1.998  64.260   7.305  1.00  0.00     0.093 A 
ATOM     37  C   UNL     1       1.994  63.263   8.287  1.00  0.00     0.123 A 
BRANCH  28  38
ATOM     38  C   UNL     1       3.317  66.611  13.120  1.00  0.00     0.025 A 
ATOM     39  C   UNL     1       2.247  66.609  14.030  1.00  0.00     0.062 A 
ATOM     40  C   UNL     1       4.629  66.756  13.592  1.00  0.00     0.016 A 
ATOM     41  C   UNL     1       2.474  66.800  15.398  1.00  0.00     0.158 A 
ATOM     42  C   UNL     1       4.864  66.940  14.956  1.00  0.00     0.051 A 
ATOM     43  C   UNL     1       3.802  66.987  15.862  1.00  0.00     0.157 A 
BRANCH  41  44
ATOM     44  O   UNL     1       1.376  66.769  16.256  1.00  0.00    -0.504 OA
ATOM     45  H   UNL     1       0.415  66.774  15.945  1.00  0.00     0.293 HD
ENDBRANCH  41  44
BRANCH  43  46
ATOM     46  O   UNL     1       4.094  67.230  17.201  1.00  0.00    -0.504 OA
ATOM     47  H   UNL     1       3.461  67.022  17.958  1.00  0.00     0.293 HD
ENDBRANCH  43  46
ENDBRANCH  28  38
BRANCH  34  48
ATOM     48  O   UNL     1       2.296  66.561   6.632  1.00  0.00    -0.507 OA
ATOM     49  H   UNL     1       3.034  66.604   5.938  1.00  0.00     0.293 HD
ENDBRANCH  34  48
BRANCH  37  50
ATOM     50  O   UNL     1       1.700  61.942   7.954  1.00  0.00    -0.508 OA
ATOM     51  H   UNL     1       2.343  61.185   8.160  1.00  0.00     0.293 HD
ENDBRANCH  37  50
ENDBRANCH  26  27
ENDBRANCH   5  26
BRANCH   4  52
ATOM     52  O   UNL     1       2.697  72.270  10.686  1.00  0.00    -0.384 OA
ATOM     53  H   UNL     1       3.102  73.078  11.091  1.00  0.00     0.211 HD
ENDBRANCH   4  52
TORSDOF 16
ENDMDL
MODEL 3
REMARK VINA RESULT:    -6.671      1.792      6.277
REMARK INTER + INTRA:         -13.727
REMARK INTER:                 -11.783
REMARK INTRA:                  -1.945
REMARK UNBOUND:                -2.767
REMARK SMILES C[C@@H]1O[C@@H](OC[C@H]2O[C@H](Oc3c(-c4ccc(O)c(O)c4)oc4cc(O)cc(O)c4c3=O)[C@@H](O)[C@H](O)[C@H]2O)[C@H](O)[C@@H](O)[C@@H]1O
REMARK SMILES IDX 7 1 36 2 34 3 32 4 9 5 8 6 6 7 5 8 4 9 1 10 2 11 42 12 3 13
REMARK SMILES IDX 40 14 38 15 43 16 41 18 39 20 37 22 35 24 10 26 11 27 12 28
REMARK SMILES IDX 30 29 21 30 29 31 31 32 22 33 27 34 23 35 26 36 24 37 13 38
REMARK SMILES IDX 20 39 14 40 18 41 15 42 16 43 19 44 17 46 28 48 25 50 33 52
REMARK H PARENT 43 17 41 19 39 21 37 23 35 25 19 45 17 47 28 49 25 51 33 53
REMARK Flexibility Score: inf
ROOT
ATOM      1  C   UNL     1       2.374  69.165  11.746  1.00  0.00     0.180 C 
ATOM      2  C   UNL     1       1.691  70.544  11.561  1.00  0.00     0.177 C 
ATOM      3  C   UNL     1       1.103  71.002  12.916  1.00  0.00     0.180 C 
ATOM      4  C   UNL     1       2.186  70.940  14.013  1.00  0.00     0.214 C 
ATOM      5  C   UNL     1       2.893  69.566  14.010  1.00  0.00     0.339 C 
ATOM      6  O   UNL     1       3.396  69.231  12.726  1.00  0.00    -0.332 OA
ENDROOT
BRANCH   1   7
ATOM      7  C   UNL     1       2.983  68.646  10.434  1.00  0.00     0.198 C 
BRANCH   7   8
ATOM      8  O   UNL     1       2.802  67.247  10.361  1.00  0.00    -0.347 OA
BRANCH   8   9
ATOM      9  C   UNL     1       2.062  66.818   9.227  1.00  0.00     0.281 C 
ATOM     10  C   UNL     1      -0.056  65.311   7.609  1.00  0.00     0.041 C 
ATOM     11  C   UNL     1       0.801  64.816   8.797  1.00  0.00     0.150 C 
ATOM     12  C   UNL     1       2.059  64.033   8.415  1.00  0.00     0.174 C 
ATOM     13  O   UNL     1       1.137  65.847   9.703  1.00  0.00    -0.344 OA
ATOM     14  C   UNL     1       2.964  64.913   7.563  1.00  0.00     0.179 C 
ATOM     15  C   UNL     1       3.080  66.365   8.109  1.00  0.00     0.202 C 
BRANCH  12  16
ATOM     16  O   UNL     1       1.733  62.864   7.710  1.00  0.00    -0.388 OA
ATOM     17  H   UNL     1       1.112  62.353   8.290  1.00  0.00     0.211 HD
ENDBRANCH  12  16
BRANCH  14  18
ATOM     18  O   UNL     1       4.243  64.331   7.497  1.00  0.00    -0.387 OA
ATOM     19  H   UNL     1       4.453  63.968   8.394  1.00  0.00     0.211 HD
ENDBRANCH  14  18
BRANCH  15  20
ATOM     20  O   UNL     1       3.044  67.275   7.025  1.00  0.00    -0.385 OA
ATOM     21  H   UNL     1       2.309  67.917   7.203  1.00  0.00     0.211 HD
ENDBRANCH  15  20
ENDBRANCH   8   9
ENDBRANCH   7   8
ENDBRANCH   1   7
BRANCH   2  22
ATOM     22  O   UNL     1       2.610  71.512  11.118  1.00  0.00    -0.387 OA
ATOM     23  H   UNL     1       2.122  72.155  10.534  1.00  0.00     0.211 HD
ENDBRANCH   2  22
BRANCH   3  24
ATOM     24  O   UNL     1       0.000  70.223  13.319  1.00  0.00    -0.387 OA
ATOM     25  H   UNL     1       0.243  69.265  13.278  1.00  0.00     0.211 HD
ENDBRANCH   3  24
BRANCH   5  26
ATOM     26  O   UNL     1       2.006  68.558  14.505  1.00  0.00    -0.454 OA
BRANCH  26  27
ATOM     27  C   UNL     1       2.355  67.378  15.192  1.00  0.00     0.214 A 
ATOM     28  C   UNL     1       2.418  67.423  16.601  1.00  0.00     0.180 A 
ATOM     29  C   UNL     1       2.655  66.152  14.551  1.00  0.00     0.239 A 
ATOM     30  O   UNL     1       2.792  66.352  17.295  1.00  0.00    -0.452 OA
ATOM     31  C   UNL     1       3.031  65.035  15.327  1.00  0.00     0.111 A 
ATOM     32  O   UNL     1       2.584  66.055  13.302  1.00  0.00    -0.285 OA
ATOM     33  C   UNL     1       3.101  65.193  16.730  1.00  0.00     0.146 A 
ATOM     34  C   UNL     1       3.342  63.771  14.760  1.00  0.00     0.134 A 
ATOM     35  C   UNL     1       3.486  64.123  17.545  1.00  0.00     0.094 A 
ATOM     36  C   UNL     1       3.715  62.707  15.594  1.00  0.00     0.093 A 
ATOM     37  C   UNL     1       3.789  62.882  16.981  1.00  0.00     0.123 A 
BRANCH  28  38
ATOM     38  C   UNL     1       2.087  68.650  17.357  1.00  0.00     0.025 A 
ATOM     39  C   UNL     1       3.085  69.578  17.701  1.00  0.00     0.062 A 
ATOM     40  C   UNL     1       0.753  68.907  17.704  1.00  0.00     0.016 A 
ATOM     41  C   UNL     1       2.767  70.729  18.430  1.00  0.00     0.158 A 
ATOM     42  C   UNL     1       0.427  70.056  18.425  1.00  0.00     0.051 A 
ATOM     43  C   UNL     1       1.420  70.960  18.813  1.00  0.00     0.157 A 
BRANCH  41  44
ATOM     44  O   UNL     1       3.796  71.623  18.727  1.00  0.00    -0.504 OA
ATOM     45  H   UNL     1       4.165  72.297  18.073  1.00  0.00     0.293 HD
ENDBRANCH  41  44
BRANCH  43  46
ATOM     46  O   UNL     1       1.043  72.059  19.580  1.00  0.00    -0.504 OA
ATOM     47  H   UNL     1       0.260  72.654  19.356  1.00  0.00     0.293 HD
ENDBRANCH  43  46
ENDBRANCH  28  38
BRANCH  34  48
ATOM     48  O   UNL     1       3.286  63.565  13.377  1.00  0.00    -0.507 OA
ATOM     49  H   UNL     1       2.806  64.211  12.762  1.00  0.00     0.293 HD
ENDBRANCH  34  48
BRANCH  37  50
ATOM     50  O   UNL     1       4.157  61.823  17.810  1.00  0.00    -0.508 OA
ATOM     51  H   UNL     1       4.229  60.873  17.459  1.00  0.00     0.293 HD
ENDBRANCH  37  50
ENDBRANCH  26  27
ENDBRANCH   5  26
BRANCH   4  52
ATOM     52  O   UNL     1       3.141  71.948  13.817  1.00  0.00    -0.384 OA
ATOM     53  H   UNL     1       2.879  72.726  14.373  1.00  0.00     0.211 HD
ENDBRANCH   4  52
TORSDOF 16
ENDMDL
MODEL 4
REMARK VINA RESULT:    -6.634      1.772      4.518
REMARK INTER + INTRA:         -13.667
REMARK INTER:                 -11.810
REMARK INTRA:                  -1.856
REMARK UNBOUND:                -2.767
REMARK SMILES C[C@@H]1O[C@@H](OC[C@H]2O[C@H](Oc3c(-c4ccc(O)c(O)c4)oc4cc(O)cc(O)c4c3=O)[C@@H](O)[C@H](O)[C@H]2O)[C@H](O)[C@@H](O)[C@@H]1O
REMARK SMILES IDX 7 1 36 2 34 3 32 4 9 5 8 6 6 7 5 8 4 9 1 10 2 11 42 12 3 13
REMARK SMILES IDX 40 14 38 15 43 16 41 18 39 20 37 22 35 24 10 26 11 27 12 28
REMARK SMILES IDX 30 29 21 30 29 31 31 32 22 33 27 34 23 35 26 36 24 37 13 38
REMARK SMILES IDX 20 39 14 40 18 41 15 42 16 43 19 44 17 46 28 48 25 50 33 52
REMARK H PARENT 43 17 41 19 39 21 37 23 35 25 19 45 17 47 28 49 25 51 33 53
REMARK Flexibility Score: inf
ROOT
ATOM      1  C   UNL     1       2.191  66.781  12.663  1.00  0.00     0.180 C 
ATOM      2  C   UNL     1       2.558  68.163  12.066  1.00  0.00     0.177 C 
ATOM      3  C   UNL     1       3.145  69.057  13.182  1.00  0.00     0.180 C 
ATOM      4  C   UNL     1       4.293  68.319  13.903  1.00  0.00     0.214 C 
ATOM      5  C   UNL     1       3.853  66.901  14.330  1.00  0.00     0.339 C 
ATOM      6  O   UNL     1       3.326  66.159  13.241  1.00  0.00    -0.332 OA
ENDROOT
BRANCH   1   7
ATOM      7  C   UNL     1       1.598  65.837  11.606  1.00  0.00     0.198 C 
BRANCH   7   8
ATOM      8  O   UNL     1       2.644  65.118  10.988  1.00  0.00    -0.347 OA
BRANCH   8   9
ATOM      9  C   UNL     1       2.638  65.190   9.569  1.00  0.00     0.281 C 
ATOM     10  C   UNL     1       1.657  65.896   6.756  1.00  0.00     0.041 C 
ATOM     11  C   UNL     1       0.845  65.421   7.983  1.00  0.00     0.150 C 
ATOM     12  C   UNL     1       0.536  63.922   8.022  1.00  0.00     0.174 C 
ATOM     13  O   UNL     1       1.414  65.823   9.211  1.00  0.00    -0.344 OA
ATOM     14  C   UNL     1       1.840  63.136   8.032  1.00  0.00     0.179 C 
ATOM     15  C   UNL     1       2.901  63.743   8.995  1.00  0.00     0.202 C 
BRANCH  12  16
ATOM     16  O   UNL     1      -0.242  63.536   6.919  1.00  0.00    -0.388 OA
ATOM     17  H   UNL     1      -0.770  64.335   6.658  1.00  0.00     0.211 HD
ENDBRANCH  12  16
BRANCH  14  18
ATOM     18  O   UNL     1       1.573  61.806   8.405  1.00  0.00    -0.387 OA
ATOM     19  H   UNL     1       0.676  61.572   8.056  1.00  0.00     0.211 HD
ENDBRANCH  14  18
BRANCH  15  20
ATOM     20  O   UNL     1       4.174  63.694   8.376  1.00  0.00    -0.385 OA
ATOM     21  H   UNL     1       4.511  64.625   8.320  1.00  0.00     0.211 HD
ENDBRANCH  15  20
ENDBRANCH   8   9
ENDBRANCH   7   8
ENDBRANCH   1   7
BRANCH   2  22
ATOM     22  O   UNL     1       3.511  68.037  11.040  1.00  0.00    -0.387 OA
ATOM     23  H   UNL     1       3.486  68.869  10.493  1.00  0.00     0.211 HD
ENDBRANCH   2  22
BRANCH   3  24
ATOM     24  O   UNL     1       2.180  69.439  14.135  1.00  0.00    -0.387 OA
ATOM     25  H   UNL     1       1.390  68.848  14.057  1.00  0.00     0.211 HD
ENDBRANCH   3  24
BRANCH   5  26
ATOM     26  O   UNL     1       2.919  66.983  15.410  1.00  0.00    -0.454 OA
BRANCH  26  27
ATOM     27  C   UNL     1       3.208  67.190  16.774  1.00  0.00     0.214 A 
ATOM     28  C   UNL     1       3.648  66.087  17.535  1.00  0.00     0.180 A 
ATOM     29  C   UNL     1       3.073  68.439  17.427  1.00  0.00     0.239 A 
ATOM     30  O   UNL     1       3.885  66.216  18.838  1.00  0.00    -0.452 OA
ATOM     31  C   UNL     1       3.353  68.536  18.807  1.00  0.00     0.111 A 
ATOM     32  O   UNL     1       2.714  69.456  16.785  1.00  0.00    -0.285 OA
ATOM     33  C   UNL     1       3.751  67.363  19.489  1.00  0.00     0.146 A 
ATOM     34  C   UNL     1       3.247  69.753  19.531  1.00  0.00     0.134 A 
ATOM     35  C   UNL     1       4.022  67.400  20.861  1.00  0.00     0.094 A 
ATOM     36  C   UNL     1       3.534  69.772  20.905  1.00  0.00     0.093 A 
ATOM     37  C   UNL     1       3.917  68.600  21.568  1.00  0.00     0.123 A 
BRANCH  28  38
ATOM     38  C   UNL     1       3.850  64.754  16.930  1.00  0.00     0.025 A 
ATOM     39  C   UNL     1       5.072  64.073  17.070  1.00  0.00     0.062 A 
ATOM     40  C   UNL     1       2.794  64.146  16.235  1.00  0.00     0.016 A 
ATOM     41  C   UNL     1       5.261  62.818  16.481  1.00  0.00     0.158 A 
ATOM     42  C   UNL     1       2.973  62.892  15.650  1.00  0.00     0.051 A 
ATOM     43  C   UNL     1       4.200  62.230  15.744  1.00  0.00     0.157 A 
BRANCH  41  44
ATOM     44  O   UNL     1       6.487  62.183  16.669  1.00  0.00    -0.504 OA
ATOM     45  H   UNL     1       7.372  62.557  16.358  1.00  0.00     0.293 HD
ENDBRANCH  41  44
BRANCH  43  46
ATOM     46  O   UNL     1       4.337  61.007  15.092  1.00  0.00    -0.504 OA
ATOM     47  H   UNL     1       5.103  60.785  14.475  1.00  0.00     0.293 HD
ENDBRANCH  43  46
ENDBRANCH  28  38
BRANCH  34  48
ATOM     48  O   UNL     1       2.858  70.939  18.901  1.00  0.00    -0.507 OA
ATOM     49  H   UNL     1       3.484  71.445  18.286  1.00  0.00     0.293 HD
ENDBRANCH  34  48
BRANCH  37  50
ATOM     50  O   UNL     1       4.205  68.620  22.932  1.00  0.00    -0.508 OA
ATOM     51  H   UNL     1       4.528  69.463  23.395  1.00  0.00     0.293 HD
ENDBRANCH  37  50
ENDBRANCH  26  27
ENDBRANCH   5  26
BRANCH   4  52
ATOM     52  O   UNL     1       5.414  68.220  13.066  1.00  0.00    -0.384 OA
ATOM     53  H   UNL     1       5.925  69.065  13.142  1.00  0.00     0.211 HD
ENDBRANCH   4  52
TORSDOF 16
ENDMDL
MODEL 5
REMARK VINA RESULT:    -6.595      2.938      4.808
REMARK INTER + INTRA:         -13.604
REMARK INTER:                 -10.643
REMARK INTRA:                  -2.961
REMARK UNBOUND:                -2.767
REMARK SMILES C[C@@H]1O[C@@H](OC[C@H]2O[C@H](Oc3c(-c4ccc(O)c(O)c4)oc4cc(O)cc(O)c4c3=O)[C@@H](O)[C@H](O)[C@H]2O)[C@H](O)[C@@H](O)[C@@H]1O
REMARK SMILES IDX 7 1 36 2 34 3 32 4 9 5 8 6 6 7 5 8 4 9 1 10 2 11 42 12 3 13
REMARK SMILES IDX 40 14 38 15 43 16 41 18 39 20 37 22 35 24 10 26 11 27 12 28
REMARK SMILES IDX 30 29 21 30 29 31 31 32 22 33 27 34 23 35 26 36 24 37 13 38
REMARK SMILES IDX 20 39 14 40 18 41 15 42 16 43 19 44 17 46 28 48 25 50 33 52
REMARK H PARENT 43 17 41 19 39 21 37 23 35 25 19 45 17 47 28 49 25 51 33 53
REMARK Flexibility Score: inf
ROOT
ATOM      1  C   UNL     1       2.486  64.610  15.408  1.00  0.00     0.180 C 
ATOM      2  C   UNL     1       2.498  63.068  15.562  1.00  0.00     0.177 C 
ATOM      3  C   UNL     1       2.203  62.705  17.035  1.00  0.00     0.180 C 
ATOM      4  C   UNL     1       0.913  63.409  17.508  1.00  0.00     0.214 C 
ATOM      5  C   UNL     1       0.958  64.917  17.177  1.00  0.00     0.339 C 
ATOM      6  O   UNL     1       1.237  65.151  15.805  1.00  0.00    -0.332 OA
ENDROOT
BRANCH   1   7
ATOM      7  C   UNL     1       2.774  65.045  13.964  1.00  0.00     0.198 C 
BRANCH   7   8
ATOM      8  O   UNL     1       1.554  65.154  13.260  1.00  0.00    -0.347 OA
BRANCH   8   9
ATOM      9  C   UNL     1       1.230  66.479  12.864  1.00  0.00     0.281 C 
ATOM     10  C   UNL     1       1.614  69.471  12.339  1.00  0.00     0.041 C 
ATOM     11  C   UNL     1       2.122  68.614  13.522  1.00  0.00     0.150 C 
ATOM     12  C   UNL     1       1.254  68.656  14.781  1.00  0.00     0.174 C 
ATOM     13  O   UNL     1       2.375  67.271  13.162  1.00  0.00    -0.344 OA
ATOM     14  C   UNL     1      -0.145  68.155  14.450  1.00  0.00     0.179 C 
ATOM     15  C   UNL     1      -0.132  66.886  13.550  1.00  0.00     0.202 C 
BRANCH  12  16
ATOM     16  O   UNL     1       1.181  69.958  15.302  1.00  0.00    -0.388 OA
ATOM     17  H   UNL     1       1.038  69.859  16.279  1.00  0.00     0.211 HD
ENDBRANCH  12  16
BRANCH  14  18
ATOM     18  O   UNL     1      -0.830  67.876  15.647  1.00  0.00    -0.387 OA
ATOM     19  H   UNL     1      -1.754  67.612  15.409  1.00  0.00     0.211 HD
ENDBRANCH  14  18
BRANCH  15  20
ATOM     20  O   UNL     1      -1.150  66.998  12.572  1.00  0.00    -0.385 OA
ATOM     21  H   UNL     1      -1.386  66.079  12.284  1.00  0.00     0.211 HD
ENDBRANCH  15  20
ENDBRANCH   8   9
ENDBRANCH   7   8
ENDBRANCH   1   7
BRANCH   2  22
ATOM     22  O   UNL     1       1.523  62.468  14.745  1.00  0.00    -0.387 OA
ATOM     23  H   UNL     1       1.796  61.523  14.585  1.00  0.00     0.211 HD
ENDBRANCH   2  22
BRANCH   3  24
ATOM     24  O   UNL     1       3.256  63.056  17.902  1.00  0.00    -0.387 OA
ATOM     25  H   UNL     1       2.882  63.438  18.735  1.00  0.00     0.211 HD
ENDBRANCH   3  24
BRANCH   5  26
ATOM     26  O   UNL     1       1.903  65.577  18.025  1.00  0.00    -0.454 OA
BRANCH  26  27
ATOM     27  C   UNL     1       2.093  66.966  18.171  1.00  0.00     0.214 A 
ATOM     28  C   UNL     1       3.389  67.484  17.966  1.00  0.00     0.180 A 
ATOM     29  C   UNL     1       1.062  67.870  18.521  1.00  0.00     0.239 A 
ATOM     30  O   UNL     1       3.635  68.779  18.142  1.00  0.00    -0.452 OA
ATOM     31  C   UNL     1       1.363  69.240  18.680  1.00  0.00     0.111 A 
ATOM     32  O   UNL     1      -0.113  67.461  18.685  1.00  0.00    -0.285 OA
ATOM     33  C   UNL     1       2.701  69.653  18.489  1.00  0.00     0.146 A 
ATOM     34  C   UNL     1       0.384  70.209  19.025  1.00  0.00     0.134 A 
ATOM     35  C   UNL     1       3.057  70.997  18.653  1.00  0.00     0.094 A 
ATOM     36  C   UNL     1       0.758  71.553  19.173  1.00  0.00     0.093 A 
ATOM     37  C   UNL     1       2.089  71.945  18.991  1.00  0.00     0.123 A 
BRANCH  28  38
ATOM     38  C   UNL     1       4.519  66.619  17.564  1.00  0.00     0.025 A 
ATOM     39  C   UNL     1       4.957  66.574  16.230  1.00  0.00     0.062 A 
ATOM     40  C   UNL     1       5.185  65.859  18.537  1.00  0.00     0.016 A 
ATOM     41  C   UNL     1       6.017  65.741  15.854  1.00  0.00     0.158 A 
ATOM     42  C   UNL     1       6.247  65.031  18.172  1.00  0.00     0.051 A 
ATOM     43  C   UNL     1       6.657  64.945  16.839  1.00  0.00     0.157 A 
BRANCH  41  44
ATOM     44  O   UNL     1       6.420  65.753  14.519  1.00  0.00    -0.504 OA
ATOM     45  H   UNL     1       6.922  64.999  14.074  1.00  0.00     0.293 HD
ENDBRANCH  41  44
BRANCH  43  46
ATOM     46  O   UNL     1       7.685  64.059  16.526  1.00  0.00    -0.504 OA
ATOM     47  H   UNL     1       7.605  63.057  16.610  1.00  0.00     0.293 HD
ENDBRANCH  43  46
ENDBRANCH  28  38
BRANCH  34  48
ATOM     48  O   UNL     1      -0.953  69.849  19.223  1.00  0.00    -0.507 OA
ATOM     49  H   UNL     1      -1.256  69.368  20.062  1.00  0.00     0.293 HD
ENDBRANCH  34  48
BRANCH  37  50
ATOM     50  O   UNL     1       2.460  73.281  19.135  1.00  0.00    -0.508 OA
ATOM     51  H   UNL     1       2.920  73.790  18.387  1.00  0.00     0.293 HD
ENDBRANCH  37  50
ENDBRANCH  26  27
ENDBRANCH   5  26
BRANCH   4  52
ATOM     52  O   UNL     1      -0.211  62.837  16.894  1.00  0.00    -0.384 OA
ATOM     53  H   UNL     1      -0.993  63.410  17.099  1.00  0.00     0.211 HD
ENDBRANCH   4  52
TORSDOF 16
ENDMDL
MODEL 6
REMARK VINA RESULT:    -6.552      3.360      7.878
REMARK INTER + INTRA:         -13.533
REMARK INTER:                 -10.902
REMARK INTRA:                  -2.631
REMARK UNBOUND:                -2.767
REMARK SMILES C[C@@H]1O[C@@H](OC[C@H]2O[C@H](Oc3c(-c4ccc(O)c(O)c4)oc4cc(O)cc(O)c4c3=O)[C@@H](O)[C@H](O)[C@H]2O)[C@H](O)[C@@H](O)[C@@H]1O
REMARK SMILES IDX 7 1 36 2 34 3 32 4 9 5 8 6 6 7 5 8 4 9 1 10 2 11 42 12 3 13
REMARK SMILES IDX 40 14 38 15 43 16 41 18 39 20 37 22 35 24 10 26 11 27 12 28
REMARK SMILES IDX 30 29 21 30 29 31 31 32 22 33 27 34 23 35 26 36 24 37 13 38
REMARK SMILES IDX 20 39 14 40 18 41 15 42 16 43 19 44 17 46 28 48 25 50 33 52
REMARK H PARENT 43 17 41 19 39 21 37 23 35 25 19 45 17 47 28 49 25 51 33 53
REMARK Flexibility Score: inf
ROOT
ATOM      1  C   UNL     1       1.121  66.910  16.351  1.00  0.00     0.180 C 
ATOM      2  C   UNL     1      -0.103  67.195  15.444  1.00  0.00     0.177 C 
ATOM      3  C   UNL     1       0.188  66.666  14.021  1.00  0.00     0.180 C 
ATOM      4  C   UNL     1       0.638  65.191  14.085  1.00  0.00     0.214 C 
ATOM      5  C   UNL     1       1.768  65.006  15.122  1.00  0.00     0.339 C 
ATOM      6  O   UNL     1       1.410  65.523  16.394  1.00  0.00    -0.332 OA
ENDROOT
BRANCH   1   7
ATOM      7  C   UNL     1       0.902  67.412  17.786  1.00  0.00     0.198 C 
BRANCH   7   8
ATOM      8  O   UNL     1      -0.054  68.453  17.772  1.00  0.00    -0.347 OA
BRANCH   8   9
ATOM      9  C   UNL     1       0.297  69.570  18.576  1.00  0.00     0.281 C 
ATOM     10  C   UNL     1       1.545  72.265  19.322  1.00  0.00     0.041 C 
ATOM     11  C   UNL     1       2.125  71.128  18.449  1.00  0.00     0.150 C 
ATOM     12  C   UNL     1       3.073  70.168  19.171  1.00  0.00     0.174 C 
ATOM     13  O   UNL     1       1.130  70.393  17.766  1.00  0.00    -0.344 OA
ATOM     14  C   UNL     1       2.336  69.499  20.323  1.00  0.00     0.179 C 
ATOM     15  C   UNL     1       0.901  69.038  19.934  1.00  0.00     0.202 C 
BRANCH  12  16
ATOM     16  O   UNL     1       4.203  70.843  19.658  1.00  0.00    -0.388 OA
ATOM     17  H   UNL     1       4.686  71.186  18.863  1.00  0.00     0.211 HD
ENDBRANCH  12  16
BRANCH  14  18
ATOM     18  O   UNL     1       3.082  68.390  20.764  1.00  0.00    -0.387 OA
ATOM     19  H   UNL     1       2.449  67.746  21.172  1.00  0.00     0.211 HD
ENDBRANCH  14  18
BRANCH  15  20
ATOM     20  O   UNL     1       0.016  69.323  21.001  1.00  0.00    -0.385 OA
ATOM     21  H   UNL     1      -0.800  69.729  20.607  1.00  0.00     0.211 HD
ENDBRANCH  15  20
ENDBRANCH   8   9
ENDBRANCH   7   8
ENDBRANCH   1   7
BRANCH   2  22
ATOM     22  O   UNL     1      -1.258  66.560  15.934  1.00  0.00    -0.387 OA
ATOM     23  H   UNL     1      -1.073  66.264  16.867  1.00  0.00     0.211 HD
ENDBRANCH   2  22
BRANCH   3  24
ATOM     24  O   UNL     1       1.179  67.416  13.355  1.00  0.00    -0.387 OA
ATOM     25  H   UNL     1       0.846  67.677  12.461  1.00  0.00     0.211 HD
ENDBRANCH   3  24
BRANCH   5  26
ATOM     26  O   UNL     1       2.979  65.594  14.638  1.00  0.00    -0.454 OA
BRANCH  26  27
ATOM     27  C   UNL     1       4.243  65.580  15.261  1.00  0.00     0.214 A 
ATOM     28  C   UNL     1       4.985  66.779  15.284  1.00  0.00     0.180 A 
ATOM     29  C   UNL     1       4.814  64.431  15.858  1.00  0.00     0.239 A 
ATOM     30  O   UNL     1       6.205  66.809  15.813  1.00  0.00    -0.452 OA
ATOM     31  C   UNL     1       6.104  64.511  16.425  1.00  0.00     0.111 A 
ATOM     32  O   UNL     1       4.180  63.348  15.889  1.00  0.00    -0.285 OA
ATOM     33  C   UNL     1       6.782  65.750  16.363  1.00  0.00     0.146 A 
ATOM     34  C   UNL     1       6.743  63.405  17.046  1.00  0.00     0.134 A 
ATOM     35  C   UNL     1       8.071  65.879  16.894  1.00  0.00     0.094 A 
ATOM     36  C   UNL     1       8.031  63.557  17.582  1.00  0.00     0.093 A 
ATOM     37  C   UNL     1       8.694  64.787  17.504  1.00  0.00     0.123 A 
BRANCH  28  38
ATOM     38  C   UNL     1       4.453  68.036  14.716  1.00  0.00     0.025 A 
ATOM     39  C   UNL     1       4.698  68.385  13.377  1.00  0.00     0.062 A 
ATOM     40  C   UNL     1       3.663  68.874  15.517  1.00  0.00     0.016 A 
ATOM     41  C   UNL     1       4.205  69.584  12.851  1.00  0.00     0.158 A 
ATOM     42  C   UNL     1       3.162  70.068  14.997  1.00  0.00     0.051 A 
ATOM     43  C   UNL     1       3.441  70.446  13.681  1.00  0.00     0.157 A 
BRANCH  41  44
ATOM     44  O   UNL     1       4.464  69.869  11.511  1.00  0.00    -0.504 OA
ATOM     45  H   UNL     1       4.477  69.175  10.778  1.00  0.00     0.293 HD
ENDBRANCH  41  44
BRANCH  43  46
ATOM     46  O   UNL     1       2.961  71.674  13.236  1.00  0.00    -0.504 OA
ATOM     47  H   UNL     1       2.754  71.877  12.270  1.00  0.00     0.293 HD
ENDBRANCH  43  46
ENDBRANCH  28  38
BRANCH  34  48
ATOM     48  O   UNL     1       6.113  62.160  17.132  1.00  0.00    -0.507 OA
ATOM     49  H   UNL     1       5.316  61.925  16.552  1.00  0.00     0.293 HD
ENDBRANCH  34  48
BRANCH  37  50
ATOM     50  O   UNL     1       9.972  64.939  18.039  1.00  0.00    -0.508 OA
ATOM     51  H   UNL     1      10.137  65.490  18.875  1.00  0.00     0.293 HD
ENDBRANCH  37  50
ENDBRANCH  26  27
ENDBRANCH   5  26
BRANCH   4  52
ATOM     52  O   UNL     1      -0.441  64.364  14.428  1.00  0.00    -0.384 OA
ATOM     53  H   UNL     1      -0.996  64.849  15.091  1.00  0.00     0.211 HD
ENDBRANCH   4  52
TORSDOF 16
ENDMDL
MODEL 7
REMARK VINA RESULT:    -6.471      2.408      8.081
REMARK INTER + INTRA:         -13.399
REMARK INTER:                 -11.593
REMARK INTRA:                  -1.805
REMARK UNBOUND:                -2.767
REMARK SMILES C[C@@H]1O[C@@H](OC[C@H]2O[C@H](Oc3c(-c4ccc(O)c(O)c4)oc4cc(O)cc(O)c4c3=O)[C@@H](O)[C@H](O)[C@H]2O)[C@H](O)[C@@H](O)[C@@H]1O
REMARK SMILES IDX 7 1 36 2 34 3 32 4 9 5 8 6 6 7 5 8 4 9 1 10 2 11 42 12 3 13
REMARK SMILES IDX 40 14 38 15 43 16 41 18 39 20 37 22 35 24 10 26 11 27 12 28
REMARK SMILES IDX 30 29 21 30 29 31 31 32 22 33 27 34 23 35 26 36 24 37 13 38
REMARK SMILES IDX 20 39 14 40 18 41 15 42 16 43 19 44 17 46 28 48 25 50 33 52
REMARK H PARENT 43 17 41 19 39 21 37 23 35 25 19 45 17 47 28 49 25 51 33 53
REMARK Flexibility Score: inf
ROOT
ATOM      1  C   UNL     1       2.258  67.262  14.712  1.00  0.00     0.180 C 
ATOM      2  C   UNL     1       1.820  65.850  15.176  1.00  0.00     0.177 C 
ATOM      3  C   UNL     1       1.151  65.114  13.992  1.00  0.00     0.180 C 
ATOM      4  C   UNL     1       2.073  65.151  12.755  1.00  0.00     0.214 C 
ATOM      5  C   UNL     1       2.557  66.591  12.473  1.00  0.00     0.339 C 
ATOM      6  O   UNL     1       3.154  67.183  13.616  1.00  0.00    -0.332 OA
ENDROOT
BRANCH   1   7
ATOM      7  C   UNL     1       2.933  68.054  15.843  1.00  0.00     0.198 C 
BRANCH   7   8
ATOM      8  O   UNL     1       2.072  69.092  16.260  1.00  0.00    -0.347 OA
BRANCH   8   9
ATOM      9  C   UNL     1       1.802  69.095  17.655  1.00  0.00     0.281 C 
ATOM     10  C   UNL     1       0.210  69.427  20.249  1.00  0.00     0.041 C 
ATOM     11  C   UNL     1       0.199  70.306  18.976  1.00  0.00     0.150 C 
ATOM     12  C   UNL     1       1.091  71.548  19.032  1.00  0.00     0.174 C 
ATOM     13  O   UNL     1       0.470  69.575  17.799  1.00  0.00    -0.344 OA
ATOM     14  C   UNL     1       2.537  71.124  19.254  1.00  0.00     0.179 C 
ATOM     15  C   UNL     1       2.947  69.902  18.383  1.00  0.00     0.202 C 
BRANCH  12  16
ATOM     16  O   UNL     1       0.688  72.417  20.058  1.00  0.00    -0.388 OA
ATOM     17  H   UNL     1       0.789  73.336  19.699  1.00  0.00     0.211 HD
ENDBRANCH  12  16
BRANCH  14  18
ATOM     18  O   UNL     1       3.384  72.210  18.970  1.00  0.00    -0.387 OA
ATOM     19  H   UNL     1       3.734  72.085  18.052  1.00  0.00     0.211 HD
ENDBRANCH  14  18
BRANCH  15  20
ATOM     20  O   UNL     1       3.739  69.022  19.158  1.00  0.00    -0.385 OA
ATOM     21  H   UNL     1       4.618  68.939  18.706  1.00  0.00     0.211 HD
ENDBRANCH  15  20
ENDBRANCH   8   9
ENDBRANCH   7   8
ENDBRANCH   1   7
BRANCH   2  22
ATOM     22  O   UNL     1       2.923  65.093  15.612  1.00  0.00    -0.387 OA
ATOM     23  H   UNL     1       3.413  65.629  16.293  1.00  0.00     0.211 HD
ENDBRANCH   2  22
BRANCH   3  24
ATOM     24  O   UNL     1      -0.098  65.668  13.646  1.00  0.00    -0.387 OA
ATOM     25  H   UNL     1       0.042  66.549  13.217  1.00  0.00     0.211 HD
ENDBRANCH   3  24
BRANCH   5  26
ATOM     26  O   UNL     1       1.475  67.383  11.975  1.00  0.00    -0.454 OA
BRANCH  26  27
ATOM     27  C   UNL     1       1.561  68.535  11.168  1.00  0.00     0.214 A 
ATOM     28  C   UNL     1       1.606  68.364   9.769  1.00  0.00     0.180 A 
ATOM     29  C   UNL     1       1.615  69.854  11.680  1.00  0.00     0.239 A 
ATOM     30  O   UNL     1       1.740  69.414   8.964  1.00  0.00    -0.452 OA
ATOM     31  C   UNL     1       1.738  70.941  10.790  1.00  0.00     0.111 A 
ATOM     32  O   UNL     1       1.548  70.058  12.917  1.00  0.00    -0.285 OA
ATOM     33  C   UNL     1       1.814  70.662   9.406  1.00  0.00     0.146 A 
ATOM     34  C   UNL     1       1.794  72.292  11.224  1.00  0.00     0.134 A 
ATOM     35  C   UNL     1       1.956  71.702   8.480  1.00  0.00     0.094 A 
ATOM     36  C   UNL     1       1.924  73.322  10.280  1.00  0.00     0.093 A 
ATOM     37  C   UNL     1       2.009  73.029   8.915  1.00  0.00     0.123 A 
BRANCH  28  38
ATOM     38  C   UNL     1       1.521  67.026   9.144  1.00  0.00     0.025 A 
ATOM     39  C   UNL     1       2.681  66.279   8.876  1.00  0.00     0.062 A 
ATOM     40  C   UNL     1       0.262  66.483   8.848  1.00  0.00     0.016 A 
ATOM     41  C   UNL     1       2.593  65.021   8.270  1.00  0.00     0.158 A 
ATOM     42  C   UNL     1       0.167  65.226   8.250  1.00  0.00     0.051 A 
ATOM     43  C   UNL     1       1.317  64.498   7.935  1.00  0.00     0.157 A 
BRANCH  41  44
ATOM     44  O   UNL     1       3.776  64.318   8.044  1.00  0.00    -0.504 OA
ATOM     45  H   UNL     1       4.685  64.750   7.967  1.00  0.00     0.293 HD
ENDBRANCH  41  44
BRANCH  43  46
ATOM     46  O   UNL     1       1.161  63.275   7.288  1.00  0.00    -0.504 OA
ATOM     47  H   UNL     1       1.281  62.382   7.742  1.00  0.00     0.293 HD
ENDBRANCH  43  46
ENDBRANCH  28  38
BRANCH  34  48
ATOM     48  O   UNL     1       1.722  72.618  12.583  1.00  0.00    -0.507 OA
ATOM     49  H   UNL     1       2.336  72.191  13.266  1.00  0.00     0.293 HD
ENDBRANCH  34  48
BRANCH  37  50
ATOM     50  O   UNL     1       2.136  74.052   7.977  1.00  0.00    -0.508 OA
ATOM     51  H   UNL     1       1.585  74.065   7.125  1.00  0.00     0.293 HD
ENDBRANCH  37  50
ENDBRANCH  26  27
ENDBRANCH   5  26
BRANCH   4  52
ATOM     52  O   UNL     1       3.187  64.321  12.948  1.00  0.00    -0.384 OA
ATOM     53  H   UNL     1       3.588  64.551  13.826  1.00  0.00     0.211 HD
ENDBRANCH   4  52
TORSDOF 16
ENDMDL
MODEL 8
REMARK VINA RESULT:    -6.451      1.720      4.671
REMARK INTER + INTRA:         -13.367
REMARK INTER:                 -11.652
REMARK INTRA:                  -1.715
REMARK UNBOUND:                -2.767
REMARK SMILES C[C@@H]1O[C@@H](OC[C@H]2O[C@H](Oc3c(-c4ccc(O)c(O)c4)oc4cc(O)cc(O)c4c3=O)[C@@H](O)[C@H](O)[C@H]2O)[C@H](O)[C@@H](O)[C@@H]1O
REMARK SMILES IDX 7 1 36 2 34 3 32 4 9 5 8 6 6 7 5 8 4 9 1 10 2 11 42 12 3 13
REMARK SMILES IDX 40 14 38 15 43 16 41 18 39 20 37 22 35 24 10 26 11 27 12 28
REMARK SMILES IDX 30 29 21 30 29 31 31 32 22 33 27 34 23 35 26 36 24 37 13 38
REMARK SMILES IDX 20 39 14 40 18 41 15 42 16 43 19 44 17 46 28 48 25 50 33 52
REMARK H PARENT 43 17 41 19 39 21 37 23 35 25 19 45 17 47 28 49 25 51 33 53
REMARK Flexibility Score: inf
ROOT
ATOM      1  C   UNL     1       2.864  65.762  13.468  1.00  0.00     0.180 C 
ATOM      2  C   UNL     1       3.385  64.348  13.830  1.00  0.00     0.177 C 
ATOM      3  C   UNL     1       4.225  64.435  15.125  1.00  0.00     0.180 C 
ATOM      4  C   UNL     1       3.422  65.150  16.232  1.00  0.00     0.214 C 
ATOM      5  C   UNL     1       2.835  66.482  15.712  1.00  0.00     0.339 C 
ATOM      6  O   UNL     1       2.084  66.302  14.522  1.00  0.00    -0.332 OA
ENDROOT
BRANCH   1   7
ATOM      7  C   UNL     1       2.018  65.752  12.186  1.00  0.00     0.198 C 
BRANCH   7   8
ATOM      8  O   UNL     1       2.529  64.776  11.302  1.00  0.00    -0.347 OA
BRANCH   8   9
ATOM      9  C   UNL     1       2.591  65.198   9.947  1.00  0.00     0.281 C 
ATOM     10  C   UNL     1       1.840  66.720   7.398  1.00  0.00     0.041 C 
ATOM     11  C   UNL     1       0.917  66.082   8.464  1.00  0.00     0.150 C 
ATOM     12  C   UNL     1       0.394  64.685   8.123  1.00  0.00     0.174 C 
ATOM     13  O   UNL     1       1.488  66.077   9.756  1.00  0.00    -0.344 OA
ATOM     14  C   UNL     1       1.569  63.735   7.940  1.00  0.00     0.179 C 
ATOM     15  C   UNL     1       2.666  63.917   9.028  1.00  0.00     0.202 C 
BRANCH  12  16
ATOM     16  O   UNL     1      -0.386  64.707   6.956  1.00  0.00    -0.388 OA
ATOM     17  H   UNL     1      -0.792  65.611   6.909  1.00  0.00     0.211 HD
ENDBRANCH  12  16
BRANCH  14  18
ATOM     18  O   UNL     1       1.097  62.409   7.965  1.00  0.00    -0.387 OA
ATOM     19  H   UNL     1       1.299  62.036   8.860  1.00  0.00     0.211 HD
ENDBRANCH  14  18
BRANCH  15  20
ATOM     20  O   UNL     1       3.942  63.832   8.421  1.00  0.00    -0.385 OA
ATOM     21  H   UNL     1       4.008  64.574   7.766  1.00  0.00     0.211 HD
ENDBRANCH  15  20
ENDBRANCH   8   9
ENDBRANCH   7   8
ENDBRANCH   1   7
BRANCH   2  22
ATOM     22  O   UNL     1       2.322  63.453  14.041  1.00  0.00    -0.387 OA
ATOM     23  H   UNL     1       1.530  63.793  13.542  1.00  0.00     0.211 HD
ENDBRANCH   2  22
BRANCH   3  24
ATOM     24  O   UNL     1       5.445  65.116  14.936  1.00  0.00    -0.387 OA
ATOM     25  H   UNL     1       5.601  65.726  15.700  1.00  0.00     0.211 HD
ENDBRANCH   3  24
BRANCH   5  26
ATOM     26  O   UNL     1       3.882  67.441  15.534  1.00  0.00    -0.454 OA
BRANCH  26  27
ATOM     27  C   UNL     1       3.835  68.621  14.764  1.00  0.00     0.214 A 
ATOM     28  C   UNL     1       3.081  69.706  15.257  1.00  0.00     0.180 A 
ATOM     29  C   UNL     1       4.495  68.777  13.521  1.00  0.00     0.239 A 
ATOM     30  O   UNL     1       2.961  70.824  14.546  1.00  0.00    -0.452 OA
ATOM     31  C   UNL     1       4.356  69.987  12.808  1.00  0.00     0.111 A 
ATOM     32  O   UNL     1       5.202  67.851  13.056  1.00  0.00    -0.285 OA
ATOM     33  C   UNL     1       3.546  71.001  13.370  1.00  0.00     0.146 A 
ATOM     34  C   UNL     1       4.989  70.223  11.559  1.00  0.00     0.134 A 
ATOM     35  C   UNL     1       3.360  72.213  12.695  1.00  0.00     0.094 A 
ATOM     36  C   UNL     1       4.799  71.449  10.904  1.00  0.00     0.093 A 
ATOM     37  C   UNL     1       3.986  72.439  11.467  1.00  0.00     0.123 A 
BRANCH  28  38
ATOM     38  C   UNL     1       2.387  69.644  16.561  1.00  0.00     0.025 A 
ATOM     39  C   UNL     1       3.072  69.916  17.758  1.00  0.00     0.062 A 
ATOM     40  C   UNL     1       1.018  69.344  16.600  1.00  0.00     0.016 A 
ATOM     41  C   UNL     1       2.413  69.840  18.990  1.00  0.00     0.158 A 
ATOM     42  C   UNL     1       0.352  69.273  17.824  1.00  0.00     0.051 A 
ATOM     43  C   UNL     1       1.037  69.495  19.022  1.00  0.00     0.157 A 
BRANCH  41  44
ATOM     44  O   UNL     1       3.139  70.139  20.142  1.00  0.00    -0.504 OA
ATOM     45  H   UNL     1       3.447  69.448  20.811  1.00  0.00     0.293 HD
ENDBRANCH  41  44
BRANCH  43  46
ATOM     46  O   UNL     1       0.333  69.354  20.214  1.00  0.00    -0.504 OA
ATOM     47  H   UNL     1      -0.008  70.133  20.757  1.00  0.00     0.293 HD
ENDBRANCH  43  46
ENDBRANCH  28  38
BRANCH  34  48
ATOM     48  O   UNL     1       5.801  69.252  10.964  1.00  0.00    -0.507 OA
ATOM     49  H   UNL     1       6.499  68.744  11.495  1.00  0.00     0.293 HD
ENDBRANCH  34  48
BRANCH  37  50
ATOM     50  O   UNL     1       3.800  73.658  10.817  1.00  0.00    -0.508 OA
ATOM     51  H   UNL     1       3.014  74.262  11.033  1.00  0.00     0.293 HD
ENDBRANCH  37  50
ENDBRANCH  26  27
ENDBRANCH   5  26
BRANCH   4  52
ATOM     52  O   UNL     1       2.375  64.333  16.684  1.00  0.00    -0.384 OA
ATOM     53  H   UNL     1       2.777  63.530  17.104  1.00  0.00     0.211 HD
ENDBRANCH   4  52
TORSDOF 16
ENDMDL
MODEL 9
REMARK VINA RESULT:    -6.426      2.482      7.974
REMARK INTER + INTRA:         -13.325
REMARK INTER:                 -11.137
REMARK INTRA:                  -2.188
REMARK UNBOUND:                -2.767
REMARK SMILES C[C@@H]1O[C@@H](OC[C@H]2O[C@H](Oc3c(-c4ccc(O)c(O)c4)oc4cc(O)cc(O)c4c3=O)[C@@H](O)[C@H](O)[C@H]2O)[C@H](O)[C@@H](O)[C@@H]1O
REMARK SMILES IDX 7 1 36 2 34 3 32 4 9 5 8 6 6 7 5 8 4 9 1 10 2 11 42 12 3 13
REMARK SMILES IDX 40 14 38 15 43 16 41 18 39 20 37 22 35 24 10 26 11 27 12 28
REMARK SMILES IDX 30 29 21 30 29 31 31 32 22 33 27 34 23 35 26 36 24 37 13 38
REMARK SMILES IDX 20 39 14 40 18 41 15 42 16 43 19 44 17 46 28 48 25 50 33 52
REMARK H PARENT 43 17 41 19 39 21 37 23 35 25 19 45 17 47 28 49 25 51 33 53
REMARK Flexibility Score: inf
ROOT
ATOM      1  C   UNL     1       3.269  67.663  14.968  1.00  0.00     0.180 C 
ATOM      2  C   UNL     1       2.959  68.956  15.764  1.00  0.00     0.177 C 
ATOM      3  C   UNL     1       2.679  70.107  14.770  1.00  0.00     0.180 C 
ATOM      4  C   UNL     1       1.600  69.678  13.752  1.00  0.00     0.214 C 
ATOM      5  C   UNL     1       1.949  68.310  13.125  1.00  0.00     0.339 C 
ATOM      6  O   UNL     1       2.191  67.320  14.113  1.00  0.00    -0.332 OA
ENDROOT
BRANCH   1   7
ATOM      7  C   UNL     1       3.559  66.473  15.895  1.00  0.00     0.198 C 
BRANCH   7   8
ATOM      8  O   UNL     1       2.353  66.045  16.491  1.00  0.00    -0.347 OA
BRANCH   8   9
ATOM      9  C   UNL     1       2.343  64.673  16.857  1.00  0.00     0.281 C 
ATOM     10  C   UNL     1       3.195  62.094  18.272  1.00  0.00     0.041 C 
ATOM     11  C   UNL     1       4.075  63.219  17.678  1.00  0.00     0.150 C 
ATOM     12  C   UNL     1       4.607  62.957  16.268  1.00  0.00     0.174 C 
ATOM     13  O   UNL     1       3.455  64.488  17.726  1.00  0.00    -0.344 OA
ATOM     14  C   UNL     1       3.438  62.768  15.311  1.00  0.00     0.179 C 
ATOM     15  C   UNL     1       2.301  63.805  15.539  1.00  0.00     0.202 C 
BRANCH  12  16
ATOM     16  O   UNL     1       5.431  61.820  16.241  1.00  0.00    -0.388 OA
ATOM     17  H   UNL     1       5.298  61.402  15.352  1.00  0.00     0.211 HD
ENDBRANCH  12  16
BRANCH  14  18
ATOM     18  O   UNL     1       3.906  62.865  13.988  1.00  0.00    -0.387 OA
ATOM     19  H   UNL     1       3.268  63.433  13.486  1.00  0.00     0.211 HD
ENDBRANCH  14  18
BRANCH  15  20
ATOM     20  O   UNL     1       1.048  63.154  15.430  1.00  0.00    -0.385 OA
ATOM     21  H   UNL     1       0.526  63.632  14.734  1.00  0.00     0.211 HD
ENDBRANCH  15  20
ENDBRANCH   8   9
ENDBRANCH   7   8
ENDBRANCH   1   7
BRANCH   2  22
ATOM     22  O   UNL     1       1.832  68.787  16.588  1.00  0.00    -0.387 OA
ATOM     23  H   UNL     1       1.910  67.902  17.037  1.00  0.00     0.211 HD
ENDBRANCH   2  22
BRANCH   3  24
ATOM     24  O   UNL     1       3.832  70.510  14.068  1.00  0.00    -0.387 OA
ATOM     25  H   UNL     1       4.622  70.043  14.439  1.00  0.00     0.211 HD
ENDBRANCH   3  24
BRANCH   5  26
ATOM     26  O   UNL     1       3.061  68.447  12.236  1.00  0.00    -0.454 OA
BRANCH  26  27
ATOM     27  C   UNL     1       3.074  68.225  10.844  1.00  0.00     0.214 A 
ATOM     28  C   UNL     1       3.313  69.327   9.998  1.00  0.00     0.180 A 
ATOM     29  C   UNL     1       2.850  66.962  10.247  1.00  0.00     0.239 A 
ATOM     30  O   UNL     1       3.284  69.183   8.676  1.00  0.00    -0.452 OA
ATOM     31  C   UNL     1       2.846  66.849   8.840  1.00  0.00     0.111 A 
ATOM     32  O   UNL     1       2.662  65.945  10.959  1.00  0.00    -0.285 OA
ATOM     33  C   UNL     1       3.058  68.021   8.078  1.00  0.00     0.146 A 
ATOM     34  C   UNL     1       2.635  65.618   8.165  1.00  0.00     0.134 A 
ATOM     35  C   UNL     1       3.045  67.969   6.680  1.00  0.00     0.094 A 
ATOM     36  C   UNL     1       2.637  65.584   6.762  1.00  0.00     0.093 A 
ATOM     37  C   UNL     1       2.838  66.754   6.022  1.00  0.00     0.123 A 
BRANCH  28  38
ATOM     38  C   UNL     1       3.590  70.677  10.535  1.00  0.00     0.025 A 
ATOM     39  C   UNL     1       2.554  71.482  11.037  1.00  0.00     0.062 A 
ATOM     40  C   UNL     1       4.912  71.144  10.575  1.00  0.00     0.016 A 
ATOM     41  C   UNL     1       2.822  72.764  11.528  1.00  0.00     0.158 A 
ATOM     42  C   UNL     1       5.188  72.419  11.070  1.00  0.00     0.051 A 
ATOM     43  C   UNL     1       4.157  73.245  11.527  1.00  0.00     0.157 A 
BRANCH  41  44
ATOM     44  O   UNL     1       1.756  73.510  12.030  1.00  0.00    -0.504 OA
ATOM     45  H   UNL     1       0.829  73.140  12.183  1.00  0.00     0.293 HD
ENDBRANCH  41  44
BRANCH  43  46
ATOM     46  O   UNL     1       4.486  74.527  11.956  1.00  0.00    -0.504 OA
ATOM     47  H   UNL     1       5.433  74.840  12.108  1.00  0.00     0.293 HD
ENDBRANCH  43  46
ENDBRANCH  28  38
BRANCH  34  48
ATOM     48  O   UNL     1       2.421  64.431   8.875  1.00  0.00    -0.507 OA
ATOM     49  H   UNL     1       1.753  63.737   8.561  1.00  0.00     0.293 HD
ENDBRANCH  34  48
BRANCH  37  50
ATOM     50  O   UNL     1       2.842  66.719   4.629  1.00  0.00    -0.508 OA
ATOM     51  H   UNL     1       2.163  67.237   4.082  1.00  0.00     0.293 HD
ENDBRANCH  37  50
ENDBRANCH  26  27
ENDBRANCH   5  26
BRANCH   4  52
ATOM     52  O   UNL     1       0.346  69.593  14.373  1.00  0.00    -0.384 OA
ATOM     53  H   UNL     1      -0.327  69.395  13.673  1.00  0.00     0.211 HD
ENDBRANCH   4  52
TORSDOF 16
ENDMDL
