MODEL 1
REMARK VINA RESULT:    -6.485      0.000      0.000
REMARK INTER + INTRA:          -8.834
REMARK INTER:                  -8.191
REMARK INTRA:                  -0.643
REMARK UNBOUND:                -0.643
REMARK SMILES CC(C)=CCCC(C)=CCO
REMARK SMILES IDX 7 1 9 2 8 3 6 4 5 5 4 6 1 7 2 8 3 9 10 10 11 11
REMARK H PARENT 11 12
REMARK Flexibility Score: inf
ROOT
ATOM      1  C   UNL     1      19.643  20.056   2.993  1.00  0.00    -0.075 C 
ATOM      2  C   UNL     1      18.469  19.474   2.658  1.00  0.00    -0.000 C 
ATOM      3  C   UNL     1      20.911  19.784   2.217  1.00  0.00     0.039 C 
ENDROOT
BRANCH   1   4
ATOM      4  C   UNL     1      19.690  20.995   4.178  1.00  0.00     0.034 C 
BRANCH   4   5
ATOM      5  C   UNL     1      19.466  20.231   5.487  1.00  0.00     0.032 C 
BRANCH   5   6
ATOM      6  C   UNL     1      20.773  19.717   6.037  1.00  0.00    -0.028 C 
ATOM      7  C   UNL     1      22.579  18.099   6.437  1.00  0.00     0.039 C 
ATOM      8  C   UNL     1      21.233  18.458   5.862  1.00  0.00    -0.080 C 
ATOM      9  C   UNL     1      20.432  17.408   5.129  1.00  0.00     0.039 C 
ENDBRANCH   5   6
ENDBRANCH   4   5
ENDBRANCH   1   4
BRANCH   2  10
ATOM     10  C   UNL     1      18.304  18.517   1.506  1.00  0.00     0.183 C 
BRANCH  10  11
ATOM     11  O   UNL     1      17.947  17.243   1.968  1.00  0.00    -0.392 OA
ATOM     12  H   UNL     1      16.981  17.130   1.769  1.00  0.00     0.210 HD
ENDBRANCH  10  11
ENDBRANCH   2  10
TORSDOF 5
ENDMDL
MODEL 2
REMARK VINA RESULT:    -5.856      2.063      4.301
REMARK INTER + INTRA:          -8.039
REMARK INTER:                  -7.345
REMARK INTRA:                  -0.694
REMARK UNBOUND:                -0.643
REMARK SMILES CC(C)=CCCC(C)=CCO
REMARK SMILES IDX 7 1 9 2 8 3 6 4 5 5 4 6 1 7 2 8 3 9 10 10 11 11
REMARK H PARENT 11 12
REMARK Flexibility Score: inf
ROOT
ATOM      1  C   UNL     1      19.728  19.938   4.838  1.00  0.00    -0.075 C 
ATOM      2  C   UNL     1      21.047  19.667   4.957  1.00  0.00    -0.000 C 
ATOM      3  C   UNL     1      18.734  19.509   5.892  1.00  0.00     0.039 C 
ENDROOT
BRANCH   1   4
ATOM      4  C   UNL     1      19.234  20.681   3.616  1.00  0.00     0.034 C 
BRANCH   4   5
ATOM      5  C   UNL     1      19.486  19.865   2.344  1.00  0.00     0.032 C 
BRANCH   5   6
ATOM      6  C   UNL     1      18.372  18.876   2.113  1.00  0.00    -0.028 C 
ATOM      7  C   UNL     1      17.242  16.694   2.145  1.00  0.00     0.039 C 
ATOM      8  C   UNL     1      18.453  17.555   2.392  1.00  0.00    -0.080 C 
ATOM      9  C   UNL     1      19.720  16.925   2.922  1.00  0.00     0.039 C 
ENDBRANCH   5   6
ENDBRANCH   4   5
ENDBRANCH   1   4
BRANCH   2  10
ATOM     10  C   UNL     1      21.653  18.928   6.122  1.00  0.00     0.183 C 
BRANCH  10  11
ATOM     11  O   UNL     1      21.734  17.556   5.850  1.00  0.00    -0.392 OA
ATOM     12  H   UNL     1      22.077  17.123   6.674  1.00  0.00     0.210 HD
ENDBRANCH  10  11
ENDBRANCH   2  10
TORSDOF 5
ENDMDL
MODEL 3
REMARK VINA RESULT:    -5.637      1.185      2.089
REMARK INTER + INTRA:          -7.763
REMARK INTER:                  -7.156
REMARK INTRA:                  -0.607
REMARK UNBOUND:                -0.643
REMARK SMILES CC(C)=CCCC(C)=CCO
REMARK SMILES IDX 7 1 9 2 8 3 6 4 5 5 4 6 1 7 2 8 3 9 10 10 11 11
REMARK H PARENT 11 12
REMARK Flexibility Score: inf
ROOT
ATOM      1  C   UNL     1      18.826  19.245   2.303  1.00  0.00    -0.075 C 
ATOM      2  C   UNL     1      18.621  17.939   2.019  1.00  0.00    -0.000 C 
ATOM      3  C   UNL     1      17.746  20.098   2.927  1.00  0.00     0.039 C 
ENDROOT
BRANCH   1   4
ATOM      4  C   UNL     1      20.166  19.870   1.980  1.00  0.00     0.034 C 
BRANCH   4   5
ATOM      5  C   UNL     1      20.756  20.561   3.214  1.00  0.00     0.032 C 
BRANCH   5   6
ATOM      6  C   UNL     1      21.450  19.562   4.105  1.00  0.00    -0.028 C 
ATOM      7  C   UNL     1      21.868  18.258   6.145  1.00  0.00     0.039 C 
ATOM      8  C   UNL     1      21.107  19.315   5.389  1.00  0.00    -0.080 C 
ATOM      9  C   UNL     1      20.003  20.079   6.083  1.00  0.00     0.039 C 
ENDBRANCH   5   6
ENDBRANCH   4   5
ENDBRANCH   1   4
BRANCH   2  10
ATOM     10  C   UNL     1      17.329  17.213   2.288  1.00  0.00     0.183 C 
BRANCH  10  11
ATOM     11  O   UNL     1      17.505  15.828   2.168  1.00  0.00    -0.392 OA
ATOM     12  H   UNL     1      16.622  15.450   1.917  1.00  0.00     0.210 HD
ENDBRANCH  10  11
ENDBRANCH   2  10
TORSDOF 5
ENDMDL
MODEL 4
REMARK VINA RESULT:    -5.301     13.247     14.402
REMARK INTER + INTRA:          -7.339
REMARK INTER:                  -6.779
REMARK INTRA:                  -0.559
REMARK UNBOUND:                -0.643
REMARK SMILES CC(C)=CCCC(C)=CCO
REMARK SMILES IDX 7 1 9 2 8 3 6 4 5 5 4 6 1 7 2 8 3 9 10 10 11 11
REMARK H PARENT 11 12
REMARK Flexibility Score: inf
ROOT
ATOM      1  C   UNL     1      22.450   9.937  14.737  1.00  0.00    -0.075 C 
ATOM      2  C   UNL     1      22.957  11.087  15.236  1.00  0.00    -0.000 C 
ATOM      3  C   UNL     1      21.080   9.887  14.102  1.00  0.00     0.039 C 
ENDROOT
BRANCH   1   4
ATOM      4  C   UNL     1      23.270   8.669  14.823  1.00  0.00     0.034 C 
BRANCH   4   5
ATOM      5  C   UNL     1      24.759   8.969  14.622  1.00  0.00     0.032 C 
BRANCH   5   6
ATOM      6  C   UNL     1      25.175   8.683  13.200  1.00  0.00    -0.028 C 
ATOM      7  C   UNL     1      25.972   9.188  10.931  1.00  0.00     0.039 C 
ATOM      8  C   UNL     1      25.542   9.628  12.306  1.00  0.00    -0.080 C 
ATOM      9  C   UNL     1      25.514  11.101  12.642  1.00  0.00     0.039 C 
ENDBRANCH   5   6
ENDBRANCH   4   5
ENDBRANCH   1   4
BRANCH   2  10
ATOM     10  C   UNL     1      22.230  12.406  15.215  1.00  0.00     0.183 C 
BRANCH  10  11
ATOM     11  O   UNL     1      23.102  13.457  15.530  1.00  0.00    -0.392 OA
ATOM     12  H   UNL     1      23.177  13.476  16.519  1.00  0.00     0.210 HD
ENDBRANCH  10  11
ENDBRANCH   2  10
TORSDOF 5
ENDMDL
MODEL 5
REMARK VINA RESULT:    -5.287     10.998     13.456
REMARK INTER + INTRA:          -7.320
REMARK INTER:                  -6.639
REMARK INTRA:                  -0.680
REMARK UNBOUND:                -0.643
REMARK SMILES CC(C)=CCCC(C)=CCO
REMARK SMILES IDX 7 1 9 2 8 3 6 4 5 5 4 6 1 7 2 8 3 9 10 10 11 11
REMARK H PARENT 11 12
REMARK Flexibility Score: inf
ROOT
ATOM      1  C   UNL     1      22.034  11.364  14.647  1.00  0.00    -0.075 C 
ATOM      2  C   UNL     1      22.094  12.515  13.941  1.00  0.00    -0.000 C 
ATOM      3  C   UNL     1      21.120  10.232  14.238  1.00  0.00     0.039 C 
ENDROOT
BRANCH   1   4
ATOM      4  C   UNL     1      22.896  11.207  15.880  1.00  0.00     0.034 C 
BRANCH   4   5
ATOM      5  C   UNL     1      24.381  11.165  15.505  1.00  0.00     0.032 C 
BRANCH   5   6
ATOM      6  C   UNL     1      24.722   9.866  14.820  1.00  0.00    -0.028 C 
ATOM      7  C   UNL     1      25.474   8.399  12.997  1.00  0.00     0.039 C 
ATOM      8  C   UNL     1      25.129   9.764  13.534  1.00  0.00    -0.080 C 
ATOM      9  C   UNL     1      25.226  10.968  12.627  1.00  0.00     0.039 C 
ENDBRANCH   5   6
ENDBRANCH   4   5
ENDBRANCH   1   4
BRANCH   2  10
ATOM     10  C   UNL     1      21.278  12.787  12.704  1.00  0.00     0.183 C 
BRANCH  10  11
ATOM     11  O   UNL     1      22.105  13.171  11.640  1.00  0.00    -0.392 OA
ATOM     12  H   UNL     1      21.521  13.619  10.974  1.00  0.00     0.210 HD
ENDBRANCH  10  11
ENDBRANCH   2  10
TORSDOF 5
ENDMDL
MODEL 6
REMARK VINA RESULT:    -5.199     12.990     13.981
REMARK INTER + INTRA:          -7.209
REMARK INTER:                  -6.860
REMARK INTRA:                  -0.349
REMARK UNBOUND:                -0.643
REMARK SMILES CC(C)=CCCC(C)=CCO
REMARK SMILES IDX 7 1 9 2 8 3 6 4 5 5 4 6 1 7 2 8 3 9 10 10 11 11
REMARK H PARENT 11 12
REMARK Flexibility Score: inf
ROOT
ATOM      1  C   UNL     1      25.585   9.738  12.268  1.00  0.00    -0.075 C 
ATOM      2  C   UNL     1      25.938  10.162  11.034  1.00  0.00    -0.000 C 
ATOM      3  C   UNL     1      25.533   8.268  12.615  1.00  0.00     0.039 C 
ENDROOT
BRANCH   1   4
ATOM      4  C   UNL     1      25.226  10.759  13.325  1.00  0.00     0.034 C 
BRANCH   4   5
ATOM      5  C   UNL     1      24.873  10.072  14.649  1.00  0.00     0.032 C 
BRANCH   5   6
ATOM      6  C   UNL     1      23.953  10.938  15.472  1.00  0.00    -0.028 C 
ATOM      7  C   UNL     1      21.816  11.751  16.373  1.00  0.00     0.039 C 
ATOM      8  C   UNL     1      22.604  10.843  15.465  1.00  0.00    -0.080 C 
ATOM      9  C   UNL     1      21.875   9.873  14.565  1.00  0.00     0.039 C 
ENDBRANCH   5   6
ENDBRANCH   4   5
ENDBRANCH   1   4
BRANCH   2  10
ATOM     10  C   UNL     1      26.307   9.239   9.901  1.00  0.00     0.183 C 
BRANCH  10  11
ATOM     11  O   UNL     1      26.691   9.973   8.770  1.00  0.00    -0.392 OA
ATOM     12  H   UNL     1      26.201  10.835   8.812  1.00  0.00     0.210 HD
ENDBRANCH  10  11
ENDBRANCH   2  10
TORSDOF 5
ENDMDL
MODEL 7
REMARK VINA RESULT:    -5.178     14.941     17.837
REMARK INTER + INTRA:          -7.183
REMARK INTER:                  -6.953
REMARK INTRA:                  -0.229
REMARK UNBOUND:                -0.643
REMARK SMILES CC(C)=CCCC(C)=CCO
REMARK SMILES IDX 7 1 9 2 8 3 6 4 5 5 4 6 1 7 2 8 3 9 10 10 11 11
REMARK H PARENT 11 12
REMARK Flexibility Score: inf
ROOT
ATOM      1  C   UNL     1      25.268   6.445  16.953  1.00  0.00    -0.075 C 
ATOM      2  C   UNL     1      26.029   7.245  17.734  1.00  0.00    -0.000 C 
ATOM      3  C   UNL     1      24.422   5.339  17.540  1.00  0.00     0.039 C 
ENDROOT
BRANCH   1   4
ATOM      4  C   UNL     1      25.272   6.656  15.455  1.00  0.00     0.034 C 
BRANCH   4   5
ATOM      5  C   UNL     1      24.772   8.061  15.102  1.00  0.00     0.032 C 
BRANCH   5   6
ATOM      6  C   UNL     1      25.151   8.424  13.689  1.00  0.00    -0.028 C 
ATOM      7  C   UNL     1      25.653   9.900  11.789  1.00  0.00     0.039 C 
ATOM      8  C   UNL     1      25.220   9.689  13.216  1.00  0.00    -0.080 C 
ATOM      9  C   UNL     1      24.860  10.883  14.070  1.00  0.00     0.039 C 
ENDBRANCH   5   6
ENDBRANCH   4   5
ENDBRANCH   1   4
BRANCH   2  10
ATOM     10  C   UNL     1      26.112   7.123  19.234  1.00  0.00     0.183 C 
BRANCH  10  11
ATOM     11  O   UNL     1      25.823   8.350  19.847  1.00  0.00    -0.392 OA
ATOM     12  H   UNL     1      26.615   8.586  20.396  1.00  0.00     0.210 HD
ENDBRANCH  10  11
ENDBRANCH   2  10
TORSDOF 5
ENDMDL
MODEL 8
REMARK VINA RESULT:    -5.112     12.900     14.238
REMARK INTER + INTRA:          -7.100
REMARK INTER:                  -6.620
REMARK INTRA:                  -0.480
REMARK UNBOUND:                -0.643
REMARK SMILES CC(C)=CCCC(C)=CCO
REMARK SMILES IDX 7 1 9 2 8 3 6 4 5 5 4 6 1 7 2 8 3 9 10 10 11 11
REMARK H PARENT 11 12
REMARK Flexibility Score: inf
ROOT
ATOM      1  C   UNL     1      25.398   9.400  12.565  1.00  0.00    -0.075 C 
ATOM      2  C   UNL     1      25.573   8.890  11.325  1.00  0.00    -0.000 C 
ATOM      3  C   UNL     1      25.430  10.889  12.820  1.00  0.00     0.039 C 
ENDROOT
BRANCH   1   4
ATOM      4  C   UNL     1      25.174   8.457  13.727  1.00  0.00     0.034 C 
BRANCH   4   5
ATOM      5  C   UNL     1      24.252   9.092  14.773  1.00  0.00     0.032 C 
BRANCH   5   6
ATOM      6  C   UNL     1      22.806   8.932  14.379  1.00  0.00    -0.028 C 
ATOM      7  C   UNL     1      20.453   9.584  14.095  1.00  0.00     0.039 C 
ATOM      8  C   UNL     1      21.851   9.869  14.579  1.00  0.00    -0.080 C 
ATOM      9  C   UNL     1      22.144  11.173  15.284  1.00  0.00     0.039 C 
ENDBRANCH   5   6
ENDBRANCH   4   5
ENDBRANCH   1   4
BRANCH   2  10
ATOM     10  C   UNL     1      25.812   9.729  10.096  1.00  0.00     0.183 C 
BRANCH  10  11
ATOM     11  O   UNL     1      27.177   9.767   9.780  1.00  0.00    -0.392 OA
ATOM     12  H   UNL     1      27.614   9.066  10.330  1.00  0.00     0.210 HD
ENDBRANCH  10  11
ENDBRANCH   2  10
TORSDOF 5
ENDMDL
MODEL 9
REMARK VINA RESULT:    -5.039     12.226     14.138
REMARK INTER + INTRA:          -7.007
REMARK INTER:                  -6.373
REMARK INTRA:                  -0.634
REMARK UNBOUND:                -0.643
REMARK SMILES CC(C)=CCCC(C)=CCO
REMARK SMILES IDX 7 1 9 2 8 3 6 4 5 5 4 6 1 7 2 8 3 9 10 10 11 11
REMARK H PARENT 11 12
REMARK Flexibility Score: inf
ROOT
ATOM      1  C   UNL     1      25.103  10.066  13.825  1.00  0.00    -0.075 C 
ATOM      2  C   UNL     1      25.163   8.755  13.500  1.00  0.00    -0.000 C 
ATOM      3  C   UNL     1      25.369  11.148  12.805  1.00  0.00     0.039 C 
ENDROOT
BRANCH   1   4
ATOM      4  C   UNL     1      24.769  10.459  15.248  1.00  0.00     0.034 C 
BRANCH   4   5
ATOM      5  C   UNL     1      23.476  11.279  15.297  1.00  0.00     0.032 C 
BRANCH   5   6
ATOM      6  C   UNL     1      22.273  10.392  15.092  1.00  0.00    -0.028 C 
ATOM      7  C   UNL     1      20.252   9.543  13.982  1.00  0.00     0.039 C 
ATOM      8  C   UNL     1      21.385  10.530  14.081  1.00  0.00    -0.080 C 
ATOM      9  C   UNL     1      21.490  11.649  13.072  1.00  0.00     0.039 C 
ENDBRANCH   5   6
ENDBRANCH   4   5
ENDBRANCH   1   4
BRANCH   2  10
ATOM     10  C   UNL     1      25.493   8.245  12.121  1.00  0.00     0.183 C 
BRANCH  10  11
ATOM     11  O   UNL     1      24.333   8.132  11.344  1.00  0.00    -0.392 OA
ATOM     12  H   UNL     1      23.579   8.000  11.977  1.00  0.00     0.210 HD
ENDBRANCH  10  11
ENDBRANCH   2  10
TORSDOF 5
ENDMDL
