MODEL 1
REMARK VINA RESULT:    -5.166      0.000      0.000
REMARK INTER + INTRA:          -9.445
REMARK INTER:                  -7.129
REMARK INTRA:                  -2.316
REMARK UNBOUND:                -2.316
REMARK SMILES C=C(CC[C@@H](C(=O)[O-])[C@H]1CC[C@@]2(C)C3=C(CC[C@@]12C)[C@]1(C)CC[C@@H](O)C(C)(C)[C@@H]1CC3)C(C)C
REMARK SMILES IDX 4 1 5 2 6 3 7 4 8 5 9 6 10 7 18 8 11 9 12 10 17 11 19 12
REMARK SMILES IDX 13 13 14 14 16 15 15 16 31 17 20 18 30 19 29 20 22 21 21 22
REMARK SMILES IDX 26 23 23 24 24 25 27 26 28 27 25 28 3 30 2 31 1 32 32 33
REMARK SMILES IDX 33 34 34 35
REMARK H PARENT 25 29
REMARK Flexibility Score: inf
ROOT
ATOM      1  C   UNL     1       6.177  -9.158  30.715  1.00  0.00     0.014 C 
ENDROOT
BRANCH   1   2
ATOM      2  C   UNL     1       6.575  -7.786  31.327  1.00  0.00     0.039 C 
BRANCH   2   3
ATOM      3  C   UNL     1       5.629  -7.343  32.431  1.00  0.00     0.045 C 
ATOM      4  O   UNL     1       5.539  -8.017  33.492  1.00  0.00    -0.550 OA
ATOM      5  O   UNL     1       4.874  -6.182  32.318  1.00  0.00    -0.550 OA
ENDBRANCH   2   3
BRANCH   2   6
ATOM      6  C   UNL     1       8.107  -7.727  31.693  1.00  0.00     0.004 C 
ATOM      7  C   UNL     1       8.796  -9.105  31.708  1.00  0.00     0.006 C 
ATOM      8  C   UNL     1       9.088  -6.745  30.953  1.00  0.00    -0.020 C 
ATOM      9  C   UNL     1      10.192  -8.915  31.131  1.00  0.00     0.012 C 
ATOM     10  C   UNL     1      10.499  -7.407  31.177  1.00  0.00    -0.006 C 
ATOM     11  C   UNL     1       8.793  -6.675  29.440  1.00  0.00     0.012 C 
ATOM     12  C   UNL     1       9.004  -5.304  31.547  1.00  0.00     0.012 C 
ATOM     13  C   UNL     1      11.059  -7.053  32.592  1.00  0.00     0.017 C 
ATOM     14  C   UNL     1      11.558  -7.087  30.087  1.00  0.00    -0.064 C 
ATOM     15  C   UNL     1       9.862  -5.890  28.697  1.00  0.00     0.032 C 
ATOM     16  C   UNL     1      11.260  -6.443  28.915  1.00  0.00    -0.064 C 
ATOM     17  C   UNL     1      12.960  -7.626  30.270  1.00  0.00     0.032 C 
ATOM     18  C   UNL     1      12.310  -6.267  27.765  1.00  0.00    -0.008 C 
ATOM     19  C   UNL     1      13.946  -6.598  29.767  1.00  0.00     0.009 C 
ATOM     20  C   UNL     1      13.835  -6.435  28.232  1.00  0.00     0.007 C 
ATOM     21  C   UNL     1      11.931  -7.272  26.636  1.00  0.00     0.014 C 
ATOM     22  C   UNL     1      12.169  -4.834  27.177  1.00  0.00     0.016 C 
ATOM     23  C   UNL     1      14.711  -7.444  27.357  1.00  0.00    -0.006 C 
ATOM     24  C   UNL     1      12.424  -8.683  26.920  1.00  0.00     0.033 C 
ATOM     25  C   UNL     1      13.957  -8.792  27.050  1.00  0.00     0.120 C 
ATOM     26  C   UNL     1      15.143  -6.725  26.039  1.00  0.00     0.014 C 
ATOM     27  C   UNL     1      16.049  -7.799  28.065  1.00  0.00     0.014 C 
BRANCH  25  28
ATOM     28  O   UNL     1      14.466  -9.396  25.885  1.00  0.00    -0.393 OA
ATOM     29  H   UNL     1      13.706  -9.515  25.259  1.00  0.00     0.210 HD
ENDBRANCH  25  28
ENDBRANCH   2   6
ENDBRANCH   1   2
BRANCH   1  30
ATOM     30  C   UNL     1       5.719  -9.096  29.243  1.00  0.00     0.031 C 
BRANCH  30  31
ATOM     31  C   UNL     1       6.770  -9.520  28.231  1.00  0.00    -0.075 C 
ATOM     32  C   UNL     1       7.759 -10.342  28.622  1.00  0.00     0.008 C 
BRANCH  31  33
ATOM     33  C   UNL     1       6.861  -8.844  26.866  1.00  0.00     0.008 C 
ATOM     34  C   UNL     1       6.130  -7.497  26.829  1.00  0.00     0.012 C 
ATOM     35  C   UNL     1       8.326  -8.678  26.451  1.00  0.00     0.012 C 
ENDBRANCH  31  33
ENDBRANCH  30  31
ENDBRANCH   1  30
TORSDOF 7
ENDMDL
MODEL 2
REMARK VINA RESULT:    -5.108     10.918     15.094
REMARK INTER + INTRA:          -9.366
REMARK INTER:                  -7.136
REMARK INTRA:                  -2.230
REMARK UNBOUND:                -2.316
REMARK SMILES C=C(CC[C@@H](C(=O)[O-])[C@H]1CC[C@@]2(C)C3=C(CC[C@@]12C)[C@]1(C)CC[C@@H](O)C(C)(C)[C@@H]1CC3)C(C)C
REMARK SMILES IDX 4 1 5 2 6 3 7 4 8 5 9 6 10 7 18 8 11 9 12 10 17 11 19 12
REMARK SMILES IDX 13 13 14 14 16 15 15 16 31 17 20 18 30 19 29 20 22 21 21 22
REMARK SMILES IDX 26 23 23 24 24 25 27 26 28 27 25 28 3 30 2 31 1 32 32 33
REMARK SMILES IDX 33 34 34 35
REMARK H PARENT 25 29
REMARK Flexibility Score: inf
ROOT
ATOM      1  C   UNL     1      13.320  -4.521  44.722  1.00  0.00     0.014 C 
ENDROOT
BRANCH   1   2
ATOM      2  C   UNL     1      13.951  -5.836  44.186  1.00  0.00     0.039 C 
BRANCH   2   3
ATOM      3  C   UNL     1      15.375  -6.042  44.675  1.00  0.00     0.045 C 
ATOM      4  O   UNL     1      15.782  -7.200  44.960  1.00  0.00    -0.550 OA
ATOM      5  O   UNL     1      16.266  -4.982  44.787  1.00  0.00    -0.550 OA
ENDBRANCH   2   3
BRANCH   2   6
ATOM      6  C   UNL     1      12.991  -7.071  44.379  1.00  0.00     0.004 C 
ATOM      7  C   UNL     1      11.746  -6.762  45.233  1.00  0.00     0.006 C 
ATOM      8  C   UNL     1      12.491  -7.919  43.152  1.00  0.00    -0.020 C 
ATOM      9  C   UNL     1      10.579  -7.520  44.616  1.00  0.00     0.012 C 
ATOM     10  C   UNL     1      11.177  -8.598  43.693  1.00  0.00    -0.006 C 
ATOM     11  C   UNL     1      12.142  -7.026  41.943  1.00  0.00     0.012 C 
ATOM     12  C   UNL     1      13.564  -8.963  42.711  1.00  0.00     0.012 C 
ATOM     13  C   UNL     1      11.517  -9.859  44.550  1.00  0.00     0.017 C 
ATOM     14  C   UNL     1      10.125  -8.954  42.608  1.00  0.00    -0.064 C 
ATOM     15  C   UNL     1      11.471  -7.820  40.836  1.00  0.00     0.032 C 
ATOM     16  C   UNL     1      10.223  -8.549  41.303  1.00  0.00    -0.064 C 
ATOM     17  C   UNL     1       8.867  -9.677  43.040  1.00  0.00     0.032 C 
ATOM     18  C   UNL     1       9.076  -8.790  40.262  1.00  0.00    -0.008 C 
ATOM     19  C   UNL     1       8.484 -10.670  41.967  1.00  0.00     0.009 C 
ATOM     20  C   UNL     1       8.039  -9.940  40.677  1.00  0.00     0.007 C 
ATOM     21  C   UNL     1       8.368  -7.421  40.032  1.00  0.00     0.014 C 
ATOM     22  C   UNL     1       9.713  -9.217  38.909  1.00  0.00     0.016 C 
ATOM     23  C   UNL     1       6.498  -9.532  40.601  1.00  0.00    -0.006 C 
ATOM     24  C   UNL     1       7.359  -7.094  41.121  1.00  0.00     0.033 C 
ATOM     25  C   UNL     1       6.212  -8.120  41.237  1.00  0.00     0.120 C 
ATOM     26  C   UNL     1       6.034  -9.584  39.110  1.00  0.00     0.014 C 
ATOM     27  C   UNL     1       5.595 -10.570  41.327  1.00  0.00     0.014 C 
BRANCH  25  28
ATOM     28  O   UNL     1       5.044  -7.552  40.694  1.00  0.00    -0.393 OA
ATOM     29  H   UNL     1       4.274  -7.934  41.189  1.00  0.00     0.210 HD
ENDBRANCH  25  28
ENDBRANCH   2   6
ENDBRANCH   1   2
BRANCH   1  30
ATOM     30  C   UNL     1      12.409  -3.789  43.715  1.00  0.00     0.031 C 
BRANCH  30  31
ATOM     31  C   UNL     1      11.171  -3.152  44.324  1.00  0.00    -0.075 C 
ATOM     32  C   UNL     1      11.309  -2.339  45.386  1.00  0.00     0.008 C 
BRANCH  31  33
ATOM     33  C   UNL     1       9.773  -3.606  43.913  1.00  0.00     0.008 C 
ATOM     34  C   UNL     1       9.802  -4.641  42.783  1.00  0.00     0.012 C 
ATOM     35  C   UNL     1       9.011  -4.148  45.127  1.00  0.00     0.012 C 
ENDBRANCH  31  33
ENDBRANCH  30  31
ENDBRANCH   1  30
TORSDOF 7
ENDMDL
MODEL 3
REMARK VINA RESULT:    -5.104      9.248     12.682
REMARK INTER + INTRA:          -9.359
REMARK INTER:                  -7.739
REMARK INTRA:                  -1.620
REMARK UNBOUND:                -2.316
REMARK SMILES C=C(CC[C@@H](C(=O)[O-])[C@H]1CC[C@@]2(C)C3=C(CC[C@@]12C)[C@]1(C)CC[C@@H](O)C(C)(C)[C@@H]1CC3)C(C)C
REMARK SMILES IDX 4 1 5 2 6 3 7 4 8 5 9 6 10 7 18 8 11 9 12 10 17 11 19 12
REMARK SMILES IDX 13 13 14 14 16 15 15 16 31 17 20 18 30 19 29 20 22 21 21 22
REMARK SMILES IDX 26 23 23 24 24 25 27 26 28 27 25 28 3 30 2 31 1 32 32 33
REMARK SMILES IDX 33 34 34 35
REMARK H PARENT 25 29
REMARK Flexibility Score: inf
ROOT
ATOM      1  C   UNL     1       9.499  -4.133  43.529  1.00  0.00     0.014 C 
ENDROOT
BRANCH   1   2
ATOM      2  C   UNL     1       9.636  -5.668  43.733  1.00  0.00     0.039 C 
BRANCH   2   3
ATOM      3  C   UNL     1       9.241  -6.108  45.133  1.00  0.00     0.045 C 
ATOM      4  O   UNL     1       9.963  -5.799  46.118  1.00  0.00    -0.550 OA
ATOM      5  O   UNL     1       8.073  -6.824  45.367  1.00  0.00    -0.550 OA
ENDBRANCH   2   3
BRANCH   2   6
ATOM      6  C   UNL     1       8.966  -6.480  42.560  1.00  0.00     0.004 C 
ATOM      7  C   UNL     1       8.512  -5.602  41.378  1.00  0.00     0.006 C 
ATOM      8  C   UNL     1       9.664  -7.744  41.937  1.00  0.00    -0.020 C 
ATOM      9  C   UNL     1       8.798  -6.385  40.103  1.00  0.00     0.012 C 
ATOM     10  C   UNL     1       9.004  -7.855  40.511  1.00  0.00    -0.006 C 
ATOM     11  C   UNL     1      11.185  -7.538  41.779  1.00  0.00     0.012 C 
ATOM     12  C   UNL     1       9.418  -9.015  42.809  1.00  0.00     0.012 C 
ATOM     13  C   UNL     1       7.607  -8.550  40.600  1.00  0.00     0.017 C 
ATOM     14  C   UNL     1       9.879  -8.547  39.431  1.00  0.00    -0.064 C 
ATOM     15  C   UNL     1      11.824  -8.671  40.993  1.00  0.00     0.032 C 
ATOM     16  C   UNL     1      11.196  -8.871  39.625  1.00  0.00    -0.064 C 
ATOM     17  C   UNL     1       9.286  -8.758  38.055  1.00  0.00     0.032 C 
ATOM     18  C   UNL     1      12.100  -9.428  38.472  1.00  0.00    -0.008 C 
ATOM     19  C   UNL     1       9.766 -10.085  37.517  1.00  0.00     0.009 C 
ATOM     20  C   UNL     1      11.288 -10.046  37.236  1.00  0.00     0.007 C 
ATOM     21  C   UNL     1      13.047  -8.273  38.030  1.00  0.00     0.014 C 
ATOM     22  C   UNL     1      12.992 -10.566  39.045  1.00  0.00     0.016 C 
ATOM     23  C   UNL     1      11.718  -9.507  35.796  1.00  0.00    -0.006 C 
ATOM     24  C   UNL     1      12.374  -7.297  37.078  1.00  0.00     0.033 C 
ATOM     25  C   UNL     1      11.893  -7.942  35.762  1.00  0.00     0.120 C 
ATOM     26  C   UNL     1      13.032 -10.231  35.358  1.00  0.00     0.014 C 
ATOM     27  C   UNL     1      10.678  -9.892  34.707  1.00  0.00     0.014 C 
BRANCH  25  28
ATOM     28  O   UNL     1      12.766  -7.557  34.727  1.00  0.00    -0.393 OA
ATOM     29  H   UNL     1      12.206  -7.248  33.969  1.00  0.00     0.210 HD
ENDBRANCH  25  28
ENDBRANCH   2   6
ENDBRANCH   1   2
BRANCH   1  30
ATOM     30  C   UNL     1      10.835  -3.393  43.310  1.00  0.00     0.031 C 
BRANCH  30  31
ATOM     31  C   UNL     1      11.765  -3.390  44.512  1.00  0.00    -0.075 C 
ATOM     32  C   UNL     1      11.476  -2.601  45.561  1.00  0.00     0.008 C 
BRANCH  31  33
ATOM     33  C   UNL     1      13.130  -4.069  44.446  1.00  0.00     0.008 C 
ATOM     34  C   UNL     1      13.389  -4.984  45.648  1.00  0.00     0.012 C 
ATOM     35  C   UNL     1      13.278  -4.844  43.133  1.00  0.00     0.012 C 
ENDBRANCH  31  33
ENDBRANCH  30  31
ENDBRANCH   1  30
TORSDOF 7
ENDMDL
MODEL 4
REMARK VINA RESULT:    -5.071     10.740     14.329
REMARK INTER + INTRA:          -9.314
REMARK INTER:                  -6.989
REMARK INTRA:                  -2.325
REMARK UNBOUND:                -2.316
REMARK SMILES C=C(CC[C@@H](C(=O)[O-])[C@H]1CC[C@@]2(C)C3=C(CC[C@@]12C)[C@]1(C)CC[C@@H](O)C(C)(C)[C@@H]1CC3)C(C)C
REMARK SMILES IDX 4 1 5 2 6 3 7 4 8 5 9 6 10 7 18 8 11 9 12 10 17 11 19 12
REMARK SMILES IDX 13 13 14 14 16 15 15 16 31 17 20 18 30 19 29 20 22 21 21 22
REMARK SMILES IDX 26 23 23 24 24 25 27 26 28 27 25 28 3 30 2 31 1 32 32 33
REMARK SMILES IDX 33 34 34 35
REMARK H PARENT 25 29
REMARK Flexibility Score: inf
ROOT
ATOM      1  C   UNL     1      10.499  -6.714  44.813  1.00  0.00     0.014 C 
ENDROOT
BRANCH   1   2
ATOM      2  C   UNL     1      10.049  -5.866  43.590  1.00  0.00     0.039 C 
BRANCH   2   3
ATOM      3  C   UNL     1      10.721  -4.504  43.546  1.00  0.00     0.045 C 
ATOM      4  O   UNL     1      11.978  -4.422  43.513  1.00  0.00    -0.550 OA
ATOM      5  O   UNL     1       9.980  -3.329  43.505  1.00  0.00    -0.550 OA
ENDBRANCH   2   3
BRANCH   2   6
ATOM      6  C   UNL     1      10.113  -6.690  42.248  1.00  0.00     0.004 C 
ATOM      7  C   UNL     1      10.875  -8.024  42.374  1.00  0.00     0.006 C 
ATOM      8  C   UNL     1       8.816  -6.994  41.411  1.00  0.00    -0.020 C 
ATOM      9  C   UNL     1      10.135  -9.045  41.521  1.00  0.00     0.012 C 
ATOM     10  C   UNL     1       9.220  -8.258  40.565  1.00  0.00    -0.006 C 
ATOM     11  C   UNL     1       7.620  -7.350  42.319  1.00  0.00     0.012 C 
ATOM     12  C   UNL     1       8.422  -5.777  40.516  1.00  0.00     0.012 C 
ATOM     13  C   UNL     1      10.050  -7.842  39.308  1.00  0.00     0.017 C 
ATOM     14  C   UNL     1       8.040  -9.177  40.147  1.00  0.00    -0.064 C 
ATOM     15  C   UNL     1       6.431  -7.839  41.510  1.00  0.00     0.032 C 
ATOM     16  C   UNL     1       6.766  -9.028  40.625  1.00  0.00    -0.064 C 
ATOM     17  C   UNL     1       8.339 -10.373  39.268  1.00  0.00     0.032 C 
ATOM     18  C   UNL     1       5.626 -10.056  40.309  1.00  0.00    -0.008 C 
ATOM     19  C   UNL     1       7.200 -10.556  38.293  1.00  0.00     0.009 C 
ATOM     20  C   UNL     1       5.908 -10.982  39.031  1.00  0.00     0.007 C 
ATOM     21  C   UNL     1       5.394 -10.898  41.600  1.00  0.00     0.014 C 
ATOM     22  C   UNL     1       4.313  -9.273  40.024  1.00  0.00     0.016 C 
ATOM     23  C   UNL     1       5.724 -12.550  39.268  1.00  0.00    -0.006 C 
ATOM     24  C   UNL     1       6.410 -12.018  41.759  1.00  0.00     0.033 C 
ATOM     25  C   UNL     1       6.391 -13.044  40.607  1.00  0.00     0.120 C 
ATOM     26  C   UNL     1       4.199 -12.890  39.239  1.00  0.00     0.014 C 
ATOM     27  C   UNL     1       6.332 -13.380  38.101  1.00  0.00     0.014 C 
BRANCH  25  28
ATOM     28  O   UNL     1       5.779 -14.225  41.066  1.00  0.00    -0.393 OA
ATOM     29  H   UNL     1       6.329 -14.570  41.816  1.00  0.00     0.210 HD
ENDBRANCH  25  28
ENDBRANCH   2   6
ENDBRANCH   1   2
BRANCH   1  30
ATOM     30  C   UNL     1       9.375  -7.029  45.824  1.00  0.00     0.031 C 
BRANCH  30  31
ATOM     31  C   UNL     1       8.879  -8.465  45.795  1.00  0.00    -0.075 C 
ATOM     32  C   UNL     1       9.712  -9.436  45.382  1.00  0.00     0.008 C 
BRANCH  31  33
ATOM     33  C   UNL     1       7.399  -8.786  45.986  1.00  0.00     0.008 C 
ATOM     34  C   UNL     1       6.524  -7.527  46.007  1.00  0.00     0.012 C 
ATOM     35  C   UNL     1       6.922  -9.761  44.906  1.00  0.00     0.012 C 
ENDBRANCH  31  33
ENDBRANCH  30  31
ENDBRANCH   1  30
TORSDOF 7
ENDMDL
MODEL 5
REMARK VINA RESULT:    -4.862     11.492     14.499
REMARK INTER + INTRA:          -9.026
REMARK INTER:                  -6.563
REMARK INTRA:                  -2.462
REMARK UNBOUND:                -2.316
REMARK SMILES C=C(CC[C@@H](C(=O)[O-])[C@H]1CC[C@@]2(C)C3=C(CC[C@@]12C)[C@]1(C)CC[C@@H](O)C(C)(C)[C@@H]1CC3)C(C)C
REMARK SMILES IDX 4 1 5 2 6 3 7 4 8 5 9 6 10 7 18 8 11 9 12 10 17 11 19 12
REMARK SMILES IDX 13 13 14 14 16 15 15 16 31 17 20 18 30 19 29 20 22 21 21 22
REMARK SMILES IDX 26 23 23 24 24 25 27 26 28 27 25 28 3 30 2 31 1 32 32 33
REMARK SMILES IDX 33 34 34 35
REMARK H PARENT 25 29
REMARK Flexibility Score: inf
ROOT
ATOM      1  C   UNL     1       6.213 -15.985  42.567  1.00  0.00     0.014 C 
ENDROOT
BRANCH   1   2
ATOM      2  C   UNL     1       5.124 -15.276  43.420  1.00  0.00     0.039 C 
BRANCH   2   3
ATOM      3  C   UNL     1       4.404 -16.231  44.358  1.00  0.00     0.045 C 
ATOM      4  O   UNL     1       3.906 -15.802  45.433  1.00  0.00    -0.550 OA
ATOM      5  O   UNL     1       4.247 -17.576  44.046  1.00  0.00    -0.550 OA
ENDBRANCH   2   3
BRANCH   2   6
ATOM      6  C   UNL     1       5.669 -13.959  44.092  1.00  0.00     0.004 C 
ATOM      7  C   UNL     1       7.197 -13.947  44.286  1.00  0.00     0.006 C 
ATOM      8  C   UNL     1       5.277 -12.538  43.544  1.00  0.00    -0.020 C 
ATOM      9  C   UNL     1       7.674 -12.529  44.005  1.00  0.00     0.012 C 
ATOM     10  C   UNL     1       6.437 -11.614  44.072  1.00  0.00    -0.006 C 
ATOM     11  C   UNL     1       5.261 -12.504  42.002  1.00  0.00     0.012 C 
ATOM     12  C   UNL     1       3.875 -12.094  44.070  1.00  0.00     0.012 C 
ATOM     13  C   UNL     1       6.192 -11.213  45.563  1.00  0.00     0.017 C 
ATOM     14  C   UNL     1       6.715 -10.348  43.216  1.00  0.00    -0.064 C 
ATOM     15  C   UNL     1       5.084 -11.089  41.475  1.00  0.00     0.032 C 
ATOM     16  C   UNL     1       6.142 -10.129  41.992  1.00  0.00    -0.064 C 
ATOM     17  C   UNL     1       7.765  -9.372  43.699  1.00  0.00     0.032 C 
ATOM     18  C   UNL     1       6.552  -8.923  41.079  1.00  0.00    -0.008 C 
ATOM     19  C   UNL     1       7.306  -7.968  43.383  1.00  0.00     0.009 C 
ATOM     20  C   UNL     1       7.287  -7.728  41.854  1.00  0.00     0.007 C 
ATOM     21  C   UNL     1       7.427  -9.496  39.924  1.00  0.00     0.014 C 
ATOM     22  C   UNL     1       5.267  -8.326  40.435  1.00  0.00     0.016 C 
ATOM     23  C   UNL     1       8.661  -7.235  41.207  1.00  0.00    -0.006 C 
ATOM     24  C   UNL     1       8.872  -9.718  40.340  1.00  0.00     0.033 C 
ATOM     25  C   UNL     1       9.596  -8.430  40.787  1.00  0.00     0.120 C 
ATOM     26  C   UNL     1       8.342  -6.312  39.987  1.00  0.00     0.014 C 
ATOM     27  C   UNL     1       9.460  -6.328  42.185  1.00  0.00     0.014 C 
BRANCH  25  28
ATOM     28  O   UNL     1      10.485  -8.037  39.769  1.00  0.00    -0.393 OA
ATOM     29  H   UNL     1      11.114  -8.789  39.620  1.00  0.00     0.210 HD
ENDBRANCH  25  28
ENDBRANCH   2   6
ENDBRANCH   1   2
BRANCH   1  30
ATOM     30  C   UNL     1       6.069 -15.780  41.044  1.00  0.00     0.031 C 
BRANCH  30  31
ATOM     31  C   UNL     1       7.322 -15.274  40.349  1.00  0.00    -0.075 C 
ATOM     32  C   UNL     1       8.199 -16.164  39.852  1.00  0.00     0.008 C 
BRANCH  31  33
ATOM     33  C   UNL     1       7.720 -13.803  40.425  1.00  0.00     0.008 C 
ATOM     34  C   UNL     1       9.161 -13.608  40.909  1.00  0.00     0.012 C 
ATOM     35  C   UNL     1       7.506 -13.122  39.069  1.00  0.00     0.012 C 
ENDBRANCH  31  33
ENDBRANCH  30  31
ENDBRANCH   1  30
TORSDOF 7
ENDMDL
MODEL 6
REMARK VINA RESULT:    -4.858      3.031      5.287
REMARK INTER + INTRA:          -9.021
REMARK INTER:                  -7.309
REMARK INTRA:                  -1.711
REMARK UNBOUND:                -2.316
REMARK SMILES C=C(CC[C@@H](C(=O)[O-])[C@H]1CC[C@@]2(C)C3=C(CC[C@@]12C)[C@]1(C)CC[C@@H](O)C(C)(C)[C@@H]1CC3)C(C)C
REMARK SMILES IDX 4 1 5 2 6 3 7 4 8 5 9 6 10 7 18 8 11 9 12 10 17 11 19 12
REMARK SMILES IDX 13 13 14 14 16 15 15 16 31 17 20 18 30 19 29 20 22 21 21 22
REMARK SMILES IDX 26 23 23 24 24 25 27 26 28 27 25 28 3 30 2 31 1 32 32 33
REMARK SMILES IDX 33 34 34 35
REMARK H PARENT 25 29
REMARK Flexibility Score: inf
ROOT
ATOM      1  C   UNL     1       5.106  -7.659  30.509  1.00  0.00     0.014 C 
ENDROOT
BRANCH   1   2
ATOM      2  C   UNL     1       6.395  -8.380  30.024  1.00  0.00     0.039 C 
BRANCH   2   3
ATOM      3  C   UNL     1       6.169  -9.190  28.758  1.00  0.00     0.045 C 
ATOM      4  O   UNL     1       6.282 -10.445  28.784  1.00  0.00    -0.550 OA
ATOM      5  O   UNL     1       5.804  -8.583  27.563  1.00  0.00    -0.550 OA
ENDBRANCH   2   3
BRANCH   2   6
ATOM      6  C   UNL     1       7.635  -7.408  29.987  1.00  0.00     0.004 C 
ATOM      7  C   UNL     1       7.641  -6.366  31.122  1.00  0.00     0.006 C 
ATOM      8  C   UNL     1       9.104  -7.959  29.878  1.00  0.00    -0.020 C 
ATOM      9  C   UNL     1       9.086  -6.199  31.569  1.00  0.00     0.012 C 
ATOM     10  C   UNL     1       9.975  -6.781  30.455  1.00  0.00    -0.006 C 
ATOM     11  C   UNL     1       9.309  -9.217  30.748  1.00  0.00     0.012 C 
ATOM     12  C   UNL     1       9.471  -8.306  28.401  1.00  0.00     0.012 C 
ATOM     13  C   UNL     1      10.205  -5.679  29.371  1.00  0.00     0.017 C 
ATOM     14  C   UNL     1      11.331  -7.208  31.080  1.00  0.00    -0.064 C 
ATOM     15  C   UNL     1      10.771  -9.627  30.803  1.00  0.00     0.032 C 
ATOM     16  C   UNL     1      11.679  -8.515  31.299  1.00  0.00    -0.064 C 
ATOM     17  C   UNL     1      12.259  -6.126  31.589  1.00  0.00     0.032 C 
ATOM     18  C   UNL     1      12.984  -8.916  32.069  1.00  0.00    -0.008 C 
ATOM     19  C   UNL     1      13.684  -6.529  31.294  1.00  0.00     0.009 C 
ATOM     20  C   UNL     1      14.093  -7.761  32.137  1.00  0.00     0.007 C 
ATOM     21  C   UNL     1      12.552  -9.396  33.488  1.00  0.00     0.014 C 
ATOM     22  C   UNL     1      13.635 -10.131  31.347  1.00  0.00     0.016 C 
ATOM     23  C   UNL     1      14.669  -7.450  33.594  1.00  0.00    -0.006 C 
ATOM     24  C   UNL     1      12.301  -8.241  34.444  1.00  0.00     0.033 C 
ATOM     25  C   UNL     1      13.538  -7.351  34.685  1.00  0.00     0.120 C 
ATOM     26  C   UNL     1      15.718  -8.546  33.966  1.00  0.00     0.014 C 
ATOM     27  C   UNL     1      15.470  -6.117  33.619  1.00  0.00     0.014 C 
BRANCH  25  28
ATOM     28  O   UNL     1      14.051  -7.630  35.965  1.00  0.00    -0.393 OA
ATOM     29  H   UNL     1      13.629  -8.473  36.274  1.00  0.00     0.210 HD
ENDBRANCH  25  28
ENDBRANCH   2   6
ENDBRANCH   1   2
BRANCH   1  30
ATOM     30  C   UNL     1       4.403  -8.334  31.705  1.00  0.00     0.031 C 
BRANCH  30  31
ATOM     31  C   UNL     1       4.708  -7.710  33.057  1.00  0.00    -0.075 C 
ATOM     32  C   UNL     1       4.513  -6.391  33.226  1.00  0.00     0.008 C 
BRANCH  31  33
ATOM     33  C   UNL     1       5.454  -8.495  34.132  1.00  0.00     0.008 C 
ATOM     34  C   UNL     1       4.687  -9.743  34.586  1.00  0.00     0.012 C 
ATOM     35  C   UNL     1       6.857  -8.869  33.642  1.00  0.00     0.012 C 
ENDBRANCH  31  33
ENDBRANCH  30  31
ENDBRANCH   1  30
TORSDOF 7
ENDMDL
MODEL 7
REMARK VINA RESULT:    -4.798      2.231      7.807
REMARK INTER + INTRA:          -8.938
REMARK INTER:                  -6.632
REMARK INTRA:                  -2.306
REMARK UNBOUND:                -2.316
REMARK SMILES C=C(CC[C@@H](C(=O)[O-])[C@H]1CC[C@@]2(C)C3=C(CC[C@@]12C)[C@]1(C)CC[C@@H](O)C(C)(C)[C@@H]1CC3)C(C)C
REMARK SMILES IDX 4 1 5 2 6 3 7 4 8 5 9 6 10 7 18 8 11 9 12 10 17 11 19 12
REMARK SMILES IDX 13 13 14 14 16 15 15 16 31 17 20 18 30 19 29 20 22 21 21 22
REMARK SMILES IDX 26 23 23 24 24 25 27 26 28 27 25 28 3 30 2 31 1 32 32 33
REMARK SMILES IDX 33 34 34 35
REMARK H PARENT 25 29
REMARK Flexibility Score: inf
ROOT
ATOM      1  C   UNL     1      13.872  -7.051  30.714  1.00  0.00     0.014 C 
ENDROOT
BRANCH   1   2
ATOM      2  C   UNL     1      13.057  -6.126  29.767  1.00  0.00     0.039 C 
BRANCH   2   3
ATOM      3  C   UNL     1      13.945  -5.295  28.856  1.00  0.00     0.045 C 
ATOM      4  O   UNL     1      13.533  -4.952  27.716  1.00  0.00    -0.550 OA
ATOM      5  O   UNL     1      15.203  -4.867  29.261  1.00  0.00    -0.550 OA
ENDBRANCH   2   3
BRANCH   2   6
ATOM      6  C   UNL     1      11.894  -6.904  29.042  1.00  0.00     0.004 C 
ATOM      7  C   UNL     1      12.033  -8.437  29.114  1.00  0.00     0.006 C 
ATOM      8  C   UNL     1      10.383  -6.578  29.335  1.00  0.00    -0.020 C 
ATOM      9  C   UNL     1      10.633  -9.006  29.297  1.00  0.00     0.012 C 
ATOM     10  C   UNL     1       9.639  -7.897  28.906  1.00  0.00    -0.006 C 
ATOM     11  C   UNL     1      10.135  -6.319  30.836  1.00  0.00     0.012 C 
ATOM     12  C   UNL     1       9.905  -5.332  28.526  1.00  0.00     0.012 C 
ATOM     13  C   UNL     1       9.429  -7.937  27.357  1.00  0.00     0.017 C 
ATOM     14  C   UNL     1       8.293  -8.163  29.635  1.00  0.00    -0.064 C 
ATOM     15  C   UNL     1       8.652  -6.207  31.146  1.00  0.00     0.032 C 
ATOM     16  C   UNL     1       7.861  -7.427  30.706  1.00  0.00    -0.064 C 
ATOM     17  C   UNL     1       7.482  -9.372  29.223  1.00  0.00     0.032 C 
ATOM     18  C   UNL     1       6.577  -7.807  31.520  1.00  0.00    -0.008 C 
ATOM     19  C   UNL     1       6.015  -9.016  29.281  1.00  0.00     0.009 C 
ATOM     20  C   UNL     1       5.565  -8.776  30.742  1.00  0.00     0.007 C 
ATOM     21  C   UNL     1       7.054  -8.423  32.871  1.00  0.00     0.014 C 
ATOM     22  C   UNL     1       5.795  -6.505  31.854  1.00  0.00     0.016 C 
ATOM     23  C   UNL     1       5.100 -10.072  31.551  1.00  0.00    -0.006 C 
ATOM     24  C   UNL     1       7.447  -9.886  32.740  1.00  0.00     0.033 C 
ATOM     25  C   UNL     1       6.297 -10.801  32.269  1.00  0.00     0.120 C 
ATOM     26  C   UNL     1       3.994  -9.659  32.575  1.00  0.00     0.014 C 
ATOM     27  C   UNL     1       4.405 -11.107  30.621  1.00  0.00     0.014 C 
BRANCH  25  28
ATOM     28  O   UNL     1       5.841 -11.550  33.369  1.00  0.00    -0.393 OA
ATOM     29  H   UNL     1       6.634 -11.786  33.915  1.00  0.00     0.210 HD
ENDBRANCH  25  28
ENDBRANCH   2   6
ENDBRANCH   1   2
BRANCH   1  30
ATOM     30  C   UNL     1      13.632  -6.802  32.218  1.00  0.00     0.031 C 
BRANCH  30  31
ATOM     31  C   UNL     1      12.916  -7.929  32.943  1.00  0.00    -0.075 C 
ATOM     32  C   UNL     1      13.180  -9.200  32.597  1.00  0.00     0.008 C 
BRANCH  31  33
ATOM     33  C   UNL     1      11.739  -7.640  33.870  1.00  0.00     0.008 C 
ATOM     34  C   UNL     1      10.627  -8.688  33.751  1.00  0.00     0.012 C 
ATOM     35  C   UNL     1      12.219  -7.521  35.320  1.00  0.00     0.012 C 
ENDBRANCH  31  33
ENDBRANCH  30  31
ENDBRANCH   1  30
TORSDOF 7
ENDMDL
MODEL 8
REMARK VINA RESULT:    -4.795      3.111      5.761
REMARK INTER + INTRA:          -8.933
REMARK INTER:                  -7.022
REMARK INTRA:                  -1.910
REMARK UNBOUND:                -2.316
REMARK SMILES C=C(CC[C@@H](C(=O)[O-])[C@H]1CC[C@@]2(C)C3=C(CC[C@@]12C)[C@]1(C)CC[C@@H](O)C(C)(C)[C@@H]1CC3)C(C)C
REMARK SMILES IDX 4 1 5 2 6 3 7 4 8 5 9 6 10 7 18 8 11 9 12 10 17 11 19 12
REMARK SMILES IDX 13 13 14 14 16 15 15 16 31 17 20 18 30 19 29 20 22 21 21 22
REMARK SMILES IDX 26 23 23 24 24 25 27 26 28 27 25 28 3 30 2 31 1 32 32 33
REMARK SMILES IDX 33 34 34 35
REMARK H PARENT 25 29
REMARK Flexibility Score: inf
ROOT
ATOM      1  C   UNL     1       5.332  -7.629  30.382  1.00  0.00     0.014 C 
ENDROOT
BRANCH   1   2
ATOM      2  C   UNL     1       6.539  -8.280  29.649  1.00  0.00     0.039 C 
BRANCH   2   3
ATOM      3  C   UNL     1       6.209  -8.676  28.220  1.00  0.00     0.045 C 
ATOM      4  O   UNL     1       5.428  -9.640  27.998  1.00  0.00    -0.550 OA
ATOM      5  O   UNL     1       6.722  -7.977  27.135  1.00  0.00    -0.550 OA
ENDBRANCH   2   3
BRANCH   2   6
ATOM      6  C   UNL     1       7.858  -7.436  29.824  1.00  0.00     0.004 C 
ATOM      7  C   UNL     1       7.753  -6.334  30.895  1.00  0.00     0.006 C 
ATOM      8  C   UNL     1       9.253  -8.132  30.034  1.00  0.00    -0.020 C 
ATOM      9  C   UNL     1       9.093  -6.281  31.617  1.00  0.00     0.012 C 
ATOM     10  C   UNL     1      10.115  -7.012  30.728  1.00  0.00    -0.006 C 
ATOM     11  C   UNL     1       9.148  -9.350  30.976  1.00  0.00     0.012 C 
ATOM     12  C   UNL     1       9.864  -8.600  28.676  1.00  0.00     0.012 C 
ATOM     13  C   UNL     1      10.669  -6.004  29.670  1.00  0.00     0.017 C 
ATOM     14  C   UNL     1      11.269  -7.530  31.629  1.00  0.00    -0.064 C 
ATOM     15  C   UNL     1      10.519  -9.895  31.340  1.00  0.00     0.032 C 
ATOM     16  C   UNL     1      11.425  -8.849  31.965  1.00  0.00    -0.064 C 
ATOM     17  C   UNL     1      12.188  -6.514  32.271  1.00  0.00     0.032 C 
ATOM     18  C   UNL     1      12.504  -9.328  32.997  1.00  0.00    -0.008 C 
ATOM     19  C   UNL     1      13.593  -7.070  32.285  1.00  0.00     0.009 C 
ATOM     20  C   UNL     1      13.695  -8.283  33.241  1.00  0.00     0.007 C 
ATOM     21  C   UNL     1      11.754  -9.678  34.318  1.00  0.00     0.014 C 
ATOM     22  C   UNL     1      13.150 -10.641  32.468  1.00  0.00     0.016 C 
ATOM     23  C   UNL     1      14.004  -7.943  34.770  1.00  0.00    -0.006 C 
ATOM     24  C   UNL     1      11.444  -8.449  35.158  1.00  0.00     0.033 C 
ATOM     25  C   UNL     1      12.698  -7.670  35.607  1.00  0.00     0.120 C 
ATOM     26  C   UNL     1      14.837  -9.111  35.389  1.00  0.00     0.014 C 
ATOM     27  C   UNL     1      14.922  -6.695  34.903  1.00  0.00     0.014 C 
BRANCH  25  28
ATOM     28  O   UNL     1      12.917  -7.920  36.974  1.00  0.00    -0.393 OA
ATOM     29  H   UNL     1      12.271  -8.619  37.253  1.00  0.00     0.210 HD
ENDBRANCH  25  28
ENDBRANCH   2   6
ENDBRANCH   1   2
BRANCH   1  30
ATOM     30  C   UNL     1       4.763  -8.463  31.548  1.00  0.00     0.031 C 
BRANCH  30  31
ATOM     31  C   UNL     1       4.858  -7.799  32.912  1.00  0.00    -0.075 C 
ATOM     32  C   UNL     1       4.531  -6.500  33.030  1.00  0.00     0.008 C 
BRANCH  31  33
ATOM     33  C   UNL     1       5.546  -8.501  34.079  1.00  0.00     0.008 C 
ATOM     34  C   UNL     1       4.757  -9.718  34.578  1.00  0.00     0.012 C 
ATOM     35  C   UNL     1       6.974  -8.900  33.695  1.00  0.00     0.012 C 
ENDBRANCH  31  33
ENDBRANCH  30  31
ENDBRANCH   1  30
TORSDOF 7
ENDMDL
MODEL 9
REMARK VINA RESULT:    -4.674     16.021     18.247
REMARK INTER + INTRA:          -8.767
REMARK INTER:                  -6.190
REMARK INTRA:                  -2.577
REMARK UNBOUND:                -2.316
REMARK SMILES C=C(CC[C@@H](C(=O)[O-])[C@H]1CC[C@@]2(C)C3=C(CC[C@@]12C)[C@]1(C)CC[C@@H](O)C(C)(C)[C@@H]1CC3)C(C)C
REMARK SMILES IDX 4 1 5 2 6 3 7 4 8 5 9 6 10 7 18 8 11 9 12 10 17 11 19 12
REMARK SMILES IDX 13 13 14 14 16 15 15 16 31 17 20 18 30 19 29 20 22 21 21 22
REMARK SMILES IDX 26 23 23 24 24 25 27 26 28 27 25 28 3 30 2 31 1 32 32 33
REMARK SMILES IDX 33 34 34 35
REMARK H PARENT 25 29
REMARK Flexibility Score: inf
ROOT
ATOM      1  C   UNL     1      15.806 -18.954  40.640  1.00  0.00     0.014 C 
ENDROOT
BRANCH   1   2
ATOM      2  C   UNL     1      16.182 -19.213  42.125  1.00  0.00     0.039 C 
BRANCH   2   3
ATOM      3  C   UNL     1      15.582 -20.501  42.664  1.00  0.00     0.045 C 
ATOM      4  O   UNL     1      16.328 -21.381  43.170  1.00  0.00    -0.550 OA
ATOM      5  O   UNL     1      14.211 -20.727  42.645  1.00  0.00    -0.550 OA
ENDBRANCH   2   3
BRANCH   2   6
ATOM      6  C   UNL     1      17.727 -19.036  42.380  1.00  0.00     0.004 C 
ATOM      7  C   UNL     1      18.566 -18.969  41.089  1.00  0.00     0.006 C 
ATOM      8  C   UNL     1      18.276 -17.907  43.329  1.00  0.00    -0.020 C 
ATOM      9  C   UNL     1      19.664 -17.940  41.321  1.00  0.00     0.012 C 
ATOM     10  C   UNL     1      19.761 -17.716  42.841  1.00  0.00    -0.006 C 
ATOM     11  C   UNL     1      17.506 -16.582  43.147  1.00  0.00     0.012 C 
ATOM     12  C   UNL     1      18.190 -18.335  44.828  1.00  0.00     0.012 C 
ATOM     13  C   UNL     1      20.691 -18.814  43.451  1.00  0.00     0.017 C 
ATOM     14  C   UNL     1      20.362 -16.306  43.093  1.00  0.00    -0.064 C 
ATOM     15  C   UNL     1      18.164 -15.444  43.909  1.00  0.00     0.032 C 
ATOM     16  C   UNL     1      19.620 -15.239  43.526  1.00  0.00    -0.064 C 
ATOM     17  C   UNL     1      21.809 -16.066  42.720  1.00  0.00     0.032 C 
ATOM     18  C   UNL     1      20.212 -13.792  43.627  1.00  0.00    -0.008 C 
ATOM     19  C   UNL     1      22.431 -15.153  43.750  1.00  0.00     0.009 C 
ATOM     20  C   UNL     1      21.814 -13.736  43.673  1.00  0.00     0.007 C 
ATOM     21  C   UNL     1      19.633 -12.973  42.435  1.00  0.00     0.014 C 
ATOM     22  C   UNL     1      19.696 -13.133  44.938  1.00  0.00     0.016 C 
ATOM     23  C   UNL     1      22.493 -12.734  42.632  1.00  0.00    -0.006 C 
ATOM     24  C   UNL     1      20.378 -13.226  41.134  1.00  0.00     0.033 C 
ATOM     25  C   UNL     1      21.873 -12.846  41.189  1.00  0.00     0.120 C 
ATOM     26  C   UNL     1      22.378 -11.277  43.185  1.00  0.00     0.014 C 
ATOM     27  C   UNL     1      24.023 -12.986  42.511  1.00  0.00     0.014 C 
BRANCH  25  28
ATOM     28  O   UNL     1      22.059 -11.651  40.469  1.00  0.00    -0.393 OA
ATOM     29  H   UNL     1      22.487 -11.000  41.083  1.00  0.00     0.210 HD
ENDBRANCH  25  28
ENDBRANCH   2   6
ENDBRANCH   1   2
BRANCH   1  30
ATOM     30  C   UNL     1      15.402 -17.499  40.324  1.00  0.00     0.031 C 
BRANCH  30  31
ATOM     31  C   UNL     1      16.281 -16.803  39.298  1.00  0.00    -0.075 C 
ATOM     32  C   UNL     1      16.254 -17.223  38.021  1.00  0.00     0.008 C 
BRANCH  31  33
ATOM     33  C   UNL     1      17.361 -15.816  39.732  1.00  0.00     0.008 C 
ATOM     34  C   UNL     1      18.441 -15.620  38.663  1.00  0.00     0.012 C 
ATOM     35  C   UNL     1      16.732 -14.474  40.121  1.00  0.00     0.012 C 
ENDBRANCH  31  33
ENDBRANCH  30  31
ENDBRANCH   1  30
TORSDOF 7
ENDMDL
