MODEL 1
REMARK VINA RESULT:    -3.551      0.000      0.000
REMARK INTER + INTRA:          -5.733
REMARK INTER:                  -5.420
REMARK INTRA:                  -0.314
REMARK UNBOUND:                -0.314
REMARK SMILES CC1=CCC[C@@H](C)C(=O)C[C@H](C(C)C)C(=O)C1
REMARK SMILES IDX 8 1 9 2 6 3 7 4 5 5 4 6 3 7 2 8 1 9 10 11 11 12 15 13 16 14
REMARK SMILES IDX 17 15 12 17 13 18 14 19
REMARK H PARENT
REMARK Flexibility Score: 70.00
ROOT
ATOM      1  C   UNL     1      39.017 -40.671  -3.806  1.00  0.00     0.136 C 
ATOM      2  O   UNL     1      38.159 -41.472  -4.152  1.00  0.00    -0.299 OA
ENDROOT
BRANCH   1   3
ATOM      3  C   UNL     1      39.959 -40.090  -4.843  1.00  0.00     0.053 C 
ATOM      4  C   UNL     1      39.155 -39.625  -6.062  1.00  0.00     0.016 C 
BRANCH   3   5
ATOM      5  C   UNL     1      41.040 -41.105  -5.271  1.00  0.00     0.015 C 
BRANCH   5   6
ATOM      6  C   UNL     1      42.460 -40.773  -4.779  1.00  0.00     0.028 C 
BRANCH   6   7
ATOM      7  C   UNL     1      42.653 -39.322  -4.404  1.00  0.00    -0.028 C 
ATOM      8  C   UNL     1      42.906 -38.814  -3.169  1.00  0.00    -0.070 CG0
ATOM      9  C   UNL     1      43.172 -37.332  -3.051  1.00  0.00     0.039 C 
ATOM     10  G   UNL     1      42.782 -39.582  -1.860  1.00  0.00     0.000 G0
ENDBRANCH   6   7
ENDBRANCH   5   6
ENDBRANCH   3   5
ENDBRANCH   1   3
BRANCH   1  11
ATOM     11  C   UNL     1      39.087 -40.256  -2.359  1.00  0.00     0.087 C 
BRANCH  11  12
ATOM     12  C   UNL     1      40.381 -40.761  -1.659  1.00  0.00     0.066 C 
BRANCH  12  13
ATOM     13  C   UNL     1      41.369 -39.661  -1.268  1.00  0.00     0.140 C 
ATOM     14  O   UNL     1      40.970 -38.758  -0.547  1.00  0.00    -0.299 OA
BRANCH  13  15
ATOM     15  C   UNL     1      42.771 -39.565  -1.821  1.00  0.00     0.106 CG0
ATOM     16  G   UNL     1      42.884 -38.857  -3.164  1.00  0.00     0.000 G0
ENDBRANCH  13  15
ENDBRANCH  12  13
BRANCH  12  17
ATOM     17  C   UNL     1      40.099 -41.687  -0.436  1.00  0.00    -0.006 C 
ATOM     18  C   UNL     1      38.934 -41.171   0.426  1.00  0.00     0.008 C 
ATOM     19  C   UNL     1      41.334 -41.936   0.443  1.00  0.00     0.008 C 
ENDBRANCH  12  17
ENDBRANCH  11  12
ENDBRANCH   1  11
TORSDOF 1
ENDMDL
MODEL 2
REMARK VINA RESULT:    -3.350      1.924      4.983
REMARK INTER + INTRA:          -5.427
REMARK INTER:                  -5.478
REMARK INTRA:                   0.051
REMARK UNBOUND:                -0.314
REMARK SMILES CC1=CCC[C@@H](C)C(=O)C[C@H](C(C)C)C(=O)C1
REMARK SMILES IDX 8 1 9 2 6 3 7 4 5 5 4 6 3 7 2 8 1 9 10 11 11 12 15 13 16 14
REMARK SMILES IDX 17 15 12 17 13 18 14 19
REMARK H PARENT
REMARK Flexibility Score: 70.00
ROOT
ATOM      1  C   UNL     1      42.470 -38.815  -1.694  1.00  0.00     0.136 C 
ATOM      2  O   UNL     1      41.770 -37.816  -1.601  1.00  0.00    -0.299 OA
ENDROOT
BRANCH   1   3
ATOM      3  C   UNL     1      42.757 -39.644  -0.457  1.00  0.00     0.053 C 
ATOM      4  C   UNL     1      43.337 -41.000  -0.872  1.00  0.00     0.016 C 
BRANCH   3   5
ATOM      5  C   UNL     1      41.495 -39.844   0.408  1.00  0.00     0.015 C 
BRANCH   5   6
ATOM      6  C   UNL     1      40.413 -40.732  -0.233  1.00  0.00     0.028 C 
BRANCH   6   7
ATOM      7  C   UNL     1      39.266 -39.956  -0.838  1.00  0.00    -0.028 C 
ATOM      8  C   UNL     1      38.800 -40.028  -2.113  1.00  0.00    -0.070 CG0
ATOM      9  C   UNL     1      37.564 -39.233  -2.462  1.00  0.00     0.039 C 
ATOM     10  G   UNL     1      39.511 -40.711  -3.271  1.00  0.00     0.000 G0
ENDBRANCH   6   7
ENDBRANCH   5   6
ENDBRANCH   3   5
ENDBRANCH   1   3
BRANCH   1  11
ATOM     11  C   UNL     1      42.995 -39.216  -3.049  1.00  0.00     0.087 C 
BRANCH  11  12
ATOM     12  C   UNL     1      42.127 -40.319  -3.719  1.00  0.00     0.066 C 
BRANCH  12  13
ATOM     13  C   UNL     1      40.656 -39.949  -3.908  1.00  0.00     0.140 C 
ATOM     14  O   UNL     1      40.394 -38.922  -4.517  1.00  0.00    -0.299 OA
BRANCH  13  15
ATOM     15  C   UNL     1      39.516 -40.718  -3.282  1.00  0.00     0.106 CG0
ATOM     16  G   UNL     1      38.821 -40.007  -2.129  1.00  0.00     0.000 G0
ENDBRANCH  13  15
ENDBRANCH  12  13
BRANCH  12  17
ATOM     17  C   UNL     1      42.725 -40.843  -5.062  1.00  0.00    -0.006 C 
ATOM     18  C   UNL     1      41.691 -41.622  -5.891  1.00  0.00     0.008 C 
ATOM     19  C   UNL     1      43.997 -41.686  -4.879  1.00  0.00     0.008 C 
ENDBRANCH  12  17
ENDBRANCH  11  12
ENDBRANCH   1  11
TORSDOF 1
ENDMDL
MODEL 3
REMARK VINA RESULT:    -3.272      3.011      4.491
REMARK INTER + INTRA:          -5.308
REMARK INTER:                  -4.844
REMARK INTRA:                  -0.464
REMARK UNBOUND:                -0.314
REMARK SMILES CC1=CCC[C@@H](C)C(=O)C[C@H](C(C)C)C(=O)C1
REMARK SMILES IDX 8 1 9 2 6 3 7 4 5 5 4 6 3 7 2 8 1 9 10 11 11 12 15 13 16 14
REMARK SMILES IDX 17 15 12 17 13 18 14 19
REMARK H PARENT
REMARK Flexibility Score: 70.00
ROOT
ATOM      1  C   UNL     1      40.747 -40.483  -4.647  1.00  0.00     0.136 C 
ATOM      2  O   UNL     1      40.434 -41.241  -3.738  1.00  0.00    -0.299 OA
ENDROOT
BRANCH   1   3
ATOM      3  C   UNL     1      42.191 -40.045  -4.792  1.00  0.00     0.053 C 
ATOM      4  C   UNL     1      43.083 -41.277  -4.982  1.00  0.00     0.016 C 
BRANCH   3   5
ATOM      5  C   UNL     1      42.668 -39.222  -3.577  1.00  0.00     0.015 C 
BRANCH   5   6
ATOM      6  C   UNL     1      41.898 -37.909  -3.350  1.00  0.00     0.028 C 
BRANCH   6   7
ATOM      7  C   UNL     1      42.003 -36.934  -4.500  1.00  0.00    -0.028 C 
ATOM      8  C   UNL     1      41.001 -36.205  -5.060  1.00  0.00    -0.070 CG0
ATOM      9  C   UNL     1      41.365 -35.207  -6.134  1.00  0.00     0.039 C 
ATOM     10  G   UNL     1      39.514 -36.423  -4.818  1.00  0.00     0.000 G0
ENDBRANCH   6   7
ENDBRANCH   5   6
ENDBRANCH   3   5
ENDBRANCH   1   3
BRANCH   1  11
ATOM     11  C   UNL     1      39.687 -40.035  -5.621  1.00  0.00     0.087 C 
BRANCH  11  12
ATOM     12  C   UNL     1      38.741 -38.960  -5.015  1.00  0.00     0.066 C 
BRANCH  12  13
ATOM     13  C   UNL     1      38.901 -37.558  -5.607  1.00  0.00     0.140 C 
ATOM     14  O   UNL     1      38.619 -37.395  -6.785  1.00  0.00    -0.299 OA
BRANCH  13  15
ATOM     15  C   UNL     1      39.502 -36.398  -4.849  1.00  0.00     0.106 CG0
ATOM     16  G   UNL     1      40.999 -36.209  -5.048  1.00  0.00     0.000 G0
ENDBRANCH  13  15
ENDBRANCH  12  13
BRANCH  12  17
ATOM     17  C   UNL     1      37.238 -39.380  -5.032  1.00  0.00    -0.006 C 
ATOM     18  C   UNL     1      36.365 -38.444  -4.182  1.00  0.00     0.008 C 
ATOM     19  C   UNL     1      37.006 -40.841  -4.616  1.00  0.00     0.008 C 
ENDBRANCH  12  17
ENDBRANCH  11  12
ENDBRANCH   1  11
TORSDOF 1
ENDMDL
MODEL 4
REMARK VINA RESULT:    -3.076      2.305      3.732
REMARK INTER + INTRA:          -5.007
REMARK INTER:                  -4.557
REMARK INTRA:                  -0.450
REMARK UNBOUND:                -0.314
REMARK SMILES CC1=CCC[C@@H](C)C(=O)C[C@H](C(C)C)C(=O)C1
REMARK SMILES IDX 8 1 9 2 6 3 7 4 5 5 4 6 3 7 2 8 1 9 10 11 11 12 15 13 16 14
REMARK SMILES IDX 17 15 12 17 13 18 14 19
REMARK H PARENT
REMARK Flexibility Score: 70.00
ROOT
ATOM      1  C   UNL     1      39.186 -38.554  -4.411  1.00  0.00     0.136 C 
ATOM      2  O   UNL     1      38.329 -38.933  -5.197  1.00  0.00    -0.299 OA
ENDROOT
BRANCH   1   3
ATOM      3  C   UNL     1      39.380 -37.069  -4.176  1.00  0.00     0.053 C 
ATOM      4  C   UNL     1      38.022 -36.361  -4.218  1.00  0.00     0.016 C 
BRANCH   3   5
ATOM      5  C   UNL     1      40.340 -36.443  -5.211  1.00  0.00     0.015 C 
BRANCH   5   6
ATOM      6  C   UNL     1      41.587 -35.773  -4.605  1.00  0.00     0.028 C 
BRANCH   6   7
ATOM      7  C   UNL     1      41.683 -35.909  -3.103  1.00  0.00    -0.028 C 
ATOM      8  C   UNL     1      42.490 -36.747  -2.399  1.00  0.00    -0.070 CG0
ATOM      9  C   UNL     1      42.495 -36.629  -0.893  1.00  0.00     0.039 C 
ATOM     10  G   UNL     1      43.273 -37.913  -2.985  1.00  0.00     0.000 G0
ENDBRANCH   6   7
ENDBRANCH   5   6
ENDBRANCH   3   5
ENDBRANCH   1   3
BRANCH   1  11
ATOM     11  C   UNL     1      40.002 -39.581  -3.668  1.00  0.00     0.087 C 
BRANCH  11  12
ATOM     12  C   UNL     1      41.490 -39.595  -4.119  1.00  0.00     0.066 C 
BRANCH  12  13
ATOM     13  C   UNL     1      42.497 -39.251  -3.021  1.00  0.00     0.140 C 
ATOM     14  O   UNL     1      42.607 -40.021  -2.078  1.00  0.00    -0.299 OA
BRANCH  13  15
ATOM     15  C   UNL     1      43.270 -37.954  -2.977  1.00  0.00     0.106 CG0
ATOM     16  G   UNL     1      42.503 -36.769  -2.407  1.00  0.00     0.000 G0
ENDBRANCH  13  15
ENDBRANCH  12  13
BRANCH  12  17
ATOM     17  C   UNL     1      41.906 -40.921  -4.830  1.00  0.00    -0.006 C 
ATOM     18  C   UNL     1      43.354 -40.872  -5.346  1.00  0.00     0.008 C 
ATOM     19  C   UNL     1      40.956 -41.332  -5.965  1.00  0.00     0.008 C 
ENDBRANCH  12  17
ENDBRANCH  11  12
ENDBRANCH   1  11
TORSDOF 1
ENDMDL
MODEL 5
REMARK VINA RESULT:    -3.012      2.212      3.490
REMARK INTER + INTRA:          -4.911
REMARK INTER:                  -5.076
REMARK INTRA:                   0.165
REMARK UNBOUND:                -0.314
REMARK SMILES CC1=CCC[C@@H](C)C(=O)C[C@H](C(C)C)C(=O)C1
REMARK SMILES IDX 8 1 9 2 6 3 7 4 5 5 4 6 3 7 2 8 1 9 10 11 11 12 15 13 16 14
REMARK SMILES IDX 17 15 12 17 13 18 14 19
REMARK H PARENT
REMARK Flexibility Score: 70.00
ROOT
ATOM      1  C   UNL     1      42.782 -40.020  -3.289  1.00  0.00     0.136 C 
ATOM      2  O   UNL     1      43.185 -38.893  -3.542  1.00  0.00    -0.299 OA
ENDROOT
BRANCH   1   3
ATOM      3  C   UNL     1      42.278 -40.904  -4.413  1.00  0.00     0.053 C 
ATOM      4  C   UNL     1      43.391 -41.101  -5.448  1.00  0.00     0.016 C 
BRANCH   3   5
ATOM      5  C   UNL     1      41.019 -40.318  -5.086  1.00  0.00     0.015 C 
BRANCH   5   6
ATOM      6  C   UNL     1      39.688 -40.794  -4.479  1.00  0.00     0.028 C 
BRANCH   6   7
ATOM      7  C   UNL     1      38.823 -39.673  -3.948  1.00  0.00    -0.028 C 
ATOM      8  C   UNL     1      38.914 -39.061  -2.738  1.00  0.00    -0.070 CG0
ATOM      9  C   UNL     1      38.008 -37.883  -2.469  1.00  0.00     0.039 C 
ATOM     10  G   UNL     1      39.737 -39.562  -1.559  1.00  0.00     0.000 G0
ENDBRANCH   6   7
ENDBRANCH   5   6
ENDBRANCH   3   5
ENDBRANCH   1   3
BRANCH   1  11
ATOM     11  C   UNL     1      42.834 -40.511  -1.864  1.00  0.00     0.087 C 
BRANCH  11  12
ATOM     12  C   UNL     1      42.307 -39.453  -0.853  1.00  0.00     0.066 C 
BRANCH  12  13
ATOM     13  C   UNL     1      40.991 -38.784  -1.252  1.00  0.00     0.140 C 
ATOM     14  O   UNL     1      40.941 -37.563  -1.245  1.00  0.00    -0.299 OA
BRANCH  13  15
ATOM     15  C   UNL     1      39.721 -39.550  -1.536  1.00  0.00     0.106 CG0
ATOM     16  G   UNL     1      38.933 -39.060  -2.743  1.00  0.00     0.000 G0
ENDBRANCH  13  15
ENDBRANCH  12  13
BRANCH  12  17
ATOM     17  C   UNL     1      42.213 -39.991   0.609  1.00  0.00    -0.006 C 
ATOM     18  C   UNL     1      43.113 -39.203   1.575  1.00  0.00     0.008 C 
ATOM     19  C   UNL     1      42.501 -41.496   0.728  1.00  0.00     0.008 C 
ENDBRANCH  12  17
ENDBRANCH  11  12
ENDBRANCH   1  11
TORSDOF 1
ENDMDL
MODEL 6
REMARK VINA RESULT:    -2.975      2.063      3.668
REMARK INTER + INTRA:          -4.853
REMARK INTER:                  -4.337
REMARK INTRA:                  -0.516
REMARK UNBOUND:                -0.314
REMARK SMILES CC1=CCC[C@@H](C)C(=O)C[C@H](C(C)C)C(=O)C1
REMARK SMILES IDX 8 1 9 2 6 3 7 4 5 5 4 6 3 7 2 8 1 9 10 11 11 12 15 13 16 14
REMARK SMILES IDX 17 15 12 17 13 18 14 19
REMARK H PARENT
REMARK Flexibility Score: 70.00
ROOT
ATOM      1  C   UNL     1      39.465 -37.399  -3.615  1.00  0.00     0.136 C 
ATOM      2  O   UNL     1      38.808 -37.053  -4.587  1.00  0.00    -0.299 OA
ENDROOT
BRANCH   1   3
ATOM      3  C   UNL     1      40.522 -36.467  -3.056  1.00  0.00     0.053 C 
ATOM      4  C   UNL     1      39.976 -35.035  -3.022  1.00  0.00     0.016 C 
BRANCH   3   5
ATOM      5  C   UNL     1      41.829 -36.521  -3.874  1.00  0.00     0.015 C 
BRANCH   5   6
ATOM      6  C   UNL     1      42.960 -37.336  -3.221  1.00  0.00     0.028 C 
BRANCH   6   7
ATOM      7  C   UNL     1      42.770 -37.564  -1.739  1.00  0.00    -0.028 C 
ATOM      8  C   UNL     1      42.642 -38.755  -1.096  1.00  0.00    -0.070 CG0
ATOM      9  C   UNL     1      42.572 -38.742   0.413  1.00  0.00     0.039 C 
ATOM     10  G   UNL     1      42.393 -40.096  -1.771  1.00  0.00     0.000 G0
ENDBRANCH   6   7
ENDBRANCH   5   6
ENDBRANCH   3   5
ENDBRANCH   1   3
BRANCH   1  11
ATOM     11  C   UNL     1      39.176 -38.734  -2.976  1.00  0.00     0.087 C 
BRANCH  11  12
ATOM     12  C   UNL     1      40.252 -39.802  -3.324  1.00  0.00     0.066 C 
BRANCH  12  13
ATOM     13  C   UNL     1      40.957 -40.418  -2.115  1.00  0.00     0.140 C 
ATOM     14  O   UNL     1      40.298 -41.112  -1.355  1.00  0.00    -0.299 OA
BRANCH  13  15
ATOM     15  C   UNL     1      42.390 -40.117  -1.745  1.00  0.00     0.106 CG0
ATOM     16  G   UNL     1      42.614 -38.758  -1.098  1.00  0.00     0.000 G0
ENDBRANCH  13  15
ENDBRANCH  12  13
BRANCH  12  17
ATOM     17  C   UNL     1      39.721 -40.928  -4.265  1.00  0.00    -0.006 C 
ATOM     18  C   UNL     1      40.536 -41.028  -5.565  1.00  0.00     0.008 C 
ATOM     19  C   UNL     1      38.224 -40.800  -4.590  1.00  0.00     0.008 C 
ENDBRANCH  12  17
ENDBRANCH  11  12
ENDBRANCH   1  11
TORSDOF 1
ENDMDL
MODEL 7
REMARK VINA RESULT:    -2.833      2.084      4.188
REMARK INTER + INTRA:          -4.638
REMARK INTER:                  -4.409
REMARK INTRA:                  -0.229
REMARK UNBOUND:                -0.314
REMARK SMILES CC1=CCC[C@@H](C)C(=O)C[C@H](C(C)C)C(=O)C1
REMARK SMILES IDX 8 1 9 2 6 3 7 4 5 5 4 6 3 7 2 8 1 9 10 11 11 12 15 13 16 14
REMARK SMILES IDX 17 15 12 17 13 18 14 19
REMARK H PARENT
REMARK Flexibility Score: 70.00
ROOT
ATOM      1  C   UNL     1      41.244 -40.101  -4.290  1.00  0.00     0.136 C 
ATOM      2  O   UNL     1      40.682 -41.041  -4.836  1.00  0.00    -0.299 OA
ENDROOT
BRANCH   1   3
ATOM      3  C   UNL     1      42.724 -40.194  -3.977  1.00  0.00     0.053 C 
ATOM      4  C   UNL     1      43.385 -41.205  -4.921  1.00  0.00     0.016 C 
BRANCH   3   5
ATOM      5  C   UNL     1      42.977 -40.591  -2.507  1.00  0.00     0.015 C 
BRANCH   5   6
ATOM      6  C   UNL     1      42.715 -39.469  -1.487  1.00  0.00     0.028 C 
BRANCH   6   7
ATOM      7  C   UNL     1      41.732 -39.847  -0.403  1.00  0.00    -0.028 C 
ATOM      8  C   UNL     1      40.437 -39.451  -0.286  1.00  0.00    -0.070 CG0
ATOM      9  C   UNL     1      39.610 -40.048   0.827  1.00  0.00     0.039 C 
ATOM     10  G   UNL     1      39.787 -38.326  -1.080  1.00  0.00     0.000 G0
ENDBRANCH   6   7
ENDBRANCH   5   6
ENDBRANCH   3   5
ENDBRANCH   1   3
BRANCH   1  11
ATOM     11  C   UNL     1      40.450 -38.857  -3.979  1.00  0.00     0.087 C 
BRANCH  11  12
ATOM     12  C   UNL     1      39.005 -39.179  -3.503  1.00  0.00     0.066 C 
BRANCH  12  13
ATOM     13  C   UNL     1      38.706 -38.793  -2.054  1.00  0.00     0.140 C 
ATOM     14  O   UNL     1      37.538 -38.762  -1.695  1.00  0.00    -0.299 OA
BRANCH  13  15
ATOM     15  C   UNL     1      39.764 -38.332  -1.080  1.00  0.00     0.106 CG0
ATOM     16  G   UNL     1      40.432 -39.445  -0.284  1.00  0.00     0.000 G0
ENDBRANCH  13  15
ENDBRANCH  12  13
BRANCH  12  17
ATOM     17  C   UNL     1      37.903 -38.607  -4.448  1.00  0.00    -0.006 C 
ATOM     18  C   UNL     1      36.853 -39.666  -4.822  1.00  0.00     0.008 C 
ATOM     19  C   UNL     1      38.466 -37.951  -5.719  1.00  0.00     0.008 C 
ENDBRANCH  12  17
ENDBRANCH  11  12
ENDBRANCH   1  11
TORSDOF 1
ENDMDL
MODEL 8
REMARK VINA RESULT:    -2.760      2.387      3.782
REMARK INTER + INTRA:          -4.526
REMARK INTER:                  -4.078
REMARK INTRA:                  -0.447
REMARK UNBOUND:                -0.314
REMARK SMILES CC1=CCC[C@@H](C)C(=O)C[C@H](C(C)C)C(=O)C1
REMARK SMILES IDX 8 1 9 2 6 3 7 4 5 5 4 6 3 7 2 8 1 9 10 11 11 12 15 13 16 14
REMARK SMILES IDX 17 15 12 17 13 18 14 19
REMARK H PARENT
REMARK Flexibility Score: 70.00
ROOT
ATOM      1  C   UNL     1      40.639 -40.156  -4.625  1.00  0.00     0.136 C 
ATOM      2  O   UNL     1      39.944 -41.160  -4.551  1.00  0.00    -0.299 OA
ENDROOT
BRANCH   1   3
ATOM      3  C   UNL     1      42.113 -40.239  -4.279  1.00  0.00     0.053 C 
ATOM      4  C   UNL     1      42.785 -41.302  -5.154  1.00  0.00     0.016 C 
BRANCH   3   5
ATOM      5  C   UNL     1      42.336 -40.557  -2.785  1.00  0.00     0.015 C 
BRANCH   5   6
ATOM      6  C   UNL     1      42.218 -39.342  -1.847  1.00  0.00     0.028 C 
BRANCH   6   7
ATOM      7  C   UNL     1      43.001 -38.135  -2.311  1.00  0.00    -0.028 C 
ATOM      8  C   UNL     1      42.550 -36.861  -2.451  1.00  0.00    -0.070 CG0
ATOM      9  C   UNL     1      43.548 -35.791  -2.826  1.00  0.00     0.039 C 
ATOM     10  G   UNL     1      41.088 -36.438  -2.425  1.00  0.00     0.000 G0
ENDBRANCH   6   7
ENDBRANCH   5   6
ENDBRANCH   3   5
ENDBRANCH   1   3
BRANCH   1  11
ATOM     11  C   UNL     1      40.014 -38.868  -5.099  1.00  0.00     0.087 C 
BRANCH  11  12
ATOM     12  C   UNL     1      39.514 -37.984  -3.921  1.00  0.00     0.066 C 
BRANCH  12  13
ATOM     13  C   UNL     1      40.315 -36.701  -3.697  1.00  0.00     0.140 C 
ATOM     14  O   UNL     1      40.412 -35.912  -4.627  1.00  0.00    -0.299 OA
BRANCH  13  15
ATOM     15  C   UNL     1      41.093 -36.413  -2.435  1.00  0.00     0.106 CG0
ATOM     16  G   UNL     1      42.543 -36.874  -2.455  1.00  0.00     0.000 G0
ENDBRANCH  13  15
ENDBRANCH  12  13
BRANCH  12  17
ATOM     17  C   UNL     1      37.990 -37.657  -3.999  1.00  0.00    -0.006 C 
ATOM     18  C   UNL     1      37.300 -37.782  -2.630  1.00  0.00     0.008 C 
ATOM     19  C   UNL     1      37.237 -38.491  -5.047  1.00  0.00     0.008 C 
ENDBRANCH  12  17
ENDBRANCH  11  12
ENDBRANCH   1  11
TORSDOF 1
ENDMDL
MODEL 9
REMARK VINA RESULT:    -2.730      3.067      5.697
REMARK INTER + INTRA:          -4.480
REMARK INTER:                  -4.258
REMARK INTRA:                  -0.222
REMARK UNBOUND:                -0.314
REMARK SMILES CC1=CCC[C@@H](C)C(=O)C[C@H](C(C)C)C(=O)C1
REMARK SMILES IDX 8 1 9 2 6 3 7 4 5 5 4 6 3 7 2 8 1 9 10 11 11 12 15 13 16 14
REMARK SMILES IDX 17 15 12 17 13 18 14 19
REMARK H PARENT
REMARK Flexibility Score: 70.00
ROOT
ATOM      1  C   UNL     1      41.624 -37.804  -3.578  1.00  0.00     0.136 C 
ATOM      2  O   UNL     1      42.717 -37.282  -3.752  1.00  0.00    -0.299 OA
ENDROOT
BRANCH   1   3
ATOM      3  C   UNL     1      41.549 -39.243  -3.107  1.00  0.00     0.053 C 
ATOM      4  C   UNL     1      42.177 -39.359  -1.714  1.00  0.00     0.016 C 
BRANCH   3   5
ATOM      5  C   UNL     1      42.246 -40.208  -4.089  1.00  0.00     0.015 C 
BRANCH   5   6
ATOM      6  C   UNL     1      41.308 -40.860  -5.121  1.00  0.00     0.028 C 
BRANCH   6   7
ATOM      7  C   UNL     1      39.885 -41.017  -4.638  1.00  0.00    -0.028 C 
ATOM      8  C   UNL     1      38.770 -40.428  -5.145  1.00  0.00    -0.070 CG0
ATOM      9  C   UNL     1      37.432 -40.822  -4.565  1.00  0.00     0.039 C 
ATOM     10  G   UNL     1      38.759 -39.275  -6.139  1.00  0.00     0.000 G0
ENDBRANCH   6   7
ENDBRANCH   5   6
ENDBRANCH   3   5
ENDBRANCH   1   3
BRANCH   1  11
ATOM     11  C   UNL     1      40.379 -36.984  -3.804  1.00  0.00     0.087 C 
BRANCH  11  12
ATOM     12  C   UNL     1      39.906 -37.019  -5.285  1.00  0.00     0.066 C 
BRANCH  12  13
ATOM     13  C   UNL     1      38.679 -37.893  -5.545  1.00  0.00     0.140 C 
ATOM     14  O   UNL     1      37.592 -37.488  -5.160  1.00  0.00    -0.299 OA
BRANCH  13  15
ATOM     15  C   UNL     1      38.754 -39.279  -6.142  1.00  0.00     0.106 CG0
ATOM     16  G   UNL     1      38.765 -40.414  -5.128  1.00  0.00     0.000 G0
ENDBRANCH  13  15
ENDBRANCH  12  13
BRANCH  12  17
ATOM     17  C   UNL     1      39.694 -35.600  -5.898  1.00  0.00    -0.006 C 
ATOM     18  C   UNL     1      41.001 -35.002  -6.442  1.00  0.00     0.008 C 
ATOM     19  C   UNL     1      39.022 -34.610  -4.933  1.00  0.00     0.008 C 
ENDBRANCH  12  17
ENDBRANCH  11  12
ENDBRANCH   1  11
TORSDOF 1
ENDMDL
