MODEL 1
REMARK VINA RESULT:    -5.860      0.000      0.000
REMARK INTER + INTRA:          -6.208
REMARK INTER:                  -7.230
REMARK INTRA:                   1.023
REMARK UNBOUND:                 1.023
REMARK SMILES C=C1[C@@H]2CC[C@H]3[C@@H]2C(C)(C)CCC[C@@]13C
REMARK SMILES IDX 14 1 6 2 7 3 3 4 2 5 1 6 4 7 5 8 15 9 8 10 9 11 10 12 11 13
REMARK SMILES IDX 13 15 12 16
REMARK H PARENT
REMARK Flexibility Score: 80.00
ROOT
ATOM      1  C   UNL     1      -3.264 -16.458  10.004  1.00  0.00    -0.008 C 
ATOM      2  C   UNL     1      -3.103 -14.965   9.518  1.00  0.00     0.003 C 
ATOM      3  C   UNL     1      -3.163 -15.050   7.976  1.00  0.00     0.006 C 
ATOM      4  C   UNL     1      -2.084 -16.122   7.885  1.00  0.00     0.019 C 
ATOM      5  C   UNL     1      -2.600 -17.160   8.841  1.00  0.00    -0.068 C 
ATOM      6  C   UNL     1      -2.400 -18.478   8.716  1.00  0.00     0.009 C 
ATOM      7  C   UNL     1      -0.908 -15.411   8.594  1.00  0.00     0.008 C 
ATOM      8  C   UNL     1      -1.618 -14.534   9.656  1.00  0.00     0.005 C 
ATOM      9  C   UNL     1      -2.504 -16.781  11.319  1.00  0.00     0.016 C 
ENDROOT
BRANCH   3  10
ATOM     10  C   UNL     1      -4.533 -15.288   7.236  1.00  0.00    -0.032 C 
ATOM     11  C   UNL     1      -5.332 -13.956   7.248  1.00  0.00     0.011 C 
ATOM     12  C   UNL     1      -4.249 -15.621   5.750  1.00  0.00     0.011 C 
BRANCH  10  13
ATOM     13  C   UNL     1      -5.414 -16.437   7.800  1.00  0.00     0.007 CG0
ATOM     14  G   UNL     1      -5.794 -16.281   9.274  1.00  0.00     0.000 G0
ENDBRANCH  10  13
ENDBRANCH   3  10
BRANCH   1  15
ATOM     15  C   UNL     1      -4.743 -16.894  10.215  1.00  0.00     0.011 C 
BRANCH  15  16
ATOM     16  C   UNL     1      -5.786 -16.291   9.276  1.00  0.00     0.001 CG0
ATOM     17  G   UNL     1      -5.414 -16.431   7.799  1.00  0.00     0.000 G0
ENDBRANCH  15  16
ENDBRANCH   1  15
TORSDOF 0
ENDMDL
MODEL 2
REMARK VINA RESULT:    -5.492      2.008      3.678
REMARK INTER + INTRA:          -5.753
REMARK INTER:                  -6.781
REMARK INTRA:                   1.028
REMARK UNBOUND:                 1.023
REMARK SMILES C=C1[C@@H]2CC[C@H]3[C@@H]2C(C)(C)CCC[C@@]13C
REMARK SMILES IDX 14 1 6 2 7 3 3 4 2 5 1 6 4 7 5 8 15 9 8 10 9 11 10 12 11 13
REMARK SMILES IDX 13 15 12 16
REMARK H PARENT
REMARK Flexibility Score: 80.00
ROOT
ATOM      1  C   UNL     1      -3.432 -17.635  10.407  1.00  0.00    -0.008 C 
ATOM      2  C   UNL     1      -2.474 -17.469   9.164  1.00  0.00     0.003 C 
ATOM      3  C   UNL     1      -2.727 -16.028   8.667  1.00  0.00     0.006 C 
ATOM      4  C   UNL     1      -4.240 -16.204   8.592  1.00  0.00     0.019 C 
ATOM      5  C   UNL     1      -4.557 -16.728   9.964  1.00  0.00    -0.068 C 
ATOM      6  C   UNL     1      -5.701 -16.500  10.620  1.00  0.00     0.009 C 
ATOM      7  C   UNL     1      -4.343 -17.405   7.623  1.00  0.00     0.008 C 
ATOM      8  C   UNL     1      -3.070 -18.228   7.947  1.00  0.00     0.005 C 
ATOM      9  C   UNL     1      -3.966 -19.080  10.607  1.00  0.00     0.016 C 
ENDROOT
BRANCH   3  10
ATOM     10  C   UNL     1      -2.146 -14.793   9.454  1.00  0.00    -0.032 C 
ATOM     11  C   UNL     1      -0.626 -14.694   9.152  1.00  0.00     0.011 C 
ATOM     12  C   UNL     1      -2.792 -13.498   8.901  1.00  0.00     0.011 C 
BRANCH  10  13
ATOM     13  C   UNL     1      -2.380 -14.799  10.990  1.00  0.00     0.007 CG0
ATOM     14  G   UNL     1      -1.813 -16.022  11.713  1.00  0.00     0.000 G0
ENDBRANCH  10  13
ENDBRANCH   3  10
BRANCH   1  15
ATOM     15  C   UNL     1      -2.790 -17.196  11.756  1.00  0.00     0.011 C 
BRANCH  15  16
ATOM     16  C   UNL     1      -1.817 -16.021  11.713  1.00  0.00     0.001 CG0
ATOM     17  G   UNL     1      -2.385 -14.799  10.987  1.00  0.00     0.000 G0
ENDBRANCH  15  16
ENDBRANCH   1  15
TORSDOF 0
ENDMDL
MODEL 3
REMARK VINA RESULT:    -5.245      1.998      4.263
REMARK INTER + INTRA:          -5.449
REMARK INTER:                  -6.465
REMARK INTRA:                   1.016
REMARK UNBOUND:                 1.023
REMARK SMILES C=C1[C@@H]2CC[C@H]3[C@@H]2C(C)(C)CCC[C@@]13C
REMARK SMILES IDX 14 1 6 2 7 3 3 4 2 5 1 6 4 7 5 8 15 9 8 10 9 11 10 12 11 13
REMARK SMILES IDX 13 15 12 16
REMARK H PARENT
REMARK Flexibility Score: 80.00
ROOT
ATOM      1  C   UNL     1      -3.227 -15.001   8.645  1.00  0.00    -0.008 C 
ATOM      2  C   UNL     1      -4.309 -15.683   9.570  1.00  0.00     0.003 C 
ATOM      3  C   UNL     1      -3.489 -16.547  10.556  1.00  0.00     0.006 C 
ATOM      4  C   UNL     1      -2.707 -17.253   9.455  1.00  0.00     0.019 C 
ATOM      5  C   UNL     1      -2.181 -16.092   8.658  1.00  0.00    -0.068 C 
ATOM      6  C   UNL     1      -1.020 -16.090   7.991  1.00  0.00     0.009 C 
ATOM      7  C   UNL     1      -3.861 -17.870   8.630  1.00  0.00     0.008 C 
ATOM      8  C   UNL     1      -5.002 -16.835   8.793  1.00  0.00     0.005 C 
ATOM      9  C   UNL     1      -3.707 -14.747   7.190  1.00  0.00     0.016 C 
ENDROOT
BRANCH   3  10
ATOM     10  C   UNL     1      -2.696 -15.879  11.742  1.00  0.00    -0.032 C 
ATOM     11  C   UNL     1      -3.711 -15.487  12.849  1.00  0.00     0.011 C 
ATOM     12  C   UNL     1      -1.746 -16.933  12.365  1.00  0.00     0.011 C 
BRANCH  10  13
ATOM     13  C   UNL     1      -1.826 -14.648  11.364  1.00  0.00     0.007 CG0
ATOM     14  G   UNL     1      -2.598 -13.504  10.704  1.00  0.00     0.000 G0
ENDBRANCH  10  13
ENDBRANCH   3  10
BRANCH   1  15
ATOM     15  C   UNL     1      -2.698 -13.643   9.193  1.00  0.00     0.011 C 
BRANCH  15  16
ATOM     16  C   UNL     1      -2.590 -13.500  10.710  1.00  0.00     0.001 CG0
ATOM     17  G   UNL     1      -1.826 -14.652  11.366  1.00  0.00     0.000 G0
ENDBRANCH  15  16
ENDBRANCH   1  15
TORSDOF 0
ENDMDL
MODEL 4
REMARK VINA RESULT:    -5.074      1.706      3.416
REMARK INTER + INTRA:          -5.238
REMARK INTER:                  -6.266
REMARK INTRA:                   1.028
REMARK UNBOUND:                 1.023
REMARK SMILES C=C1[C@@H]2CC[C@H]3[C@@H]2C(C)(C)CCC[C@@]13C
REMARK SMILES IDX 14 1 6 2 7 3 3 4 2 5 1 6 4 7 5 8 15 9 8 10 9 11 10 12 11 13
REMARK SMILES IDX 13 15 12 16
REMARK H PARENT
REMARK Flexibility Score: 80.00
ROOT
ATOM      1  C   UNL     1      -2.615 -14.365   9.447  1.00  0.00    -0.008 C 
ATOM      2  C   UNL     1      -4.091 -14.762   9.051  1.00  0.00     0.003 C 
ATOM      3  C   UNL     1      -4.001 -16.257   8.667  1.00  0.00     0.006 C 
ATOM      4  C   UNL     1      -2.856 -16.046   7.683  1.00  0.00     0.019 C 
ATOM      5  C   UNL     1      -1.862 -15.295   8.524  1.00  0.00    -0.068 C 
ATOM      6  C   UNL     1      -0.533 -15.375   8.385  1.00  0.00     0.009 C 
ATOM      7  C   UNL     1      -3.489 -15.016   6.719  1.00  0.00     0.008 C 
ATOM      8  C   UNL     1      -4.420 -14.193   7.645  1.00  0.00     0.005 C 
ATOM      9  C   UNL     1      -2.249 -12.890   9.125  1.00  0.00     0.016 C 
ENDROOT
BRANCH   3  10
ATOM     10  C   UNL     1      -3.853 -17.365   9.776  1.00  0.00    -0.032 C 
ATOM     11  C   UNL     1      -5.235 -17.562  10.457  1.00  0.00     0.011 C 
ATOM     12  C   UNL     1      -3.499 -18.711   9.096  1.00  0.00     0.011 C 
BRANCH  10  13
ATOM     13  C   UNL     1      -2.766 -17.100  10.855  1.00  0.00     0.007 CG0
ATOM     14  G   UNL     1      -2.944 -15.791  11.628  1.00  0.00     0.000 G0
ENDBRANCH  10  13
ENDBRANCH   3  10
BRANCH   1  15
ATOM     15  C   UNL     1      -2.284 -14.598  10.950  1.00  0.00     0.011 C 
BRANCH  15  16
ATOM     16  C   UNL     1      -2.946 -15.795  11.630  1.00  0.00     0.001 CG0
ATOM     17  G   UNL     1      -2.765 -17.100  10.853  1.00  0.00     0.000 G0
ENDBRANCH  15  16
ENDBRANCH   1  15
TORSDOF 0
ENDMDL
MODEL 5
REMARK VINA RESULT:    -5.041      1.536      3.256
REMARK INTER + INTRA:          -5.197
REMARK INTER:                  -6.238
REMARK INTRA:                   1.041
REMARK UNBOUND:                 1.023
REMARK SMILES C=C1[C@@H]2CC[C@H]3[C@@H]2C(C)(C)CCC[C@@]13C
REMARK SMILES IDX 14 1 6 2 7 3 3 4 2 5 1 6 4 7 5 8 15 9 8 10 9 11 10 12 11 13
REMARK SMILES IDX 13 15 12 16
REMARK H PARENT
REMARK Flexibility Score: 80.00
ROOT
ATOM      1  C   UNL     1      -4.472 -16.244   9.082  1.00  0.00    -0.008 C 
ATOM      2  C   UNL     1      -3.979 -15.414  10.331  1.00  0.00     0.003 C 
ATOM      3  C   UNL     1      -2.437 -15.443  10.234  1.00  0.00     0.006 C 
ATOM      4  C   UNL     1      -2.366 -16.960  10.106  1.00  0.00     0.019 C 
ATOM      5  C   UNL     1      -3.321 -17.219   8.975  1.00  0.00    -0.068 C 
ATOM      6  C   UNL     1      -3.206 -18.221   8.095  1.00  0.00     0.009 C 
ATOM      7  C   UNL     1      -3.087 -17.394  11.404  1.00  0.00     0.008 C 
ATOM      8  C   UNL     1      -4.135 -16.272  11.616  1.00  0.00     0.005 C 
ATOM      9  C   UNL     1      -5.798 -17.016   9.317  1.00  0.00     0.016 C 
ENDROOT
BRANCH   3  10
ATOM     10  C   UNL     1      -1.681 -14.556   9.174  1.00  0.00    -0.032 C 
ATOM     11  C   UNL     1      -1.687 -13.086   9.674  1.00  0.00     0.011 C 
ATOM     12  C   UNL     1      -0.197 -14.998   9.118  1.00  0.00     0.011 C 
BRANCH  10  13
ATOM     13  C   UNL     1      -2.232 -14.623   7.722  1.00  0.00     0.007 CG0
ATOM     14  G   UNL     1      -3.701 -14.221   7.582  1.00  0.00     0.000 G0
ENDBRANCH  10  13
ENDBRANCH   3  10
BRANCH   1  15
ATOM     15  C   UNL     1      -4.665 -15.388   7.796  1.00  0.00     0.011 C 
BRANCH  15  16
ATOM     16  C   UNL     1      -3.704 -14.220   7.587  1.00  0.00     0.001 CG0
ATOM     17  G   UNL     1      -2.234 -14.623   7.722  1.00  0.00     0.000 G0
ENDBRANCH  15  16
ENDBRANCH   1  15
TORSDOF 0
ENDMDL
MODEL 6
REMARK VINA RESULT:    -4.880      1.469      2.234
REMARK INTER + INTRA:          -4.999
REMARK INTER:                  -5.991
REMARK INTRA:                   0.993
REMARK UNBOUND:                 1.023
REMARK SMILES C=C1[C@@H]2CC[C@H]3[C@@H]2C(C)(C)CCC[C@@]13C
REMARK SMILES IDX 14 1 6 2 7 3 3 4 2 5 1 6 4 7 5 8 15 9 8 10 9 11 10 12 11 13
REMARK SMILES IDX 13 15 12 16
REMARK H PARENT
REMARK Flexibility Score: 80.00
ROOT
ATOM      1  C   UNL     1      -3.082 -15.282  11.307  1.00  0.00    -0.008 C 
ATOM      2  C   UNL     1      -3.167 -14.714   9.837  1.00  0.00     0.003 C 
ATOM      3  C   UNL     1      -2.875 -15.933   8.931  1.00  0.00     0.006 C 
ATOM      4  C   UNL     1      -1.586 -16.300   9.656  1.00  0.00     0.019 C 
ATOM      5  C   UNL     1      -2.043 -16.359  11.087  1.00  0.00    -0.068 C 
ATOM      6  C   UNL     1      -1.524 -17.167  12.019  1.00  0.00     0.009 C 
ATOM      7  C   UNL     1      -0.783 -14.987   9.501  1.00  0.00     0.008 C 
ATOM      8  C   UNL     1      -1.884 -13.897   9.523  1.00  0.00     0.005 C 
ATOM      9  C   UNL     1      -2.566 -14.257  12.353  1.00  0.00     0.016 C 
ENDROOT
BRANCH   3  10
ATOM     10  C   UNL     1      -3.965 -17.049   8.711  1.00  0.00    -0.032 C 
ATOM     11  C   UNL     1      -5.018 -16.511   7.705  1.00  0.00     0.011 C 
ATOM     12  C   UNL     1      -3.297 -18.275   8.038  1.00  0.00     0.011 C 
BRANCH  10  13
ATOM     13  C   UNL     1      -4.675 -17.563   9.994  1.00  0.00     0.007 CG0
ATOM     14  G   UNL     1      -5.364 -16.474  10.818  1.00  0.00     0.000 G0
ENDBRANCH  10  13
ENDBRANCH   3  10
BRANCH   1  15
ATOM     15  C   UNL     1      -4.432 -15.840  11.843  1.00  0.00     0.011 C 
BRANCH  15  16
ATOM     16  C   UNL     1      -5.366 -16.496  10.828  1.00  0.00     0.001 CG0
ATOM     17  G   UNL     1      -4.676 -17.576   9.992  1.00  0.00     0.000 G0
ENDBRANCH  15  16
ENDBRANCH   1  15
TORSDOF 0
ENDMDL
MODEL 7
REMARK VINA RESULT:    -4.716      1.458      3.629
REMARK INTER + INTRA:          -4.797
REMARK INTER:                  -5.819
REMARK INTRA:                   1.022
REMARK UNBOUND:                 1.023
REMARK SMILES C=C1[C@@H]2CC[C@H]3[C@@H]2C(C)(C)CCC[C@@]13C
REMARK SMILES IDX 14 1 6 2 7 3 3 4 2 5 1 6 4 7 5 8 15 9 8 10 9 11 10 12 11 13
REMARK SMILES IDX 13 15 12 16
REMARK H PARENT
REMARK Flexibility Score: 80.00
ROOT
ATOM      1  C   UNL     1      -3.536 -16.375   8.332  1.00  0.00    -0.008 C 
ATOM      2  C   UNL     1      -2.127 -16.671   8.978  1.00  0.00     0.003 C 
ATOM      3  C   UNL     1      -1.957 -15.579  10.059  1.00  0.00     0.006 C 
ATOM      4  C   UNL     1      -2.259 -14.432   9.102  1.00  0.00     0.019 C 
ATOM      5  C   UNL     1      -3.563 -14.872   8.496  1.00  0.00    -0.068 C 
ATOM      6  C   UNL     1      -4.528 -14.043   8.081  1.00  0.00     0.009 C 
ATOM      7  C   UNL     1      -1.171 -14.658   8.026  1.00  0.00     0.008 C 
ATOM      8  C   UNL     1      -1.006 -16.199   8.011  1.00  0.00     0.005 C 
ATOM      9  C   UNL     1      -3.633 -16.743   6.827  1.00  0.00     0.016 C 
ENDROOT
BRANCH   3  10
ATOM     10  C   UNL     1      -2.750 -15.663  11.417  1.00  0.00    -0.032 C 
ATOM     11  C   UNL     1      -2.070 -16.733  12.314  1.00  0.00     0.011 C 
ATOM     12  C   UNL     1      -2.613 -14.311  12.161  1.00  0.00     0.011 C 
BRANCH  10  13
ATOM     13  C   UNL     1      -4.269 -15.965  11.295  1.00  0.00     0.007 CG0
ATOM     14  G   UNL     1      -4.601 -17.273  10.574  1.00  0.00     0.000 G0
ENDBRANCH  10  13
ENDBRANCH   3  10
BRANCH   1  15
ATOM     15  C   UNL     1      -4.718 -17.087   9.053  1.00  0.00     0.011 C 
BRANCH  15  16
ATOM     16  C   UNL     1      -4.609 -17.259  10.566  1.00  0.00     0.001 CG0
ATOM     17  G   UNL     1      -4.265 -15.957  11.292  1.00  0.00     0.000 G0
ENDBRANCH  15  16
ENDBRANCH   1  15
TORSDOF 0
ENDMDL
MODEL 8
REMARK VINA RESULT:    -4.146      1.823      3.562
REMARK INTER + INTRA:          -4.092
REMARK INTER:                  -5.120
REMARK INTRA:                   1.028
REMARK UNBOUND:                 1.023
REMARK SMILES C=C1[C@@H]2CC[C@H]3[C@@H]2C(C)(C)CCC[C@@]13C
REMARK SMILES IDX 14 1 6 2 7 3 3 4 2 5 1 6 4 7 5 8 15 9 8 10 9 11 10 12 11 13
REMARK SMILES IDX 13 15 12 16
REMARK H PARENT
REMARK Flexibility Score: 80.00
ROOT
ATOM      1  C   UNL     1      -3.465 -17.708  10.083  1.00  0.00    -0.008 C 
ATOM      2  C   UNL     1      -4.544 -16.609   9.738  1.00  0.00     0.003 C 
ATOM      3  C   UNL     1      -3.880 -15.272  10.138  1.00  0.00     0.006 C 
ATOM      4  C   UNL     1      -3.527 -15.744  11.544  1.00  0.00     0.019 C 
ATOM      5  C   UNL     1      -2.806 -17.032  11.264  1.00  0.00    -0.068 C 
ATOM      6  C   UNL     1      -1.817 -17.531  12.016  1.00  0.00     0.009 C 
ATOM      7  C   UNL     1      -4.926 -16.125  12.081  1.00  0.00     0.008 C 
ATOM      8  C   UNL     1      -5.663 -16.628  10.814  1.00  0.00     0.005 C 
ATOM      9  C   UNL     1      -4.066 -19.071  10.521  1.00  0.00     0.016 C 
ENDROOT
BRANCH   3  10
ATOM     10  C   UNL     1      -2.748 -14.637   9.245  1.00  0.00    -0.032 C 
ATOM     11  C   UNL     1      -3.413 -14.002   7.993  1.00  0.00     0.011 C 
ATOM     12  C   UNL     1      -2.082 -13.478  10.028  1.00  0.00     0.011 C 
BRANCH  10  13
ATOM     13  C   UNL     1      -1.613 -15.603   8.807  1.00  0.00     0.007 CG0
ATOM     14  G   UNL     1      -2.086 -16.822   8.012  1.00  0.00     0.000 G0
ENDBRANCH  10  13
ENDBRANCH   3  10
BRANCH   1  15
ATOM     15  C   UNL     1      -2.474 -18.001   8.918  1.00  0.00     0.011 C 
BRANCH  15  16
ATOM     16  C   UNL     1      -2.076 -16.823   8.031  1.00  0.00     0.001 CG0
ATOM     17  G   UNL     1      -1.613 -15.602   8.829  1.00  0.00     0.000 G0
ENDBRANCH  15  16
ENDBRANCH   1  15
TORSDOF 0
ENDMDL
MODEL 9
REMARK VINA RESULT:    -4.083      1.564      2.930
REMARK INTER + INTRA:          -4.016
REMARK INTER:                  -5.026
REMARK INTRA:                   1.010
REMARK UNBOUND:                 1.023
REMARK SMILES C=C1[C@@H]2CC[C@H]3[C@@H]2C(C)(C)CCC[C@@]13C
REMARK SMILES IDX 14 1 6 2 7 3 3 4 2 5 1 6 4 7 5 8 15 9 8 10 9 11 10 12 11 13
REMARK SMILES IDX 13 15 12 16
REMARK H PARENT
REMARK Flexibility Score: 80.00
ROOT
ATOM      1  C   UNL     1      -2.889 -16.294  10.498  1.00  0.00    -0.008 C 
ATOM      2  C   UNL     1      -2.345 -16.859   9.129  1.00  0.00     0.003 C 
ATOM      3  C   UNL     1      -3.506 -16.643   8.131  1.00  0.00     0.006 C 
ATOM      4  C   UNL     1      -4.538 -17.333   9.015  1.00  0.00     0.019 C 
ATOM      5  C   UNL     1      -4.357 -16.609  10.320  1.00  0.00    -0.068 C 
ATOM      6  C   UNL     1      -5.332 -16.388  11.210  1.00  0.00     0.009 C 
ATOM      7  C   UNL     1      -3.888 -18.726   9.186  1.00  0.00     0.008 C 
ATOM      8  C   UNL     1      -2.371 -18.411   9.163  1.00  0.00     0.005 C 
ATOM      9  C   UNL     1      -2.339 -17.030  11.750  1.00  0.00     0.016 C 
ENDROOT
BRANCH   3  10
ATOM     10  C   UNL     1      -3.827 -15.207   7.569  1.00  0.00    -0.032 C 
ATOM     11  C   UNL     1      -2.768 -14.858   6.487  1.00  0.00     0.011 C 
ATOM     12  C   UNL     1      -5.198 -15.245   6.849  1.00  0.00     0.011 C 
BRANCH  10  13
ATOM     13  C   UNL     1      -3.897 -14.069   8.624  1.00  0.00     0.007 CG0
ATOM     14  G   UNL     1      -2.627 -13.899   9.461  1.00  0.00     0.000 G0
ENDBRANCH  10  13
ENDBRANCH   3  10
BRANCH   1  15
ATOM     15  C   UNL     1      -2.613 -14.776  10.705  1.00  0.00     0.011 C 
BRANCH  15  16
ATOM     16  C   UNL     1      -2.632 -13.890   9.461  1.00  0.00     0.001 CG0
ATOM     17  G   UNL     1      -3.894 -14.073   8.616  1.00  0.00     0.000 G0
ENDBRANCH  15  16
ENDBRANCH   1  15
TORSDOF 0
ENDMDL
