MODEL 1
REMARK VINA RESULT:    -6.489      0.000      0.000
REMARK INTER + INTRA:         -11.512
REMARK INTER:                  -9.713
REMARK INTRA:                  -1.798
REMARK UNBOUND:                -1.798
REMARK SMILES C[C@@H]1O[C@@H](O[C@H]2[C@@H](Oc3cc(O)c4c(c3)O[C@@H](c3ccc(O)cc3)CC4=O)O[C@H](CO)[C@H](O)[C@@H]2O)[C@H](O)[C@@H](O)[C@@H]1O
REMARK SMILES IDX 6 1 34 2 32 3 29 4 28 5 7 6 5 7 4 8 1 9 2 10 40 11 3 12
REMARK SMILES IDX 38 13 36 14 41 15 39 17 37 19 35 21 8 23 9 24 10 25 15 26
REMARK SMILES IDX 11 27 14 28 13 29 16 30 26 31 17 32 27 33 25 34 12 35 18 37
REMARK SMILES IDX 19 38 24 39 20 40 23 41 21 42 22 43 33 45 30 47 31 48
REMARK H PARENT 41 16 39 18 37 20 35 22 12 36 22 44 33 46 31 49
REMARK Flexibility Score: inf
ROOT
ATOM      1  C   UNL     1      31.849  15.834 -16.933  1.00  0.00     0.221 C 
ATOM      2  C   UNL     1      31.307  14.472 -17.570  1.00  0.00     0.181 C 
ATOM      3  C   UNL     1      32.088  14.096 -18.862  1.00  0.00     0.177 C 
ATOM      4  C   UNL     1      33.643  14.184 -18.365  1.00  0.00     0.179 C 
ATOM      5  O   UNL     1      34.063  15.608 -18.264  1.00  0.00    -0.332 OA
ATOM      6  C   UNL     1      32.938  16.531 -17.929  1.00  0.00     0.339 C 
ENDROOT
BRANCH   1   7
ATOM      7  O   UNL     1      32.449  15.451 -15.702  1.00  0.00    -0.337 OA
BRANCH   7   8
ATOM      8  C   UNL     1      31.955  16.050 -14.508  1.00  0.00     0.282 C 
ATOM      9  C   UNL     1      31.247  13.573 -11.978  1.00  0.00     0.041 C 
ATOM     10  C   UNL     1      31.506  13.926 -13.505  1.00  0.00     0.150 C 
ATOM     11  C   UNL     1      30.163  13.945 -14.320  1.00  0.00     0.174 C 
ATOM     12  O   UNL     1      32.262  15.166 -13.506  1.00  0.00    -0.344 OA
ATOM     13  C   UNL     1      29.492  15.315 -14.031  1.00  0.00     0.179 C 
ATOM     14  C   UNL     1      30.390  16.491 -14.446  1.00  0.00     0.202 C 
BRANCH  11  15
ATOM     15  O   UNL     1      29.377  12.875 -13.917  1.00  0.00    -0.388 OA
ATOM     16  H   UNL     1      28.829  12.463 -14.675  1.00  0.00     0.211 HD
ENDBRANCH  11  15
BRANCH  13  17
ATOM     17  O   UNL     1      28.252  15.334 -14.700  1.00  0.00    -0.387 OA
ATOM     18  H   UNL     1      27.564  15.690 -14.033  1.00  0.00     0.211 HD
ENDBRANCH  13  17
BRANCH  14  19
ATOM     19  O   UNL     1      30.216  17.531 -13.477  1.00  0.00    -0.385 OA
ATOM     20  H   UNL     1      29.328  17.387 -13.111  1.00  0.00     0.211 HD
ENDBRANCH  14  19
ENDBRANCH   7   8
ENDBRANCH   1   7
BRANCH   2  21
ATOM     21  O   UNL     1      29.864  14.402 -17.703  1.00  0.00    -0.387 OA
ATOM     22  H   UNL     1      29.365  14.355 -16.775  1.00  0.00     0.211 HD
ENDBRANCH   2  21
BRANCH   6  23
ATOM     23  O   UNL     1      33.297  17.924 -17.367  1.00  0.00    -0.462 OA
BRANCH  23  24
ATOM     24  C   UNL     1      32.973  19.358 -17.603  1.00  0.00     0.130 A 
ATOM     25  C   UNL     1      33.996  20.376 -17.504  1.00  0.00     0.093 A 
ATOM     26  C   UNL     1      31.701  20.019 -17.322  1.00  0.00     0.094 A 
ATOM     27  C   UNL     1      34.026  20.981 -16.251  1.00  0.00     0.133 A 
ATOM     28  C   UNL     1      31.748  21.152 -16.443  1.00  0.00     0.138 A 
ATOM     29  C   UNL     1      32.801  21.091 -15.576  1.00  0.00     0.102 A 
ATOM     30  O   UNL     1      30.965  22.406 -16.446  1.00  0.00    -0.484 OA
ATOM     31  C   UNL     1      32.572  21.816 -14.277  1.00  0.00     0.174 C 
ATOM     32  C   UNL     1      31.574  23.550 -15.752  1.00  0.00     0.211 C 
ATOM     33  O   UNL     1      32.760  21.224 -13.167  1.00  0.00    -0.294 OA
ATOM     34  C   UNL     1      31.736  23.086 -14.279  1.00  0.00     0.131 C 
BRANCH  27  35
ATOM     35  O   UNL     1      35.193  21.427 -15.696  1.00  0.00    -0.507 OA
ATOM     36  H   UNL     1      35.303  21.480 -14.649  1.00  0.00     0.293 HD
ENDBRANCH  27  35
BRANCH  32  37
ATOM     37  C   UNL     1      30.941  24.920 -15.696  1.00  0.00    -0.007 A 
ATOM     38  C   UNL     1      29.860  25.110 -16.563  1.00  0.00     0.011 A 
ATOM     39  C   UNL     1      31.395  26.049 -14.995  1.00  0.00     0.011 A 
ATOM     40  C   UNL     1      29.622  26.375 -17.124  1.00  0.00     0.046 A 
ATOM     41  C   UNL     1      31.312  27.330 -15.621  1.00  0.00     0.046 A 
ATOM     42  C   UNL     1      30.346  27.496 -16.642  1.00  0.00     0.115 A 
BRANCH  42  43
ATOM     43  O   UNL     1      30.059  28.792 -17.121  1.00  0.00    -0.508 OA
ATOM     44  H   UNL     1      29.221  28.910 -17.718  1.00  0.00     0.293 HD
ENDBRANCH  42  43
ENDBRANCH  32  37
ENDBRANCH  23  24
ENDBRANCH   6  23
BRANCH   3  45
ATOM     45  O   UNL     1      31.722  14.924 -19.953  1.00  0.00    -0.387 OA
ATOM     46  H   UNL     1      32.022  15.843 -19.797  1.00  0.00     0.211 HD
ENDBRANCH   3  45
BRANCH   4  47
ATOM     47  C   UNL     1      34.654  12.935 -18.943  1.00  0.00     0.191 C 
BRANCH  47  48
ATOM     48  O   UNL     1      36.041  13.162 -18.751  1.00  0.00    -0.394 OA
ATOM     49  H   UNL     1      36.432  12.423 -18.186  1.00  0.00     0.210 HD
ENDBRANCH  47  48
ENDBRANCH   4  47
TORSDOF 14
ENDMDL
MODEL 2
REMARK VINA RESULT:    -5.868      3.720     13.327
REMARK INTER + INTRA:         -10.582
REMARK INTER:                  -9.675
REMARK INTRA:                  -0.907
REMARK UNBOUND:                -1.798
REMARK SMILES C[C@@H]1O[C@@H](O[C@H]2[C@@H](Oc3cc(O)c4c(c3)O[C@@H](c3ccc(O)cc3)CC4=O)O[C@H](CO)[C@H](O)[C@@H]2O)[C@H](O)[C@@H](O)[C@@H]1O
REMARK SMILES IDX 6 1 34 2 32 3 29 4 28 5 7 6 5 7 4 8 1 9 2 10 40 11 3 12
REMARK SMILES IDX 38 13 36 14 41 15 39 17 37 19 35 21 8 23 9 24 10 25 15 26
REMARK SMILES IDX 11 27 14 28 13 29 16 30 26 31 17 32 27 33 25 34 12 35 18 37
REMARK SMILES IDX 19 38 24 39 20 40 23 41 21 42 22 43 33 45 30 47 31 48
REMARK H PARENT 41 16 39 18 37 20 35 22 12 36 22 44 33 46 31 49
REMARK Flexibility Score: inf
ROOT
ATOM      1  C   UNL     1      30.174  29.704 -17.998  1.00  0.00     0.221 C 
ATOM      2  C   UNL     1      29.379  31.091 -18.024  1.00  0.00     0.181 C 
ATOM      3  C   UNL     1      28.954  31.532 -16.594  1.00  0.00     0.177 C 
ATOM      4  C   UNL     1      30.362  31.432 -15.768  1.00  0.00     0.179 C 
ATOM      5  O   UNL     1      30.676  30.007 -15.472  1.00  0.00    -0.332 OA
ATOM      6  C   UNL     1      30.144  29.062 -16.498  1.00  0.00     0.339 C 
ENDROOT
BRANCH   1   7
ATOM      7  O   UNL     1      31.501  30.035 -18.390  1.00  0.00    -0.337 OA
BRANCH   7   8
ATOM      8  C   UNL     1      31.889  31.404 -18.330  1.00  0.00     0.282 C 
ATOM      9  C   UNL     1      33.139  32.567 -21.511  1.00  0.00     0.041 C 
ATOM     10  C   UNL     1      32.781  31.356 -20.548  1.00  0.00     0.150 C 
ATOM     11  C   UNL     1      34.074  30.743 -19.900  1.00  0.00     0.174 C 
ATOM     12  O   UNL     1      31.790  31.865 -19.617  1.00  0.00    -0.344 OA
ATOM     13  C   UNL     1      34.459  31.676 -18.719  1.00  0.00     0.179 C 
ATOM     14  C   UNL     1      33.333  31.778 -17.679  1.00  0.00     0.202 C 
BRANCH  11  15
ATOM     15  O   UNL     1      35.070  30.670 -20.863  1.00  0.00    -0.388 OA
ATOM     16  H   UNL     1      35.423  31.584 -21.155  1.00  0.00     0.211 HD
ENDBRANCH  11  15
BRANCH  13  17
ATOM     17  O   UNL     1      35.655  31.184 -18.158  1.00  0.00    -0.387 OA
ATOM     18  H   UNL     1      36.291  31.003 -18.937  1.00  0.00     0.211 HD
ENDBRANCH  13  17
BRANCH  14  19
ATOM     19  O   UNL     1      33.313  33.125 -17.194  1.00  0.00    -0.385 OA
ATOM     20  H   UNL     1      32.546  33.165 -16.598  1.00  0.00     0.211 HD
ENDBRANCH  14  19
ENDBRANCH   7   8
ENDBRANCH   1   7
BRANCH   2  21
ATOM     21  O   UNL     1      28.315  31.157 -19.009  1.00  0.00    -0.387 OA
ATOM     22  H   UNL     1      28.619  30.836 -19.966  1.00  0.00     0.211 HD
ENDBRANCH   2  21
BRANCH   6  23
ATOM     23  O   UNL     1      30.759  27.646 -16.558  1.00  0.00    -0.462 OA
BRANCH  23  24
ATOM     24  C   UNL     1      30.829  26.406 -15.738  1.00  0.00     0.130 A 
ATOM     25  C   UNL     1      31.848  26.244 -14.723  1.00  0.00     0.093 A 
ATOM     26  C   UNL     1      30.448  25.061 -16.162  1.00  0.00     0.094 A 
ATOM     27  C   UNL     1      32.957  25.545 -15.189  1.00  0.00     0.133 A 
ATOM     28  C   UNL     1      31.460  24.049 -16.070  1.00  0.00     0.138 A 
ATOM     29  C   UNL     1      32.720  24.567 -16.166  1.00  0.00     0.102 A 
ATOM     30  O   UNL     1      31.359  22.614 -15.729  1.00  0.00    -0.484 OA
ATOM     31  C   UNL     1      33.740  23.608 -16.719  1.00  0.00     0.174 C 
ATOM     32  C   UNL     1      32.589  21.979 -15.236  1.00  0.00     0.211 C 
ATOM     33  O   UNL     1      34.476  23.945 -17.699  1.00  0.00    -0.294 OA
ATOM     34  C   UNL     1      33.611  22.128 -16.395  1.00  0.00     0.131 C 
BRANCH  27  35
ATOM     35  O   UNL     1      34.218  25.813 -14.732  1.00  0.00    -0.507 OA
ATOM     36  H   UNL     1      35.061  25.411 -15.222  1.00  0.00     0.293 HD
ENDBRANCH  27  35
BRANCH  32  37
ATOM     37  C   UNL     1      32.658  20.536 -14.794  1.00  0.00    -0.007 A 
ATOM     38  C   UNL     1      33.515  19.726 -15.547  1.00  0.00     0.011 A 
ATOM     39  C   UNL     1      31.867  19.893 -13.828  1.00  0.00     0.011 A 
ATOM     40  C   UNL     1      33.211  18.369 -15.739  1.00  0.00     0.046 A 
ATOM     41  C   UNL     1      31.409  18.565 -14.082  1.00  0.00     0.046 A 
ATOM     42  C   UNL     1      32.157  17.780 -14.993  1.00  0.00     0.115 A 
BRANCH  42  43
ATOM     43  O   UNL     1      31.892  16.398 -15.096  1.00  0.00    -0.508 OA
ATOM     44  H   UNL     1      32.514  15.748 -14.581  1.00  0.00     0.293 HD
ENDBRANCH  42  43
ENDBRANCH  32  37
ENDBRANCH  23  24
ENDBRANCH   6  23
BRANCH   3  45
ATOM     45  O   UNL     1      27.875  30.752 -16.106  1.00  0.00    -0.387 OA
ATOM     46  H   UNL     1      27.076  30.900 -16.652  1.00  0.00     0.211 HD
ENDBRANCH   3  45
BRANCH   4  47
ATOM     47  C   UNL     1      30.648  32.712 -14.675  1.00  0.00     0.191 C 
BRANCH  47  48
ATOM     48  O   UNL     1      32.002  33.125 -14.589  1.00  0.00    -0.394 OA
ATOM     49  H   UNL     1      32.538  32.430 -14.091  1.00  0.00     0.210 HD
ENDBRANCH  47  48
ENDBRANCH   4  47
TORSDOF 14
ENDMDL
MODEL 3
REMARK VINA RESULT:    -5.112      3.154      6.803
REMARK INTER + INTRA:          -9.451
REMARK INTER:                  -7.209
REMARK INTRA:                  -2.243
REMARK UNBOUND:                -1.798
REMARK SMILES C[C@@H]1O[C@@H](O[C@H]2[C@@H](Oc3cc(O)c4c(c3)O[C@@H](c3ccc(O)cc3)CC4=O)O[C@H](CO)[C@H](O)[C@@H]2O)[C@H](O)[C@@H](O)[C@@H]1O
REMARK SMILES IDX 6 1 34 2 32 3 29 4 28 5 7 6 5 7 4 8 1 9 2 10 40 11 3 12
REMARK SMILES IDX 38 13 36 14 41 15 39 17 37 19 35 21 8 23 9 24 10 25 15 26
REMARK SMILES IDX 11 27 14 28 13 29 16 30 26 31 17 32 27 33 25 34 12 35 18 37
REMARK SMILES IDX 19 38 24 39 20 40 23 41 21 42 22 43 33 45 30 47 31 48
REMARK H PARENT 41 16 39 18 37 20 35 22 12 36 22 44 33 46 31 49
REMARK Flexibility Score: inf
ROOT
ATOM      1  C   UNL     1      33.478  21.552 -16.227  1.00  0.00     0.221 C 
ATOM      2  C   UNL     1      34.254  20.394 -17.009  1.00  0.00     0.181 C 
ATOM      3  C   UNL     1      34.415  19.121 -16.130  1.00  0.00     0.177 C 
ATOM      4  C   UNL     1      32.884  18.855 -15.620  1.00  0.00     0.179 C 
ATOM      5  O   UNL     1      32.534  19.821 -14.543  1.00  0.00    -0.332 OA
ATOM      6  C   UNL     1      33.247  21.127 -14.668  1.00  0.00     0.339 C 
ENDROOT
BRANCH   1   7
ATOM      7  O   UNL     1      32.239  21.691 -16.912  1.00  0.00    -0.337 OA
BRANCH   7   8
ATOM      8  C   UNL     1      32.279  21.917 -18.317  1.00  0.00     0.282 C 
ATOM      9  C   UNL     1      30.357  24.831 -19.244  1.00  0.00     0.041 C 
ATOM     10  C   UNL     1      30.690  23.700 -18.180  1.00  0.00     0.150 C 
ATOM     11  C   UNL     1      29.591  22.577 -18.179  1.00  0.00     0.174 C 
ATOM     12  O   UNL     1      32.042  23.259 -18.474  1.00  0.00    -0.344 OA
ATOM     13  C   UNL     1      29.908  21.651 -19.386  1.00  0.00     0.179 C 
ATOM     14  C   UNL     1      31.310  21.031 -19.278  1.00  0.00     0.202 C 
BRANCH  11  15
ATOM     15  O   UNL     1      28.341  23.171 -18.282  1.00  0.00    -0.388 OA
ATOM     16  H   UNL     1      28.379  24.167 -18.507  1.00  0.00     0.211 HD
ENDBRANCH  11  15
BRANCH  13  17
ATOM     17  O   UNL     1      28.899  20.670 -19.448  1.00  0.00    -0.387 OA
ATOM     18  H   UNL     1      29.190  19.994 -20.158  1.00  0.00     0.211 HD
ENDBRANCH  13  17
BRANCH  14  19
ATOM     19  O   UNL     1      31.859  20.973 -20.599  1.00  0.00    -0.385 OA
ATOM     20  H   UNL     1      31.514  20.147 -20.978  1.00  0.00     0.211 HD
ENDBRANCH  14  19
ENDBRANCH   7   8
ENDBRANCH   1   7
BRANCH   2  21
ATOM     21  O   UNL     1      35.474  20.824 -17.666  1.00  0.00    -0.387 OA
ATOM     22  H   UNL     1      36.320  20.773 -17.039  1.00  0.00     0.211 HD
ENDBRANCH   2  21
BRANCH   6  23
ATOM     23  O   UNL     1      32.663  22.339 -13.910  1.00  0.00    -0.462 OA
BRANCH  23  24
ATOM     24  C   UNL     1      32.749  23.825 -13.912  1.00  0.00     0.130 A 
ATOM     25  C   UNL     1      31.959  24.616 -12.994  1.00  0.00     0.093 A 
ATOM     26  C   UNL     1      33.021  24.678 -15.067  1.00  0.00     0.094 A 
ATOM     27  C   UNL     1      30.770  25.062 -13.563  1.00  0.00     0.133 A 
ATOM     28  C   UNL     1      32.038  25.677 -15.372  1.00  0.00     0.138 A 
ATOM     29  C   UNL     1      30.791  25.325 -14.941  1.00  0.00     0.102 A 
ATOM     30  O   UNL     1      32.192  27.048 -15.902  1.00  0.00    -0.484 OA
ATOM     31  C   UNL     1      29.670  25.932 -15.740  1.00  0.00     0.174 C 
ATOM     32  C   UNL     1      31.083  27.974 -15.633  1.00  0.00     0.211 C 
ATOM     33  O   UNL     1      28.752  25.197 -16.223  1.00  0.00    -0.294 OA
ATOM     34  C   UNL     1      29.846  27.328 -16.315  1.00  0.00     0.131 C 
BRANCH  27  35
ATOM     35  O   UNL     1      29.633  25.218 -12.820  1.00  0.00    -0.507 OA
ATOM     36  H   UNL     1      28.940  24.429 -12.731  1.00  0.00     0.293 HD
ENDBRANCH  27  35
BRANCH  32  37
ATOM     37  C   UNL     1      31.089  29.424 -16.057  1.00  0.00    -0.007 A 
ATOM     38  C   UNL     1      29.827  30.014 -16.171  1.00  0.00     0.011 A 
ATOM     39  C   UNL     1      32.187  30.190 -16.483  1.00  0.00     0.011 A 
ATOM     40  C   UNL     1      29.602  31.012 -17.133  1.00  0.00     0.046 A 
ATOM     41  C   UNL     1      32.016  31.094 -17.575  1.00  0.00     0.046 A 
ATOM     42  C   UNL     1      30.706  31.565 -17.833  1.00  0.00     0.115 A 
BRANCH  42  43
ATOM     43  O   UNL     1      30.519  32.633 -18.735  1.00  0.00    -0.508 OA
ATOM     44  H   UNL     1      31.105  33.478 -18.609  1.00  0.00     0.293 HD
ENDBRANCH  42  43
ENDBRANCH  32  37
ENDBRANCH  23  24
ENDBRANCH   6  23
BRANCH   3  45
ATOM     45  O   UNL     1      35.397  19.302 -15.123  1.00  0.00    -0.387 OA
ATOM     46  H   UNL     1      35.544  18.464 -14.638  1.00  0.00     0.211 HD
ENDBRANCH   3  45
BRANCH   4  47
ATOM     47  C   UNL     1      32.399  17.218 -15.620  1.00  0.00     0.191 C 
BRANCH  47  48
ATOM     48  O   UNL     1      31.832  16.769 -14.400  1.00  0.00    -0.394 OA
ATOM     49  H   UNL     1      32.192  15.854 -14.175  1.00  0.00     0.210 HD
ENDBRANCH  47  48
ENDBRANCH   4  47
TORSDOF 14
ENDMDL
MODEL 4
REMARK VINA RESULT:    -4.949      4.428      7.535
REMARK INTER + INTRA:          -9.206
REMARK INTER:                  -7.520
REMARK INTRA:                  -1.686
REMARK UNBOUND:                -1.798
REMARK SMILES C[C@@H]1O[C@@H](O[C@H]2[C@@H](Oc3cc(O)c4c(c3)O[C@@H](c3ccc(O)cc3)CC4=O)O[C@H](CO)[C@H](O)[C@@H]2O)[C@H](O)[C@@H](O)[C@@H]1O
REMARK SMILES IDX 6 1 34 2 32 3 29 4 28 5 7 6 5 7 4 8 1 9 2 10 40 11 3 12
REMARK SMILES IDX 38 13 36 14 41 15 39 17 37 19 35 21 8 23 9 24 10 25 15 26
REMARK SMILES IDX 11 27 14 28 13 29 16 30 26 31 17 32 27 33 25 34 12 35 18 37
REMARK SMILES IDX 19 38 24 39 20 40 23 41 21 42 22 43 33 45 30 47 31 48
REMARK H PARENT 41 16 39 18 37 20 35 22 12 36 22 44 33 46 31 49
REMARK Flexibility Score: inf
ROOT
ATOM      1  C   UNL     1      31.903  21.052 -16.145  1.00  0.00     0.221 C 
ATOM      2  C   UNL     1      33.311  20.392 -15.773  1.00  0.00     0.181 C 
ATOM      3  C   UNL     1      34.202  20.200 -17.033  1.00  0.00     0.177 C 
ATOM      4  C   UNL     1      34.170  21.688 -17.710  1.00  0.00     0.179 C 
ATOM      5  O   UNL     1      32.867  21.905 -18.396  1.00  0.00    -0.332 OA
ATOM      6  C   UNL     1      31.739  21.158 -17.765  1.00  0.00     0.339 C 
ENDROOT
BRANCH   1   7
ATOM      7  O   UNL     1      31.932  22.341 -15.545  1.00  0.00    -0.337 OA
BRANCH   7   8
ATOM      8  C   UNL     1      32.763  22.523 -14.402  1.00  0.00     0.282 C 
ATOM      9  C   UNL     1      31.050  24.341 -11.795  1.00  0.00     0.041 C 
ATOM     10  C   UNL     1      31.151  23.922 -13.324  1.00  0.00     0.150 C 
ATOM     11  C   UNL     1      31.737  25.089 -14.197  1.00  0.00     0.174 C 
ATOM     12  O   UNL     1      31.900  22.678 -13.348  1.00  0.00    -0.344 OA
ATOM     13  C   UNL     1      33.278  25.054 -14.000  1.00  0.00     0.179 C 
ATOM     14  C   UNL     1      33.879  23.707 -14.429  1.00  0.00     0.202 C 
BRANCH  11  15
ATOM     15  O   UNL     1      31.178  26.288 -13.780  1.00  0.00    -0.388 OA
ATOM     16  H   UNL     1      31.642  26.694 -12.965  1.00  0.00     0.211 HD
ENDBRANCH  11  15
BRANCH  13  17
ATOM     17  O   UNL     1      33.826  26.132 -14.723  1.00  0.00    -0.387 OA
ATOM     18  H   UNL     1      33.049  26.754 -14.956  1.00  0.00     0.211 HD
ENDBRANCH  13  17
BRANCH  14  19
ATOM     19  O   UNL     1      34.938  23.396 -13.517  1.00  0.00    -0.385 OA
ATOM     20  H   UNL     1      35.177  22.475 -13.714  1.00  0.00     0.211 HD
ENDBRANCH  14  19
ENDBRANCH   7   8
ENDBRANCH   1   7
BRANCH   2  21
ATOM     21  O   UNL     1      33.220  19.220 -14.922  1.00  0.00    -0.387 OA
ATOM     22  H   UNL     1      32.356  18.644 -15.103  1.00  0.00     0.211 HD
ENDBRANCH   2  21
BRANCH   6  23
ATOM     23  O   UNL     1      30.301  21.627 -18.083  1.00  0.00    -0.462 OA
BRANCH  23  24
ATOM     24  C   UNL     1      29.447  22.837 -17.936  1.00  0.00     0.130 A 
ATOM     25  C   UNL     1      28.273  23.022 -18.762  1.00  0.00     0.093 A 
ATOM     26  C   UNL     1      29.891  24.172 -17.541  1.00  0.00     0.094 A 
ATOM     27  C   UNL     1      28.530  23.804 -19.885  1.00  0.00     0.133 A 
ATOM     28  C   UNL     1      29.605  25.239 -18.456  1.00  0.00     0.138 A 
ATOM     29  C   UNL     1      29.505  24.802 -19.746  1.00  0.00     0.102 A 
ATOM     30  O   UNL     1      29.246  26.651 -18.206  1.00  0.00    -0.484 OA
ATOM     31  C   UNL     1      29.856  25.842 -20.777  1.00  0.00     0.174 C 
ATOM     32  C   UNL     1      28.539  27.341 -19.294  1.00  0.00     0.211 C 
ATOM     33  O   UNL     1      30.710  25.588 -21.684  1.00  0.00    -0.294 OA
ATOM     34  C   UNL     1      29.517  27.298 -20.499  1.00  0.00     0.131 C 
BRANCH  27  35
ATOM     35  O   UNL     1      27.879  23.596 -21.069  1.00  0.00    -0.507 OA
ATOM     36  H   UNL     1      27.942  22.664 -21.558  1.00  0.00     0.293 HD
ENDBRANCH  27  35
BRANCH  32  37
ATOM     37  C   UNL     1      28.052  28.768 -19.196  1.00  0.00    -0.007 A 
ATOM     38  C   UNL     1      27.905  29.430 -20.418  1.00  0.00     0.011 A 
ATOM     39  C   UNL     1      27.875  29.537 -18.034  1.00  0.00     0.011 A 
ATOM     40  C   UNL     1      28.135  30.813 -20.501  1.00  0.00     0.046 A 
ATOM     41  C   UNL     1      28.260  30.912 -18.051  1.00  0.00     0.046 A 
ATOM     42  C   UNL     1      28.303  31.562 -19.308  1.00  0.00     0.115 A 
BRANCH  42  43
ATOM     43  O   UNL     1      28.441  32.965 -19.358  1.00  0.00    -0.508 OA
ATOM     44  H   UNL     1      28.709  33.391 -20.264  1.00  0.00     0.293 HD
ENDBRANCH  42  43
ENDBRANCH  32  37
ENDBRANCH  23  24
ENDBRANCH   6  23
BRANCH   3  45
ATOM     45  O   UNL     1      33.744  19.126 -17.838  1.00  0.00    -0.387 OA
ATOM     46  H   UNL     1      33.593  18.331 -17.288  1.00  0.00     0.211 HD
ENDBRANCH   3  45
BRANCH   4  47
ATOM     47  C   UNL     1      35.667  22.231 -18.326  1.00  0.00     0.191 C 
BRANCH  47  48
ATOM     48  O   UNL     1      36.447  21.228 -18.956  1.00  0.00    -0.394 OA
ATOM     49  H   UNL     1      37.193  20.940 -18.341  1.00  0.00     0.210 HD
ENDBRANCH  47  48
ENDBRANCH   4  47
TORSDOF 14
ENDMDL
MODEL 5
REMARK VINA RESULT:    -4.368      1.730      2.414
REMARK INTER + INTRA:          -8.337
REMARK INTER:                  -6.603
REMARK INTRA:                  -1.734
REMARK UNBOUND:                -1.798
REMARK SMILES C[C@@H]1O[C@@H](O[C@H]2[C@@H](Oc3cc(O)c4c(c3)O[C@@H](c3ccc(O)cc3)CC4=O)O[C@H](CO)[C@H](O)[C@@H]2O)[C@H](O)[C@@H](O)[C@@H]1O
REMARK SMILES IDX 6 1 34 2 32 3 29 4 28 5 7 6 5 7 4 8 1 9 2 10 40 11 3 12
REMARK SMILES IDX 38 13 36 14 41 15 39 17 37 19 35 21 8 23 9 24 10 25 15 26
REMARK SMILES IDX 11 27 14 28 13 29 16 30 26 31 17 32 27 33 25 34 12 35 18 37
REMARK SMILES IDX 19 38 24 39 20 40 23 41 21 42 22 43 33 45 30 47 31 48
REMARK H PARENT 41 16 39 18 37 20 35 22 12 36 22 44 33 46 31 49
REMARK Flexibility Score: inf
ROOT
ATOM      1  C   UNL     1      31.837  15.649 -17.524  1.00  0.00     0.221 C 
ATOM      2  C   UNL     1      31.412  14.248 -18.166  1.00  0.00     0.181 C 
ATOM      3  C   UNL     1      32.294  13.894 -19.397  1.00  0.00     0.177 C 
ATOM      4  C   UNL     1      33.806  14.076 -18.805  1.00  0.00     0.179 C 
ATOM      5  O   UNL     1      34.142  15.522 -18.707  1.00  0.00    -0.332 OA
ATOM      6  C   UNL     1      32.950  16.388 -18.463  1.00  0.00     0.339 C 
ENDROOT
BRANCH   1   7
ATOM      7  O   UNL     1      32.376  15.320 -16.249  1.00  0.00    -0.337 OA
BRANCH   7   8
ATOM      8  C   UNL     1      31.911  16.055 -15.122  1.00  0.00     0.282 C 
ATOM      9  C   UNL     1      31.467  13.923 -12.242  1.00  0.00     0.041 C 
ATOM     10  C   UNL     1      31.629  14.073 -13.814  1.00  0.00     0.150 C 
ATOM     11  C   UNL     1      30.248  13.914 -14.547  1.00  0.00     0.174 C 
ATOM     12  O   UNL     1      32.315  15.335 -14.028  1.00  0.00    -0.344 OA
ATOM     13  C   UNL     1      29.518  15.279 -14.409  1.00  0.00     0.179 C 
ATOM     14  C   UNL     1      30.329  16.426 -15.032  1.00  0.00     0.202 C 
BRANCH  11  15
ATOM     15  O   UNL     1      29.542  12.875 -13.958  1.00  0.00    -0.388 OA
ATOM     16  H   UNL     1      29.280  12.137 -14.613  1.00  0.00     0.211 HD
ENDBRANCH  11  15
BRANCH  13  17
ATOM     17  O   UNL     1      28.247  15.146 -15.003  1.00  0.00    -0.387 OA
ATOM     18  H   UNL     1      28.001  16.064 -15.378  1.00  0.00     0.211 HD
ENDBRANCH  13  17
BRANCH  14  19
ATOM     19  O   UNL     1      30.147  17.581 -14.205  1.00  0.00    -0.385 OA
ATOM     20  H   UNL     1      29.809  18.268 -14.804  1.00  0.00     0.211 HD
ENDBRANCH  14  19
ENDBRANCH   7   8
ENDBRANCH   1   7
BRANCH   2  21
ATOM     21  O   UNL     1      29.986  14.096 -18.389  1.00  0.00    -0.387 OA
ATOM     22  H   UNL     1      29.718  14.166 -19.406  1.00  0.00     0.211 HD
ENDBRANCH   2  21
BRANCH   6  23
ATOM     23  O   UNL     1      33.195  17.808 -17.907  1.00  0.00    -0.462 OA
BRANCH  23  24
ATOM     24  C   UNL     1      32.435  18.932 -17.295  1.00  0.00     0.130 A 
ATOM     25  C   UNL     1      32.168  20.142 -18.041  1.00  0.00     0.093 A 
ATOM     26  C   UNL     1      32.422  19.303 -15.882  1.00  0.00     0.094 A 
ATOM     27  C   UNL     1      33.105  21.139 -17.790  1.00  0.00     0.133 A 
ATOM     28  C   UNL     1      32.816  20.647 -15.570  1.00  0.00     0.138 A 
ATOM     29  C   UNL     1      33.664  21.168 -16.504  1.00  0.00     0.102 A 
ATOM     30  O   UNL     1      32.328  21.576 -14.528  1.00  0.00    -0.484 OA
ATOM     31  C   UNL     1      34.594  22.225 -15.970  1.00  0.00     0.174 C 
ATOM     32  C   UNL     1      32.558  23.006 -14.777  1.00  0.00     0.211 C 
ATOM     33  O   UNL     1      35.848  22.136 -16.161  1.00  0.00    -0.294 OA
ATOM     34  C   UNL     1      34.100  23.154 -14.873  1.00  0.00     0.131 C 
BRANCH  27  35
ATOM     35  O   UNL     1      33.477  22.034 -18.754  1.00  0.00    -0.507 OA
ATOM     36  H   UNL     1      33.613  21.721 -19.752  1.00  0.00     0.293 HD
ENDBRANCH  27  35
BRANCH  32  37
ATOM     37  C   UNL     1      32.085  24.097 -13.846  1.00  0.00    -0.007 A 
ATOM     38  C   UNL     1      32.581  24.020 -12.541  1.00  0.00     0.011 A 
ATOM     39  C   UNL     1      31.109  25.076 -14.095  1.00  0.00     0.011 A 
ATOM     40  C   UNL     1      31.795  24.458 -11.463  1.00  0.00     0.046 A 
ATOM     41  C   UNL     1      30.191  25.416 -13.055  1.00  0.00     0.046 A 
ATOM     42  C   UNL     1      30.596  25.171 -11.721  1.00  0.00     0.115 A 
BRANCH  42  43
ATOM     43  O   UNL     1      29.837  25.704 -10.658  1.00  0.00    -0.508 OA
ATOM     44  H   UNL     1      29.386  26.625 -10.802  1.00  0.00     0.293 HD
ENDBRANCH  42  43
ENDBRANCH  32  37
ENDBRANCH  23  24
ENDBRANCH   6  23
BRANCH   3  45
ATOM     45  O   UNL     1      31.955  14.682 -20.526  1.00  0.00    -0.387 OA
ATOM     46  H   UNL     1      31.831  14.112 -21.313  1.00  0.00     0.211 HD
ENDBRANCH   3  45
BRANCH   4  47
ATOM     47  C   UNL     1      34.919  12.875 -19.291  1.00  0.00     0.191 C 
BRANCH  47  48
ATOM     48  O   UNL     1      36.224  13.027 -18.755  1.00  0.00    -0.394 OA
ATOM     49  H   UNL     1      36.852  13.352 -19.476  1.00  0.00     0.210 HD
ENDBRANCH  47  48
ENDBRANCH   4  47
TORSDOF 14
ENDMDL
MODEL 6
REMARK VINA RESULT:    -4.350      3.231      6.737
REMARK INTER + INTRA:          -8.311
REMARK INTER:                  -6.774
REMARK INTRA:                  -1.536
REMARK UNBOUND:                -1.798
REMARK SMILES C[C@@H]1O[C@@H](O[C@H]2[C@@H](Oc3cc(O)c4c(c3)O[C@@H](c3ccc(O)cc3)CC4=O)O[C@H](CO)[C@H](O)[C@@H]2O)[C@H](O)[C@@H](O)[C@@H]1O
REMARK SMILES IDX 6 1 34 2 32 3 29 4 28 5 7 6 5 7 4 8 1 9 2 10 40 11 3 12
REMARK SMILES IDX 38 13 36 14 41 15 39 17 37 19 35 21 8 23 9 24 10 25 15 26
REMARK SMILES IDX 11 27 14 28 13 29 16 30 26 31 17 32 27 33 25 34 12 35 18 37
REMARK SMILES IDX 19 38 24 39 20 40 23 41 21 42 22 43 33 45 30 47 31 48
REMARK H PARENT 41 16 39 18 37 20 35 22 12 36 22 44 33 46 31 49
REMARK Flexibility Score: inf
ROOT
ATOM      1  C   UNL     1      33.029  21.324 -15.338  1.00  0.00     0.221 C 
ATOM      2  C   UNL     1      33.663  20.082 -16.119  1.00  0.00     0.181 C 
ATOM      3  C   UNL     1      33.896  18.871 -15.170  1.00  0.00     0.177 C 
ATOM      4  C   UNL     1      32.435  18.705 -14.455  1.00  0.00     0.179 C 
ATOM      5  O   UNL     1      32.254  19.759 -13.421  1.00  0.00    -0.332 OA
ATOM      6  C   UNL     1      32.985  21.023 -13.734  1.00  0.00     0.339 C 
ENDROOT
BRANCH   1   7
ATOM      7  O   UNL     1      31.717  21.462 -15.871  1.00  0.00    -0.337 OA
BRANCH   7   8
ATOM      8  C   UNL     1      31.476  22.544 -16.765  1.00  0.00     0.282 C 
ATOM      9  C   UNL     1      30.082  21.392 -19.891  1.00  0.00     0.041 C 
ATOM     10  C   UNL     1      30.866  21.071 -18.548  1.00  0.00     0.150 C 
ATOM     11  C   UNL     1      32.408  20.923 -18.810  1.00  0.00     0.174 C 
ATOM     12  O   UNL     1      30.484  22.106 -17.604  1.00  0.00    -0.344 OA
ATOM     13  C   UNL     1      32.980  22.364 -18.896  1.00  0.00     0.179 C 
ATOM     14  C   UNL     1      32.728  23.158 -17.605  1.00  0.00     0.202 C 
BRANCH  11  15
ATOM     15  O   UNL     1      32.599  20.207 -19.983  1.00  0.00    -0.388 OA
ATOM     16  H   UNL     1      33.497  20.395 -20.434  1.00  0.00     0.211 HD
ENDBRANCH  11  15
BRANCH  13  17
ATOM     17  O   UNL     1      34.354  22.263 -19.194  1.00  0.00    -0.387 OA
ATOM     18  H   UNL     1      34.808  21.889 -18.359  1.00  0.00     0.211 HD
ENDBRANCH  13  17
BRANCH  14  19
ATOM     19  O   UNL     1      32.445  24.511 -17.977  1.00  0.00    -0.385 OA
ATOM     20  H   UNL     1      31.503  24.515 -18.215  1.00  0.00     0.211 HD
ENDBRANCH  14  19
ENDBRANCH   7   8
ENDBRANCH   1   7
BRANCH   2  21
ATOM     21  O   UNL     1      34.803  20.414 -16.953  1.00  0.00    -0.387 OA
ATOM     22  H   UNL     1      35.725  20.148 -16.517  1.00  0.00     0.211 HD
ENDBRANCH   2  21
BRANCH   6  23
ATOM     23  O   UNL     1      32.539  22.309 -13.005  1.00  0.00    -0.462 OA
BRANCH  23  24
ATOM     24  C   UNL     1      32.627  23.787 -13.159  1.00  0.00     0.130 A 
ATOM     25  C   UNL     1      31.700  24.662 -12.475  1.00  0.00     0.093 A 
ATOM     26  C   UNL     1      33.084  24.511 -14.343  1.00  0.00     0.094 A 
ATOM     27  C   UNL     1      30.620  25.023 -13.274  1.00  0.00     0.133 A 
ATOM     28  C   UNL     1      32.165  25.455 -14.912  1.00  0.00     0.138 A 
ATOM     29  C   UNL     1      30.864  25.131 -14.651  1.00  0.00     0.102 A 
ATOM     30  O   UNL     1      32.405  26.761 -15.561  1.00  0.00    -0.484 OA
ATOM     31  C   UNL     1      29.888  25.628 -15.683  1.00  0.00     0.174 C 
ATOM     32  C   UNL     1      31.268  27.692 -15.579  1.00  0.00     0.211 C 
ATOM     33  O   UNL     1      29.059  24.829 -16.223  1.00  0.00    -0.294 OA
ATOM     34  C   UNL     1      30.157  26.955 -16.375  1.00  0.00     0.131 C 
BRANCH  27  35
ATOM     35  O   UNL     1      29.378  25.241 -12.746  1.00  0.00    -0.507 OA
ATOM     36  H   UNL     1      29.098  24.795 -11.833  1.00  0.00     0.293 HD
ENDBRANCH  27  35
BRANCH  32  37
ATOM     37  C   UNL     1      31.346  29.086 -16.156  1.00  0.00    -0.007 A 
ATOM     38  C   UNL     1      30.275  29.449 -16.978  1.00  0.00     0.011 A 
ATOM     39  C   UNL     1      32.420  29.989 -16.081  1.00  0.00     0.011 A 
ATOM     40  C   UNL     1      30.483  30.318 -18.061  1.00  0.00     0.046 A 
ATOM     41  C   UNL     1      32.750  30.766 -17.233  1.00  0.00     0.046 A 
ATOM     42  C   UNL     1      31.726  30.991 -18.183  1.00  0.00     0.115 A 
BRANCH  42  43
ATOM     43  O   UNL     1      31.927  31.941 -19.207  1.00  0.00    -0.508 OA
ATOM     44  H   UNL     1      31.341  32.796 -19.193  1.00  0.00     0.293 HD
ENDBRANCH  42  43
ENDBRANCH  32  37
ENDBRANCH  23  24
ENDBRANCH   6  23
BRANCH   3  45
ATOM     45  O   UNL     1      35.003  19.085 -14.311  1.00  0.00    -0.387 OA
ATOM     46  H   UNL     1      35.228  18.259 -13.836  1.00  0.00     0.211 HD
ENDBRANCH   3  45
BRANCH   4  47
ATOM     47  C   UNL     1      31.904  17.093 -14.269  1.00  0.00     0.191 C 
BRANCH  47  48
ATOM     48  O   UNL     1      30.685  16.950 -13.558  1.00  0.00    -0.394 OA
ATOM     49  H   UNL     1      30.235  16.087 -13.824  1.00  0.00     0.210 HD
ENDBRANCH  47  48
ENDBRANCH   4  47
TORSDOF 14
ENDMDL
MODEL 7
REMARK VINA RESULT:    -3.926      3.981      6.766
REMARK INTER + INTRA:          -7.676
REMARK INTER:                  -6.683
REMARK INTRA:                  -0.993
REMARK UNBOUND:                -1.798
REMARK SMILES C[C@@H]1O[C@@H](O[C@H]2[C@@H](Oc3cc(O)c4c(c3)O[C@@H](c3ccc(O)cc3)CC4=O)O[C@H](CO)[C@H](O)[C@@H]2O)[C@H](O)[C@@H](O)[C@@H]1O
REMARK SMILES IDX 6 1 34 2 32 3 29 4 28 5 7 6 5 7 4 8 1 9 2 10 40 11 3 12
REMARK SMILES IDX 38 13 36 14 41 15 39 17 37 19 35 21 8 23 9 24 10 25 15 26
REMARK SMILES IDX 11 27 14 28 13 29 16 30 26 31 17 32 27 33 25 34 12 35 18 37
REMARK SMILES IDX 19 38 24 39 20 40 23 41 21 42 22 43 33 45 30 47 31 48
REMARK H PARENT 41 16 39 18 37 20 35 22 12 36 22 44 33 46 31 49
REMARK Flexibility Score: inf
ROOT
ATOM      1  C   UNL     1      32.103  20.417 -15.585  1.00  0.00     0.221 C 
ATOM      2  C   UNL     1      33.281  19.679 -14.796  1.00  0.00     0.181 C 
ATOM      3  C   UNL     1      34.389  19.176 -15.766  1.00  0.00     0.177 C 
ATOM      4  C   UNL     1      34.726  20.519 -16.634  1.00  0.00     0.179 C 
ATOM      5  O   UNL     1      33.652  20.758 -17.636  1.00  0.00    -0.332 OA
ATOM      6  C   UNL     1      32.315  20.261 -17.196  1.00  0.00     0.339 C 
ENDROOT
BRANCH   1   7
ATOM      7  O   UNL     1      32.190  21.779 -15.184  1.00  0.00    -0.337 OA
BRANCH   7   8
ATOM      8  C   UNL     1      33.372  22.198 -14.508  1.00  0.00     0.282 C 
ATOM      9  C   UNL     1      32.595  24.045 -11.504  1.00  0.00     0.041 C 
ATOM     10  C   UNL     1      32.131  23.476 -12.912  1.00  0.00     0.150 C 
ATOM     11  C   UNL     1      32.100  24.607 -14.002  1.00  0.00     0.174 C 
ATOM     12  O   UNL     1      33.004  22.350 -13.196  1.00  0.00    -0.344 OA
ATOM     13  C   UNL     1      33.567  24.804 -14.473  1.00  0.00     0.179 C 
ATOM     14  C   UNL     1      34.159  23.512 -15.056  1.00  0.00     0.202 C 
BRANCH  11  15
ATOM     15  O   UNL     1      31.565  25.758 -13.441  1.00  0.00    -0.388 OA
ATOM     16  H   UNL     1      30.781  26.144 -13.971  1.00  0.00     0.211 HD
ENDBRANCH  11  15
BRANCH  13  17
ATOM     17  O   UNL     1      33.578  25.860 -15.406  1.00  0.00    -0.387 OA
ATOM     18  H   UNL     1      34.339  25.665 -16.060  1.00  0.00     0.211 HD
ENDBRANCH  13  17
BRANCH  14  19
ATOM     19  O   UNL     1      35.535  23.452 -14.664  1.00  0.00    -0.385 OA
ATOM     20  H   UNL     1      35.766  24.363 -14.417  1.00  0.00     0.211 HD
ENDBRANCH  14  19
ENDBRANCH   7   8
ENDBRANCH   1   7
BRANCH   2  21
ATOM     21  O   UNL     1      32.834  18.688 -13.835  1.00  0.00    -0.387 OA
ATOM     22  H   UNL     1      31.847  18.851 -13.503  1.00  0.00     0.211 HD
ENDBRANCH   2  21
BRANCH   6  23
ATOM     23  O   UNL     1      31.068  20.825 -17.912  1.00  0.00    -0.462 OA
BRANCH  23  24
ATOM     24  C   UNL     1      30.665  22.007 -18.722  1.00  0.00     0.130 A 
ATOM     25  C   UNL     1      31.616  23.052 -19.034  1.00  0.00     0.093 A 
ATOM     26  C   UNL     1      29.342  22.625 -18.758  1.00  0.00     0.094 A 
ATOM     27  C   UNL     1      31.549  24.116 -18.141  1.00  0.00     0.133 A 
ATOM     28  C   UNL     1      29.276  24.018 -18.422  1.00  0.00     0.138 A 
ATOM     29  C   UNL     1      30.290  24.398 -17.590  1.00  0.00     0.102 A 
ATOM     30  O   UNL     1      28.416  25.097 -18.953  1.00  0.00    -0.484 OA
ATOM     31  C   UNL     1      29.956  25.572 -16.709  1.00  0.00     0.174 C 
ATOM     32  C   UNL     1      28.918  26.468 -18.782  1.00  0.00     0.211 C 
ATOM     33  O   UNL     1      30.130  25.502 -15.451  1.00  0.00    -0.294 OA
ATOM     34  C   UNL     1      29.042  26.661 -17.247  1.00  0.00     0.131 C 
BRANCH  27  35
ATOM     35  O   UNL     1      32.659  24.839 -17.801  1.00  0.00    -0.507 OA
ATOM     36  H   UNL     1      33.397  25.057 -18.521  1.00  0.00     0.293 HD
ENDBRANCH  27  35
BRANCH  32  37
ATOM     37  C   UNL     1      28.197  27.687 -19.305  1.00  0.00    -0.007 A 
ATOM     38  C   UNL     1      27.960  27.691 -20.683  1.00  0.00     0.011 A 
ATOM     39  C   UNL     1      27.875  28.862 -18.605  1.00  0.00     0.011 A 
ATOM     40  C   UNL     1      27.955  28.903 -21.392  1.00  0.00     0.046 A 
ATOM     41  C   UNL     1      28.023  30.121 -19.262  1.00  0.00     0.046 A 
ATOM     42  C   UNL     1      27.976  30.128 -20.677  1.00  0.00     0.115 A 
BRANCH  42  43
ATOM     43  O   UNL     1      27.876  31.358 -21.361  1.00  0.00    -0.508 OA
ATOM     44  H   UNL     1      26.930  31.681 -21.636  1.00  0.00     0.293 HD
ENDBRANCH  42  43
ENDBRANCH  32  37
ENDBRANCH  23  24
ENDBRANCH   6  23
BRANCH   3  45
ATOM     45  O   UNL     1      33.966  18.037 -16.497  1.00  0.00    -0.387 OA
ATOM     46  H   UNL     1      33.102  18.210 -16.924  1.00  0.00     0.211 HD
ENDBRANCH   3  45
BRANCH   4  47
ATOM     47  C   UNL     1      36.385  20.780 -16.942  1.00  0.00     0.191 C 
BRANCH  47  48
ATOM     48  O   UNL     1      37.116  21.301 -15.844  1.00  0.00    -0.394 OA
ATOM     49  H   UNL     1      38.103  21.150 -15.990  1.00  0.00     0.210 HD
ENDBRANCH  47  48
ENDBRANCH   4  47
TORSDOF 14
ENDMDL
MODEL 8
REMARK VINA RESULT:    -3.796      3.257     11.957
REMARK INTER + INTRA:          -7.481
REMARK INTER:                  -5.645
REMARK INTRA:                  -1.837
REMARK UNBOUND:                -1.798
REMARK SMILES C[C@@H]1O[C@@H](O[C@H]2[C@@H](Oc3cc(O)c4c(c3)O[C@@H](c3ccc(O)cc3)CC4=O)O[C@H](CO)[C@H](O)[C@@H]2O)[C@H](O)[C@@H](O)[C@@H]1O
REMARK SMILES IDX 6 1 34 2 32 3 29 4 28 5 7 6 5 7 4 8 1 9 2 10 40 11 3 12
REMARK SMILES IDX 38 13 36 14 41 15 39 17 37 19 35 21 8 23 9 24 10 25 15 26
REMARK SMILES IDX 11 27 14 28 13 29 16 30 26 31 17 32 27 33 25 34 12 35 18 37
REMARK SMILES IDX 19 38 24 39 20 40 23 41 21 42 22 43 33 45 30 47 31 48
REMARK H PARENT 41 16 39 18 37 20 35 22 12 36 22 44 33 46 31 49
REMARK Flexibility Score: inf
ROOT
ATOM      1  C   UNL     1      29.788  29.751 -16.801  1.00  0.00     0.221 C 
ATOM      2  C   UNL     1      29.936  31.338 -16.672  1.00  0.00     0.181 C 
ATOM      3  C   UNL     1      31.192  31.728 -15.842  1.00  0.00     0.177 C 
ATOM      4  C   UNL     1      32.374  30.872 -16.578  1.00  0.00     0.179 C 
ATOM      5  O   UNL     1      32.287  29.440 -16.180  1.00  0.00    -0.332 OA
ATOM      6  C   UNL     1      30.895  29.001 -15.865  1.00  0.00     0.339 C 
ENDROOT
BRANCH   1   7
ATOM      7  O   UNL     1      30.007  29.474 -18.180  1.00  0.00    -0.337 OA
BRANCH   7   8
ATOM      8  C   UNL     1      28.870  29.180 -18.985  1.00  0.00     0.282 C 
ATOM      9  C   UNL     1      27.876  25.723 -18.662  1.00  0.00     0.041 C 
ATOM     10  C   UNL     1      28.985  26.845 -18.479  1.00  0.00     0.150 C 
ATOM     11  C   UNL     1      30.072  26.762 -19.610  1.00  0.00     0.174 C 
ATOM     12  O   UNL     1      28.268  28.105 -18.384  1.00  0.00    -0.344 OA
ATOM     13  C   UNL     1      29.460  27.455 -20.859  1.00  0.00     0.179 C 
ATOM     14  C   UNL     1      29.088  28.919 -20.577  1.00  0.00     0.202 C 
BRANCH  11  15
ATOM     15  O   UNL     1      30.379  25.430 -19.842  1.00  0.00    -0.388 OA
ATOM     16  H   UNL     1      31.381  25.229 -19.804  1.00  0.00     0.211 HD
ENDBRANCH  11  15
BRANCH  13  17
ATOM     17  O   UNL     1      30.390  27.339 -21.911  1.00  0.00    -0.387 OA
ATOM     18  H   UNL     1      30.100  28.001 -22.633  1.00  0.00     0.211 HD
ENDBRANCH  13  17
BRANCH  14  19
ATOM     19  O   UNL     1      27.876  29.201 -21.285  1.00  0.00    -0.385 OA
ATOM     20  H   UNL     1      28.158  29.407 -22.193  1.00  0.00     0.211 HD
ENDBRANCH  14  19
ENDBRANCH   7   8
ENDBRANCH   1   7
BRANCH   2  21
ATOM     21  O   UNL     1      28.721  32.025 -16.275  1.00  0.00    -0.387 OA
ATOM     22  H   UNL     1      27.872  31.707 -16.813  1.00  0.00     0.211 HD
ENDBRANCH   2  21
BRANCH   6  23
ATOM     23  O   UNL     1      30.601  27.485 -15.877  1.00  0.00    -0.462 OA
BRANCH  23  24
ATOM     24  C   UNL     1      30.963  26.255 -15.120  1.00  0.00     0.130 A 
ATOM     25  C   UNL     1      32.264  26.120 -14.502  1.00  0.00     0.093 A 
ATOM     26  C   UNL     1      30.486  24.900 -15.385  1.00  0.00     0.094 A 
ATOM     27  C   UNL     1      33.167  25.433 -15.307  1.00  0.00     0.133 A 
ATOM     28  C   UNL     1      31.489  23.904 -15.630  1.00  0.00     0.138 A 
ATOM     29  C   UNL     1      32.636  24.440 -16.143  1.00  0.00     0.102 A 
ATOM     30  O   UNL     1      31.533  22.472 -15.266  1.00  0.00    -0.484 OA
ATOM     31  C   UNL     1      33.430  23.490 -16.999  1.00  0.00     0.174 C 
ATOM     32  C   UNL     1      32.868  21.860 -15.208  1.00  0.00     0.211 C 
ATOM     33  O   UNL     1      33.791  23.827 -18.171  1.00  0.00    -0.294 OA
ATOM     34  C   UNL     1      33.443  22.012 -16.642  1.00  0.00     0.131 C 
BRANCH  27  35
ATOM     35  O   UNL     1      34.503  25.724 -15.298  1.00  0.00    -0.507 OA
ATOM     36  H   UNL     1      34.874  26.551 -15.836  1.00  0.00     0.293 HD
ENDBRANCH  27  35
BRANCH  32  37
ATOM     37  C   UNL     1      33.107  20.424 -14.807  1.00  0.00    -0.007 A 
ATOM     38  C   UNL     1      33.789  19.650 -15.751  1.00  0.00     0.011 A 
ATOM     39  C   UNL     1      32.604  19.751 -13.681  1.00  0.00     0.011 A 
ATOM     40  C   UNL     1      33.507  18.280 -15.872  1.00  0.00     0.046 A 
ATOM     41  C   UNL     1      32.157  18.402 -13.825  1.00  0.00     0.046 A 
ATOM     42  C   UNL     1      32.694  17.648 -14.896  1.00  0.00     0.115 A 
BRANCH  42  43
ATOM     43  O   UNL     1      32.474  16.255 -14.941  1.00  0.00    -0.508 OA
ATOM     44  H   UNL     1      32.655  15.710 -14.079  1.00  0.00     0.293 HD
ENDBRANCH  42  43
ENDBRANCH  32  37
ENDBRANCH  23  24
ENDBRANCH   6  23
BRANCH   3  45
ATOM     45  O   UNL     1      31.000  31.484 -14.458  1.00  0.00    -0.387 OA
ATOM     46  H   UNL     1      31.853  31.262 -14.031  1.00  0.00     0.211 HD
ENDBRANCH   3  45
BRANCH   4  47
ATOM     47  C   UNL     1      33.848  31.710 -16.786  1.00  0.00     0.191 C 
BRANCH  47  48
ATOM     48  O   UNL     1      34.969  31.095 -16.172  1.00  0.00    -0.394 OA
ATOM     49  H   UNL     1      34.917  30.094 -16.293  1.00  0.00     0.210 HD
ENDBRANCH  47  48
ENDBRANCH   4  47
TORSDOF 14
ENDMDL
MODEL 9
REMARK VINA RESULT:    -3.618      6.161     13.859
REMARK INTER + INTRA:          -7.215
REMARK INTER:                  -6.396
REMARK INTRA:                  -0.818
REMARK UNBOUND:                -1.798
REMARK SMILES C[C@@H]1O[C@@H](O[C@H]2[C@@H](Oc3cc(O)c4c(c3)O[C@@H](c3ccc(O)cc3)CC4=O)O[C@H](CO)[C@H](O)[C@@H]2O)[C@H](O)[C@@H](O)[C@@H]1O
REMARK SMILES IDX 6 1 34 2 32 3 29 4 28 5 7 6 5 7 4 8 1 9 2 10 40 11 3 12
REMARK SMILES IDX 38 13 36 14 41 15 39 17 37 19 35 21 8 23 9 24 10 25 15 26
REMARK SMILES IDX 11 27 14 28 13 29 16 30 26 31 17 32 27 33 25 34 12 35 18 37
REMARK SMILES IDX 19 38 24 39 20 40 23 41 21 42 22 43 33 45 30 47 31 48
REMARK H PARENT 41 16 39 18 37 20 35 22 12 36 22 44 33 46 31 49
REMARK Flexibility Score: inf
ROOT
ATOM      1  C   UNL     1      30.238  30.927 -17.980  1.00  0.00     0.221 C 
ATOM      2  C   UNL     1      29.991  32.501 -17.850  1.00  0.00     0.181 C 
ATOM      3  C   UNL     1      29.245  32.854 -16.531  1.00  0.00     0.177 C 
ATOM      4  C   UNL     1      30.151  32.090 -15.405  1.00  0.00     0.179 C 
ATOM      5  O   UNL     1      29.866  30.629 -15.431  1.00  0.00    -0.332 OA
ATOM      6  C   UNL     1      29.467  30.131 -16.781  1.00  0.00     0.339 C 
ENDROOT
BRANCH   1   7
ATOM      7  O   UNL     1      31.648  30.767 -17.881  1.00  0.00    -0.337 OA
BRANCH   7   8
ATOM      8  C   UNL     1      32.422  31.909 -17.529  1.00  0.00     0.282 C 
ATOM      9  C   UNL     1      34.578  32.933 -20.239  1.00  0.00     0.041 C 
ATOM     10  C   UNL     1      33.678  31.813 -19.562  1.00  0.00     0.150 C 
ATOM     11  C   UNL     1      34.560  30.732 -18.842  1.00  0.00     0.174 C 
ATOM     12  O   UNL     1      32.729  32.518 -18.718  1.00  0.00    -0.344 OA
ATOM     13  C   UNL     1      34.973  31.341 -17.474  1.00  0.00     0.179 C 
ATOM     14  C   UNL     1      33.752  31.699 -16.614  1.00  0.00     0.202 C 
BRANCH  11  15
ATOM     15  O   UNL     1      35.654  30.437 -19.642  1.00  0.00    -0.388 OA
ATOM     16  H   UNL     1      36.489  30.180 -19.113  1.00  0.00     0.211 HD
ENDBRANCH  11  15
BRANCH  13  17
ATOM     17  O   UNL     1      35.820  30.416 -16.832  1.00  0.00    -0.387 OA
ATOM     18  H   UNL     1      35.285  30.018 -16.057  1.00  0.00     0.211 HD
ENDBRANCH  13  17
BRANCH  14  19
ATOM     19  O   UNL     1      34.055  32.910 -15.914  1.00  0.00    -0.385 OA
ATOM     20  H   UNL     1      33.191  33.312 -15.721  1.00  0.00     0.211 HD
ENDBRANCH  14  19
ENDBRANCH   7   8
ENDBRANCH   1   7
BRANCH   2  21
ATOM     21  O   UNL     1      29.434  33.123 -19.036  1.00  0.00    -0.387 OA
ATOM     22  H   UNL     1      28.432  33.427 -18.911  1.00  0.00     0.211 HD
ENDBRANCH   2  21
BRANCH   6  23
ATOM     23  O   UNL     1      29.578  28.614 -17.048  1.00  0.00    -0.462 OA
BRANCH  23  24
ATOM     24  C   UNL     1      29.076  27.593 -18.009  1.00  0.00     0.130 A 
ATOM     25  C   UNL     1      28.024  26.674 -17.632  1.00  0.00     0.093 A 
ATOM     26  C   UNL     1      29.849  26.933 -19.058  1.00  0.00     0.094 A 
ATOM     27  C   UNL     1      28.518  25.455 -17.180  1.00  0.00     0.133 A 
ATOM     28  C   UNL     1      29.891  25.499 -19.016  1.00  0.00     0.138 A 
ATOM     29  C   UNL     1      29.721  25.013 -17.752  1.00  0.00     0.102 A 
ATOM     30  O   UNL     1      29.916  24.505 -20.110  1.00  0.00    -0.484 OA
ATOM     31  C   UNL     1      30.372  23.677 -17.513  1.00  0.00     0.174 C 
ATOM     32  C   UNL     1      29.457  23.152 -19.764  1.00  0.00     0.211 C 
ATOM     33  O   UNL     1      31.156  23.509 -16.527  1.00  0.00    -0.294 OA
ATOM     34  C   UNL     1      30.427  22.671 -18.652  1.00  0.00     0.131 C 
BRANCH  27  35
ATOM     35  O   UNL     1      27.875  24.733 -16.214  1.00  0.00    -0.507 OA
ATOM     36  H   UNL     1      27.056  24.117 -16.462  1.00  0.00     0.293 HD
ENDBRANCH  27  35
BRANCH  32  37
ATOM     37  C   UNL     1      29.369  22.024 -20.765  1.00  0.00    -0.007 A 
ATOM     38  C   UNL     1      28.097  21.462 -20.914  1.00  0.00     0.011 A 
ATOM     39  C   UNL     1      30.424  21.391 -21.442  1.00  0.00     0.011 A 
ATOM     40  C   UNL     1      27.964  20.097 -21.215  1.00  0.00     0.046 A 
ATOM     41  C   UNL     1      30.384  19.973 -21.612  1.00  0.00     0.046 A 
ATOM     42  C   UNL     1      29.114  19.349 -21.578  1.00  0.00     0.115 A 
BRANCH  42  43
ATOM     43  O   UNL     1      28.994  18.001 -21.977  1.00  0.00    -0.508 OA
ATOM     44  H   UNL     1      28.658  17.811 -22.939  1.00  0.00     0.293 HD
ENDBRANCH  42  43
ENDBRANCH  32  37
ENDBRANCH  23  24
ENDBRANCH   6  23
BRANCH   3  45
ATOM     45  O   UNL     1      27.875  32.495 -16.594  1.00  0.00    -0.387 OA
ATOM     46  H   UNL     1      27.409  32.793 -15.786  1.00  0.00     0.211 HD
ENDBRANCH   3  45
BRANCH   4  47
ATOM     47  C   UNL     1      30.417  32.978 -13.971  1.00  0.00     0.191 C 
BRANCH  47  48
ATOM     48  O   UNL     1      29.566  32.627 -12.892  1.00  0.00    -0.394 OA
ATOM     49  H   UNL     1      28.604  32.642 -13.198  1.00  0.00     0.210 HD
ENDBRANCH  47  48
ENDBRANCH   4  47
TORSDOF 14
ENDMDL
