MODEL 1
REMARK VINA RESULT:    -7.192      0.000      0.000
REMARK INTER + INTRA:         -10.645
REMARK INTER:                  -9.715
REMARK INTRA:                  -0.931
REMARK UNBOUND:                -0.931
REMARK SMILES O=c1c(-c2ccc(O)cc2)coc2c([C@H]3O[C@H](CO)[C@H](O)[C@H](O)[C@H]3O)c(O)ccc12
REMARK SMILES IDX 3 1 11 2 12 3 13 4 30 5 2 6 1 7 29 8 28 9 26 10 14 11 4 12
REMARK SMILES IDX 5 13 6 14 7 15 10 16 9 17 8 18 15 20 24 21 16 22 22 23 17 24
REMARK SMILES IDX 20 25 25 26 23 28 18 30 19 31 21 33 27 35
REMARK H PARENT 8 19 25 27 23 29 19 32 21 34 27 36
REMARK Flexibility Score: inf
ROOT
ATOM      1  C   UNL     1     -13.807 -16.839  18.990  1.00  0.00     0.065 A 
ATOM      2  C   UNL     1     -13.248 -16.431  20.208  1.00  0.00     0.208 A 
ATOM      3  O   UNL     1     -12.147 -15.691  20.240  1.00  0.00    -0.463 OA
ATOM      4  C   UNL     1     -11.504 -15.290  19.145  1.00  0.00     0.147 A 
ATOM      5  C   UNL     1     -11.993 -15.670  17.873  1.00  0.00     0.066 A 
ATOM      6  C   UNL     1     -13.158 -16.455  17.803  1.00  0.00     0.200 A 
ATOM      7  O   UNL     1     -13.607 -16.832  16.685  1.00  0.00    -0.288 OA
ATOM      8  C   UNL     1     -11.306 -15.268  16.719  1.00  0.00     0.020 A 
ATOM      9  C   UNL     1     -10.133 -14.526  16.824  1.00  0.00     0.047 A 
ATOM     10  C   UNL     1      -9.625 -14.157  18.072  1.00  0.00     0.125 A 
ATOM     11  C   UNL     1     -10.336 -14.492  19.257  1.00  0.00     0.069 A 
ENDROOT
BRANCH   1  12
ATOM     12  C   UNL     1     -15.045 -17.659  18.981  1.00  0.00    -0.011 A 
ATOM     13  C   UNL     1     -15.024 -18.992  19.430  1.00  0.00     0.013 A 
ATOM     14  C   UNL     1     -16.190 -19.762  19.412  1.00  0.00     0.047 A 
ATOM     15  C   UNL     1     -17.390 -19.213  18.941  1.00  0.00     0.115 A 
ATOM     16  C   UNL     1     -16.251 -17.118  18.505  1.00  0.00     0.013 A 
ATOM     17  C   UNL     1     -17.416 -17.890  18.488  1.00  0.00     0.047 A 
BRANCH  15  18
ATOM     18  O   UNL     1     -18.559 -19.971  18.920  1.00  0.00    -0.508 OA
ATOM     19  H   UNL     1     -19.215 -19.956  19.692  1.00  0.00     0.293 HD
ENDBRANCH  15  18
ENDBRANCH   1  12
BRANCH  11  20
ATOM     20  C   UNL     1      -9.831 -14.053  20.629  1.00  0.00     0.188 C 
ATOM     21  C   UNL     1     -10.457 -12.690  21.018  1.00  0.00     0.179 C 
ATOM     22  O   UNL     1      -8.405 -14.077  20.659  1.00  0.00    -0.362 OA
ATOM     23  C   UNL     1     -10.014 -12.279  22.447  1.00  0.00     0.177 C 
ATOM     24  C   UNL     1      -7.805 -13.152  21.559  1.00  0.00     0.176 C 
ATOM     25  C   UNL     1      -8.650 -12.903  22.834  1.00  0.00     0.177 C 
BRANCH  21  26
ATOM     26  O   UNL     1     -10.064 -11.709  20.091  1.00  0.00    -0.387 OA
ATOM     27  H   UNL     1      -9.573 -12.178  19.366  1.00  0.00     0.211 HD
ENDBRANCH  21  26
BRANCH  23  28
ATOM     28  O   UNL     1     -10.994 -12.653  23.384  1.00  0.00    -0.387 OA
ATOM     29  H   UNL     1     -10.889 -12.050  24.167  1.00  0.00     0.211 HD
ENDBRANCH  23  28
BRANCH  24  30
ATOM     30  C   UNL     1      -6.398 -13.662  21.904  1.00  0.00     0.191 C 
BRANCH  30  31
ATOM     31  O   UNL     1      -5.688 -12.708  22.650  1.00  0.00    -0.394 OA
ATOM     32  H   UNL     1      -5.168 -12.163  22.003  1.00  0.00     0.210 HD
ENDBRANCH  30  31
ENDBRANCH  24  30
BRANCH  25  33
ATOM     33  O   UNL     1      -8.828 -14.119  23.519  1.00  0.00    -0.388 OA
ATOM     34  H   UNL     1      -8.204 -14.114  24.291  1.00  0.00     0.211 HD
ENDBRANCH  25  33
ENDBRANCH  11  20
BRANCH  10  35
ATOM     35  O   UNL     1      -8.406 -13.473  18.087  1.00  0.00    -0.507 OA
ATOM     36  H   UNL     1      -7.699 -13.553  17.370  1.00  0.00     0.293 HD
ENDBRANCH  10  35
TORSDOF 9
ENDMDL
MODEL 2
REMARK VINA RESULT:    -6.887      2.051      3.599
REMARK INTER + INTRA:         -10.234
REMARK INTER:                  -9.119
REMARK INTRA:                  -1.115
REMARK UNBOUND:                -0.931
REMARK SMILES O=c1c(-c2ccc(O)cc2)coc2c([C@H]3O[C@H](CO)[C@H](O)[C@H](O)[C@H]3O)c(O)ccc12
REMARK SMILES IDX 3 1 11 2 12 3 13 4 30 5 2 6 1 7 29 8 28 9 26 10 14 11 4 12
REMARK SMILES IDX 5 13 6 14 7 15 10 16 9 17 8 18 15 20 24 21 16 22 22 23 17 24
REMARK SMILES IDX 20 25 25 26 23 28 18 30 19 31 21 33 27 35
REMARK H PARENT 8 19 25 27 23 29 19 32 21 34 27 36
REMARK Flexibility Score: inf
ROOT
ATOM      1  C   UNL     1     -15.067 -17.685  18.682  1.00  0.00     0.065 A 
ATOM      2  C   UNL     1     -14.663 -16.348  18.559  1.00  0.00     0.208 A 
ATOM      3  O   UNL     1     -13.609 -15.890  19.221  1.00  0.00    -0.463 OA
ATOM      4  C   UNL     1     -12.871 -16.645  20.033  1.00  0.00     0.147 A 
ATOM      5  C   UNL     1     -13.217 -18.002  20.226  1.00  0.00     0.066 A 
ATOM      6  C   UNL     1     -14.331 -18.521  19.541  1.00  0.00     0.200 A 
ATOM      7  O   UNL     1     -14.682 -19.722  19.710  1.00  0.00    -0.288 OA
ATOM      8  C   UNL     1     -12.457 -18.793  21.099  1.00  0.00     0.020 A 
ATOM      9  C   UNL     1     -11.386 -18.239  21.794  1.00  0.00     0.047 A 
ATOM     10  C   UNL     1     -11.040 -16.896  21.629  1.00  0.00     0.125 A 
ATOM     11  C   UNL     1     -11.751 -16.086  20.702  1.00  0.00     0.069 A 
ENDROOT
BRANCH   1  12
ATOM     12  C   UNL     1     -16.245 -18.175  17.924  1.00  0.00    -0.011 A 
ATOM     13  C   UNL     1     -16.093 -18.716  16.635  1.00  0.00     0.013 A 
ATOM     14  C   UNL     1     -17.207 -19.169  15.922  1.00  0.00     0.047 A 
ATOM     15  C   UNL     1     -18.486 -19.083  16.486  1.00  0.00     0.115 A 
ATOM     16  C   UNL     1     -17.533 -18.086  18.480  1.00  0.00     0.013 A 
ATOM     17  C   UNL     1     -18.646 -18.540  17.765  1.00  0.00     0.047 A 
BRANCH  15  18
ATOM     18  O   UNL     1     -19.604 -19.532  15.785  1.00  0.00    -0.508 OA
ATOM     19  H   UNL     1     -20.137 -20.336  16.096  1.00  0.00     0.293 HD
ENDBRANCH  15  18
ENDBRANCH   1  12
BRANCH  11  20
ATOM     20  C   UNL     1     -11.358 -14.631  20.464  1.00  0.00     0.188 C 
ATOM     21  C   UNL     1     -10.445 -14.521  19.216  1.00  0.00     0.179 C 
ATOM     22  O   UNL     1     -10.802 -14.070  21.652  1.00  0.00    -0.362 OA
ATOM     23  C   UNL     1     -10.112 -13.035  18.919  1.00  0.00     0.177 C 
ATOM     24  C   UNL     1      -9.860 -13.023  21.442  1.00  0.00     0.176 C 
ATOM     25  C   UNL     1     -10.175 -12.159  20.195  1.00  0.00     0.177 C 
BRANCH  21  26
ATOM     26  O   UNL     1      -9.261 -15.247  19.433  1.00  0.00    -0.387 OA
ATOM     27  H   UNL     1      -8.589 -14.604  19.781  1.00  0.00     0.211 HD
ENDBRANCH  21  26
BRANCH  23  28
ATOM     28  O   UNL     1     -10.990 -12.526  17.945  1.00  0.00    -0.387 OA
ATOM     29  H   UNL     1     -10.626 -11.647  17.660  1.00  0.00     0.211 HD
ENDBRANCH  23  28
BRANCH  24  30
ATOM     30  C   UNL     1      -9.798 -12.172  22.719  1.00  0.00     0.191 C 
BRANCH  30  31
ATOM     31  O   UNL     1     -11.013 -12.233  23.420  1.00  0.00    -0.394 OA
ATOM     32  H   UNL     1     -10.961 -11.559  24.148  1.00  0.00     0.210 HD
ENDBRANCH  30  31
ENDBRANCH  24  30
BRANCH  25  33
ATOM     33  O   UNL     1     -11.447 -11.574  20.342  1.00  0.00    -0.388 OA
ATOM     34  H   UNL     1     -11.337 -10.780  20.927  1.00  0.00     0.211 HD
ENDBRANCH  25  33
ENDBRANCH  11  20
BRANCH  10  35
ATOM     35  O   UNL     1      -9.995 -16.405  22.419  1.00  0.00    -0.507 OA
ATOM     36  H   UNL     1      -9.391 -16.981  22.986  1.00  0.00     0.293 HD
ENDBRANCH  10  35
TORSDOF 9
ENDMDL
MODEL 3
REMARK VINA RESULT:    -6.750      2.494      4.665
REMARK INTER + INTRA:         -10.048
REMARK INTER:                  -8.739
REMARK INTRA:                  -1.309
REMARK UNBOUND:                -0.931
REMARK SMILES O=c1c(-c2ccc(O)cc2)coc2c([C@H]3O[C@H](CO)[C@H](O)[C@H](O)[C@H]3O)c(O)ccc12
REMARK SMILES IDX 3 1 11 2 12 3 13 4 30 5 2 6 1 7 29 8 28 9 26 10 14 11 4 12
REMARK SMILES IDX 5 13 6 14 7 15 10 16 9 17 8 18 15 20 24 21 16 22 22 23 17 24
REMARK SMILES IDX 20 25 25 26 23 28 18 30 19 31 21 33 27 35
REMARK H PARENT 8 19 25 27 23 29 19 32 21 34 27 36
REMARK Flexibility Score: inf
ROOT
ATOM      1  C   UNL     1     -15.821 -17.174  17.891  1.00  0.00     0.065 A 
ATOM      2  C   UNL     1     -14.679 -16.367  17.803  1.00  0.00     0.208 A 
ATOM      3  O   UNL     1     -13.720 -16.441  18.717  1.00  0.00    -0.463 OA
ATOM      4  C   UNL     1     -13.768 -17.265  19.762  1.00  0.00     0.147 A 
ATOM      5  C   UNL     1     -14.893 -18.104  19.935  1.00  0.00     0.066 A 
ATOM      6  C   UNL     1     -15.929 -18.052  18.985  1.00  0.00     0.200 A 
ATOM      7  O   UNL     1     -16.958 -18.770  19.123  1.00  0.00    -0.288 OA
ATOM      8  C   UNL     1     -14.956 -18.956  21.047  1.00  0.00     0.020 A 
ATOM      9  C   UNL     1     -13.933 -18.955  21.990  1.00  0.00     0.047 A 
ATOM     10  C   UNL     1     -12.823 -18.119  21.846  1.00  0.00     0.125 A 
ATOM     11  C   UNL     1     -12.699 -17.293  20.695  1.00  0.00     0.069 A 
ENDROOT
BRANCH   1  12
ATOM     12  C   UNL     1     -16.876 -17.080  16.850  1.00  0.00    -0.011 A 
ATOM     13  C   UNL     1     -16.813 -17.875  15.692  1.00  0.00     0.013 A 
ATOM     14  C   UNL     1     -17.805 -17.777  14.712  1.00  0.00     0.047 A 
ATOM     15  C   UNL     1     -18.868 -16.880  14.874  1.00  0.00     0.115 A 
ATOM     16  C   UNL     1     -17.943 -16.178  17.002  1.00  0.00     0.013 A 
ATOM     17  C   UNL     1     -18.934 -16.082  16.020  1.00  0.00     0.047 A 
BRANCH  15  18
ATOM     18  O   UNL     1     -19.863 -16.774  13.903  1.00  0.00    -0.508 OA
ATOM     19  H   UNL     1     -20.677 -17.377  13.912  1.00  0.00     0.293 HD
ENDBRANCH  15  18
ENDBRANCH   1  12
BRANCH  11  20
ATOM     20  C   UNL     1     -11.470 -16.412  20.487  1.00  0.00     0.188 C 
ATOM     21  C   UNL     1     -10.353 -17.213  19.771  1.00  0.00     0.179 C 
ATOM     22  O   UNL     1     -11.072 -15.822  21.724  1.00  0.00    -0.362 OA
ATOM     23  C   UNL     1      -9.133 -16.299  19.481  1.00  0.00     0.177 C 
ATOM     24  C   UNL     1      -9.684 -15.527  21.832  1.00  0.00     0.176 C 
ATOM     25  C   UNL     1      -9.038 -15.123  20.484  1.00  0.00     0.177 C 
BRANCH  21  26
ATOM     26  O   UNL     1      -9.962 -18.298  20.574  1.00  0.00    -0.387 OA
ATOM     27  H   UNL     1      -9.097 -18.049  20.994  1.00  0.00     0.211 HD
ENDBRANCH  21  26
BRANCH  23  28
ATOM     28  O   UNL     1      -9.201 -15.804  18.166  1.00  0.00    -0.387 OA
ATOM     29  H   UNL     1      -8.306 -15.945  17.758  1.00  0.00     0.211 HD
ENDBRANCH  23  28
BRANCH  24  30
ATOM     30  C   UNL     1      -9.508 -14.431  22.894  1.00  0.00     0.191 C 
BRANCH  30  31
ATOM     31  O   UNL     1     -10.606 -13.555  22.895  1.00  0.00    -0.394 OA
ATOM     32  H   UNL     1     -11.047 -13.643  22.009  1.00  0.00     0.210 HD
ENDBRANCH  30  31
ENDBRANCH  24  30
BRANCH  25  33
ATOM     33  O   UNL     1      -9.685 -13.978  19.981  1.00  0.00    -0.388 OA
ATOM     34  H   UNL     1     -10.499 -13.838  20.532  1.00  0.00     0.211 HD
ENDBRANCH  25  33
ENDBRANCH  11  20
BRANCH  10  35
ATOM     35  O   UNL     1     -11.878 -18.130  22.876  1.00  0.00    -0.507 OA
ATOM     36  H   UNL     1     -11.129 -17.459  22.970  1.00  0.00     0.293 HD
ENDBRANCH  10  35
TORSDOF 9
ENDMDL
MODEL 4
REMARK VINA RESULT:    -6.655      2.279      8.636
REMARK INTER + INTRA:          -9.920
REMARK INTER:                  -8.612
REMARK INTRA:                  -1.308
REMARK UNBOUND:                -0.931
REMARK SMILES O=c1c(-c2ccc(O)cc2)coc2c([C@H]3O[C@H](CO)[C@H](O)[C@H](O)[C@H]3O)c(O)ccc12
REMARK SMILES IDX 3 1 11 2 12 3 13 4 30 5 2 6 1 7 29 8 28 9 26 10 14 11 4 12
REMARK SMILES IDX 5 13 6 14 7 15 10 16 9 17 8 18 15 20 24 21 16 22 22 23 17 24
REMARK SMILES IDX 20 25 25 26 23 28 18 30 19 31 21 33 27 35
REMARK H PARENT 8 19 25 27 23 29 19 32 21 34 27 36
REMARK Flexibility Score: inf
ROOT
ATOM      1  C   UNL     1     -11.955 -15.070  19.405  1.00  0.00     0.065 A 
ATOM      2  C   UNL     1     -13.316 -15.347  19.591  1.00  0.00     0.208 A 
ATOM      3  O   UNL     1     -14.012 -16.000  18.670  1.00  0.00    -0.463 OA
ATOM      4  C   UNL     1     -13.485 -16.430  17.525  1.00  0.00     0.147 A 
ATOM      5  C   UNL     1     -12.121 -16.180  17.250  1.00  0.00     0.066 A 
ATOM      6  C   UNL     1     -11.353 -15.489  18.205  1.00  0.00     0.200 A 
ATOM      7  O   UNL     1     -10.139 -15.228  17.980  1.00  0.00    -0.288 OA
ATOM      8  C   UNL     1     -11.570 -16.612  16.036  1.00  0.00     0.020 A 
ATOM      9  C   UNL     1     -12.366 -17.257  15.094  1.00  0.00     0.047 A 
ATOM     10  C   UNL     1     -13.720 -17.497  15.340  1.00  0.00     0.125 A 
ATOM     11  C   UNL     1     -14.292 -17.130  16.589  1.00  0.00     0.069 A 
ENDROOT
BRANCH   1  12
ATOM     12  C   UNL     1     -11.196 -14.346  20.456  1.00  0.00    -0.011 A 
ATOM     13  C   UNL     1     -10.599 -15.046  21.519  1.00  0.00     0.013 A 
ATOM     14  C   UNL     1      -9.892 -14.358  22.510  1.00  0.00     0.047 A 
ATOM     15  C   UNL     1      -9.777 -12.964  22.454  1.00  0.00     0.115 A 
ATOM     16  C   UNL     1     -11.082 -12.946  20.410  1.00  0.00     0.013 A 
ATOM     17  C   UNL     1     -10.374 -12.260  21.402  1.00  0.00     0.047 A 
BRANCH  15  18
ATOM     18  O   UNL     1      -9.075 -12.268  23.436  1.00  0.00    -0.508 OA
ATOM     19  H   UNL     1      -9.011 -11.256  23.425  1.00  0.00     0.293 HD
ENDBRANCH  15  18
ENDBRANCH   1  12
BRANCH  11  20
ATOM     20  C   UNL     1     -15.754 -17.430  16.905  1.00  0.00     0.188 C 
ATOM     21  C   UNL     1     -15.898 -18.872  17.455  1.00  0.00     0.179 C 
ATOM     22  O   UNL     1     -16.570 -17.149  15.769  1.00  0.00    -0.362 OA
ATOM     23  C   UNL     1     -17.369 -19.153  17.857  1.00  0.00     0.177 C 
ATOM     24  C   UNL     1     -17.760 -17.925  15.674  1.00  0.00     0.176 C 
ATOM     25  C   UNL     1     -18.367 -18.283  17.053  1.00  0.00     0.177 C 
BRANCH  21  26
ATOM     26  O   UNL     1     -15.479 -19.793  16.479  1.00  0.00    -0.387 OA
ATOM     27  H   UNL     1     -14.629 -20.190  16.803  1.00  0.00     0.211 HD
ENDBRANCH  21  26
BRANCH  23  28
ATOM     28  O   UNL     1     -17.546 -18.935  19.235  1.00  0.00    -0.387 OA
ATOM     29  H   UNL     1     -18.233 -19.583  19.544  1.00  0.00     0.211 HD
ENDBRANCH  23  28
BRANCH  24  30
ATOM     30  C   UNL     1     -18.762 -17.159  14.796  1.00  0.00     0.191 C 
BRANCH  30  31
ATOM     31  O   UNL     1     -18.802 -15.801  15.150  1.00  0.00    -0.394 OA
ATOM     32  H   UNL     1     -17.989 -15.378  14.767  1.00  0.00     0.210 HD
ENDBRANCH  30  31
ENDBRANCH  24  30
BRANCH  25  33
ATOM     33  O   UNL     1     -18.677 -17.099  17.748  1.00  0.00    -0.388 OA
ATOM     34  H   UNL     1     -17.819 -16.634  17.929  1.00  0.00     0.211 HD
ENDBRANCH  25  33
ENDBRANCH  11  20
BRANCH  10  35
ATOM     35  O   UNL     1     -14.461 -18.086  14.311  1.00  0.00    -0.507 OA
ATOM     36  H   UNL     1     -14.916 -17.571  13.571  1.00  0.00     0.293 HD
ENDBRANCH  10  35
TORSDOF 9
ENDMDL
MODEL 5
REMARK VINA RESULT:    -6.601      2.602      9.449
REMARK INTER + INTRA:          -9.847
REMARK INTER:                  -8.755
REMARK INTRA:                  -1.092
REMARK UNBOUND:                -0.931
REMARK SMILES O=c1c(-c2ccc(O)cc2)coc2c([C@H]3O[C@H](CO)[C@H](O)[C@H](O)[C@H]3O)c(O)ccc12
REMARK SMILES IDX 3 1 11 2 12 3 13 4 30 5 2 6 1 7 29 8 28 9 26 10 14 11 4 12
REMARK SMILES IDX 5 13 6 14 7 15 10 16 9 17 8 18 15 20 24 21 16 22 22 23 17 24
REMARK SMILES IDX 20 25 25 26 23 28 18 30 19 31 21 33 27 35
REMARK H PARENT 8 19 25 27 23 29 19 32 21 34 27 36
REMARK Flexibility Score: inf
ROOT
ATOM      1  C   UNL     1     -12.935 -16.081  19.685  1.00  0.00     0.065 A 
ATOM      2  C   UNL     1     -13.572 -15.734  18.486  1.00  0.00     0.208 A 
ATOM      3  O   UNL     1     -14.682 -16.349  18.100  1.00  0.00    -0.463 OA
ATOM      4  C   UNL     1     -15.262 -17.320  18.802  1.00  0.00     0.147 A 
ATOM      5  C   UNL     1     -14.676 -17.743  20.019  1.00  0.00     0.066 A 
ATOM      6  C   UNL     1     -13.498 -17.112  20.458  1.00  0.00     0.200 A 
ATOM      7  O   UNL     1     -12.937 -17.483  21.527  1.00  0.00    -0.288 OA
ATOM      8  C   UNL     1     -15.272 -18.781  20.749  1.00  0.00     0.020 A 
ATOM      9  C   UNL     1     -16.414 -19.413  20.267  1.00  0.00     0.047 A 
ATOM     10  C   UNL     1     -16.996 -19.021  19.058  1.00  0.00     0.125 A 
ATOM     11  C   UNL     1     -16.454 -17.927  18.329  1.00  0.00     0.069 A 
ENDROOT
BRANCH   1  12
ATOM     12  C   UNL     1     -11.699 -15.371  20.100  1.00  0.00    -0.011 A 
ATOM     13  C   UNL     1     -11.771 -14.111  20.722  1.00  0.00     0.013 A 
ATOM     14  C   UNL     1     -10.604 -13.444  21.103  1.00  0.00     0.047 A 
ATOM     15  C   UNL     1      -9.351 -14.022  20.864  1.00  0.00     0.115 A 
ATOM     16  C   UNL     1     -10.438 -15.942  19.858  1.00  0.00     0.013 A 
ATOM     17  C   UNL     1      -9.272 -15.272  20.240  1.00  0.00     0.047 A 
BRANCH  15  18
ATOM     18  O   UNL     1      -8.181 -13.366  21.240  1.00  0.00    -0.508 OA
ATOM     19  H   UNL     1      -7.476 -13.108  20.559  1.00  0.00     0.293 HD
ENDBRANCH  15  18
ENDBRANCH   1  12
BRANCH  11  20
ATOM     20  C   UNL     1     -17.103 -17.445  17.035  1.00  0.00     0.188 C 
ATOM     21  C   UNL     1     -18.349 -16.580  17.351  1.00  0.00     0.179 C 
ATOM     22  O   UNL     1     -17.358 -18.551  16.170  1.00  0.00    -0.362 OA
ATOM     23  C   UNL     1     -18.963 -16.016  16.043  1.00  0.00     0.177 C 
ATOM     24  C   UNL     1     -18.459 -18.382  15.283  1.00  0.00     0.176 C 
ATOM     25  C   UNL     1     -18.652 -16.916  14.821  1.00  0.00     0.177 C 
BRANCH  21  26
ATOM     26  O   UNL     1     -19.300 -17.356  18.036  1.00  0.00    -0.387 OA
ATOM     27  H   UNL     1     -19.229 -17.116  18.997  1.00  0.00     0.211 HD
ENDBRANCH  21  26
BRANCH  23  28
ATOM     28  O   UNL     1     -18.493 -14.711  15.809  1.00  0.00    -0.387 OA
ATOM     29  H   UNL     1     -19.108 -14.093  16.285  1.00  0.00     0.211 HD
ENDBRANCH  23  28
BRANCH  24  30
ATOM     30  C   UNL     1     -18.262 -19.330  14.090  1.00  0.00     0.191 C 
BRANCH  30  31
ATOM     31  O   UNL     1     -18.470 -18.655  12.876  1.00  0.00    -0.394 OA
ATOM     32  H   UNL     1     -18.577 -17.692  13.094  1.00  0.00     0.210 HD
ENDBRANCH  30  31
ENDBRANCH  24  30
BRANCH  25  33
ATOM     33  O   UNL     1     -17.491 -16.479  14.157  1.00  0.00    -0.388 OA
ATOM     34  H   UNL     1     -17.171 -15.668  14.631  1.00  0.00     0.211 HD
ENDBRANCH  25  33
ENDBRANCH  11  20
BRANCH  10  35
ATOM     35  O   UNL     1     -18.100 -19.755  18.614  1.00  0.00    -0.507 OA
ATOM     36  H   UNL     1     -18.319 -19.922  17.642  1.00  0.00     0.293 HD
ENDBRANCH  10  35
TORSDOF 9
ENDMDL
MODEL 6
REMARK VINA RESULT:    -6.440      2.292      3.904
REMARK INTER + INTRA:          -9.630
REMARK INTER:                  -9.080
REMARK INTRA:                  -0.550
REMARK UNBOUND:                -0.931
REMARK SMILES O=c1c(-c2ccc(O)cc2)coc2c([C@H]3O[C@H](CO)[C@H](O)[C@H](O)[C@H]3O)c(O)ccc12
REMARK SMILES IDX 3 1 11 2 12 3 13 4 30 5 2 6 1 7 29 8 28 9 26 10 14 11 4 12
REMARK SMILES IDX 5 13 6 14 7 15 10 16 9 17 8 18 15 20 24 21 16 22 22 23 17 24
REMARK SMILES IDX 20 25 25 26 23 28 18 30 19 31 21 33 27 35
REMARK H PARENT 8 19 25 27 23 29 19 32 21 34 27 36
REMARK Flexibility Score: inf
ROOT
ATOM      1  C   UNL     1     -14.018 -16.817  19.039  1.00  0.00     0.065 A 
ATOM      2  C   UNL     1     -12.958 -16.015  18.595  1.00  0.00     0.208 A 
ATOM      3  O   UNL     1     -11.808 -15.978  19.254  1.00  0.00    -0.463 OA
ATOM      4  C   UNL     1     -11.576 -16.681  20.361  1.00  0.00     0.147 A 
ATOM      5  C   UNL     1     -12.598 -17.506  20.887  1.00  0.00     0.066 A 
ATOM      6  C   UNL     1     -13.832 -17.568  20.213  1.00  0.00     0.200 A 
ATOM      7  O   UNL     1     -14.772 -18.276  20.670  1.00  0.00    -0.288 OA
ATOM      8  C   UNL     1     -12.365 -18.229  22.065  1.00  0.00     0.020 A 
ATOM      9  C   UNL     1     -11.148 -18.114  22.729  1.00  0.00     0.047 A 
ATOM     10  C   UNL     1     -10.134 -17.291  22.235  1.00  0.00     0.125 A 
ATOM     11  C   UNL     1     -10.316 -16.597  21.007  1.00  0.00     0.069 A 
ENDROOT
BRANCH   1  12
ATOM     12  C   UNL     1     -15.293 -16.848  18.279  1.00  0.00    -0.011 A 
ATOM     13  C   UNL     1     -16.515 -17.075  18.937  1.00  0.00     0.013 A 
ATOM     14  C   UNL     1     -17.711 -17.111  18.215  1.00  0.00     0.047 A 
ATOM     15  C   UNL     1     -17.702 -16.927  16.827  1.00  0.00     0.115 A 
ATOM     16  C   UNL     1     -15.292 -16.670  16.884  1.00  0.00     0.013 A 
ATOM     17  C   UNL     1     -16.490 -16.707  16.165  1.00  0.00     0.047 A 
BRANCH  15  18
ATOM     18  O   UNL     1     -18.889 -16.960  16.097  1.00  0.00    -0.508 OA
ATOM     19  H   UNL     1     -19.208 -17.809  15.644  1.00  0.00     0.293 HD
ENDBRANCH  15  18
ENDBRANCH   1  12
BRANCH  11  20
ATOM     20  C   UNL     1      -9.204 -15.734  20.418  1.00  0.00     0.188 C 
ATOM     21  C   UNL     1      -8.185 -16.621  19.656  1.00  0.00     0.179 C 
ATOM     22  O   UNL     1      -8.627 -14.913  21.432  1.00  0.00    -0.362 OA
ATOM     23  C   UNL     1      -7.099 -15.741  18.984  1.00  0.00     0.177 C 
ATOM     24  C   UNL     1      -7.263 -14.562  21.222  1.00  0.00     0.176 C 
ATOM     25  C   UNL     1      -6.899 -14.396  19.726  1.00  0.00     0.177 C 
BRANCH  21  26
ATOM     26  O   UNL     1      -7.588 -17.526  20.550  1.00  0.00    -0.387 OA
ATOM     27  H   UNL     1      -7.955 -18.424  20.340  1.00  0.00     0.211 HD
ENDBRANCH  21  26
BRANCH  23  28
ATOM     28  O   UNL     1      -7.434 -15.501  17.639  1.00  0.00    -0.387 OA
ATOM     29  H   UNL     1      -8.217 -14.889  17.641  1.00  0.00     0.211 HD
ENDBRANCH  23  28
BRANCH  24  30
ATOM     30  C   UNL     1      -6.969 -13.284  22.021  1.00  0.00     0.191 C 
BRANCH  30  31
ATOM     31  O   UNL     1      -5.768 -12.694  21.596  1.00  0.00    -0.394 OA
ATOM     32  H   UNL     1      -5.998 -11.800  21.228  1.00  0.00     0.210 HD
ENDBRANCH  30  31
ENDBRANCH  24  30
BRANCH  25  33
ATOM     33  O   UNL     1      -7.698 -13.385  19.160  1.00  0.00    -0.388 OA
ATOM     34  H   UNL     1      -8.416 -13.180  19.815  1.00  0.00     0.211 HD
ENDBRANCH  25  33
ENDBRANCH  11  20
BRANCH  10  35
ATOM     35  O   UNL     1      -8.971 -17.179  23.003  1.00  0.00    -0.507 OA
ATOM     36  H   UNL     1      -8.795 -17.703  23.849  1.00  0.00     0.293 HD
ENDBRANCH  10  35
TORSDOF 9
ENDMDL
MODEL 7
REMARK VINA RESULT:    -6.371      1.952      2.665
REMARK INTER + INTRA:          -9.537
REMARK INTER:                  -8.251
REMARK INTRA:                  -1.285
REMARK UNBOUND:                -0.931
REMARK SMILES O=c1c(-c2ccc(O)cc2)coc2c([C@H]3O[C@H](CO)[C@H](O)[C@H](O)[C@H]3O)c(O)ccc12
REMARK SMILES IDX 3 1 11 2 12 3 13 4 30 5 2 6 1 7 29 8 28 9 26 10 14 11 4 12
REMARK SMILES IDX 5 13 6 14 7 15 10 16 9 17 8 18 15 20 24 21 16 22 22 23 17 24
REMARK SMILES IDX 20 25 25 26 23 28 18 30 19 31 21 33 27 35
REMARK H PARENT 8 19 25 27 23 29 19 32 21 34 27 36
REMARK Flexibility Score: inf
ROOT
ATOM      1  C   UNL     1     -14.168 -16.978  17.251  1.00  0.00     0.065 A 
ATOM      2  C   UNL     1     -14.025 -15.976  18.220  1.00  0.00     0.208 A 
ATOM      3  O   UNL     1     -12.828 -15.639  18.681  1.00  0.00    -0.463 OA
ATOM      4  C   UNL     1     -11.698 -16.212  18.270  1.00  0.00     0.147 A 
ATOM      5  C   UNL     1     -11.753 -17.243  17.304  1.00  0.00     0.066 A 
ATOM      6  C   UNL     1     -13.007 -17.627  16.794  1.00  0.00     0.200 A 
ATOM      7  O   UNL     1     -13.093 -18.561  15.949  1.00  0.00    -0.288 OA
ATOM      8  C   UNL     1     -10.567 -17.864  16.887  1.00  0.00     0.020 A 
ATOM      9  C   UNL     1      -9.347 -17.490  17.441  1.00  0.00     0.047 A 
ATOM     10  C   UNL     1      -9.275 -16.486  18.409  1.00  0.00     0.125 A 
ATOM     11  C   UNL     1     -10.452 -15.792  18.804  1.00  0.00     0.069 A 
ENDROOT
BRANCH   1  12
ATOM     12  C   UNL     1     -15.518 -17.331  16.744  1.00  0.00    -0.011 A 
ATOM     13  C   UNL     1     -16.068 -16.656  15.640  1.00  0.00     0.013 A 
ATOM     14  C   UNL     1     -17.343 -16.987  15.172  1.00  0.00     0.047 A 
ATOM     15  C   UNL     1     -18.086 -17.991  15.804  1.00  0.00     0.115 A 
ATOM     16  C   UNL     1     -16.273 -18.334  17.377  1.00  0.00     0.013 A 
ATOM     17  C   UNL     1     -17.548 -18.663  16.907  1.00  0.00     0.047 A 
BRANCH  15  18
ATOM     18  O   UNL     1     -19.358 -18.330  15.345  1.00  0.00    -0.508 OA
ATOM     19  H   UNL     1     -19.568 -18.381  14.355  1.00  0.00     0.293 HD
ENDBRANCH  15  18
ENDBRANCH   1  12
BRANCH  11  20
ATOM     20  C   UNL     1     -10.392 -14.655  19.819  1.00  0.00     0.188 C 
ATOM     21  C   UNL     1     -10.044 -13.321  19.109  1.00  0.00     0.179 C 
ATOM     22  O   UNL     1      -9.516 -14.997  20.892  1.00  0.00    -0.362 OA
ATOM     23  C   UNL     1     -10.065 -12.147  20.123  1.00  0.00     0.177 C 
ATOM     24  C   UNL     1      -8.885 -13.893  21.532  1.00  0.00     0.176 C 
ATOM     25  C   UNL     1      -9.767 -12.621  21.567  1.00  0.00     0.177 C 
BRANCH  21  26
ATOM     26  O   UNL     1      -8.774 -13.422  18.514  1.00  0.00    -0.387 OA
ATOM     27  H   UNL     1      -8.796 -14.219  17.923  1.00  0.00     0.211 HD
ENDBRANCH  21  26
BRANCH  23  28
ATOM     28  O   UNL     1     -11.310 -11.492  20.080  1.00  0.00    -0.387 OA
ATOM     29  H   UNL     1     -11.942 -12.104  19.619  1.00  0.00     0.211 HD
ENDBRANCH  23  28
BRANCH  24  30
ATOM     30  C   UNL     1      -8.468 -14.332  22.944  1.00  0.00     0.191 C 
BRANCH  30  31
ATOM     31  O   UNL     1      -9.565 -14.852  23.650  1.00  0.00    -0.394 OA
ATOM     32  H   UNL     1     -10.383 -14.584  23.153  1.00  0.00     0.210 HD
ENDBRANCH  30  31
ENDBRANCH  24  30
BRANCH  25  33
ATOM     33  O   UNL     1     -10.960 -12.900  22.262  1.00  0.00    -0.388 OA
ATOM     34  H   UNL     1     -11.710 -12.598  21.686  1.00  0.00     0.211 HD
ENDBRANCH  25  33
ENDBRANCH  11  20
BRANCH  10  35
ATOM     35  O   UNL     1      -8.018 -16.223  18.963  1.00  0.00    -0.507 OA
ATOM     36  H   UNL     1      -7.485 -16.886  19.507  1.00  0.00     0.293 HD
ENDBRANCH  10  35
TORSDOF 9
ENDMDL
MODEL 8
REMARK VINA RESULT:    -6.337      4.335      9.778
REMARK INTER + INTRA:          -9.490
REMARK INTER:                  -8.367
REMARK INTRA:                  -1.123
REMARK UNBOUND:                -0.931
REMARK SMILES O=c1c(-c2ccc(O)cc2)coc2c([C@H]3O[C@H](CO)[C@H](O)[C@H](O)[C@H]3O)c(O)ccc12
REMARK SMILES IDX 3 1 11 2 12 3 13 4 30 5 2 6 1 7 29 8 28 9 26 10 14 11 4 12
REMARK SMILES IDX 5 13 6 14 7 15 10 16 9 17 8 18 15 20 24 21 16 22 22 23 17 24
REMARK SMILES IDX 20 25 25 26 23 28 18 30 19 31 21 33 27 35
REMARK H PARENT 8 19 25 27 23 29 19 32 21 34 27 36
REMARK Flexibility Score: inf
ROOT
ATOM      1  C   UNL     1     -13.448 -18.873  19.990  1.00  0.00     0.065 A 
ATOM      2  C   UNL     1     -13.638 -18.509  18.650  1.00  0.00     0.208 A 
ATOM      3  O   UNL     1     -14.830 -18.614  18.077  1.00  0.00    -0.463 OA
ATOM      4  C   UNL     1     -15.910 -19.063  18.713  1.00  0.00     0.147 A 
ATOM      5  C   UNL     1     -15.804 -19.466  20.064  1.00  0.00     0.066 A 
ATOM      6  C   UNL     1     -14.554 -19.368  20.703  1.00  0.00     0.200 A 
ATOM      7  O   UNL     1     -14.420 -19.743  21.901  1.00  0.00    -0.288 OA
ATOM      8  C   UNL     1     -16.934 -19.961  20.730  1.00  0.00     0.020 A 
ATOM      9  C   UNL     1     -18.146 -20.083  20.058  1.00  0.00     0.047 A 
ATOM     10  C   UNL     1     -18.266 -19.707  18.717  1.00  0.00     0.125 A 
ATOM     11  C   UNL     1     -17.155 -19.140  18.035  1.00  0.00     0.069 A 
ENDROOT
BRANCH   1  12
ATOM     12  C   UNL     1     -12.107 -18.737  20.611  1.00  0.00    -0.011 A 
ATOM     13  C   UNL     1     -11.013 -19.476  20.124  1.00  0.00     0.013 A 
ATOM     14  C   UNL     1      -9.754 -19.350  20.718  1.00  0.00     0.047 A 
ATOM     15  C   UNL     1      -9.573 -18.490  21.808  1.00  0.00     0.115 A 
ATOM     16  C   UNL     1     -11.917 -17.881  21.710  1.00  0.00     0.013 A 
ATOM     17  C   UNL     1     -10.657 -17.758  22.302  1.00  0.00     0.047 A 
BRANCH  15  18
ATOM     18  O   UNL     1      -8.322 -18.357  22.407  1.00  0.00    -0.508 OA
ATOM     19  H   UNL     1      -8.213 -18.373  23.415  1.00  0.00     0.293 HD
ENDBRANCH  15  18
ENDBRANCH   1  12
BRANCH  11  20
ATOM     20  C   UNL     1     -17.275 -18.671  16.588  1.00  0.00     0.188 C 
ATOM     21  C   UNL     1     -17.763 -17.201  16.541  1.00  0.00     0.179 C 
ATOM     22  O   UNL     1     -18.078 -19.583  15.840  1.00  0.00    -0.362 OA
ATOM     23  C   UNL     1     -17.806 -16.691  15.076  1.00  0.00     0.177 C 
ATOM     24  C   UNL     1     -18.778 -19.009  14.741  1.00  0.00     0.176 C 
ATOM     25  C   UNL     1     -18.008 -17.847  14.065  1.00  0.00     0.177 C 
BRANCH  21  26
ATOM     26  O   UNL     1     -19.040 -17.109  17.121  1.00  0.00    -0.387 OA
ATOM     27  H   UNL     1     -19.655 -17.637  16.547  1.00  0.00     0.211 HD
ENDBRANCH  21  26
BRANCH  23  28
ATOM     28  O   UNL     1     -16.625 -15.990  14.772  1.00  0.00    -0.387 OA
ATOM     29  H   UNL     1     -16.745 -15.601  13.866  1.00  0.00     0.211 HD
ENDBRANCH  23  28
BRANCH  24  30
ATOM     30  C   UNL     1     -19.102 -20.130  13.742  1.00  0.00     0.191 C 
BRANCH  30  31
ATOM     31  O   UNL     1     -17.956 -20.887  13.450  1.00  0.00    -0.394 OA
ATOM     32  H   UNL     1     -18.054 -21.754  13.924  1.00  0.00     0.210 HD
ENDBRANCH  30  31
ENDBRANCH  24  30
BRANCH  25  33
ATOM     33  O   UNL     1     -16.771 -18.322  13.590  1.00  0.00    -0.388 OA
ATOM     34  H   UNL     1     -16.941 -19.203  13.163  1.00  0.00     0.211 HD
ENDBRANCH  25  33
ENDBRANCH  11  20
BRANCH  10  35
ATOM     35  O   UNL     1     -19.501 -19.930  18.100  1.00  0.00    -0.507 OA
ATOM     36  H   UNL     1     -20.285 -19.296  18.151  1.00  0.00     0.293 HD
ENDBRANCH  10  35
TORSDOF 9
ENDMDL
