MODEL 1
REMARK VINA RESULT:    -6.693      0.000      0.000
REMARK INTER + INTRA:         -13.373
REMARK INTER:                 -10.605
REMARK INTRA:                  -2.768
REMARK UNBOUND:                -2.768
REMARK SMILES C[C@@H]1O[C@H](O[C@H]2CC[C@]3(C)[C@@H](CC[C@@]4(C)[C@@H]3C=C[C@]35OC[C@@]6(CCC(C)(C)C[C@@H]63)[C@@H](O)C[C@@]45C)[C@]2(C)CO)[C@@H](O)[C@H](O[C@H]2O[C@H](CO)[C@H](O)[C@@H](O)[C@@H]2O)[C@H]1O
REMARK SMILES IDX 1 1 2 2 54 3 41 4 39 5 4 6 3 7 55 8 42 10 43 11 52 12 44 13
REMARK SMILES IDX 50 14 45 15 48 16 53 17 51 19 46 21 47 22 49 24 5 26 6 27
REMARK SMILES IDX 7 28 35 29 8 30 11 31 36 32 9 33 12 34 10 35 16 36 13 37
REMARK SMILES IDX 14 38 17 39 15 40 33 41 18 42 19 43 32 44 34 45 29 46 20 47
REMARK SMILES IDX 30 48 22 49 28 50 21 51 23 52 25 53 24 54 26 55 27 56 37 57
REMARK SMILES IDX 38 58 31 60 40 62
REMARK H PARENT 55 9 53 18 51 20 47 23 49 25 38 59 31 61 40 63
REMARK Flexibility Score: inf
ROOT
ATOM      1  C   UNL     1      72.133  57.054  15.161  1.00  0.00     0.041 C 
ATOM      2  C   UNL     1      71.219  56.569  16.300  1.00  0.00     0.150 C 
ATOM      3  C   UNL     1      71.564  55.092  16.680  1.00  0.00     0.175 C 
ATOM      4  C   UNL     1      70.566  54.559  17.768  1.00  0.00     0.186 C 
ATOM      5  C   UNL     1      70.257  55.770  18.736  1.00  0.00     0.202 C 
ATOM      6  C   UNL     1      71.378  56.883  18.702  1.00  0.00     0.282 C 
ATOM      7  O   UNL     1      71.350  57.495  17.409  1.00  0.00    -0.344 OA
ENDROOT
BRANCH   3   8
ATOM      8  O   UNL     1      71.569  54.264  15.540  1.00  0.00    -0.388 OA
ATOM      9  H   UNL     1      71.293  53.356  15.854  1.00  0.00     0.211 HD
ENDBRANCH   3   8
BRANCH   4  10
ATOM     10  O   UNL     1      71.178  53.529  18.517  1.00  0.00    -0.341 OA
BRANCH  10  11
ATOM     11  C   UNL     1      70.296  52.489  18.980  1.00  0.00     0.282 C 
ATOM     12  C   UNL     1      68.797  52.745  18.547  1.00  0.00     0.202 C 
ATOM     13  O   UNL     1      70.554  52.300  20.391  1.00  0.00    -0.341 OA
ATOM     14  C   UNL     1      67.695  52.337  19.555  1.00  0.00     0.179 C 
ATOM     15  C   UNL     1      69.469  52.615  21.249  1.00  0.00     0.178 C 
ATOM     16  C   UNL     1      68.240  51.801  20.882  1.00  0.00     0.177 C 
BRANCH  12  17
ATOM     17  O   UNL     1      68.577  52.056  17.352  1.00  0.00    -0.385 OA
ATOM     18  H   UNL     1      68.943  52.590  16.586  1.00  0.00     0.211 HD
ENDBRANCH  12  17
BRANCH  14  19
ATOM     19  O   UNL     1      66.801  53.409  19.799  1.00  0.00    -0.387 OA
ATOM     20  H   UNL     1      66.982  53.760  20.704  1.00  0.00     0.211 HD
ENDBRANCH  14  19
BRANCH  15  21
ATOM     21  C   UNL     1      69.875  52.301  22.724  1.00  0.00     0.191 C 
BRANCH  21  22
ATOM     22  O   UNL     1      70.774  51.219  22.797  1.00  0.00    -0.394 OA
ATOM     23  H   UNL     1      70.997  50.932  21.857  1.00  0.00     0.210 HD
ENDBRANCH  21  22
ENDBRANCH  15  21
BRANCH  16  24
ATOM     24  O   UNL     1      68.595  50.448  20.762  1.00  0.00    -0.387 OA
ATOM     25  H   UNL     1      67.895  49.983  20.236  1.00  0.00     0.211 HD
ENDBRANCH  16  24
ENDBRANCH  10  11
ENDBRANCH   4  10
BRANCH   6  26
ATOM     26  O   UNL     1      72.701  56.388  18.923  1.00  0.00    -0.346 OA
BRANCH  26  27
ATOM     27  C   UNL     1      73.405  56.612  20.153  1.00  0.00     0.130 C 
ATOM     28  C   UNL     1      73.136  57.930  20.871  1.00  0.00     0.033 C 
ATOM     29  C   UNL     1      73.565  55.400  21.131  1.00  0.00     0.020 C 
ATOM     30  C   UNL     1      74.355  58.255  21.761  1.00  0.00     0.010 C 
ATOM     31  C   UNL     1      74.602  55.742  22.302  1.00  0.00     0.006 C 
ATOM     32  C   UNL     1      72.223  55.131  21.792  1.00  0.00     0.017 C 
ATOM     33  C   UNL     1      74.629  57.203  22.916  1.00  0.00    -0.022 C 
ATOM     34  C   UNL     1      74.612  54.668  23.432  1.00  0.00     0.005 C 
ATOM     35  C   UNL     1      76.095  57.487  23.358  1.00  0.00     0.012 C 
ATOM     36  C   UNL     1      73.707  57.433  24.236  1.00  0.00     0.024 C 
ATOM     37  C   UNL     1      73.525  54.838  24.541  1.00  0.00     0.008 C 
ATOM     38  C   UNL     1      73.425  56.236  25.256  1.00  0.00    -0.017 C 
ATOM     39  C   UNL     1      72.519  58.308  23.935  1.00  0.00    -0.024 C 
ATOM     40  C   UNL     1      74.586  56.183  26.318  1.00  0.00     0.013 C 
ATOM     41  C   UNL     1      71.990  56.435  26.036  1.00  0.00     0.009 C 
ATOM     42  C   UNL     1      71.245  58.028  24.218  1.00  0.00     0.005 C 
ATOM     43  C   UNL     1      70.812  56.837  25.029  1.00  0.00     0.096 C 
ATOM     44  C   UNL     1      71.496  55.141  26.819  1.00  0.00     0.043 C 
ATOM     45  C   UNL     1      72.160  57.564  27.115  1.00  0.00     0.015 C 
ATOM     46  C   UNL     1      69.458  57.096  25.733  1.00  0.00     0.037 C 
ATOM     47  O   UNL     1      70.579  55.758  24.145  1.00  0.00    -0.369 OA
ATOM     48  C   UNL     1      69.963  55.117  27.156  1.00  0.00     0.124 C 
ATOM     49  C   UNL     1      69.071  55.640  25.987  1.00  0.00     0.026 C 
ATOM     50  C   UNL     1      68.406  57.821  24.843  1.00  0.00     0.014 C 
ATOM     51  C   UNL     1      69.512  55.003  24.660  1.00  0.00     0.171 C 
ATOM     52  C   UNL     1      67.542  55.417  26.240  1.00  0.00     0.013 C 
ATOM     53  C   UNL     1      66.918  57.746  25.336  1.00  0.00    -0.035 C 
ATOM     54  C   UNL     1      66.754  56.713  26.472  1.00  0.00     0.007 C 
ATOM     55  C   UNL     1      66.029  57.378  24.124  1.00  0.00     0.011 C 
ATOM     56  C   UNL     1      66.456  59.123  25.867  1.00  0.00     0.011 C 
BRANCH  29  57
ATOM     57  C   UNL     1      74.116  54.144  20.341  1.00  0.00     0.165 C 
BRANCH  57  58
ATOM     58  O   UNL     1      75.069  54.502  19.352  1.00  0.00    -0.396 OA
ATOM     59  H   UNL     1      75.796  53.826  19.359  1.00  0.00     0.210 HD
ENDBRANCH  57  58
ENDBRANCH  29  57
BRANCH  48  60
ATOM     60  O   UNL     1      69.629  53.790  27.473  1.00  0.00    -0.392 OA
ATOM     61  H   UNL     1      70.298  53.463  28.136  1.00  0.00     0.210 HD
ENDBRANCH  48  60
ENDBRANCH  26  27
ENDBRANCH   6  26
BRANCH   5  62
ATOM     62  O   UNL     1      69.017  56.335  18.355  1.00  0.00    -0.385 OA
ATOM     63  H   UNL     1      68.556  55.671  17.763  1.00  0.00     0.211 HD
ENDBRANCH   5  62
TORSDOF 14
ENDMDL
MODEL 2
REMARK VINA RESULT:    -5.975      1.124      1.900
REMARK INTER + INTRA:         -12.236
REMARK INTER:                  -9.245
REMARK INTRA:                  -2.991
REMARK UNBOUND:                -2.768
REMARK SMILES C[C@@H]1O[C@H](O[C@H]2CC[C@]3(C)[C@@H](CC[C@@]4(C)[C@@H]3C=C[C@]35OC[C@@]6(CCC(C)(C)C[C@@H]63)[C@@H](O)C[C@@]45C)[C@]2(C)CO)[C@@H](O)[C@H](O[C@H]2O[C@H](CO)[C@H](O)[C@@H](O)[C@@H]2O)[C@H]1O
REMARK SMILES IDX 1 1 2 2 54 3 41 4 39 5 4 6 3 7 55 8 42 10 43 11 52 12 44 13
REMARK SMILES IDX 50 14 45 15 48 16 53 17 51 19 46 21 47 22 49 24 5 26 6 27
REMARK SMILES IDX 7 28 35 29 8 30 11 31 36 32 9 33 12 34 10 35 16 36 13 37
REMARK SMILES IDX 14 38 17 39 15 40 33 41 18 42 19 43 32 44 34 45 29 46 20 47
REMARK SMILES IDX 30 48 22 49 28 50 21 51 23 52 25 53 24 54 26 55 27 56 37 57
REMARK SMILES IDX 38 58 31 60 40 62
REMARK H PARENT 55 9 53 18 51 20 47 23 49 25 38 59 31 61 40 63
REMARK Flexibility Score: inf
ROOT
ATOM      1  C   UNL     1      72.668  57.726  14.936  1.00  0.00     0.041 C 
ATOM      2  C   UNL     1      71.531  57.738  15.972  1.00  0.00     0.150 C 
ATOM      3  C   UNL     1      71.201  56.280  16.431  1.00  0.00     0.175 C 
ATOM      4  C   UNL     1      69.973  56.279  17.409  1.00  0.00     0.186 C 
ATOM      5  C   UNL     1      70.097  57.578  18.300  1.00  0.00     0.202 C 
ATOM      6  C   UNL     1      71.574  58.137  18.366  1.00  0.00     0.282 C 
ATOM      7  O   UNL     1      71.923  58.610  17.063  1.00  0.00    -0.344 OA
ENDROOT
BRANCH   3   8
ATOM      8  O   UNL     1      70.975  55.439  15.324  1.00  0.00    -0.388 OA
ATOM      9  H   UNL     1      70.691  56.036  14.575  1.00  0.00     0.211 HD
ENDBRANCH   3   8
BRANCH   4  10
ATOM     10  O   UNL     1      70.033  55.147  18.253  1.00  0.00    -0.341 OA
BRANCH  10  11
ATOM     11  C   UNL     1      68.816  54.830  18.956  1.00  0.00     0.282 C 
ATOM     12  C   UNL     1      69.068  54.582  20.497  1.00  0.00     0.202 C 
ATOM     13  O   UNL     1      68.151  53.779  18.217  1.00  0.00    -0.341 OA
ATOM     14  C   UNL     1      68.217  53.483  21.180  1.00  0.00     0.179 C 
ATOM     15  C   UNL     1      68.026  52.545  18.905  1.00  0.00     0.178 C 
ATOM     16  C   UNL     1      67.289  52.735  20.219  1.00  0.00     0.177 C 
BRANCH  12  17
ATOM     17  O   UNL     1      68.845  55.789  21.163  1.00  0.00    -0.385 OA
ATOM     18  H   UNL     1      69.655  56.027  21.703  1.00  0.00     0.211 HD
ENDBRANCH  12  17
BRANCH  14  19
ATOM     19  O   UNL     1      69.035  52.560  21.877  1.00  0.00    -0.387 OA
ATOM     20  H   UNL     1      69.576  53.062  22.532  1.00  0.00     0.211 HD
ENDBRANCH  14  19
BRANCH  15  21
ATOM     21  C   UNL     1      67.236  51.538  18.010  1.00  0.00     0.191 C 
BRANCH  21  22
ATOM     22  O   UNL     1      66.253  50.849  18.745  1.00  0.00    -0.394 OA
ATOM     23  H   UNL     1      66.701  50.089  19.234  1.00  0.00     0.210 HD
ENDBRANCH  21  22
ENDBRANCH  15  21
BRANCH  16  24
ATOM     24  O   UNL     1      66.113  53.469  19.992  1.00  0.00    -0.387 OA
ATOM     25  H   UNL     1      65.397  53.106  20.574  1.00  0.00     0.211 HD
ENDBRANCH  16  24
ENDBRANCH  10  11
ENDBRANCH   4  10
BRANCH   6  26
ATOM     26  O   UNL     1      72.549  57.166  18.756  1.00  0.00    -0.346 OA
BRANCH  26  27
ATOM     27  C   UNL     1      73.293  57.277  19.978  1.00  0.00     0.130 C 
ATOM     28  C   UNL     1      73.024  58.507  20.838  1.00  0.00     0.033 C 
ATOM     29  C   UNL     1      73.511  55.974  20.817  1.00  0.00     0.020 C 
ATOM     30  C   UNL     1      74.268  58.766  21.716  1.00  0.00     0.010 C 
ATOM     31  C   UNL     1      74.583  56.217  21.982  1.00  0.00     0.006 C 
ATOM     32  C   UNL     1      72.200  55.607  21.493  1.00  0.00     0.017 C 
ATOM     33  C   UNL     1      74.604  57.606  22.744  1.00  0.00    -0.022 C 
ATOM     34  C   UNL     1      74.655  55.032  22.992  1.00  0.00     0.005 C 
ATOM     35  C   UNL     1      76.080  57.877  23.163  1.00  0.00     0.012 C 
ATOM     36  C   UNL     1      73.727  57.677  24.112  1.00  0.00     0.024 C 
ATOM     37  C   UNL     1      73.606  55.061  24.150  1.00  0.00     0.008 C 
ATOM     38  C   UNL     1      73.505  56.374  25.009  1.00  0.00    -0.017 C 
ATOM     39  C   UNL     1      72.512  58.551  23.944  1.00  0.00    -0.024 C 
ATOM     40  C   UNL     1      74.705  56.238  26.020  1.00  0.00     0.013 C 
ATOM     41  C   UNL     1      72.096  56.458  25.855  1.00  0.00     0.009 C 
ATOM     42  C   UNL     1      71.255  58.214  24.240  1.00  0.00     0.005 C 
ATOM     43  C   UNL     1      70.874  56.936  24.936  1.00  0.00     0.096 C 
ATOM     44  C   UNL     1      71.656  55.079  26.515  1.00  0.00     0.043 C 
ATOM     45  C   UNL     1      72.283  57.473  27.040  1.00  0.00     0.015 C 
ATOM     46  C   UNL     1      69.542  57.088  25.710  1.00  0.00     0.037 C 
ATOM     47  O   UNL     1      70.630  55.949  23.953  1.00  0.00    -0.369 OA
ATOM     48  C   UNL     1      70.137  54.985  26.900  1.00  0.00     0.124 C 
ATOM     49  C   UNL     1      69.193  55.606  25.823  1.00  0.00     0.026 C 
ATOM     50  C   UNL     1      68.444  57.878  24.936  1.00  0.00     0.014 C 
ATOM     51  C   UNL     1      69.598  55.120  24.423  1.00  0.00     0.171 C 
ATOM     52  C   UNL     1      67.678  55.322  26.103  1.00  0.00     0.013 C 
ATOM     53  C   UNL     1      66.977  57.717  25.470  1.00  0.00    -0.035 C 
ATOM     54  C   UNL     1      66.875  56.569  26.496  1.00  0.00     0.007 C 
ATOM     55  C   UNL     1      66.052  57.457  24.256  1.00  0.00     0.011 C 
ATOM     56  C   UNL     1      66.509  59.021  26.157  1.00  0.00     0.011 C 
BRANCH  29  57
ATOM     57  C   UNL     1      74.058  54.820  19.882  1.00  0.00     0.165 C 
BRANCH  57  58
ATOM     58  O   UNL     1      73.018  54.149  19.187  1.00  0.00    -0.396 OA
ATOM     59  H   UNL     1      72.715  53.383  19.740  1.00  0.00     0.210 HD
ENDBRANCH  57  58
ENDBRANCH  29  57
BRANCH  48  60
ATOM     60  O   UNL     1      69.840  53.625  27.087  1.00  0.00    -0.392 OA
ATOM     61  H   UNL     1      69.444  53.529  27.997  1.00  0.00     0.210 HD
ENDBRANCH  48  60
ENDBRANCH  26  27
ENDBRANCH   6  26
BRANCH   5  62
ATOM     62  O   UNL     1      69.241  58.568  17.759  1.00  0.00    -0.385 OA
ATOM     63  H   UNL     1      68.619  58.108  17.123  1.00  0.00     0.211 HD
ENDBRANCH   5  62
TORSDOF 14
ENDMDL
MODEL 3
REMARK VINA RESULT:    -5.793      2.390      6.540
REMARK INTER + INTRA:         -11.948
REMARK INTER:                  -8.631
REMARK INTRA:                  -3.317
REMARK UNBOUND:                -2.768
REMARK SMILES C[C@@H]1O[C@H](O[C@H]2CC[C@]3(C)[C@@H](CC[C@@]4(C)[C@@H]3C=C[C@]35OC[C@@]6(CCC(C)(C)C[C@@H]63)[C@@H](O)C[C@@]45C)[C@]2(C)CO)[C@@H](O)[C@H](O[C@H]2O[C@H](CO)[C@H](O)[C@@H](O)[C@@H]2O)[C@H]1O
REMARK SMILES IDX 1 1 2 2 54 3 41 4 39 5 4 6 3 7 55 8 42 10 43 11 52 12 44 13
REMARK SMILES IDX 50 14 45 15 48 16 53 17 51 19 46 21 47 22 49 24 5 26 6 27
REMARK SMILES IDX 7 28 35 29 8 30 11 31 36 32 9 33 12 34 10 35 16 36 13 37
REMARK SMILES IDX 14 38 17 39 15 40 33 41 18 42 19 43 32 44 34 45 29 46 20 47
REMARK SMILES IDX 30 48 22 49 28 50 21 51 23 52 25 53 24 54 26 55 27 56 37 57
REMARK SMILES IDX 38 58 31 60 40 62
REMARK H PARENT 55 9 53 18 51 20 47 23 49 25 38 59 31 61 40 63
REMARK Flexibility Score: inf
ROOT
ATOM      1  C   UNL     1      70.692  55.514  13.384  1.00  0.00     0.041 C 
ATOM      2  C   UNL     1      71.597  55.259  14.601  1.00  0.00     0.150 C 
ATOM      3  C   UNL     1      71.902  56.603  15.340  1.00  0.00     0.175 C 
ATOM      4  C   UNL     1      72.909  56.362  16.520  1.00  0.00     0.186 C 
ATOM      5  C   UNL     1      72.544  54.961  17.153  1.00  0.00     0.202 C 
ATOM      6  C   UNL     1      71.057  54.520  16.849  1.00  0.00     0.282 C 
ATOM      7  O   UNL     1      70.951  54.271  15.445  1.00  0.00    -0.344 OA
ENDROOT
BRANCH   3   8
ATOM      8  O   UNL     1      72.387  57.576  14.443  1.00  0.00    -0.388 OA
ATOM      9  H   UNL     1      71.892  58.418  14.653  1.00  0.00     0.211 HD
ENDBRANCH   3   8
BRANCH   4  10
ATOM     10  O   UNL     1      72.739  57.359  17.507  1.00  0.00    -0.341 OA
BRANCH  10  11
ATOM     11  C   UNL     1      73.951  57.852  18.108  1.00  0.00     0.282 C 
ATOM     12  C   UNL     1      75.029  56.710  18.293  1.00  0.00     0.202 C 
ATOM     13  O   UNL     1      73.575  58.604  19.286  1.00  0.00    -0.341 OA
ATOM     14  C   UNL     1      75.909  56.774  19.566  1.00  0.00     0.179 C 
ATOM     15  C   UNL     1      74.031  58.065  20.515  1.00  0.00     0.178 C 
ATOM     16  C   UNL     1      75.544  57.921  20.512  1.00  0.00     0.177 C 
BRANCH  12  17
ATOM     17  O   UNL     1      75.868  56.733  17.177  1.00  0.00    -0.385 OA
ATOM     18  H   UNL     1      76.767  57.089  17.442  1.00  0.00     0.211 HD
ENDBRANCH  12  17
BRANCH  14  19
ATOM     19  O   UNL     1      75.885  55.544  20.268  1.00  0.00    -0.387 OA
ATOM     20  H   UNL     1      75.604  55.726  21.197  1.00  0.00     0.211 HD
ENDBRANCH  14  19
BRANCH  15  21
ATOM     21  C   UNL     1      73.605  59.014  21.680  1.00  0.00     0.191 C 
BRANCH  21  22
ATOM     22  O   UNL     1      74.561  59.031  22.714  1.00  0.00    -0.394 OA
ATOM     23  H   UNL     1      74.071  58.991  23.595  1.00  0.00     0.210 HD
ENDBRANCH  21  22
ENDBRANCH  15  21
BRANCH  16  24
ATOM     24  O   UNL     1      76.125  59.125  20.080  1.00  0.00    -0.387 OA
ATOM     25  H   UNL     1      77.111  59.033  20.126  1.00  0.00     0.211 HD
ENDBRANCH  16  24
ENDBRANCH  10  11
ENDBRANCH   4  10
BRANCH   6  26
ATOM     26  O   UNL     1      70.074  55.499  17.197  1.00  0.00    -0.346 OA
BRANCH  26  27
ATOM     27  C   UNL     1      69.355  55.453  18.438  1.00  0.00     0.130 C 
ATOM     28  C   UNL     1      69.185  54.084  19.086  1.00  0.00     0.033 C 
ATOM     29  C   UNL     1      69.620  56.596  19.473  1.00  0.00     0.020 C 
ATOM     30  C   UNL     1      67.941  54.131  19.999  1.00  0.00     0.010 C 
ATOM     31  C   UNL     1      68.547  56.552  20.661  1.00  0.00     0.006 C 
ATOM     32  C   UNL     1      70.985  56.373  20.102  1.00  0.00     0.017 C 
ATOM     33  C   UNL     1      68.049  55.151  21.208  1.00  0.00    -0.022 C 
ATOM     34  C   UNL     1      68.910  57.508  21.838  1.00  0.00     0.005 C 
ATOM     35  C   UNL     1      66.578  55.342  21.685  1.00  0.00     0.012 C 
ATOM     36  C   UNL     1      68.863  54.561  22.486  1.00  0.00     0.024 C 
ATOM     37  C   UNL     1      69.897  56.931  22.903  1.00  0.00     0.008 C 
ATOM     38  C   UNL     1      69.541  55.542  23.549  1.00  0.00    -0.017 C 
ATOM     39  C   UNL     1      69.691  53.360  22.107  1.00  0.00    -0.024 C 
ATOM     40  C   UNL     1      68.479  55.917  24.650  1.00  0.00     0.013 C 
ATOM     41  C   UNL     1      70.842  54.840  24.273  1.00  0.00     0.009 C 
ATOM     42  C   UNL     1      70.989  53.190  22.361  1.00  0.00     0.005 C 
ATOM     43  C   UNL     1      71.805  54.126  23.211  1.00  0.00     0.096 C 
ATOM     44  C   UNL     1      71.748  55.855  25.097  1.00  0.00     0.043 C 
ATOM     45  C   UNL     1      70.325  53.773  25.305  1.00  0.00     0.015 C 
ATOM     46  C   UNL     1      73.008  53.400  23.859  1.00  0.00     0.037 C 
ATOM     47  O   UNL     1      72.367  55.114  22.370  1.00  0.00    -0.369 OA
ATOM     48  C   UNL     1      73.207  55.355  25.385  1.00  0.00     0.124 C 
ATOM     49  C   UNL     1      73.858  54.631  24.166  1.00  0.00     0.026 C 
ATOM     50  C   UNL     1      73.747  52.417  22.902  1.00  0.00     0.014 C 
ATOM     51  C   UNL     1      73.631  55.448  22.884  1.00  0.00     0.171 C 
ATOM     52  C   UNL     1      75.379  54.324  24.378  1.00  0.00     0.013 C 
ATOM     53  C   UNL     1      75.184  51.972  23.350  1.00  0.00    -0.035 C 
ATOM     54  C   UNL     1      75.697  52.831  24.525  1.00  0.00     0.007 C 
ATOM     55  C   UNL     1      76.125  52.091  22.127  1.00  0.00     0.011 C 
ATOM     56  C   UNL     1      75.173  50.493  23.803  1.00  0.00     0.011 C 
BRANCH  29  57
ATOM     57  C   UNL     1      69.502  58.004  18.760  1.00  0.00     0.165 C 
BRANCH  57  58
ATOM     58  O   UNL     1      70.642  58.821  18.982  1.00  0.00    -0.396 OA
ATOM     59  H   UNL     1      70.709  59.006  19.955  1.00  0.00     0.210 HD
ENDBRANCH  57  58
ENDBRANCH  29  57
BRANCH  48  60
ATOM     60  O   UNL     1      73.967  56.479  25.751  1.00  0.00    -0.392 OA
ATOM     61  H   UNL     1      74.570  56.693  24.987  1.00  0.00     0.210 HD
ENDBRANCH  48  60
ENDBRANCH  26  27
ENDBRANCH   6  26
BRANCH   5  62
ATOM     62  O   UNL     1      73.439  53.995  16.634  1.00  0.00    -0.385 OA
ATOM     63  H   UNL     1      73.290  53.146  17.145  1.00  0.00     0.211 HD
ENDBRANCH   5  62
TORSDOF 14
ENDMDL
MODEL 4
REMARK VINA RESULT:    -5.118      1.682      2.376
REMARK INTER + INTRA:         -10.878
REMARK INTER:                  -8.368
REMARK INTRA:                  -2.509
REMARK UNBOUND:                -2.768
REMARK SMILES C[C@@H]1O[C@H](O[C@H]2CC[C@]3(C)[C@@H](CC[C@@]4(C)[C@@H]3C=C[C@]35OC[C@@]6(CCC(C)(C)C[C@@H]63)[C@@H](O)C[C@@]45C)[C@]2(C)CO)[C@@H](O)[C@H](O[C@H]2O[C@H](CO)[C@H](O)[C@@H](O)[C@@H]2O)[C@H]1O
REMARK SMILES IDX 1 1 2 2 54 3 41 4 39 5 4 6 3 7 55 8 42 10 43 11 52 12 44 13
REMARK SMILES IDX 50 14 45 15 48 16 53 17 51 19 46 21 47 22 49 24 5 26 6 27
REMARK SMILES IDX 7 28 35 29 8 30 11 31 36 32 9 33 12 34 10 35 16 36 13 37
REMARK SMILES IDX 14 38 17 39 15 40 33 41 18 42 19 43 32 44 34 45 29 46 20 47
REMARK SMILES IDX 30 48 22 49 28 50 21 51 23 52 25 53 24 54 26 55 27 56 37 57
REMARK SMILES IDX 38 58 31 60 40 62
REMARK H PARENT 55 9 53 18 51 20 47 23 49 25 38 59 31 61 40 63
REMARK Flexibility Score: inf
ROOT
ATOM      1  C   UNL     1      72.278  54.262  16.162  1.00  0.00     0.041 C 
ATOM      2  C   UNL     1      71.754  55.676  16.466  1.00  0.00     0.150 C 
ATOM      3  C   UNL     1      70.615  55.614  17.535  1.00  0.00     0.175 C 
ATOM      4  C   UNL     1      70.006  57.041  17.771  1.00  0.00     0.186 C 
ATOM      5  C   UNL     1      71.202  58.069  17.677  1.00  0.00     0.202 C 
ATOM      6  C   UNL     1      72.608  57.399  17.946  1.00  0.00     0.282 C 
ATOM      7  O   UNL     1      72.878  56.498  16.869  1.00  0.00    -0.344 OA
ENDROOT
BRANCH   3   8
ATOM      8  O   UNL     1      69.621  54.687  17.164  1.00  0.00    -0.388 OA
ATOM      9  H   UNL     1      68.747  55.098  17.422  1.00  0.00     0.211 HD
ENDBRANCH   3   8
BRANCH   4  10
ATOM     10  O   UNL     1      69.448  57.117  19.067  1.00  0.00    -0.341 OA
BRANCH  10  11
ATOM     11  C   UNL     1      68.215  56.396  19.256  1.00  0.00     0.282 C 
ATOM     12  C   UNL     1      67.004  57.364  19.567  1.00  0.00     0.202 C 
ATOM     13  O   UNL     1      68.475  55.336  20.206  1.00  0.00    -0.341 OA
ATOM     14  C   UNL     1      65.941  56.859  20.574  1.00  0.00     0.179 C 
ATOM     15  C   UNL     1      67.769  55.440  21.432  1.00  0.00     0.178 C 
ATOM     16  C   UNL     1      66.271  55.495  21.187  1.00  0.00     0.177 C 
BRANCH  12  17
ATOM     17  O   UNL     1      66.364  57.645  18.357  1.00  0.00    -0.385 OA
ATOM     18  H   UNL     1      65.385  57.782  18.521  1.00  0.00     0.211 HD
ENDBRANCH  12  17
BRANCH  14  19
ATOM     19  O   UNL     1      65.717  57.808  21.601  1.00  0.00    -0.387 OA
ATOM     20  H   UNL     1      64.926  58.345  21.356  1.00  0.00     0.211 HD
ENDBRANCH  14  19
BRANCH  15  21
ATOM     21  C   UNL     1      68.103  54.199  22.320  1.00  0.00     0.191 C 
BRANCH  21  22
ATOM     22  O   UNL     1      69.170  53.449  21.787  1.00  0.00    -0.394 OA
ATOM     23  H   UNL     1      68.839  52.512  21.613  1.00  0.00     0.210 HD
ENDBRANCH  21  22
ENDBRANCH  15  21
BRANCH  16  24
ATOM     24  O   UNL     1      65.902  54.457  20.316  1.00  0.00    -0.387 OA
ATOM     25  H   UNL     1      65.137  54.764  19.766  1.00  0.00     0.211 HD
ENDBRANCH  16  24
ENDBRANCH  10  11
ENDBRANCH   4  10
BRANCH   6  26
ATOM     26  O   UNL     1      72.678  56.657  19.167  1.00  0.00    -0.346 OA
BRANCH  26  27
ATOM     27  C   UNL     1      73.382  57.144  20.319  1.00  0.00     0.130 C 
ATOM     28  C   UNL     1      72.884  58.450  20.929  1.00  0.00     0.033 C 
ATOM     29  C   UNL     1      73.836  56.097  21.389  1.00  0.00     0.020 C 
ATOM     30  C   UNL     1      74.054  59.102  21.698  1.00  0.00     0.010 C 
ATOM     31  C   UNL     1      74.837  56.759  22.449  1.00  0.00     0.006 C 
ATOM     32  C   UNL     1      72.613  55.636  22.165  1.00  0.00     0.017 C 
ATOM     33  C   UNL     1      74.595  58.252  22.922  1.00  0.00    -0.022 C 
ATOM     34  C   UNL     1      75.124  55.832  23.669  1.00  0.00     0.005 C 
ATOM     35  C   UNL     1      75.992  58.867  23.232  1.00  0.00     0.012 C 
ATOM     36  C   UNL     1      73.713  58.430  24.277  1.00  0.00     0.024 C 
ATOM     37  C   UNL     1      74.083  55.897  24.831  1.00  0.00     0.008 C 
ATOM     38  C   UNL     1      73.734  57.314  25.420  1.00  0.00    -0.017 C 
ATOM     39  C   UNL     1      72.357  59.015  23.981  1.00  0.00    -0.024 C 
ATOM     40  C   UNL     1      74.933  57.605  26.398  1.00  0.00     0.013 C 
ATOM     41  C   UNL     1      72.329  57.303  26.277  1.00  0.00     0.009 C 
ATOM     42  C   UNL     1      71.184  58.518  24.377  1.00  0.00     0.005 C 
ATOM     43  C   UNL     1      71.045  57.356  25.323  1.00  0.00     0.096 C 
ATOM     44  C   UNL     1      72.151  56.026  27.209  1.00  0.00     0.043 C 
ATOM     45  C   UNL     1      72.318  58.550  27.233  1.00  0.00     0.015 C 
ATOM     46  C   UNL     1      69.704  57.411  26.093  1.00  0.00     0.037 C 
ATOM     47  O   UNL     1      70.994  56.166  24.560  1.00  0.00    -0.369 OA
ATOM     48  C   UNL     1      70.675  55.732  27.653  1.00  0.00     0.124 C 
ATOM     49  C   UNL     1      69.637  55.943  26.507  1.00  0.00     0.026 C 
ATOM     50  C   UNL     1      68.482  57.816  25.216  1.00  0.00     0.014 C 
ATOM     51  C   UNL     1      70.133  55.271  25.216  1.00  0.00     0.171 C 
ATOM     52  C   UNL     1      68.200  55.447  26.885  1.00  0.00     0.013 C 
ATOM     53  C   UNL     1      67.067  57.497  25.818  1.00  0.00    -0.035 C 
ATOM     54  C   UNL     1      67.176  56.577  27.052  1.00  0.00     0.007 C 
ATOM     55  C   UNL     1      66.214  56.836  24.709  1.00  0.00     0.011 C 
ATOM     56  C   UNL     1      66.361  58.802  26.251  1.00  0.00     0.011 C 
BRANCH  29  57
ATOM     57  C   UNL     1      74.593  54.900  20.682  1.00  0.00     0.165 C 
BRANCH  57  58
ATOM     58  O   UNL     1      73.715  54.068  19.939  1.00  0.00    -0.396 OA
ATOM     59  H   UNL     1      72.827  54.076  20.382  1.00  0.00     0.210 HD
ENDBRANCH  57  58
ENDBRANCH  29  57
BRANCH  48  60
ATOM     60  O   UNL     1      70.636  54.406  28.114  1.00  0.00    -0.392 OA
ATOM     61  H   UNL     1      70.229  54.417  29.024  1.00  0.00     0.210 HD
ENDBRANCH  48  60
ENDBRANCH  26  27
ENDBRANCH   6  26
BRANCH   5  62
ATOM     62  O   UNL     1      71.192  58.643  16.384  1.00  0.00    -0.385 OA
ATOM     63  H   UNL     1      71.821  58.109  15.816  1.00  0.00     0.211 HD
ENDBRANCH   5  62
TORSDOF 14
ENDMDL
MODEL 5
REMARK VINA RESULT:    -4.826      1.857      3.187
REMARK INTER + INTRA:         -10.414
REMARK INTER:                  -8.280
REMARK INTRA:                  -2.134
REMARK UNBOUND:                -2.768
REMARK SMILES C[C@@H]1O[C@H](O[C@H]2CC[C@]3(C)[C@@H](CC[C@@]4(C)[C@@H]3C=C[C@]35OC[C@@]6(CCC(C)(C)C[C@@H]63)[C@@H](O)C[C@@]45C)[C@]2(C)CO)[C@@H](O)[C@H](O[C@H]2O[C@H](CO)[C@H](O)[C@@H](O)[C@@H]2O)[C@H]1O
REMARK SMILES IDX 1 1 2 2 54 3 41 4 39 5 4 6 3 7 55 8 42 10 43 11 52 12 44 13
REMARK SMILES IDX 50 14 45 15 48 16 53 17 51 19 46 21 47 22 49 24 5 26 6 27
REMARK SMILES IDX 7 28 35 29 8 30 11 31 36 32 9 33 12 34 10 35 16 36 13 37
REMARK SMILES IDX 14 38 17 39 15 40 33 41 18 42 19 43 32 44 34 45 29 46 20 47
REMARK SMILES IDX 30 48 22 49 28 50 21 51 23 52 25 53 24 54 26 55 27 56 37 57
REMARK SMILES IDX 38 58 31 60 40 62
REMARK H PARENT 55 9 53 18 51 20 47 23 49 25 38 59 31 61 40 63
REMARK Flexibility Score: inf
ROOT
ATOM      1  C   UNL     1      70.500  53.229  16.893  1.00  0.00     0.041 C 
ATOM      2  C   UNL     1      70.556  54.731  17.217  1.00  0.00     0.150 C 
ATOM      3  C   UNL     1      69.889  55.011  18.604  1.00  0.00     0.175 C 
ATOM      4  C   UNL     1      69.851  56.554  18.891  1.00  0.00     0.186 C 
ATOM      5  C   UNL     1      71.191  57.160  18.312  1.00  0.00     0.202 C 
ATOM      6  C   UNL     1      72.337  56.082  18.164  1.00  0.00     0.282 C 
ATOM      7  O   UNL     1      71.941  55.157  17.148  1.00  0.00    -0.344 OA
ENDROOT
BRANCH   3   8
ATOM      8  O   UNL     1      68.601  54.445  18.670  1.00  0.00    -0.388 OA
ATOM      9  H   UNL     1      68.367  54.397  19.640  1.00  0.00     0.211 HD
ENDBRANCH   3   8
BRANCH   4  10
ATOM     10  O   UNL     1      69.820  56.782  20.285  1.00  0.00    -0.341 OA
BRANCH  10  11
ATOM     11  C   UNL     1      68.518  57.040  20.844  1.00  0.00     0.282 C 
ATOM     12  C   UNL     1      67.790  55.711  21.294  1.00  0.00     0.202 C 
ATOM     13  O   UNL     1      67.813  57.899  19.918  1.00  0.00    -0.341 OA
ATOM     14  C   UNL     1      66.257  55.644  21.088  1.00  0.00     0.179 C 
ATOM     15  C   UNL     1      66.657  57.327  19.327  1.00  0.00     0.178 C 
ATOM     16  C   UNL     1      65.674  56.879  20.394  1.00  0.00     0.177 C 
BRANCH  12  17
ATOM     17  O   UNL     1      68.060  55.518  22.651  1.00  0.00    -0.385 OA
ATOM     18  H   UNL     1      67.876  54.563  22.896  1.00  0.00     0.211 HD
ENDBRANCH  12  17
BRANCH  14  19
ATOM     19  O   UNL     1      65.885  54.474  20.381  1.00  0.00    -0.387 OA
ATOM     20  H   UNL     1      66.019  54.641  19.417  1.00  0.00     0.211 HD
ENDBRANCH  14  19
BRANCH  15  21
ATOM     21  C   UNL     1      65.974  58.389  18.408  1.00  0.00     0.191 C 
BRANCH  21  22
ATOM     22  O   UNL     1      64.570  58.339  18.509  1.00  0.00    -0.394 OA
ATOM     23  H   UNL     1      64.188  59.083  17.945  1.00  0.00     0.210 HD
ENDBRANCH  21  22
ENDBRANCH  15  21
BRANCH  16  24
ATOM     24  O   UNL     1      65.479  57.920  21.316  1.00  0.00    -0.387 OA
ATOM     25  H   UNL     1      65.835  57.633  22.196  1.00  0.00     0.211 HD
ENDBRANCH  16  24
ENDBRANCH  10  11
ENDBRANCH   4  10
BRANCH   6  26
ATOM     26  O   UNL     1      72.597  55.338  19.357  1.00  0.00    -0.346 OA
BRANCH  26  27
ATOM     27  C   UNL     1      73.339  55.888  20.455  1.00  0.00     0.130 C 
ATOM     28  C   UNL     1      72.992  57.312  20.876  1.00  0.00     0.033 C 
ATOM     29  C   UNL     1      73.652  54.947  21.666  1.00  0.00     0.020 C 
ATOM     30  C   UNL     1      74.221  57.920  21.586  1.00  0.00     0.010 C 
ATOM     31  C   UNL     1      74.712  55.623  22.657  1.00  0.00     0.006 C 
ATOM     32  C   UNL     1      72.373  54.739  22.460  1.00  0.00     0.017 C 
ATOM     33  C   UNL     1      74.642  57.183  22.925  1.00  0.00    -0.022 C 
ATOM     34  C   UNL     1      74.871  54.839  23.995  1.00  0.00     0.005 C 
ATOM     35  C   UNL     1      76.099  57.668  23.192  1.00  0.00     0.012 C 
ATOM     36  C   UNL     1      73.771  57.641  24.220  1.00  0.00     0.024 C 
ATOM     37  C   UNL     1      73.830  55.178  25.110  1.00  0.00     0.008 C 
ATOM     38  C   UNL     1      73.645  56.691  25.499  1.00  0.00    -0.017 C 
ATOM     39  C   UNL     1      72.498  58.335  23.812  1.00  0.00    -0.024 C 
ATOM     40  C   UNL     1      74.858  56.968  26.464  1.00  0.00     0.013 C 
ATOM     41  C   UNL     1      72.238  56.958  26.311  1.00  0.00     0.009 C 
ATOM     42  C   UNL     1      71.269  58.034  24.237  1.00  0.00     0.005 C 
ATOM     43  C   UNL     1      70.982  57.032  25.321  1.00  0.00     0.096 C 
ATOM     44  C   UNL     1      71.898  55.845  27.395  1.00  0.00     0.043 C 
ATOM     45  C   UNL     1      72.364  58.314  27.095  1.00  0.00     0.015 C 
ATOM     46  C   UNL     1      69.647  57.345  26.041  1.00  0.00     0.037 C 
ATOM     47  O   UNL     1      70.799  55.766  24.720  1.00  0.00    -0.369 OA
ATOM     48  C   UNL     1      70.392  55.786  27.832  1.00  0.00     0.124 C 
ATOM     49  C   UNL     1      69.401  55.962  26.640  1.00  0.00     0.026 C 
ATOM     50  C   UNL     1      68.493  57.768  25.084  1.00  0.00     0.014 C 
ATOM     51  C   UNL     1      69.829  55.071  25.462  1.00  0.00     0.171 C 
ATOM     52  C   UNL     1      67.911  55.690  27.039  1.00  0.00     0.013 C 
ATOM     53  C   UNL     1      67.043  57.699  25.682  1.00  0.00    -0.035 C 
ATOM     54  C   UNL     1      67.027  56.944  27.028  1.00  0.00     0.007 C 
ATOM     55  C   UNL     1      66.131  57.000  24.646  1.00  0.00     0.011 C 
ATOM     56  C   UNL     1      66.491  59.123  25.922  1.00  0.00     0.011 C 
BRANCH  29  57
ATOM     57  C   UNL     1      74.270  53.587  21.142  1.00  0.00     0.165 C 
BRANCH  57  58
ATOM     58  O   UNL     1      75.155  53.781  20.049  1.00  0.00    -0.396 OA
ATOM     59  H   UNL     1      75.111  52.980  19.465  1.00  0.00     0.210 HD
ENDBRANCH  57  58
ENDBRANCH  29  57
BRANCH  48  60
ATOM     60  O   UNL     1      70.190  54.546  28.461  1.00  0.00    -0.392 OA
ATOM     61  H   UNL     1      69.512  54.682  29.179  1.00  0.00     0.210 HD
ENDBRANCH  48  60
ENDBRANCH  26  27
ENDBRANCH   6  26
BRANCH   5  62
ATOM     62  O   UNL     1      70.909  57.727  17.046  1.00  0.00    -0.385 OA
ATOM     63  H   UNL     1      70.627  58.675  17.201  1.00  0.00     0.211 HD
ENDBRANCH   5  62
TORSDOF 14
ENDMDL
MODEL 6
REMARK VINA RESULT:    -4.374      2.211      7.599
REMARK INTER + INTRA:          -9.699
REMARK INTER:                  -6.727
REMARK INTRA:                  -2.972
REMARK UNBOUND:                -2.768
REMARK SMILES C[C@@H]1O[C@H](O[C@H]2CC[C@]3(C)[C@@H](CC[C@@]4(C)[C@@H]3C=C[C@]35OC[C@@]6(CCC(C)(C)C[C@@H]63)[C@@H](O)C[C@@]45C)[C@]2(C)CO)[C@@H](O)[C@H](O[C@H]2O[C@H](CO)[C@H](O)[C@@H](O)[C@@H]2O)[C@H]1O
REMARK SMILES IDX 1 1 2 2 54 3 41 4 39 5 4 6 3 7 55 8 42 10 43 11 52 12 44 13
REMARK SMILES IDX 50 14 45 15 48 16 53 17 51 19 46 21 47 22 49 24 5 26 6 27
REMARK SMILES IDX 7 28 35 29 8 30 11 31 36 32 9 33 12 34 10 35 16 36 13 37
REMARK SMILES IDX 14 38 17 39 15 40 33 41 18 42 19 43 32 44 34 45 29 46 20 47
REMARK SMILES IDX 30 48 22 49 28 50 21 51 23 52 25 53 24 54 26 55 27 56 37 57
REMARK SMILES IDX 38 58 31 60 40 62
REMARK H PARENT 55 9 53 18 51 20 47 23 49 25 38 59 31 61 40 63
REMARK Flexibility Score: inf
ROOT
ATOM      1  C   UNL     1      75.625  57.738  28.454  1.00  0.00     0.041 C 
ATOM      2  C   UNL     1      74.456  56.870  27.957  1.00  0.00     0.150 C 
ATOM      3  C   UNL     1      73.285  57.775  27.452  1.00  0.00     0.175 C 
ATOM      4  C   UNL     1      72.051  56.896  27.042  1.00  0.00     0.186 C 
ATOM      5  C   UNL     1      72.626  55.583  26.378  1.00  0.00     0.202 C 
ATOM      6  C   UNL     1      74.095  55.768  25.824  1.00  0.00     0.282 C 
ATOM      7  O   UNL     1      74.964  55.965  26.943  1.00  0.00    -0.344 OA
ENDROOT
BRANCH   3   8
ATOM      8  O   UNL     1      72.932  58.735  28.422  1.00  0.00    -0.388 OA
ATOM      9  H   UNL     1      72.922  59.615  27.950  1.00  0.00     0.211 HD
ENDBRANCH   3   8
BRANCH   4  10
ATOM     10  O   UNL     1      71.271  57.581  26.083  1.00  0.00    -0.341 OA
BRANCH  10  11
ATOM     11  C   UNL     1      69.853  57.339  26.147  1.00  0.00     0.282 C 
ATOM     12  C   UNL     1      69.522  55.819  26.427  1.00  0.00     0.202 C 
ATOM     13  O   UNL     1      69.258  57.941  24.973  1.00  0.00    -0.341 OA
ATOM     14  C   UNL     1      68.277  55.229  25.720  1.00  0.00     0.179 C 
ATOM     15  C   UNL     1      68.650  57.029  24.073  1.00  0.00     0.178 C 
ATOM     16  C   UNL     1      67.580  56.212  24.776  1.00  0.00     0.177 C 
BRANCH  12  17
ATOM     17  O   UNL     1      69.359  55.667  27.805  1.00  0.00    -0.385 OA
ATOM     18  H   UNL     1      69.572  56.532  28.265  1.00  0.00     0.211 HD
ENDBRANCH  12  17
BRANCH  14  19
ATOM     19  O   UNL     1      68.600  54.038  25.023  1.00  0.00    -0.387 OA
ATOM     20  H   UNL     1      67.767  53.523  24.892  1.00  0.00     0.211 HD
ENDBRANCH  14  19
BRANCH  15  21
ATOM     21  C   UNL     1      68.002  57.827  22.898  1.00  0.00     0.191 C 
BRANCH  21  22
ATOM     22  O   UNL     1      66.795  57.238  22.471  1.00  0.00    -0.394 OA
ATOM     23  H   UNL     1      66.041  57.647  23.002  1.00  0.00     0.210 HD
ENDBRANCH  21  22
ENDBRANCH  15  21
BRANCH  16  24
ATOM     24  O   UNL     1      66.733  57.073  25.494  1.00  0.00    -0.387 OA
ATOM     25  H   UNL     1      65.868  56.612  25.644  1.00  0.00     0.211 HD
ENDBRANCH  16  24
ENDBRANCH  10  11
ENDBRANCH   4  10
BRANCH   6  26
ATOM     26  O   UNL     1      74.251  56.886  24.946  1.00  0.00    -0.346 OA
BRANCH  26  27
ATOM     27  C   UNL     1      74.494  56.725  23.540  1.00  0.00     0.130 C 
ATOM     28  C   UNL     1      74.924  55.340  23.070  1.00  0.00     0.033 C 
ATOM     29  C   UNL     1      73.515  57.437  22.548  1.00  0.00     0.020 C 
ATOM     30  C   UNL     1      75.698  55.498  21.743  1.00  0.00     0.010 C 
ATOM     31  C   UNL     1      74.084  57.391  21.052  1.00  0.00     0.006 C 
ATOM     32  C   UNL     1      72.196  56.682  22.543  1.00  0.00     0.017 C 
ATOM     33  C   UNL     1      74.845  56.096  20.548  1.00  0.00    -0.022 C 
ATOM     34  C   UNL     1      73.041  57.865  19.995  1.00  0.00     0.005 C 
ATOM     35  C   UNL     1      75.909  56.564  19.510  1.00  0.00     0.012 C 
ATOM     36  C   UNL     1      73.930  54.989  19.786  1.00  0.00     0.024 C 
ATOM     37  C   UNL     1      72.039  56.777  19.493  1.00  0.00     0.008 C 
ATOM     38  C   UNL     1      72.639  55.428  18.952  1.00  0.00    -0.017 C 
ATOM     39  C   UNL     1      73.759  53.745  20.618  1.00  0.00    -0.024 C 
ATOM     40  C   UNL     1      73.076  55.788  17.483  1.00  0.00     0.013 C 
ATOM     41  C   UNL     1      71.517  54.224  18.901  1.00  0.00     0.009 C 
ATOM     42  C   UNL     1      72.602  53.155  20.920  1.00  0.00     0.005 C 
ATOM     43  C   UNL     1      71.276  53.569  20.342  1.00  0.00     0.096 C 
ATOM     44  C   UNL     1      70.093  54.692  18.370  1.00  0.00     0.043 C 
ATOM     45  C   UNL     1      72.018  53.117  17.903  1.00  0.00     0.015 C 
ATOM     46  C   UNL     1      70.274  52.390  20.324  1.00  0.00     0.037 C 
ATOM     47  O   UNL     1      70.703  54.540  21.194  1.00  0.00    -0.369 OA
ATOM     48  C   UNL     1      68.902  53.743  18.749  1.00  0.00     0.124 C 
ATOM     49  C   UNL     1      68.988  53.206  20.212  1.00  0.00     0.026 C 
ATOM     50  C   UNL     1      70.290  51.521  21.618  1.00  0.00     0.014 C 
ATOM     51  C   UNL     1      69.310  54.358  21.178  1.00  0.00     0.171 C 
ATOM     52  C   UNL     1      67.698  52.439  20.659  1.00  0.00     0.013 C 
ATOM     53  C   UNL     1      69.047  50.588  21.835  1.00  0.00    -0.035 C 
ATOM     54  C   UNL     1      67.908  50.931  20.852  1.00  0.00     0.007 C 
ATOM     55  C   UNL     1      68.579  50.750  23.301  1.00  0.00     0.011 C 
ATOM     56  C   UNL     1      69.440  49.108  21.619  1.00  0.00     0.011 C 
BRANCH  29  57
ATOM     57  C   UNL     1      73.344  58.955  22.960  1.00  0.00     0.165 C 
BRANCH  57  58
ATOM     58  O   UNL     1      72.476  59.120  24.070  1.00  0.00    -0.396 OA
ATOM     59  H   UNL     1      72.096  60.036  24.037  1.00  0.00     0.210 HD
ENDBRANCH  57  58
ENDBRANCH  29  57
BRANCH  48  60
ATOM     60  O   UNL     1      67.715  54.472  18.563  1.00  0.00    -0.392 OA
ATOM     61  H   UNL     1      67.034  53.844  18.193  1.00  0.00     0.210 HD
ENDBRANCH  48  60
ENDBRANCH  26  27
ENDBRANCH   6  26
BRANCH   5  62
ATOM     62  O   UNL     1      72.614  54.554  27.350  1.00  0.00    -0.385 OA
ATOM     63  H   UNL     1      71.755  54.050  27.239  1.00  0.00     0.211 HD
ENDBRANCH   5  62
TORSDOF 14
ENDMDL
