MODEL 1
REMARK VINA RESULT:    -8.306      0.000      0.000
REMARK INTER + INTRA:         -11.770
REMARK INTER:                 -11.220
REMARK INTRA:                  -0.551
REMARK UNBOUND:                -0.551
REMARK SMILES O=c1c(-c2ccc(O)cc2)coc2c([C@@H]3O[C@@H](CO)[C@@H](O)[C@H](O)[C@H]3O)c(O)ccc12
REMARK SMILES IDX 3 1 11 2 12 3 13 4 30 5 2 6 1 7 29 8 28 9 26 10 14 11 4 12
REMARK SMILES IDX 5 13 6 14 7 15 10 16 9 17 8 18 15 20 24 21 16 22 22 23 17 24
REMARK SMILES IDX 20 25 25 26 23 28 18 30 19 31 21 33 27 35
REMARK H PARENT 8 19 25 27 23 29 19 32 21 34 27 36
REMARK Flexibility Score: inf
ROOT
ATOM      1  C   UNL     1     -23.675 -50.976 103.271  1.00  0.00     0.065 A 
ATOM      2  C   UNL     1     -23.512 -50.120 102.173  1.00  0.00     0.208 A 
ATOM      3  O   UNL     1     -22.672 -49.093 102.226  1.00  0.00    -0.463 OA
ATOM      4  C   UNL     1     -21.940 -48.806 103.300  1.00  0.00     0.147 A 
ATOM      5  C   UNL     1     -22.048 -49.614 104.457  1.00  0.00     0.066 A 
ATOM      6  C   UNL     1     -22.932 -50.707 104.435  1.00  0.00     0.200 A 
ATOM      7  O   UNL     1     -23.076 -51.430 105.460  1.00  0.00    -0.288 OA
ATOM      8  C   UNL     1     -21.288 -49.301 105.595  1.00  0.00     0.020 A 
ATOM      9  C   UNL     1     -20.440 -48.197 105.590  1.00  0.00     0.047 A 
ATOM     10  C   UNL     1     -20.327 -47.389 104.453  1.00  0.00     0.125 A 
ATOM     11  C   UNL     1     -21.062 -47.696 103.284  1.00  0.00     0.069 A 
ENDROOT
BRANCH   1  12
ATOM     12  C   UNL     1     -24.616 -52.121 103.183  1.00  0.00    -0.011 A 
ATOM     13  C   UNL     1     -25.498 -52.406 104.242  1.00  0.00     0.013 A 
ATOM     14  C   UNL     1     -26.378 -53.489 104.158  1.00  0.00     0.047 A 
ATOM     15  C   UNL     1     -26.387 -54.302 103.016  1.00  0.00     0.115 A 
ATOM     16  C   UNL     1     -24.625 -52.947 102.047  1.00  0.00     0.013 A 
ATOM     17  C   UNL     1     -25.509 -54.028 101.964  1.00  0.00     0.047 A 
BRANCH  15  18
ATOM     18  O   UNL     1     -27.263 -55.381 102.919  1.00  0.00    -0.508 OA
ATOM     19  H   UNL     1     -27.739 -55.600 102.052  1.00  0.00     0.293 HD
ENDBRANCH  15  18
ENDBRANCH   1  12
BRANCH  11  20
ATOM     20  C   UNL     1     -20.960 -46.811 102.050  1.00  0.00     0.188 C 
ATOM     21  C   UNL     1     -21.741 -45.498 102.277  1.00  0.00     0.179 C 
ATOM     22  O   UNL     1     -19.587 -46.566 101.770  1.00  0.00    -0.362 OA
ATOM     23  C   UNL     1     -21.607 -44.590 101.047  1.00  0.00     0.177 C 
ATOM     24  C   UNL     1     -19.391 -45.783 100.599  1.00  0.00     0.176 C 
ATOM     25  C   UNL     1     -20.117 -44.418 100.699  1.00  0.00     0.177 C 
BRANCH  21  26
ATOM     26  O   UNL     1     -23.101 -45.791 102.487  1.00  0.00    -0.387 OA
ATOM     27  H   UNL     1     -23.376 -45.349 103.331  1.00  0.00     0.211 HD
ENDBRANCH  21  26
BRANCH  23  28
ATOM     28  O   UNL     1     -22.164 -43.329 101.318  1.00  0.00    -0.387 OA
ATOM     29  H   UNL     1     -23.044 -43.489 101.748  1.00  0.00     0.211 HD
ENDBRANCH  23  28
BRANCH  24  30
ATOM     30  C   UNL     1     -19.686 -46.575  99.306  1.00  0.00     0.191 C 
BRANCH  30  31
ATOM     31  O   UNL     1     -18.546 -47.293  98.921  1.00  0.00    -0.394 OA
ATOM     32  H   UNL     1     -17.816 -46.998  99.527  1.00  0.00     0.210 HD
ENDBRANCH  30  31
ENDBRANCH  24  30
BRANCH  25  33
ATOM     33  O   UNL     1     -19.938 -43.648  99.535  1.00  0.00    -0.388 OA
ATOM     34  H   UNL     1     -18.965 -43.514  99.399  1.00  0.00     0.211 HD
ENDBRANCH  25  33
ENDBRANCH  11  20
BRANCH  10  35
ATOM     35  O   UNL     1     -19.487 -46.275 104.485  1.00  0.00    -0.507 OA
ATOM     36  H   UNL     1     -18.481 -46.364 104.394  1.00  0.00     0.293 HD
ENDBRANCH  10  35
TORSDOF 9
ENDMDL
MODEL 2
REMARK VINA RESULT:    -7.890      0.949      2.249
REMARK INTER + INTRA:         -11.208
REMARK INTER:                 -11.082
REMARK INTRA:                  -0.126
REMARK UNBOUND:                -0.551
REMARK SMILES O=c1c(-c2ccc(O)cc2)coc2c([C@@H]3O[C@@H](CO)[C@@H](O)[C@H](O)[C@H]3O)c(O)ccc12
REMARK SMILES IDX 3 1 11 2 12 3 13 4 30 5 2 6 1 7 29 8 28 9 26 10 14 11 4 12
REMARK SMILES IDX 5 13 6 14 7 15 10 16 9 17 8 18 15 20 24 21 16 22 22 23 17 24
REMARK SMILES IDX 20 25 25 26 23 28 18 30 19 31 21 33 27 35
REMARK H PARENT 8 19 25 27 23 29 19 32 21 34 27 36
REMARK Flexibility Score: inf
ROOT
ATOM      1  C   UNL     1     -23.237 -50.420 103.190  1.00  0.00     0.065 A 
ATOM      2  C   UNL     1     -23.121 -49.469 102.168  1.00  0.00     0.208 A 
ATOM      3  O   UNL     1     -22.304 -48.430 102.291  1.00  0.00    -0.463 OA
ATOM      4  C   UNL     1     -21.553 -48.219 103.370  1.00  0.00     0.147 A 
ATOM      5  C   UNL     1     -21.615 -49.125 104.454  1.00  0.00     0.066 A 
ATOM      6  C   UNL     1     -22.473 -50.235 104.357  1.00  0.00     0.200 A 
ATOM      7  O   UNL     1     -22.575 -51.047 105.318  1.00  0.00    -0.288 OA
ATOM      8  C   UNL     1     -20.834 -48.893 105.598  1.00  0.00     0.020 A 
ATOM      9  C   UNL     1     -20.013 -47.772 105.670  1.00  0.00     0.047 A 
ATOM     10  C   UNL     1     -19.945 -46.866 104.605  1.00  0.00     0.125 A 
ATOM     11  C   UNL     1     -20.702 -47.090 103.431  1.00  0.00     0.069 A 
ENDROOT
BRANCH   1  12
ATOM     12  C   UNL     1     -24.154 -51.577 103.025  1.00  0.00    -0.011 A 
ATOM     13  C   UNL     1     -24.986 -51.989 104.082  1.00  0.00     0.013 A 
ATOM     14  C   UNL     1     -25.842 -53.082 103.923  1.00  0.00     0.047 A 
ATOM     15  C   UNL     1     -25.877 -53.779 102.707  1.00  0.00     0.115 A 
ATOM     16  C   UNL     1     -24.188 -52.287 101.813  1.00  0.00     0.013 A 
ATOM     17  C   UNL     1     -25.048 -53.379 101.655  1.00  0.00     0.047 A 
BRANCH  15  18
ATOM     18  O   UNL     1     -26.730 -54.867 102.536  1.00  0.00    -0.508 OA
ATOM     19  H   UNL     1     -26.374 -55.792 102.325  1.00  0.00     0.293 HD
ENDBRANCH  15  18
ENDBRANCH   1  12
BRANCH  11  20
ATOM     20  C   UNL     1     -20.650 -46.099 102.277  1.00  0.00     0.188 C 
ATOM     21  C   UNL     1     -20.074 -46.786 101.018  1.00  0.00     0.179 C 
ATOM     22  O   UNL     1     -21.957 -45.588 102.047  1.00  0.00    -0.362 OA
ATOM     23  C   UNL     1     -20.056 -45.797  99.845  1.00  0.00     0.177 C 
ATOM     24  C   UNL     1     -21.997 -44.613 101.012  1.00  0.00     0.176 C 
ATOM     25  C   UNL     1     -21.455 -45.179  99.675  1.00  0.00     0.177 C 
BRANCH  21  26
ATOM     26  O   UNL     1     -18.760 -47.216 101.279  1.00  0.00    -0.387 OA
ATOM     27  H   UNL     1     -18.757 -47.646 102.173  1.00  0.00     0.211 HD
ENDBRANCH  21  26
BRANCH  23  28
ATOM     28  O   UNL     1     -19.701 -46.463  98.661  1.00  0.00    -0.387 OA
ATOM     29  H   UNL     1     -19.673 -45.779  97.942  1.00  0.00     0.211 HD
ENDBRANCH  23  28
BRANCH  24  30
ATOM     30  C   UNL     1     -21.368 -43.270 101.444  1.00  0.00     0.191 C 
BRANCH  30  31
ATOM     31  O   UNL     1     -22.248 -42.220 101.154  1.00  0.00    -0.394 OA
ATOM     32  H   UNL     1     -22.435 -41.769 102.019  1.00  0.00     0.210 HD
ENDBRANCH  30  31
ENDBRANCH  24  30
BRANCH  25  33
ATOM     33  O   UNL     1     -21.480 -44.211  98.654  1.00  0.00    -0.388 OA
ATOM     34  H   UNL     1     -20.735 -43.576  98.811  1.00  0.00     0.211 HD
ENDBRANCH  25  33
ENDBRANCH  11  20
BRANCH  10  35
ATOM     35  O   UNL     1     -19.131 -45.739 104.715  1.00  0.00    -0.507 OA
ATOM     36  H   UNL     1     -18.144 -45.814 104.937  1.00  0.00     0.293 HD
ENDBRANCH  10  35
TORSDOF 9
ENDMDL
MODEL 3
REMARK VINA RESULT:    -7.430      3.293      7.327
REMARK INTER + INTRA:         -10.587
REMARK INTER:                  -9.858
REMARK INTRA:                  -0.729
REMARK UNBOUND:                -0.551
REMARK SMILES O=c1c(-c2ccc(O)cc2)coc2c([C@@H]3O[C@@H](CO)[C@@H](O)[C@H](O)[C@H]3O)c(O)ccc12
REMARK SMILES IDX 3 1 11 2 12 3 13 4 30 5 2 6 1 7 29 8 28 9 26 10 14 11 4 12
REMARK SMILES IDX 5 13 6 14 7 15 10 16 9 17 8 18 15 20 24 21 16 22 22 23 17 24
REMARK SMILES IDX 20 25 25 26 23 28 18 30 19 31 21 33 27 35
REMARK H PARENT 8 19 25 27 23 29 19 32 21 34 27 36
REMARK Flexibility Score: inf
ROOT
ATOM      1  C   UNL     1     -18.402 -47.469 107.211  1.00  0.00     0.065 A 
ATOM      2  C   UNL     1     -18.241 -46.575 106.144  1.00  0.00     0.208 A 
ATOM      3  O   UNL     1     -19.059 -46.605 105.099  1.00  0.00    -0.463 OA
ATOM      4  C   UNL     1     -20.068 -47.466 104.989  1.00  0.00     0.147 A 
ATOM      5  C   UNL     1     -20.298 -48.410 106.016  1.00  0.00     0.066 A 
ATOM      6  C   UNL     1     -19.447 -48.408 107.136  1.00  0.00     0.200 A 
ATOM      7  O   UNL     1     -19.605 -49.257 108.057  1.00  0.00    -0.288 OA
ATOM      8  C   UNL     1     -21.353 -49.328 105.892  1.00  0.00     0.020 A 
ATOM      9  C   UNL     1     -22.162 -49.317 104.759  1.00  0.00     0.047 A 
ATOM     10  C   UNL     1     -21.942 -48.390 103.734  1.00  0.00     0.125 A 
ATOM     11  C   UNL     1     -20.903 -47.437 103.846  1.00  0.00     0.069 A 
ENDROOT
BRANCH   1  12
ATOM     12  C   UNL     1     -17.476 -47.412 108.371  1.00  0.00    -0.011 A 
ATOM     13  C   UNL     1     -17.974 -47.437 109.687  1.00  0.00     0.013 A 
ATOM     14  C   UNL     1     -17.100 -47.377 110.775  1.00  0.00     0.047 A 
ATOM     15  C   UNL     1     -15.717 -47.287 110.564  1.00  0.00     0.115 A 
ATOM     16  C   UNL     1     -16.090 -47.312 108.168  1.00  0.00     0.013 A 
ATOM     17  C   UNL     1     -15.216 -47.254 109.259  1.00  0.00     0.047 A 
BRANCH  15  18
ATOM     18  O   UNL     1     -14.836 -47.231 111.641  1.00  0.00    -0.508 OA
ATOM     19  H   UNL     1     -15.078 -46.748 112.499  1.00  0.00     0.293 HD
ENDBRANCH  15  18
ENDBRANCH   1  12
BRANCH  11  20
ATOM     20  C   UNL     1     -20.645 -46.438 102.726  1.00  0.00     0.188 C 
ATOM     21  C   UNL     1     -19.774 -47.089 101.630  1.00  0.00     0.179 C 
ATOM     22  O   UNL     1     -21.893 -45.990 102.211  1.00  0.00    -0.362 OA
ATOM     23  C   UNL     1     -19.544 -46.094 100.484  1.00  0.00     0.177 C 
ATOM     24  C   UNL     1     -21.751 -45.012 101.188  1.00  0.00     0.176 C 
ATOM     25  C   UNL     1     -20.900 -45.543 100.007  1.00  0.00     0.177 C 
BRANCH  21  26
ATOM     26  O   UNL     1     -18.530 -47.457 102.176  1.00  0.00    -0.387 OA
ATOM     27  H   UNL     1     -18.183 -48.220 101.645  1.00  0.00     0.211 HD
ENDBRANCH  21  26
BRANCH  23  28
ATOM     28  O   UNL     1     -18.906 -46.736  99.411  1.00  0.00    -0.387 OA
ATOM     29  H   UNL     1     -18.679 -46.032  98.747  1.00  0.00     0.211 HD
ENDBRANCH  23  28
BRANCH  24  30
ATOM     30  C   UNL     1     -21.298 -43.643 101.742  1.00  0.00     0.191 C 
BRANCH  30  31
ATOM     31  O   UNL     1     -22.110 -42.629 101.217  1.00  0.00    -0.394 OA
ATOM     32  H   UNL     1     -21.820 -41.788 101.658  1.00  0.00     0.210 HD
ENDBRANCH  30  31
ENDBRANCH  24  30
BRANCH  25  33
ATOM     33  O   UNL     1     -20.745 -44.572  99.000  1.00  0.00    -0.388 OA
ATOM     34  H   UNL     1     -20.237 -43.811  99.380  1.00  0.00     0.211 HD
ENDBRANCH  25  33
ENDBRANCH  11  20
BRANCH  10  35
ATOM     35  O   UNL     1     -22.755 -48.418 102.600  1.00  0.00    -0.507 OA
ATOM     36  H   UNL     1     -23.761 -48.319 102.663  1.00  0.00     0.293 HD
ENDBRANCH  10  35
TORSDOF 9
ENDMDL
MODEL 4
REMARK VINA RESULT:    -7.371      3.063      6.868
REMARK INTER + INTRA:         -10.507
REMARK INTER:                 -10.419
REMARK INTRA:                  -0.088
REMARK UNBOUND:                -0.551
REMARK SMILES O=c1c(-c2ccc(O)cc2)coc2c([C@@H]3O[C@@H](CO)[C@@H](O)[C@H](O)[C@H]3O)c(O)ccc12
REMARK SMILES IDX 3 1 11 2 12 3 13 4 30 5 2 6 1 7 29 8 28 9 26 10 14 11 4 12
REMARK SMILES IDX 5 13 6 14 7 15 10 16 9 17 8 18 15 20 24 21 16 22 22 23 17 24
REMARK SMILES IDX 20 25 25 26 23 28 18 30 19 31 21 33 27 35
REMARK H PARENT 8 19 25 27 23 29 19 32 21 34 27 36
REMARK Flexibility Score: inf
ROOT
ATOM      1  C   UNL     1     -18.615 -47.715 106.921  1.00  0.00     0.065 A 
ATOM      2  C   UNL     1     -18.477 -46.983 105.734  1.00  0.00     0.208 A 
ATOM      3  O   UNL     1     -19.330 -47.143 104.730  1.00  0.00    -0.463 OA
ATOM      4  C   UNL     1     -20.356 -47.990 104.774  1.00  0.00     0.147 A 
ATOM      5  C   UNL     1     -20.565 -48.776 105.932  1.00  0.00     0.066 A 
ATOM      6  C   UNL     1     -19.677 -48.634 107.012  1.00  0.00     0.200 A 
ATOM      7  O   UNL     1     -19.817 -49.341 108.049  1.00  0.00    -0.288 OA
ATOM      8  C   UNL     1     -21.638 -49.680 105.971  1.00  0.00     0.020 A 
ATOM      9  C   UNL     1     -22.485 -49.813 104.874  1.00  0.00     0.047 A 
ATOM     10  C   UNL     1     -22.286 -49.043 103.722  1.00  0.00     0.125 A 
ATOM     11  C   UNL     1     -21.228 -48.106 103.666  1.00  0.00     0.069 A 
ENDROOT
BRANCH   1  12
ATOM     12  C   UNL     1     -17.650 -47.514 108.032  1.00  0.00    -0.011 A 
ATOM     13  C   UNL     1     -18.091 -47.489 109.368  1.00  0.00     0.013 A 
ATOM     14  C   UNL     1     -17.180 -47.293 110.410  1.00  0.00     0.047 A 
ATOM     15  C   UNL     1     -15.817 -47.117 110.131  1.00  0.00     0.115 A 
ATOM     16  C   UNL     1     -16.285 -47.327 107.761  1.00  0.00     0.013 A 
ATOM     17  C   UNL     1     -15.375 -47.133 108.805  1.00  0.00     0.047 A 
BRANCH  15  18
ATOM     18  O   UNL     1     -14.900 -46.925 111.161  1.00  0.00    -0.508 OA
ATOM     19  H   UNL     1     -14.270 -47.663 111.453  1.00  0.00     0.293 HD
ENDBRANCH  15  18
ENDBRANCH   1  12
BRANCH  11  20
ATOM     20  C   UNL     1     -20.993 -47.279 102.409  1.00  0.00     0.188 C 
ATOM     21  C   UNL     1     -21.646 -45.888 102.563  1.00  0.00     0.179 C 
ATOM     22  O   UNL     1     -19.593 -47.181 102.175  1.00  0.00    -0.362 OA
ATOM     23  C   UNL     1     -21.378 -45.042 101.311  1.00  0.00     0.177 C 
ATOM     24  C   UNL     1     -19.278 -46.464 100.988  1.00  0.00     0.176 C 
ATOM     25  C   UNL     1     -19.867 -45.031 101.016  1.00  0.00     0.177 C 
BRANCH  21  26
ATOM     26  O   UNL     1     -23.036 -46.039 102.728  1.00  0.00    -0.387 OA
ATOM     27  H   UNL     1     -23.302 -46.881 102.276  1.00  0.00     0.211 HD
ENDBRANCH  21  26
BRANCH  23  28
ATOM     28  O   UNL     1     -21.816 -43.724 101.518  1.00  0.00    -0.387 OA
ATOM     29  H   UNL     1     -22.377 -43.480 100.736  1.00  0.00     0.211 HD
ENDBRANCH  23  28
BRANCH  24  30
ATOM     30  C   UNL     1     -19.603 -47.269  99.711  1.00  0.00     0.191 C 
BRANCH  30  31
ATOM     31  O   UNL     1     -18.558 -47.134  98.789  1.00  0.00    -0.394 OA
ATOM     32  H   UNL     1     -18.353 -48.051  98.468  1.00  0.00     0.210 HD
ENDBRANCH  30  31
ENDBRANCH  24  30
BRANCH  25  33
ATOM     33  O   UNL     1     -19.570 -44.324  99.836  1.00  0.00    -0.388 OA
ATOM     34  H   UNL     1     -18.890 -43.635 100.051  1.00  0.00     0.211 HD
ENDBRANCH  25  33
ENDBRANCH  11  20
BRANCH  10  35
ATOM     35  O   UNL     1     -23.136 -49.214 102.629  1.00  0.00    -0.507 OA
ATOM     36  H   UNL     1     -23.985 -49.764 102.696  1.00  0.00     0.293 HD
ENDBRANCH  10  35
TORSDOF 9
ENDMDL
MODEL 5
REMARK VINA RESULT:    -7.291      4.285      8.872
REMARK INTER + INTRA:         -10.400
REMARK INTER:                  -9.925
REMARK INTRA:                  -0.474
REMARK UNBOUND:                -0.551
REMARK SMILES O=c1c(-c2ccc(O)cc2)coc2c([C@@H]3O[C@@H](CO)[C@@H](O)[C@H](O)[C@H]3O)c(O)ccc12
REMARK SMILES IDX 3 1 11 2 12 3 13 4 30 5 2 6 1 7 29 8 28 9 26 10 14 11 4 12
REMARK SMILES IDX 5 13 6 14 7 15 10 16 9 17 8 18 15 20 24 21 16 22 22 23 17 24
REMARK SMILES IDX 20 25 25 26 23 28 18 30 19 31 21 33 27 35
REMARK H PARENT 8 19 25 27 23 29 19 32 21 34 27 36
REMARK Flexibility Score: inf
ROOT
ATOM      1  C   UNL     1     -17.279 -44.766 106.851  1.00  0.00     0.065 A 
ATOM      2  C   UNL     1     -17.458 -44.285 105.547  1.00  0.00     0.208 A 
ATOM      3  O   UNL     1     -18.210 -44.944 104.674  1.00  0.00    -0.463 OA
ATOM      4  C   UNL     1     -18.834 -46.083 104.965  1.00  0.00     0.147 A 
ATOM      5  C   UNL     1     -18.701 -46.644 106.256  1.00  0.00     0.066 A 
ATOM      6  C   UNL     1     -17.908 -45.973 107.204  1.00  0.00     0.200 A 
ATOM      7  O   UNL     1     -17.743 -46.462 108.357  1.00  0.00    -0.288 OA
ATOM      8  C   UNL     1     -19.346 -47.854 106.557  1.00  0.00     0.020 A 
ATOM      9  C   UNL     1     -20.105 -48.504 105.587  1.00  0.00     0.047 A 
ATOM     10  C   UNL     1     -20.242 -47.960 104.305  1.00  0.00     0.125 A 
ATOM     11  C   UNL     1     -19.623 -46.730 103.983  1.00  0.00     0.069 A 
ENDROOT
BRANCH   1  12
ATOM     12  C   UNL     1     -16.437 -44.006 107.811  1.00  0.00    -0.011 A 
ATOM     13  C   UNL     1     -16.586 -42.614 107.949  1.00  0.00     0.013 A 
ATOM     14  C   UNL     1     -15.787 -41.903 108.849  1.00  0.00     0.047 A 
ATOM     15  C   UNL     1     -14.829 -42.573 109.622  1.00  0.00     0.115 A 
ATOM     16  C   UNL     1     -15.467 -44.668 108.583  1.00  0.00     0.013 A 
ATOM     17  C   UNL     1     -14.672 -43.955 109.485  1.00  0.00     0.047 A 
BRANCH  15  18
ATOM     18  O   UNL     1     -14.031 -41.875 110.525  1.00  0.00    -0.508 OA
ATOM     19  H   UNL     1     -13.958 -42.157 111.496  1.00  0.00     0.293 HD
ENDBRANCH  15  18
ENDBRANCH   1  12
BRANCH  11  20
ATOM     20  C   UNL     1     -19.750 -46.142 102.585  1.00  0.00     0.188 C 
ATOM     21  C   UNL     1     -19.053 -47.064 101.560  1.00  0.00     0.179 C 
ATOM     22  O   UNL     1     -21.128 -45.964 102.282  1.00  0.00    -0.362 OA
ATOM     23  C   UNL     1     -19.213 -46.490 100.146  1.00  0.00     0.177 C 
ATOM     24  C   UNL     1     -21.344 -45.371 101.007  1.00  0.00     0.176 C 
ATOM     25  C   UNL     1     -20.702 -46.210  99.874  1.00  0.00     0.177 C 
BRANCH  21  26
ATOM     26  O   UNL     1     -17.683 -47.155 101.867  1.00  0.00    -0.387 OA
ATOM     27  H   UNL     1     -17.554 -46.777 102.776  1.00  0.00     0.211 HD
ENDBRANCH  21  26
BRANCH  23  28
ATOM     28  O   UNL     1     -18.738 -47.410  99.197  1.00  0.00    -0.387 OA
ATOM     29  H   UNL     1     -18.197 -46.895  98.542  1.00  0.00     0.211 HD
ENDBRANCH  23  28
BRANCH  24  30
ATOM     30  C   UNL     1     -20.975 -43.872 100.986  1.00  0.00     0.191 C 
BRANCH  30  31
ATOM     31  O   UNL     1     -22.125 -43.099 101.193  1.00  0.00    -0.394 OA
ATOM     32  H   UNL     1     -22.455 -43.332 102.100  1.00  0.00     0.210 HD
ENDBRANCH  30  31
ENDBRANCH  24  30
BRANCH  25  33
ATOM     33  O   UNL     1     -20.901 -45.618  98.613  1.00  0.00    -0.388 OA
ATOM     34  H   UNL     1     -21.181 -46.326  97.978  1.00  0.00     0.211 HD
ENDBRANCH  25  33
ENDBRANCH  11  20
BRANCH  10  35
ATOM     35  O   UNL     1     -20.989 -48.646 103.346  1.00  0.00    -0.507 OA
ATOM     36  H   UNL     1     -21.470 -48.160 102.599  1.00  0.00     0.293 HD
ENDBRANCH  10  35
TORSDOF 9
ENDMDL
MODEL 6
REMARK VINA RESULT:    -7.076      4.982      6.414
REMARK INTER + INTRA:         -10.108
REMARK INTER:                  -9.680
REMARK INTRA:                  -0.428
REMARK UNBOUND:                -0.551
REMARK SMILES O=c1c(-c2ccc(O)cc2)coc2c([C@@H]3O[C@@H](CO)[C@@H](O)[C@H](O)[C@H]3O)c(O)ccc12
REMARK SMILES IDX 3 1 11 2 12 3 13 4 30 5 2 6 1 7 29 8 28 9 26 10 14 11 4 12
REMARK SMILES IDX 5 13 6 14 7 15 10 16 9 17 8 18 15 20 24 21 16 22 22 23 17 24
REMARK SMILES IDX 20 25 25 26 23 28 18 30 19 31 21 33 27 35
REMARK H PARENT 8 19 25 27 23 29 19 32 21 34 27 36
REMARK Flexibility Score: inf
ROOT
ATOM      1  C   UNL     1     -18.434 -47.468 106.507  1.00  0.00     0.065 A 
ATOM      2  C   UNL     1     -19.528 -47.396 105.634  1.00  0.00     0.208 A 
ATOM      3  O   UNL     1     -19.450 -46.712 104.499  1.00  0.00    -0.463 OA
ATOM      4  C   UNL     1     -18.355 -46.060 104.115  1.00  0.00     0.147 A 
ATOM      5  C   UNL     1     -17.207 -46.073 104.941  1.00  0.00     0.066 A 
ATOM      6  C   UNL     1     -17.257 -46.785 106.152  1.00  0.00     0.200 A 
ATOM      7  O   UNL     1     -16.260 -46.793 106.928  1.00  0.00    -0.288 OA
ATOM      8  C   UNL     1     -16.058 -45.372 104.543  1.00  0.00     0.020 A 
ATOM      9  C   UNL     1     -16.051 -44.658 103.348  1.00  0.00     0.047 A 
ATOM     10  C   UNL     1     -17.182 -44.635 102.523  1.00  0.00     0.125 A 
ATOM     11  C   UNL     1     -18.344 -45.354 102.888  1.00  0.00     0.069 A 
ENDROOT
BRANCH   1  12
ATOM     12  C   UNL     1     -18.544 -48.245 107.769  1.00  0.00    -0.011 A 
ATOM     13  C   UNL     1     -17.836 -47.849 108.918  1.00  0.00     0.013 A 
ATOM     14  C   UNL     1     -17.938 -48.587 110.101  1.00  0.00     0.047 A 
ATOM     15  C   UNL     1     -18.748 -49.730 110.150  1.00  0.00     0.115 A 
ATOM     16  C   UNL     1     -19.346 -49.398 107.824  1.00  0.00     0.013 A 
ATOM     17  C   UNL     1     -19.448 -50.133 109.010  1.00  0.00     0.047 A 
BRANCH  15  18
ATOM     18  O   UNL     1     -18.861 -50.470 111.325  1.00  0.00    -0.508 OA
ATOM     19  H   UNL     1     -19.608 -50.300 111.988  1.00  0.00     0.293 HD
ENDBRANCH  15  18
ENDBRANCH   1  12
BRANCH  11  20
ATOM     20  C   UNL     1     -19.585 -45.317 102.007  1.00  0.00     0.188 C 
ATOM     21  C   UNL     1     -20.346 -43.990 102.224  1.00  0.00     0.179 C 
ATOM     22  O   UNL     1     -19.193 -45.485 100.650  1.00  0.00    -0.362 OA
ATOM     23  C   UNL     1     -21.577 -43.937 101.309  1.00  0.00     0.177 C 
ATOM     24  C   UNL     1     -20.298 -45.513  99.754  1.00  0.00     0.176 C 
ATOM     25  C   UNL     1     -21.147 -44.221  99.858  1.00  0.00     0.177 C 
BRANCH  21  26
ATOM     26  O   UNL     1     -20.765 -43.903 103.564  1.00  0.00    -0.387 OA
ATOM     27  H   UNL     1     -21.073 -42.973 103.722  1.00  0.00     0.211 HD
ENDBRANCH  21  26
BRANCH  23  28
ATOM     28  O   UNL     1     -22.169 -42.666 101.372  1.00  0.00    -0.387 OA
ATOM     29  H   UNL     1     -22.764 -42.584 100.581  1.00  0.00     0.211 HD
ENDBRANCH  23  28
BRANCH  24  30
ATOM     30  C   UNL     1     -21.106 -46.824  99.857  1.00  0.00     0.191 C 
BRANCH  30  31
ATOM     31  O   UNL     1     -20.361 -47.882  99.319  1.00  0.00    -0.394 OA
ATOM     32  H   UNL     1     -20.546 -48.670  99.894  1.00  0.00     0.210 HD
ENDBRANCH  30  31
ENDBRANCH  24  30
BRANCH  25  33
ATOM     33  O   UNL     1     -22.249 -44.253  98.983  1.00  0.00    -0.388 OA
ATOM     34  H   UNL     1     -22.218 -43.439  98.416  1.00  0.00     0.211 HD
ENDBRANCH  25  33
ENDBRANCH  11  20
BRANCH  10  35
ATOM     35  O   UNL     1     -17.154 -43.892 101.343  1.00  0.00    -0.507 OA
ATOM     36  H   UNL     1     -17.959 -43.364 101.026  1.00  0.00     0.293 HD
ENDBRANCH  10  35
TORSDOF 9
ENDMDL
MODEL 7
REMARK VINA RESULT:    -7.016      3.520      5.854
REMARK INTER + INTRA:         -10.028
REMARK INTER:                  -9.165
REMARK INTRA:                  -0.863
REMARK UNBOUND:                -0.551
REMARK SMILES O=c1c(-c2ccc(O)cc2)coc2c([C@@H]3O[C@@H](CO)[C@@H](O)[C@H](O)[C@H]3O)c(O)ccc12
REMARK SMILES IDX 3 1 11 2 12 3 13 4 30 5 2 6 1 7 29 8 28 9 26 10 14 11 4 12
REMARK SMILES IDX 5 13 6 14 7 15 10 16 9 17 8 18 15 20 24 21 16 22 22 23 17 24
REMARK SMILES IDX 20 25 25 26 23 28 18 30 19 31 21 33 27 35
REMARK H PARENT 8 19 25 27 23 29 19 32 21 34 27 36
REMARK Flexibility Score: inf
ROOT
ATOM      1  C   UNL     1     -20.013 -49.408 107.264  1.00  0.00     0.065 A 
ATOM      2  C   UNL     1     -19.138 -48.500 106.654  1.00  0.00     0.208 A 
ATOM      3  O   UNL     1     -19.555 -47.697 105.682  1.00  0.00    -0.463 OA
ATOM      4  C   UNL     1     -20.805 -47.696 105.225  1.00  0.00     0.147 A 
ATOM      5  C   UNL     1     -21.753 -48.588 105.779  1.00  0.00     0.066 A 
ATOM      6  C   UNL     1     -21.343 -49.454 106.808  1.00  0.00     0.200 A 
ATOM      7  O   UNL     1     -22.156 -50.283 107.304  1.00  0.00    -0.288 OA
ATOM      8  C   UNL     1     -23.068 -48.597 105.286  1.00  0.00     0.020 A 
ATOM      9  C   UNL     1     -23.434 -47.742 104.250  1.00  0.00     0.047 A 
ATOM     10  C   UNL     1     -22.504 -46.858 103.691  1.00  0.00     0.125 A 
ATOM     11  C   UNL     1     -21.180 -46.810 104.187  1.00  0.00     0.069 A 
ENDROOT
BRANCH   1  12
ATOM     12  C   UNL     1     -19.523 -50.290 108.354  1.00  0.00    -0.011 A 
ATOM     13  C   UNL     1     -19.499 -51.687 108.189  1.00  0.00     0.013 A 
ATOM     14  C   UNL     1     -19.043 -52.513 109.220  1.00  0.00     0.047 A 
ATOM     15  C   UNL     1     -18.607 -51.955 110.430  1.00  0.00     0.115 A 
ATOM     16  C   UNL     1     -19.093 -49.740 109.573  1.00  0.00     0.013 A 
ATOM     17  C   UNL     1     -18.635 -50.569 110.602  1.00  0.00     0.047 A 
BRANCH  15  18
ATOM     18  O   UNL     1     -18.146 -52.769 111.462  1.00  0.00    -0.508 OA
ATOM     19  H   UNL     1     -18.085 -53.775 111.357  1.00  0.00     0.293 HD
ENDBRANCH  15  18
ENDBRANCH   1  12
BRANCH  11  20
ATOM     20  C   UNL     1     -20.157 -45.866 103.571  1.00  0.00     0.188 C 
ATOM     21  C   UNL     1     -19.913 -46.244 102.094  1.00  0.00     0.179 C 
ATOM     22  O   UNL     1     -20.624 -44.529 103.703  1.00  0.00    -0.362 OA
ATOM     23  C   UNL     1     -18.909 -45.269 101.463  1.00  0.00     0.177 C 
ATOM     24  C   UNL     1     -19.706 -43.568 103.197  1.00  0.00     0.176 C 
ATOM     25  C   UNL     1     -19.381 -43.824 101.703  1.00  0.00     0.177 C 
BRANCH  21  26
ATOM     26  O   UNL     1     -19.392 -47.550 102.023  1.00  0.00    -0.387 OA
ATOM     27  H   UNL     1     -20.018 -48.092 101.476  1.00  0.00     0.211 HD
ENDBRANCH  21  26
BRANCH  23  28
ATOM     28  O   UNL     1     -18.819 -45.499 100.081  1.00  0.00    -0.387 OA
ATOM     29  H   UNL     1     -17.853 -45.575  99.863  1.00  0.00     0.211 HD
ENDBRANCH  23  28
BRANCH  24  30
ATOM     30  C   UNL     1     -18.469 -43.401 104.105  1.00  0.00     0.191 C 
BRANCH  30  31
ATOM     31  O   UNL     1     -17.952 -42.106 103.967  1.00  0.00    -0.394 OA
ATOM     32  H   UNL     1     -18.587 -41.617 103.382  1.00  0.00     0.210 HD
ENDBRANCH  30  31
ENDBRANCH  24  30
BRANCH  25  33
ATOM     33  O   UNL     1     -18.460 -42.883 101.204  1.00  0.00    -0.388 OA
ATOM     34  H   UNL     1     -17.938 -43.316 100.480  1.00  0.00     0.211 HD
ENDBRANCH  25  33
ENDBRANCH  11  20
BRANCH  10  35
ATOM     35  O   UNL     1     -22.893 -46.029 102.638  1.00  0.00    -0.507 OA
ATOM     36  H   UNL     1     -23.789 -46.140 102.177  1.00  0.00     0.293 HD
ENDBRANCH  10  35
TORSDOF 9
ENDMDL
MODEL 8
REMARK VINA RESULT:    -6.938      4.797      8.902
REMARK INTER + INTRA:          -9.922
REMARK INTER:                  -8.691
REMARK INTRA:                  -1.231
REMARK UNBOUND:                -0.551
REMARK SMILES O=c1c(-c2ccc(O)cc2)coc2c([C@@H]3O[C@@H](CO)[C@@H](O)[C@H](O)[C@H]3O)c(O)ccc12
REMARK SMILES IDX 3 1 11 2 12 3 13 4 30 5 2 6 1 7 29 8 28 9 26 10 14 11 4 12
REMARK SMILES IDX 5 13 6 14 7 15 10 16 9 17 8 18 15 20 24 21 16 22 22 23 17 24
REMARK SMILES IDX 20 25 25 26 23 28 18 30 19 31 21 33 27 35
REMARK H PARENT 8 19 25 27 23 29 19 32 21 34 27 36
REMARK Flexibility Score: inf
ROOT
ATOM      1  C   UNL     1     -16.317 -46.272 107.851  1.00  0.00     0.065 A 
ATOM      2  C   UNL     1     -17.536 -45.704 107.459  1.00  0.00     0.208 A 
ATOM      3  O   UNL     1     -17.998 -45.862 106.225  1.00  0.00    -0.463 OA
ATOM      4  C   UNL     1     -17.352 -46.554 105.289  1.00  0.00     0.147 A 
ATOM      5  C   UNL     1     -16.109 -47.155 105.596  1.00  0.00     0.066 A 
ATOM      6  C   UNL     1     -15.589 -47.004 106.894  1.00  0.00     0.200 A 
ATOM      7  O   UNL     1     -14.468 -47.501 107.193  1.00  0.00    -0.288 OA
ATOM      8  C   UNL     1     -15.421 -47.871 104.604  1.00  0.00     0.020 A 
ATOM      9  C   UNL     1     -15.952 -47.981 103.322  1.00  0.00     0.047 A 
ATOM     10  C   UNL     1     -17.180 -47.388 103.005  1.00  0.00     0.125 A 
ATOM     11  C   UNL     1     -17.906 -46.683 103.993  1.00  0.00     0.069 A 
ENDROOT
BRANCH   1  12
ATOM     12  C   UNL     1     -15.825 -46.086 109.240  1.00  0.00    -0.011 A 
ATOM     13  C   UNL     1     -16.145 -47.019 110.244  1.00  0.00     0.013 A 
ATOM     14  C   UNL     1     -15.685 -46.836 111.551  1.00  0.00     0.047 A 
ATOM     15  C   UNL     1     -14.902 -45.718 111.873  1.00  0.00     0.115 A 
ATOM     16  C   UNL     1     -15.048 -44.964 109.574  1.00  0.00     0.013 A 
ATOM     17  C   UNL     1     -14.587 -44.785 110.882  1.00  0.00     0.047 A 
BRANCH  15  18
ATOM     18  O   UNL     1     -14.435 -45.529 113.171  1.00  0.00    -0.508 OA
ATOM     19  H   UNL     1     -13.626 -44.950 113.364  1.00  0.00     0.293 HD
ENDBRANCH  15  18
ENDBRANCH   1  12
BRANCH  11  20
ATOM     20  C   UNL     1     -19.233 -46.018 103.651  1.00  0.00     0.188 C 
ATOM     21  C   UNL     1     -18.979 -44.691 102.902  1.00  0.00     0.179 C 
ATOM     22  O   UNL     1     -20.015 -46.919 102.877  1.00  0.00    -0.362 OA
ATOM     23  C   UNL     1     -20.317 -44.040 102.525  1.00  0.00     0.177 C 
ATOM     24  C   UNL     1     -21.298 -46.400 102.551  1.00  0.00     0.176 C 
ATOM     25  C   UNL     1     -21.190 -45.062 101.776  1.00  0.00     0.177 C 
BRANCH  21  26
ATOM     26  O   UNL     1     -18.258 -43.814 103.733  1.00  0.00    -0.387 OA
ATOM     27  H   UNL     1     -17.460 -44.302 104.063  1.00  0.00     0.211 HD
ENDBRANCH  21  26
BRANCH  23  28
ATOM     28  O   UNL     1     -20.094 -42.930 101.694  1.00  0.00    -0.387 OA
ATOM     29  H   UNL     1     -20.400 -42.128 102.194  1.00  0.00     0.211 HD
ENDBRANCH  23  28
BRANCH  24  30
ATOM     30  C   UNL     1     -22.245 -46.363 103.770  1.00  0.00     0.191 C 
BRANCH  30  31
ATOM     31  O   UNL     1     -23.576 -46.360 103.334  1.00  0.00    -0.394 OA
ATOM     32  H   UNL     1     -23.546 -46.505 102.353  1.00  0.00     0.210 HD
ENDBRANCH  30  31
ENDBRANCH  24  30
BRANCH  25  33
ATOM     33  O   UNL     1     -22.459 -44.538 101.465  1.00  0.00    -0.388 OA
ATOM     34  H   UNL     1     -22.528 -43.635 101.869  1.00  0.00     0.211 HD
ENDBRANCH  25  33
ENDBRANCH  11  20
BRANCH  10  35
ATOM     35  O   UNL     1     -17.677 -47.496 101.706  1.00  0.00    -0.507 OA
ATOM     36  H   UNL     1     -18.094 -48.354 101.364  1.00  0.00     0.293 HD
ENDBRANCH  10  35
TORSDOF 9
ENDMDL
MODEL 9
REMARK VINA RESULT:    -6.792      4.543      8.420
REMARK INTER + INTRA:          -9.725
REMARK INTER:                  -8.697
REMARK INTRA:                  -1.029
REMARK UNBOUND:                -0.551
REMARK SMILES O=c1c(-c2ccc(O)cc2)coc2c([C@@H]3O[C@@H](CO)[C@@H](O)[C@H](O)[C@H]3O)c(O)ccc12
REMARK SMILES IDX 3 1 11 2 12 3 13 4 30 5 2 6 1 7 29 8 28 9 26 10 14 11 4 12
REMARK SMILES IDX 5 13 6 14 7 15 10 16 9 17 8 18 15 20 24 21 16 22 22 23 17 24
REMARK SMILES IDX 20 25 25 26 23 28 18 30 19 31 21 33 27 35
REMARK H PARENT 8 19 25 27 23 29 19 32 21 34 27 36
REMARK Flexibility Score: inf
ROOT
ATOM      1  C   UNL     1     -16.199 -46.776 107.130  1.00  0.00     0.065 A 
ATOM      2  C   UNL     1     -16.728 -47.542 106.082  1.00  0.00     0.208 A 
ATOM      3  O   UNL     1     -17.669 -47.051 105.284  1.00  0.00    -0.463 OA
ATOM      4  C   UNL     1     -18.169 -45.824 105.418  1.00  0.00     0.147 A 
ATOM      5  C   UNL     1     -17.698 -44.986 106.455  1.00  0.00     0.066 A 
ATOM      6  C   UNL     1     -16.704 -45.477 107.320  1.00  0.00     0.200 A 
ATOM      7  O   UNL     1     -16.283 -44.766 108.275  1.00  0.00    -0.288 OA
ATOM      8  C   UNL     1     -18.237 -43.698 106.604  1.00  0.00     0.020 A 
ATOM      9  C   UNL     1     -19.237 -43.252 105.745  1.00  0.00     0.047 A 
ATOM     10  C   UNL     1     -19.713 -44.074 104.716  1.00  0.00     0.125 A 
ATOM     11  C   UNL     1     -19.169 -45.366 104.528  1.00  0.00     0.069 A 
ENDROOT
BRANCH   1  12
ATOM     12  C   UNL     1     -15.143 -47.347 108.004  1.00  0.00    -0.011 A 
ATOM     13  C   UNL     1     -15.389 -47.573 109.370  1.00  0.00     0.013 A 
ATOM     14  C   UNL     1     -14.389 -48.105 110.191  1.00  0.00     0.047 A 
ATOM     15  C   UNL     1     -13.131 -48.415 109.657  1.00  0.00     0.115 A 
ATOM     16  C   UNL     1     -13.876 -47.651 107.479  1.00  0.00     0.013 A 
ATOM     17  C   UNL     1     -12.878 -48.185 108.301  1.00  0.00     0.047 A 
BRANCH  15  18
ATOM     18  O   UNL     1     -12.129 -48.949 110.463  1.00  0.00    -0.508 OA
ATOM     19  H   UNL     1     -12.338 -49.620 111.193  1.00  0.00     0.293 HD
ENDBRANCH  15  18
ENDBRANCH   1  12
BRANCH  11  20
ATOM     20  C   UNL     1     -19.696 -46.274 103.424  1.00  0.00     0.188 C 
ATOM     21  C   UNL     1     -21.030 -46.916 103.863  1.00  0.00     0.179 C 
ATOM     22  O   UNL     1     -19.844 -45.513 102.232  1.00  0.00    -0.362 OA
ATOM     23  C   UNL     1     -21.580 -47.802 102.737  1.00  0.00     0.177 C 
ATOM     24  C   UNL     1     -20.287 -46.293 101.128  1.00  0.00     0.176 C 
ATOM     25  C   UNL     1     -21.638 -46.990 101.430  1.00  0.00     0.177 C 
BRANCH  21  26
ATOM     26  O   UNL     1     -20.816 -47.707 105.008  1.00  0.00    -0.387 OA
ATOM     27  H   UNL     1     -19.840 -47.866 105.083  1.00  0.00     0.211 HD
ENDBRANCH  21  26
BRANCH  23  28
ATOM     28  O   UNL     1     -22.872 -48.245 103.060  1.00  0.00    -0.387 OA
ATOM     29  H   UNL     1     -22.867 -48.467 104.028  1.00  0.00     0.211 HD
ENDBRANCH  23  28
BRANCH  24  30
ATOM     30  C   UNL     1     -19.185 -47.231 100.591  1.00  0.00     0.191 C 
BRANCH  30  31
ATOM     31  O   UNL     1     -19.544 -47.705  99.322  1.00  0.00    -0.394 OA
ATOM     32  H   UNL     1     -20.179 -47.039  98.949  1.00  0.00     0.210 HD
ENDBRANCH  30  31
ENDBRANCH  24  30
BRANCH  25  33
ATOM     33  O   UNL     1     -22.071 -47.775 100.345  1.00  0.00    -0.388 OA
ATOM     34  H   UNL     1     -22.224 -47.175  99.571  1.00  0.00     0.211 HD
ENDBRANCH  25  33
ENDBRANCH  11  20
BRANCH  10  35
ATOM     35  O   UNL     1     -20.732 -43.609 103.884  1.00  0.00    -0.507 OA
ATOM     36  H   UNL     1     -20.838 -42.624 103.672  1.00  0.00     0.293 HD
ENDBRANCH  10  35
TORSDOF 9
ENDMDL
