MODEL 1
REMARK VINA RESULT:    -4.825      0.000      0.000
REMARK INTER + INTRA:          -6.495
REMARK INTER:                  -6.800
REMARK INTRA:                   0.305
REMARK UNBOUND:                 0.305
REMARK SMILES CC1=CCC(=C(C)C)C(=O)CC(C)=CCC1
REMARK SMILES IDX 12 1 14 2 13 3 15 4 16 5 2 6 1 7 3 8 11 10 9 11 10 12 5 13
REMARK SMILES IDX 6 14 7 15 8 16 4 17
REMARK H PARENT
REMARK Flexibility Score: 60.00
ROOT
ATOM      1  C   UNL     1     -30.557  21.806  12.427  1.00  0.00    -0.070 C 
ATOM      2  C   UNL     1     -30.789  21.287  13.653  1.00  0.00    -0.027 C 
ATOM      3  C   UNL     1     -31.618  22.690  11.823  1.00  0.00     0.039 C 
ENDROOT
BRANCH   2   4
ATOM      4  C   UNL     1     -29.895  20.306  14.380  1.00  0.00     0.032 C 
BRANCH   4   5
ATOM      5  C   UNL     1     -28.407  20.709  14.445  1.00  0.00     0.034 C 
BRANCH   5   6
ATOM      6  C   UNL     1     -28.175  22.023  15.172  1.00  0.00    -0.077 C 
ATOM      7  C   UNL     1     -28.642  22.123  16.602  1.00  0.00     0.039 C 
ATOM      8  C   UNL     1     -27.640  23.129  14.600  1.00  0.00    -0.023 CG0
ATOM      9  G   UNL     1     -27.088  23.255  13.193  1.00  0.00     0.000 G0
ENDBRANCH   5   6
ENDBRANCH   4   5
ENDBRANCH   2   4
BRANCH   1  10
ATOM     10  C   UNL     1     -29.333  21.469  11.599  1.00  0.00     0.111 C 
BRANCH  10  11
ATOM     11  C   UNL     1     -28.579  22.707  11.193  1.00  0.00     0.163 C 
ATOM     12  O   UNL     1     -28.309  22.863   9.971  1.00  0.00    -0.294 OA
BRANCH  11  13
ATOM     13  C   UNL     1     -28.094  23.712  12.184  1.00  0.00    -0.002 C 
ATOM     14  C   UNL     1     -28.499  25.016  12.113  1.00  0.00    -0.069 C 
ATOM     15  C   UNL     1     -29.566  25.454  11.133  1.00  0.00     0.039 C 
ATOM     16  C   UNL     1     -27.906  26.089  13.000  1.00  0.00     0.039 C 
BRANCH  13  17
ATOM     17  C   UNL     1     -27.069  23.244  13.204  1.00  0.00     0.066 CG0
ATOM     18  G   UNL     1     -27.653  23.134  14.599  1.00  0.00     0.000 G0
ENDBRANCH  13  17
ENDBRANCH  11  13
ENDBRANCH  10  11
ENDBRANCH   1  10
TORSDOF 0
ENDMDL
MODEL 2
REMARK VINA RESULT:    -4.741     16.345     18.461
REMARK INTER + INTRA:          -6.376
REMARK INTER:                  -7.493
REMARK INTRA:                   1.117
REMARK UNBOUND:                 0.305
REMARK SMILES CC1=CCC(=C(C)C)C(=O)CC(C)=CCC1
REMARK SMILES IDX 12 1 14 2 13 3 15 4 16 5 2 6 1 7 3 8 11 10 9 11 10 12 5 13
REMARK SMILES IDX 6 14 7 15 8 16 4 17
REMARK H PARENT
REMARK Flexibility Score: 60.00
ROOT
ATOM      1  C   UNL     1     -17.982  38.322  15.721  1.00  0.00    -0.070 C 
ATOM      2  C   UNL     1     -16.815  38.906  15.369  1.00  0.00    -0.027 C 
ATOM      3  C   UNL     1     -18.128  37.842  17.143  1.00  0.00     0.039 C 
ENDROOT
BRANCH   2   4
ATOM      4  C   UNL     1     -16.441  39.362  13.975  1.00  0.00     0.032 C 
BRANCH   4   5
ATOM      5  C   UNL     1     -16.720  38.332  12.860  1.00  0.00     0.034 C 
BRANCH   5   6
ATOM      6  C   UNL     1     -15.654  37.253  12.764  1.00  0.00    -0.077 C 
ATOM      7  C   UNL     1     -14.356  37.610  12.084  1.00  0.00     0.039 C 
ATOM      8  C   UNL     1     -15.819  35.976  13.186  1.00  0.00    -0.023 CG0
ATOM      9  G   UNL     1     -17.021  35.399  13.908  1.00  0.00     0.000 G0
ENDBRANCH   5   6
ENDBRANCH   4   5
ENDBRANCH   2   4
BRANCH   1  10
ATOM     10  C   UNL     1     -19.103  38.047  14.741  1.00  0.00     0.111 C 
BRANCH  10  11
ATOM     11  C   UNL     1     -19.226  36.577  14.436  1.00  0.00     0.163 C 
ATOM     12  O   UNL     1     -20.063  35.902  15.095  1.00  0.00    -0.294 OA
BRANCH  11  13
ATOM     13  C   UNL     1     -18.358  35.891  13.434  1.00  0.00    -0.002 C 
ATOM     14  C   UNL     1     -18.801  35.669  12.160  1.00  0.00    -0.069 C 
ATOM     15  C   UNL     1     -20.113  36.244  11.675  1.00  0.00     0.039 C 
ATOM     16  C   UNL     1     -18.012  34.839  11.171  1.00  0.00     0.039 C 
BRANCH  13  17
ATOM     17  C   UNL     1     -17.014  35.372  13.919  1.00  0.00     0.066 CG0
ATOM     18  G   UNL     1     -15.852  35.991  13.166  1.00  0.00     0.000 G0
ENDBRANCH  13  17
ENDBRANCH  11  13
ENDBRANCH  10  11
ENDBRANCH   1  10
TORSDOF 0
ENDMDL
MODEL 3
REMARK VINA RESULT:    -4.616     15.949     17.970
REMARK INTER + INTRA:          -6.199
REMARK INTER:                  -6.752
REMARK INTRA:                   0.553
REMARK UNBOUND:                 0.305
REMARK SMILES CC1=CCC(=C(C)C)C(=O)CC(C)=CCC1
REMARK SMILES IDX 12 1 14 2 13 3 15 4 16 5 2 6 1 7 3 8 11 10 9 11 10 12 5 13
REMARK SMILES IDX 6 14 7 15 8 16 4 17
REMARK H PARENT
REMARK Flexibility Score: 60.00
ROOT
ATOM      1  C   UNL     1     -16.590  38.134  13.189  1.00  0.00    -0.070 C 
ATOM      2  C   UNL     1     -16.480  37.728  11.905  1.00  0.00    -0.027 C 
ATOM      3  C   UNL     1     -16.963  39.573  13.443  1.00  0.00     0.039 C 
ENDROOT
BRANCH   2   4
ATOM      4  C   UNL     1     -16.023  36.360  11.447  1.00  0.00     0.032 C 
BRANCH   4   5
ATOM      5  C   UNL     1     -17.133  35.475  10.841  1.00  0.00     0.034 C 
BRANCH   5   6
ATOM      6  C   UNL     1     -18.499  36.140  10.852  1.00  0.00    -0.077 C 
ATOM      7  C   UNL     1     -18.864  37.009   9.674  1.00  0.00     0.039 C 
ATOM      8  C   UNL     1     -19.380  36.060  11.879  1.00  0.00    -0.023 CG0
ATOM      9  G   UNL     1     -19.237  35.238  13.145  1.00  0.00     0.000 G0
ENDBRANCH   5   6
ENDBRANCH   4   5
ENDBRANCH   2   4
BRANCH   1  10
ATOM     10  C   UNL     1     -16.270  37.245  14.373  1.00  0.00     0.111 C 
BRANCH  10  11
ATOM     11  C   UNL     1     -17.107  35.994  14.371  1.00  0.00     0.163 C 
ATOM     12  O   UNL     1     -16.512  34.882  14.393  1.00  0.00    -0.294 OA
BRANCH  11  13
ATOM     13  C   UNL     1     -18.597  36.026  14.283  1.00  0.00    -0.002 C 
ATOM     14  C   UNL     1     -19.339  36.664  15.237  1.00  0.00    -0.069 C 
ATOM     15  C   UNL     1     -18.682  37.489  16.322  1.00  0.00     0.039 C 
ATOM     16  C   UNL     1     -20.850  36.581  15.265  1.00  0.00     0.039 C 
BRANCH  13  17
ATOM     17  C   UNL     1     -19.244  35.244  13.152  1.00  0.00     0.066 CG0
ATOM     18  G   UNL     1     -19.368  36.065  11.883  1.00  0.00     0.000 G0
ENDBRANCH  13  17
ENDBRANCH  11  13
ENDBRANCH  10  11
ENDBRANCH   1  10
TORSDOF 0
ENDMDL
MODEL 4
REMARK VINA RESULT:    -4.591      1.696      3.921
REMARK INTER + INTRA:          -6.165
REMARK INTER:                  -6.742
REMARK INTRA:                   0.577
REMARK UNBOUND:                 0.305
REMARK SMILES CC1=CCC(=C(C)C)C(=O)CC(C)=CCC1
REMARK SMILES IDX 12 1 14 2 13 3 15 4 16 5 2 6 1 7 3 8 11 10 9 11 10 12 5 13
REMARK SMILES IDX 6 14 7 15 8 16 4 17
REMARK H PARENT
REMARK Flexibility Score: 60.00
ROOT
ATOM      1  C   UNL     1     -30.091  21.388  13.162  1.00  0.00    -0.070 C 
ATOM      2  C   UNL     1     -30.220  21.796  11.880  1.00  0.00    -0.027 C 
ATOM      3  C   UNL     1     -29.732  19.945  13.411  1.00  0.00     0.039 C 
ENDROOT
BRANCH   2   4
ATOM      4  C   UNL     1     -30.667  23.170  11.431  1.00  0.00     0.032 C 
BRANCH   4   5
ATOM      5  C   UNL     1     -29.548  24.055  10.843  1.00  0.00     0.034 C 
BRANCH   5   6
ATOM      6  C   UNL     1     -28.194  23.366  10.814  1.00  0.00    -0.077 C 
ATOM      7  C   UNL     1     -27.876  22.499   9.621  1.00  0.00     0.039 C 
ATOM      8  C   UNL     1     -27.285  23.423  11.818  1.00  0.00    -0.023 CG0
ATOM      9  G   UNL     1     -27.381  24.238  13.093  1.00  0.00     0.000 G0
ENDBRANCH   5   6
ENDBRANCH   4   5
ENDBRANCH   2   4
BRANCH   1  10
ATOM     10  C   UNL     1     -30.378  22.282  14.352  1.00  0.00     0.111 C 
BRANCH  10  11
ATOM     11  C   UNL     1     -29.518  23.518  14.339  1.00  0.00     0.163 C 
ATOM     12  O   UNL     1     -30.092  24.640  14.369  1.00  0.00    -0.294 OA
BRANCH  11  13
ATOM     13  C   UNL     1     -28.030  23.458  14.232  1.00  0.00    -0.002 C 
ATOM     14  C   UNL     1     -27.287  22.805  15.175  1.00  0.00    -0.069 C 
ATOM     15  C   UNL     1     -27.946  21.991  16.268  1.00  0.00     0.039 C 
ATOM     16  C   UNL     1     -25.775  22.860  15.184  1.00  0.00     0.039 C 
BRANCH  13  17
ATOM     17  C   UNL     1     -27.384  24.229  13.093  1.00  0.00     0.066 CG0
ATOM     18  G   UNL     1     -27.299  23.410  11.819  1.00  0.00     0.000 G0
ENDBRANCH  13  17
ENDBRANCH  11  13
ENDBRANCH  10  11
ENDBRANCH   1  10
TORSDOF 0
ENDMDL
MODEL 5
REMARK VINA RESULT:    -4.574      1.446      2.148
REMARK INTER + INTRA:          -6.142
REMARK INTER:                  -6.494
REMARK INTRA:                   0.352
REMARK UNBOUND:                 0.305
REMARK SMILES CC1=CCC(=C(C)C)C(=O)CC(C)=CCC1
REMARK SMILES IDX 12 1 14 2 13 3 15 4 16 5 2 6 1 7 3 8 11 10 9 11 10 12 5 13
REMARK SMILES IDX 6 14 7 15 8 16 4 17
REMARK H PARENT
REMARK Flexibility Score: 60.00
ROOT
ATOM      1  C   UNL     1     -30.207  20.507  13.522  1.00  0.00    -0.070 C 
ATOM      2  C   UNL     1     -29.721  20.550  14.782  1.00  0.00    -0.027 C 
ATOM      3  C   UNL     1     -31.583  19.925  13.316  1.00  0.00     0.039 C 
ENDROOT
BRANCH   2   4
ATOM      4  C   UNL     1     -28.333  21.004  15.179  1.00  0.00     0.032 C 
BRANCH   4   5
ATOM      5  C   UNL     1     -28.239  22.473  15.643  1.00  0.00     0.034 C 
BRANCH   5   6
ATOM      6  C   UNL     1     -27.202  23.277  14.876  1.00  0.00    -0.077 C 
ATOM      7  C   UNL     1     -25.783  23.252  15.384  1.00  0.00     0.039 C 
ATOM      8  C   UNL     1     -27.482  24.066  13.810  1.00  0.00    -0.023 CG0
ATOM      9  G   UNL     1     -28.823  24.230  13.121  1.00  0.00     0.000 G0
ENDBRANCH   5   6
ENDBRANCH   4   5
ENDBRANCH   2   4
BRANCH   1  10
ATOM     10  C   UNL     1     -29.405  20.927  12.307  1.00  0.00     0.111 C 
BRANCH  10  11
ATOM     11  C   UNL     1     -29.831  22.279  11.800  1.00  0.00     0.163 C 
ATOM     12  O   UNL     1     -30.985  22.390  11.303  1.00  0.00    -0.294 OA
BRANCH  11  13
ATOM     13  C   UNL     1     -28.921  23.462  11.809  1.00  0.00    -0.002 C 
ATOM     14  C   UNL     1     -28.147  23.758  10.722  1.00  0.00    -0.069 C 
ATOM     15  C   UNL     1     -28.297  22.998   9.422  1.00  0.00     0.039 C 
ATOM     16  C   UNL     1     -27.101  24.850  10.757  1.00  0.00     0.039 C 
BRANCH  13  17
ATOM     17  C   UNL     1     -28.826  24.255  13.102  1.00  0.00     0.066 CG0
ATOM     18  G   UNL     1     -27.493  24.062  13.800  1.00  0.00     0.000 G0
ENDBRANCH  13  17
ENDBRANCH  11  13
ENDBRANCH  10  11
ENDBRANCH   1  10
TORSDOF 0
ENDMDL
MODEL 6
REMARK VINA RESULT:    -4.557      1.919      3.535
REMARK INTER + INTRA:          -6.118
REMARK INTER:                  -6.819
REMARK INTRA:                   0.702
REMARK UNBOUND:                 0.305
REMARK SMILES CC1=CCC(=C(C)C)C(=O)CC(C)=CCC1
REMARK SMILES IDX 12 1 14 2 13 3 15 4 16 5 2 6 1 7 3 8 11 10 9 11 10 12 5 13
REMARK SMILES IDX 6 14 7 15 8 16 4 17
REMARK H PARENT
REMARK Flexibility Score: 60.00
ROOT
ATOM      1  C   UNL     1     -27.673  22.369  14.740  1.00  0.00    -0.070 C 
ATOM      2  C   UNL     1     -28.185  21.118  14.725  1.00  0.00    -0.027 C 
ATOM      3  C   UNL     1     -26.172  22.516  14.711  1.00  0.00     0.039 C 
ENDROOT
BRANCH   2   4
ATOM      4  C   UNL     1     -29.651  20.762  14.847  1.00  0.00     0.032 C 
BRANCH   4   5
ATOM      5  C   UNL     1     -30.228  19.973  13.653  1.00  0.00     0.034 C 
BRANCH   5   6
ATOM      6  C   UNL     1     -31.029  20.838  12.696  1.00  0.00    -0.077 C 
ATOM      7  C   UNL     1     -32.519  20.613  12.629  1.00  0.00     0.039 C 
ATOM      8  C   UNL     1     -30.486  21.749  11.851  1.00  0.00    -0.023 CG0
ATOM      9  G   UNL     1     -29.028  22.153  11.757  1.00  0.00     0.000 G0
ENDBRANCH   5   6
ENDBRANCH   4   5
ENDBRANCH   2   4
BRANCH   1  10
ATOM     10  C   UNL     1     -28.524  23.614  14.879  1.00  0.00     0.111 C 
BRANCH  10  11
ATOM     11  C   UNL     1     -29.314  23.890  13.626  1.00  0.00     0.163 C 
ATOM     12  O   UNL     1     -30.478  24.359  13.750  1.00  0.00    -0.294 OA
BRANCH  11  13
ATOM     13  C   UNL     1     -28.792  23.573  12.264  1.00  0.00    -0.002 C 
ATOM     14  C   UNL     1     -28.203  24.541  11.498  1.00  0.00    -0.069 C 
ATOM     15  C   UNL     1     -27.919  25.918  12.057  1.00  0.00     0.039 C 
ATOM     16  C   UNL     1     -27.809  24.294  10.059  1.00  0.00     0.039 C 
BRANCH  13  17
ATOM     17  C   UNL     1     -29.029  22.167  11.738  1.00  0.00     0.066 CG0
ATOM     18  G   UNL     1     -30.483  21.749  11.850  1.00  0.00     0.000 G0
ENDBRANCH  13  17
ENDBRANCH  11  13
ENDBRANCH  10  11
ENDBRANCH   1  10
TORSDOF 0
ENDMDL
MODEL 7
REMARK VINA RESULT:    -4.552      2.101      4.634
REMARK INTER + INTRA:          -6.110
REMARK INTER:                  -6.889
REMARK INTRA:                   0.779
REMARK UNBOUND:                 0.305
REMARK SMILES CC1=CCC(=C(C)C)C(=O)CC(C)=CCC1
REMARK SMILES IDX 12 1 14 2 13 3 15 4 16 5 2 6 1 7 3 8 11 10 9 11 10 12 5 13
REMARK SMILES IDX 6 14 7 15 8 16 4 17
REMARK H PARENT
REMARK Flexibility Score: 60.00
ROOT
ATOM      1  C   UNL     1     -28.020  21.727  15.536  1.00  0.00    -0.070 C 
ATOM      2  C   UNL     1     -27.206  22.765  15.244  1.00  0.00    -0.027 C 
ATOM      3  C   UNL     1     -28.256  21.404  16.990  1.00  0.00     0.039 C 
ENDROOT
BRANCH   2   4
ATOM      4  C   UNL     1     -26.770  23.183  13.856  1.00  0.00     0.032 C 
BRANCH   4   5
ATOM      5  C   UNL     1     -27.500  24.421  13.293  1.00  0.00     0.034 C 
BRANCH   5   6
ATOM      6  C   UNL     1     -28.372  24.104  12.090  1.00  0.00    -0.077 C 
ATOM      7  C   UNL     1     -27.803  24.380  10.721  1.00  0.00     0.039 C 
ATOM      8  C   UNL     1     -29.649  23.657  12.169  1.00  0.00    -0.023 CG0
ATOM      9  G   UNL     1     -30.416  23.295  13.426  1.00  0.00     0.000 G0
ENDBRANCH   5   6
ENDBRANCH   4   5
ENDBRANCH   2   4
BRANCH   1  10
ATOM     10  C   UNL     1     -28.627  20.824  14.482  1.00  0.00     0.111 C 
BRANCH  10  11
ATOM     11  C   UNL     1     -30.128  20.942  14.447  1.00  0.00     0.163 C 
ATOM     12  O   UNL     1     -30.799  20.216  15.231  1.00  0.00    -0.294 OA
BRANCH  11  13
ATOM     13  C   UNL     1     -30.840  21.833  13.484  1.00  0.00    -0.002 C 
ATOM     14  C   UNL     1     -31.770  21.328  12.620  1.00  0.00    -0.069 C 
ATOM     15  C   UNL     1     -32.226  19.887  12.712  1.00  0.00     0.039 C 
ATOM     16  C   UNL     1     -32.391  22.171  11.528  1.00  0.00     0.039 C 
BRANCH  13  17
ATOM     17  C   UNL     1     -30.417  23.293  13.445  1.00  0.00     0.066 CG0
ATOM     18  G   UNL     1     -29.683  23.645  12.165  1.00  0.00     0.000 G0
ENDBRANCH  13  17
ENDBRANCH  11  13
ENDBRANCH  10  11
ENDBRANCH   1  10
TORSDOF 0
ENDMDL
MODEL 8
REMARK VINA RESULT:    -4.485      1.703      4.018
REMARK INTER + INTRA:          -6.015
REMARK INTER:                  -7.487
REMARK INTRA:                   1.472
REMARK UNBOUND:                 0.305
REMARK SMILES CC1=CCC(=C(C)C)C(=O)CC(C)=CCC1
REMARK SMILES IDX 12 1 14 2 13 3 15 4 16 5 2 6 1 7 3 8 11 10 9 11 10 12 5 13
REMARK SMILES IDX 6 14 7 15 8 16 4 17
REMARK H PARENT
REMARK Flexibility Score: 60.00
ROOT
ATOM      1  C   UNL     1     -30.212  21.803  11.781  1.00  0.00    -0.070 C 
ATOM      2  C   UNL     1     -29.588  22.758  11.057  1.00  0.00    -0.027 C 
ATOM      3  C   UNL     1     -31.690  21.962  12.032  1.00  0.00     0.039 C 
ENDROOT
BRANCH   2   4
ATOM      4  C   UNL     1     -28.101  22.829  10.782  1.00  0.00     0.032 C 
BRANCH   4   5
ATOM      5  C   UNL     1     -27.307  23.734  11.747  1.00  0.00     0.034 C 
BRANCH   5   6
ATOM      6  C   UNL     1     -28.129  24.212  12.931  1.00  0.00    -0.077 C 
ATOM      7  C   UNL     1     -28.753  25.582  12.844  1.00  0.00     0.039 C 
ATOM      8  C   UNL     1     -28.281  23.518  14.086  1.00  0.00    -0.023 CG0
ATOM      9  G   UNL     1     -27.765  22.125  14.390  1.00  0.00     0.000 G0
ENDBRANCH   5   6
ENDBRANCH   4   5
ENDBRANCH   2   4
BRANCH   1  10
ATOM     10  C   UNL     1     -29.485  20.639  12.424  1.00  0.00     0.111 C 
BRANCH  10  11
ATOM     11  C   UNL     1     -29.753  20.567  13.904  1.00  0.00     0.163 C 
ATOM     12  O   UNL     1     -30.813  20.001  14.288  1.00  0.00    -0.294 OA
BRANCH  11  13
ATOM     13  C   UNL     1     -28.846  21.188  14.914  1.00  0.00    -0.002 C 
ATOM     14  C   UNL     1     -29.046  20.985  16.251  1.00  0.00    -0.069 C 
ATOM     15  C   UNL     1     -30.087  20.006  16.749  1.00  0.00     0.039 C 
ATOM     16  C   UNL     1     -28.247  21.725  17.302  1.00  0.00     0.039 C 
BRANCH  13  17
ATOM     17  C   UNL     1     -27.765  22.121  14.396  1.00  0.00     0.066 CG0
ATOM     18  G   UNL     1     -28.296  23.511  14.101  1.00  0.00     0.000 G0
ENDBRANCH  13  17
ENDBRANCH  11  13
ENDBRANCH  10  11
ENDBRANCH   1  10
TORSDOF 0
ENDMDL
MODEL 9
REMARK VINA RESULT:    -4.387      2.008      4.891
REMARK INTER + INTRA:          -5.877
REMARK INTER:                  -6.532
REMARK INTRA:                   0.655
REMARK UNBOUND:                 0.305
REMARK SMILES CC1=CCC(=C(C)C)C(=O)CC(C)=CCC1
REMARK SMILES IDX 12 1 14 2 13 3 15 4 16 5 2 6 1 7 3 8 11 10 9 11 10 12 5 13
REMARK SMILES IDX 6 14 7 15 8 16 4 17
REMARK H PARENT
REMARK Flexibility Score: 60.00
ROOT
ATOM      1  C   UNL     1     -26.357  22.873  14.443  1.00  0.00    -0.070 C 
ATOM      2  C   UNL     1     -26.124  23.350  13.200  1.00  0.00    -0.027 C 
ATOM      3  C   UNL     1     -25.510  23.403  15.572  1.00  0.00     0.039 C 
ENDROOT
BRANCH   2   4
ATOM      4  C   UNL     1     -26.797  22.875  11.931  1.00  0.00     0.032 C 
BRANCH   4   5
ATOM      5  C   UNL     1     -27.513  23.979  11.125  1.00  0.00     0.034 C 
BRANCH   5   6
ATOM      6  C   UNL     1     -28.663  24.620  11.882  1.00  0.00    -0.077 C 
ATOM      7  C   UNL     1     -28.630  26.116  12.072  1.00  0.00     0.039 C 
ATOM      8  C   UNL     1     -29.680  23.930  12.455  1.00  0.00    -0.023 CG0
ATOM      9  G   UNL     1     -29.928  22.436  12.379  1.00  0.00     0.000 G0
ENDBRANCH   5   6
ENDBRANCH   4   5
ENDBRANCH   2   4
BRANCH   1  10
ATOM     10  C   UNL     1     -27.357  21.774  14.738  1.00  0.00     0.111 C 
BRANCH  10  11
ATOM     11  C   UNL     1     -28.774  22.281  14.679  1.00  0.00     0.163 C 
ATOM     12  O   UNL     1     -29.121  23.168  15.505  1.00  0.00    -0.294 OA
BRANCH  11  13
ATOM     13  C   UNL     1     -29.783  21.730  13.726  1.00  0.00    -0.002 C 
ATOM     14  C   UNL     1     -30.479  20.593  14.026  1.00  0.00    -0.069 C 
ATOM     15  C   UNL     1     -30.370  19.942  15.387  1.00  0.00     0.039 C 
ATOM     16  C   UNL     1     -31.389  19.922  13.020  1.00  0.00     0.039 C 
BRANCH  13  17
ATOM     17  C   UNL     1     -29.928  22.431  12.385  1.00  0.00     0.066 CG0
ATOM     18  G   UNL     1     -29.692  23.926  12.489  1.00  0.00     0.000 G0
ENDBRANCH  13  17
ENDBRANCH  11  13
ENDBRANCH  10  11
ENDBRANCH   1  10
TORSDOF 0
ENDMDL
