MODEL 1
REMARK VINA RESULT:    21.807      0.000      0.000
REMARK INTER + INTRA:          25.726
REMARK INTER:                  25.631
REMARK INTRA:                   0.095
REMARK UNBOUND:                 0.095
REMARK SMILES C=C(C)[C@@H]1CC[C@]2(CO)CC[C@]3(C)[C@H](CC[C@@H]4[C@@]5(C)CC[C@H](O)C(C)(C)[C@@H]5CC[C@@]43C)[C@@H]12
REMARK SMILES IDX 4 1 5 2 6 3 7 4 32 5 14 6 15 7 16 8 17 9 18 10 20 11 21 12
REMARK SMILES IDX 22 13 24 14 27 15 28 16 29 17 30 18 12 19 11 20 10 21 13 22
REMARK SMILES IDX 31 23 25 24 26 25 19 26 2 27 3 28 1 29 8 30 9 31 23 33
REMARK H PARENT 9 32 23 34
REMARK Flexibility Score: inf
ROOT
ATOM      1  C   UNL     1     -34.224  74.264 -25.613  1.00  0.00     0.018 C 
ATOM      2  C   UNL     1     -33.105  73.337 -26.152  1.00  0.00     0.009 C 
ATOM      3  C   UNL     1     -33.644  72.701 -27.445  1.00  0.00     0.010 C 
ATOM      4  C   UNL     1     -35.169  72.841 -27.337  1.00  0.00    -0.003 C 
ATOM      5  C   UNL     1     -35.288  74.249 -26.730  1.00  0.00     0.008 C 
ATOM      6  C   UNL     1     -36.769  74.611 -26.424  1.00  0.00    -0.000 C 
ATOM      7  C   UNL     1     -36.928  75.957 -25.729  1.00  0.00     0.005 C 
ATOM      8  C   UNL     1     -38.370  76.140 -25.273  1.00  0.00     0.005 C 
ATOM      9  C   UNL     1     -39.474  76.025 -26.388  1.00  0.00     0.002 C 
ATOM     10  C   UNL     1     -40.986  76.180 -25.799  1.00  0.00    -0.026 C 
ATOM     11  C   UNL     1     -41.856  77.121 -26.705  1.00  0.00     0.010 C 
ATOM     12  C   UNL     1     -43.369  76.768 -26.776  1.00  0.00     0.033 C 
ATOM     13  C   UNL     1     -43.969  76.062 -25.526  1.00  0.00     0.120 C 
ATOM     14  C   UNL     1     -43.164  74.767 -25.091  1.00  0.00    -0.006 C 
ATOM     15  C   UNL     1     -41.721  74.787 -25.737  1.00  0.00     0.003 C 
ATOM     16  C   UNL     1     -40.743  73.670 -25.370  1.00  0.00     0.005 C 
ATOM     17  C   UNL     1     -39.745  73.439 -26.533  1.00  0.00     0.008 C 
ATOM     18  C   UNL     1     -39.235  74.731 -27.303  1.00  0.00    -0.024 C 
ATOM     19  C   UNL     1     -37.672  74.569 -27.726  1.00  0.00    -0.024 C 
ATOM     20  C   UNL     1     -37.405  73.217 -28.512  1.00  0.00     0.008 C 
ATOM     21  C   UNL     1     -35.909  72.851 -28.691  1.00  0.00     0.010 C 
ATOM     22  C   UNL     1     -37.265  75.721 -28.719  1.00  0.00     0.012 C 
ATOM     23  C   UNL     1     -40.058  74.897 -28.633  1.00  0.00     0.012 C 
ATOM     24  C   UNL     1     -43.949  73.534 -25.639  1.00  0.00     0.014 C 
ATOM     25  C   UNL     1     -43.125  74.583 -23.550  1.00  0.00     0.014 C 
ATOM     26  C   UNL     1     -40.937  76.864 -24.395  1.00  0.00     0.012 C 
ENDROOT
BRANCH   1  27
ATOM     27  C   UNL     1     -33.685  75.650 -25.256  1.00  0.00    -0.077 C 
ATOM     28  C   UNL     1     -32.480  76.197 -25.978  1.00  0.00     0.039 C 
ATOM     29  C   UNL     1     -34.288  76.429 -24.341  1.00  0.00     0.008 C 
ENDBRANCH   1  27
BRANCH   4  30
ATOM     30  C   UNL     1     -35.709  71.681 -26.425  1.00  0.00     0.163 C 
BRANCH  30  31
ATOM     31  O   UNL     1     -36.170  70.604 -27.201  1.00  0.00    -0.396 OA
ATOM     32  H   UNL     1     -37.109  70.802 -27.456  1.00  0.00     0.210 HD
ENDBRANCH  30  31
ENDBRANCH   4  30
BRANCH  13  33
ATOM     33  O   UNL     1     -44.125  76.975 -24.469  1.00  0.00    -0.393 OA
ATOM     34  H   UNL     1     -44.868  77.589 -24.712  1.00  0.00     0.210 HD
ENDBRANCH  13  33
TORSDOF 4
ENDMDL
