MODEL 1
REMARK VINA RESULT:    -2.948      0.000      0.000
REMARK INTER + INTRA:          -3.553
REMARK INTER:                  -3.465
REMARK INTRA:                  -0.089
REMARK UNBOUND:                -0.089
REMARK SMILES CCCCC(=O)[O-]
REMARK SMILES IDX 4 1 5 2 6 3 7 4 3 5 2 6 1 7
REMARK H PARENT
REMARK Flexibility Score: inf
ROOT
ATOM      1  C   UNL     1      87.360  82.479  19.402  1.00  0.00     0.053 C 
ENDROOT
BRANCH   1   2
ATOM      2  C   UNL     1      86.201  81.703  18.856  1.00  0.00     0.041 C 
ATOM      3  O   UNL     1      86.328  81.037  17.794  1.00  0.00    -0.550 OA
ATOM      4  O   UNL     1      84.988  81.686  19.535  1.00  0.00    -0.550 OA
ENDBRANCH   1   2
BRANCH   1   5
ATOM      5  C   UNL     1      88.559  81.581  19.751  1.00  0.00     0.006 C 
BRANCH   5   6
ATOM      6  C   UNL     1      89.836  81.911  18.957  1.00  0.00    -0.003 C 
ATOM      7  C   UNL     1      90.162  80.875  17.883  1.00  0.00     0.004 C 
ENDBRANCH   5   6
ENDBRANCH   1   5
TORSDOF 3
ENDMDL
MODEL 2
REMARK VINA RESULT:    -2.586      2.499      3.934
REMARK INTER + INTRA:          -3.129
REMARK INTER:                  -3.090
REMARK INTRA:                  -0.039
REMARK UNBOUND:                -0.089
REMARK SMILES CCCCC(=O)[O-]
REMARK SMILES IDX 4 1 5 2 6 3 7 4 3 5 2 6 1 7
REMARK H PARENT
REMARK Flexibility Score: inf
ROOT
ATOM      1  C   UNL     1      87.944  80.937  18.454  1.00  0.00     0.053 C 
ENDROOT
BRANCH   1   2
ATOM      2  C   UNL     1      89.376  81.345  18.617  1.00  0.00     0.041 C 
ATOM      3  O   UNL     1      90.260  80.875  17.852  1.00  0.00    -0.550 OA
ATOM      4  O   UNL     1      89.733  82.269  19.592  1.00  0.00    -0.550 OA
ENDBRANCH   1   2
BRANCH   1   5
ATOM      5  C   UNL     1      86.963  82.044  18.877  1.00  0.00     0.006 C 
BRANCH   5   6
ATOM      6  C   UNL     1      85.909  81.584  19.901  1.00  0.00    -0.003 C 
ATOM      7  C   UNL     1      84.485  81.984  19.520  1.00  0.00     0.004 C 
ENDBRANCH   5   6
ENDBRANCH   1   5
TORSDOF 3
ENDMDL
MODEL 3
REMARK VINA RESULT:    -1.620     22.457     23.287
REMARK INTER + INTRA:          -1.993
REMARK INTER:                  -1.965
REMARK INTRA:                  -0.027
REMARK UNBOUND:                -0.089
REMARK SMILES CCCCC(=O)[O-]
REMARK SMILES IDX 4 1 5 2 6 3 7 4 3 5 2 6 1 7
REMARK H PARENT
REMARK Flexibility Score: inf
ROOT
ATOM      1  C   UNL     1     101.629  98.119  10.370  1.00  0.00     0.053 C 
ENDROOT
BRANCH   1   2
ATOM      2  C   UNL     1     100.788  96.884  10.482  1.00  0.00     0.041 C 
ATOM      3  O   UNL     1     101.316  95.746  10.377  1.00  0.00    -0.550 OA
ATOM      4  O   UNL     1      99.425  96.987  10.733  1.00  0.00    -0.550 OA
ENDBRANCH   1   2
BRANCH   1   5
ATOM      5  C   UNL     1     100.858  99.395  10.753  1.00  0.00     0.006 C 
BRANCH   5   6
ATOM      6  C   UNL     1     101.163 100.601   9.847  1.00  0.00    -0.003 C 
ATOM      7  C   UNL     1     102.590 101.125  10.002  1.00  0.00     0.004 C 
ENDBRANCH   5   6
ENDBRANCH   1   5
TORSDOF 3
ENDMDL
MODEL 4
REMARK VINA RESULT:    -1.601     21.814     22.679
REMARK INTER + INTRA:          -1.971
REMARK INTER:                  -1.949
REMARK INTRA:                  -0.021
REMARK UNBOUND:                -0.089
REMARK SMILES CCCCC(=O)[O-]
REMARK SMILES IDX 4 1 5 2 6 3 7 4 3 5 2 6 1 7
REMARK H PARENT
REMARK Flexibility Score: inf
ROOT
ATOM      1  C   UNL     1     101.443  97.220  10.387  1.00  0.00     0.053 C 
ENDROOT
BRANCH   1   2
ATOM      2  C   UNL     1     100.369  96.199  10.603  1.00  0.00     0.041 C 
ATOM      3  O   UNL     1      99.169  96.559  10.733  1.00  0.00    -0.550 OA
ATOM      4  O   UNL     1     100.686  94.846  10.628  1.00  0.00    -0.550 OA
ENDBRANCH   1   2
BRANCH   1   5
ATOM      5  C   UNL     1     100.924  98.662  10.529  1.00  0.00     0.006 C 
BRANCH   5   6
ATOM      6  C   UNL     1     101.892  99.728   9.984  1.00  0.00    -0.003 C 
ATOM      7  C   UNL     1     101.263 101.117   9.883  1.00  0.00     0.004 C 
ENDBRANCH   5   6
ENDBRANCH   1   5
TORSDOF 3
ENDMDL
MODEL 5
REMARK VINA RESULT:    -1.345     19.808     20.621
REMARK INTER + INTRA:          -1.669
REMARK INTER:                  -1.639
REMARK INTRA:                  -0.031
REMARK UNBOUND:                -0.089
REMARK SMILES CCCCC(=O)[O-]
REMARK SMILES IDX 4 1 5 2 6 3 7 4 3 5 2 6 1 7
REMARK H PARENT
REMARK Flexibility Score: inf
ROOT
ATOM      1  C   UNL     1      99.550  96.240  10.776  1.00  0.00     0.053 C 
ENDROOT
BRANCH   1   2
ATOM      2  C   UNL     1      98.911  95.128  11.550  1.00  0.00     0.041 C 
ATOM      3  O   UNL     1      98.954  93.947  11.114  1.00  0.00    -0.550 OA
ATOM      4  O   UNL     1      98.295  95.388  12.768  1.00  0.00    -0.550 OA
ENDBRANCH   1   2
BRANCH   1   5
ATOM      5  C   UNL     1     101.019  95.945  10.424  1.00  0.00     0.006 C 
BRANCH   5   6
ATOM      6  C   UNL     1     101.932  97.185  10.474  1.00  0.00    -0.003 C 
ATOM      7  C   UNL     1     101.161  98.502  10.413  1.00  0.00     0.004 C 
ENDBRANCH   5   6
ENDBRANCH   1   5
TORSDOF 3
ENDMDL
MODEL 6
REMARK VINA RESULT:    -1.105     22.352     23.188
REMARK INTER + INTRA:          -1.388
REMARK INTER:                  -1.368
REMARK INTRA:                  -0.020
REMARK UNBOUND:                -0.089
REMARK SMILES CCCCC(=O)[O-]
REMARK SMILES IDX 4 1 5 2 6 3 7 4 3 5 2 6 1 7
REMARK H PARENT
REMARK Flexibility Score: inf
ROOT
ATOM      1  C   UNL     1     101.908  98.378  10.402  1.00  0.00     0.053 C 
ENDROOT
BRANCH   1   2
ATOM      2  C   UNL     1     101.410  99.790  10.416  1.00  0.00     0.041 C 
ATOM      3  O   UNL     1     100.214 100.037  10.723  1.00  0.00    -0.550 OA
ATOM      4  O   UNL     1     102.272 100.839  10.120  1.00  0.00    -0.550 OA
ENDBRANCH   1   2
BRANCH   1   5
ATOM      5  C   UNL     1     100.764  97.348  10.389  1.00  0.00     0.006 C 
BRANCH   5   6
ATOM      6  C   UNL     1     101.243  95.886  10.411  1.00  0.00    -0.003 C 
ATOM      7  C   UNL     1     100.124  94.890  10.714  1.00  0.00     0.004 C 
ENDBRANCH   5   6
ENDBRANCH   1   5
TORSDOF 3
ENDMDL
MODEL 7
REMARK VINA RESULT:    -0.874     20.499     21.352
REMARK INTER + INTRA:          -1.115
REMARK INTER:                  -1.056
REMARK INTRA:                  -0.060
REMARK UNBOUND:                -0.089
REMARK SMILES CCCCC(=O)[O-]
REMARK SMILES IDX 4 1 5 2 6 3 7 4 3 5 2 6 1 7
REMARK H PARENT
REMARK Flexibility Score: inf
ROOT
ATOM      1  C   UNL     1      99.645  97.475  10.828  1.00  0.00     0.053 C 
ENDROOT
BRANCH   1   2
ATOM      2  C   UNL     1     101.084  97.493  10.413  1.00  0.00     0.041 C 
ATOM      3  O   UNL     1     101.641  98.580  10.104  1.00  0.00    -0.550 OA
ATOM      4  O   UNL     1     101.822  96.315  10.398  1.00  0.00    -0.550 OA
ENDBRANCH   1   2
BRANCH   1   5
ATOM      5  C   UNL     1      98.929  96.175  10.421  1.00  0.00     0.006 C 
BRANCH   5   6
ATOM      6  C   UNL     1      98.844  95.133  11.550  1.00  0.00    -0.003 C 
ATOM      7  C   UNL     1      99.507  93.804  11.194  1.00  0.00     0.004 C 
ENDBRANCH   5   6
ENDBRANCH   1   5
TORSDOF 3
ENDMDL
MODEL 8
REMARK VINA RESULT:    -0.761      2.433      3.146
REMARK INTER + INTRA:          -0.983
REMARK INTER:                  -2.416
REMARK INTRA:                   1.433
REMARK UNBOUND:                -0.089
REMARK SMILES CCCCC(=O)[O-]
REMARK SMILES IDX 4 1 5 2 6 3 7 4 3 5 2 6 1 7
REMARK H PARENT
REMARK Flexibility Score: inf
ROOT
ATOM      1  C   UNL     1      89.781  82.061  19.182  1.00  0.00     0.053 C 
ENDROOT
BRANCH   1   2
ATOM      2  C   UNL     1      88.897  83.230  19.490  1.00  0.00     0.041 C 
ATOM      3  O   UNL     1      89.376  84.395  19.521  1.00  0.00    -0.550 OA
ATOM      4  O   UNL     1      87.539  83.041  19.714  1.00  0.00    -0.550 OA
ENDBRANCH   1   2
BRANCH   1   5
ATOM      5  C   UNL     1      89.018  80.907  18.507  1.00  0.00     0.006 C 
BRANCH   5   6
ATOM      6  C   UNL     1      87.515  80.875  18.840  1.00  0.00    -0.003 C 
ATOM      7  C   UNL     1      86.624  80.875  17.600  1.00  0.00     0.004 C 
ENDBRANCH   5   6
ENDBRANCH   1   5
TORSDOF 3
ENDMDL
MODEL 9
REMARK VINA RESULT:    -0.058      1.531      2.279
REMARK INTER + INTRA:          -0.157
REMARK INTER:                  -0.139
REMARK INTRA:                  -0.018
REMARK UNBOUND:                -0.089
REMARK SMILES CCCCC(=O)[O-]
REMARK SMILES IDX 4 1 5 2 6 3 7 4 3 5 2 6 1 7
REMARK H PARENT
REMARK Flexibility Score: inf
ROOT
ATOM      1  C   UNL     1      87.928  81.700  20.076  1.00  0.00     0.053 C 
ENDROOT
BRANCH   1   2
ATOM      2  C   UNL     1      86.884  81.129  19.166  1.00  0.00     0.041 C 
ATOM      3  O   UNL     1      85.731  80.875  19.606  1.00  0.00    -0.550 OA
ATOM      4  O   UNL     1      87.172  80.906  17.825  1.00  0.00    -0.550 OA
ENDBRANCH   1   2
BRANCH   1   5
ATOM      5  C   UNL     1      89.085  82.361  19.306  1.00  0.00     0.006 C 
BRANCH   5   6
ATOM      6  C   UNL     1      89.761  83.515  20.067  1.00  0.00    -0.003 C 
ATOM      7  C   UNL     1      89.897  84.788  19.234  1.00  0.00     0.004 C 
ENDBRANCH   5   6
ENDBRANCH   1   5
TORSDOF 3
ENDMDL
