MODEL 1
REMARK VINA RESULT:    -8.238      0.000      0.000
REMARK INTER + INTRA:         -11.685
REMARK INTER:                 -11.610
REMARK INTRA:                  -0.076
REMARK UNBOUND:                -0.076
REMARK SMILES C[C@@H](CO)CCC(=O)[C@@H](C)[C@H]1C(=O)C[C@H]2[C@@H]3CC=C4C[C@H](O)CC[C@]4(C)[C@H]3CC[C@]12C
REMARK SMILES IDX 6 1 5 2 2 3 1 4 3 5 4 6 7 8 8 9 9 10 10 11 11 12 12 13 30 14
REMARK SMILES IDX 13 15 14 16 15 17 29 18 31 19 16 20 28 21 27 22 17 23 25 24
REMARK SMILES IDX 18 25 19 26 24 27 26 28 20 29 23 30 21 31 22 32
REMARK H PARENT 4 7 22 33
REMARK Flexibility Score: inf
ROOT
ATOM      1  C   UNL     1      -7.022  28.118  48.000  1.00  0.00     0.076 C 
ENDROOT
BRANCH   1   2
ATOM      2  C   UNL     1      -7.845  28.858  46.927  1.00  0.00     0.013 C 
BRANCH   2   3
ATOM      3  C   UNL     1      -9.362  28.525  46.946  1.00  0.00     0.012 C 
ATOM      4  C   UNL     1      -9.831  27.953  45.597  1.00  0.00     0.010 C 
BRANCH   3   5
ATOM      5  C   UNL     1      -9.671  27.526  48.081  1.00  0.00     0.159 C 
BRANCH   5   6
ATOM      6  O   UNL     1     -11.034  27.194  48.092  1.00  0.00    -0.396 OA
ATOM      7  H   UNL     1     -11.200  26.654  48.908  1.00  0.00     0.210 HD
ENDBRANCH   5   6
ENDBRANCH   3   5
ENDBRANCH   2   3
ENDBRANCH   1   2
BRANCH   1   8
ATOM      8  C   UNL     1      -6.304  26.894  47.487  1.00  0.00     0.136 C 
ATOM      9  O   UNL     1      -6.206  26.737  46.278  1.00  0.00    -0.299 OA
BRANCH   8  10
ATOM     10  C   UNL     1      -5.669  25.895  48.441  1.00  0.00     0.064 C 
ATOM     11  C   UNL     1      -6.725  25.144  49.282  1.00  0.00     0.017 C 
BRANCH  10  12
ATOM     12  C   UNL     1      -4.583  25.017  47.734  1.00  0.00     0.072 C 
ATOM     13  C   UNL     1      -3.193  25.602  47.764  1.00  0.00     0.137 C 
ATOM     14  C   UNL     1      -4.322  23.542  48.183  1.00  0.00    -0.019 C 
ATOM     15  O   UNL     1      -2.955  26.793  47.637  1.00  0.00    -0.299 OA
ATOM     16  C   UNL     1      -2.123  24.560  47.837  1.00  0.00     0.080 C 
ATOM     17  C   UNL     1      -2.932  23.297  47.550  1.00  0.00     0.007 C 
ATOM     18  C   UNL     1      -5.283  22.494  47.577  1.00  0.00     0.008 C 
ATOM     19  C   UNL     1      -4.297  23.419  49.736  1.00  0.00     0.012 C 
ATOM     20  C   UNL     1      -2.325  21.922  47.900  1.00  0.00     0.001 C 
ATOM     21  C   UNL     1      -4.785  21.053  47.846  1.00  0.00     0.005 C 
ATOM     22  C   UNL     1      -3.301  20.806  47.412  1.00  0.00     0.003 C 
ATOM     23  C   UNL     1      -0.966  21.742  47.206  1.00  0.00     0.031 C 
ATOM     24  C   UNL     1      -2.754  19.370  47.769  1.00  0.00    -0.008 C 
ATOM     25  C   UNL     1      -0.464  20.327  47.266  1.00  0.00    -0.027 C 
ATOM     26  C   UNL     1      -1.270  19.249  47.382  1.00  0.00    -0.065 C 
ATOM     27  C   UNL     1      -3.575  18.308  46.971  1.00  0.00     0.014 C 
ATOM     28  C   UNL     1      -2.878  19.075  49.289  1.00  0.00     0.016 C 
ATOM     29  C   UNL     1      -0.638  17.870  47.319  1.00  0.00     0.063 C 
ATOM     30  C   UNL     1      -2.962  16.898  46.991  1.00  0.00     0.033 C 
ATOM     31  C   UNL     1      -1.502  16.887  46.514  1.00  0.00     0.118 C 
BRANCH  31  32
ATOM     32  O   UNL     1      -1.415  17.126  45.130  1.00  0.00    -0.393 OA
ATOM     33  H   UNL     1      -2.333  17.243  44.774  1.00  0.00     0.210 HD
ENDBRANCH  31  32
ENDBRANCH  10  12
ENDBRANCH   8  10
ENDBRANCH   1   8
TORSDOF 8
ENDMDL
MODEL 2
REMARK VINA RESULT:    -8.210      1.593      2.105
REMARK INTER + INTRA:         -11.645
REMARK INTER:                 -11.294
REMARK INTRA:                  -0.351
REMARK UNBOUND:                -0.076
REMARK SMILES C[C@@H](CO)CCC(=O)[C@@H](C)[C@H]1C(=O)C[C@H]2[C@@H]3CC=C4C[C@H](O)CC[C@]4(C)[C@H]3CC[C@]12C
REMARK SMILES IDX 6 1 5 2 2 3 1 4 3 5 4 6 7 8 8 9 9 10 10 11 11 12 12 13 30 14
REMARK SMILES IDX 13 15 14 16 15 17 29 18 31 19 16 20 28 21 27 22 17 23 25 24
REMARK SMILES IDX 18 25 19 26 24 27 26 28 20 29 23 30 21 31 22 32
REMARK H PARENT 4 7 22 33
REMARK Flexibility Score: inf
ROOT
ATOM      1  C   UNL     1      -7.838  28.063  46.618  1.00  0.00     0.076 C 
ENDROOT
BRANCH   1   2
ATOM      2  C   UNL     1      -9.282  28.235  47.128  1.00  0.00     0.013 C 
BRANCH   2   3
ATOM      3  C   UNL     1     -10.181  29.107  46.210  1.00  0.00     0.012 C 
ATOM      4  C   UNL     1      -9.476  30.415  45.809  1.00  0.00     0.010 C 
BRANCH   3   5
ATOM      5  C   UNL     1     -10.580  28.312  44.949  1.00  0.00     0.159 C 
BRANCH   5   6
ATOM      6  O   UNL     1     -11.061  27.040  45.296  1.00  0.00    -0.396 OA
ATOM      7  H   UNL     1     -11.915  27.171  45.784  1.00  0.00     0.210 HD
ENDBRANCH   5   6
ENDBRANCH   3   5
ENDBRANCH   2   3
ENDBRANCH   1   2
BRANCH   1   8
ATOM      8  C   UNL     1      -6.782  28.514  47.598  1.00  0.00     0.136 C 
ATOM      9  O   UNL     1      -6.676  29.710  47.834  1.00  0.00    -0.299 OA
BRANCH   8  10
ATOM     10  C   UNL     1      -5.896  27.512  48.318  1.00  0.00     0.064 C 
ATOM     11  C   UNL     1      -6.502  27.063  49.667  1.00  0.00     0.017 C 
BRANCH  10  12
ATOM     12  C   UNL     1      -5.397  26.376  47.364  1.00  0.00     0.072 C 
ATOM     13  C   UNL     1      -4.347  26.812  46.372  1.00  0.00     0.137 C 
ATOM     14  C   UNL     1      -4.775  25.059  47.933  1.00  0.00    -0.019 C 
ATOM     15  O   UNL     1      -4.353  27.897  45.810  1.00  0.00    -0.299 OA
ATOM     16  C   UNL     1      -3.366  25.732  46.048  1.00  0.00     0.080 C 
ATOM     17  C   UNL     1      -4.054  24.521  46.674  1.00  0.00     0.007 C 
ATOM     18  C   UNL     1      -5.799  23.983  48.358  1.00  0.00     0.008 C 
ATOM     19  C   UNL     1      -3.787  25.358  49.101  1.00  0.00     0.012 C 
ATOM     20  C   UNL     1      -3.232  23.241  46.931  1.00  0.00     0.001 C 
ATOM     21  C   UNL     1      -5.107  22.627  48.639  1.00  0.00     0.005 C 
ATOM     22  C   UNL     1      -4.189  22.132  47.471  1.00  0.00     0.003 C 
ATOM     23  C   UNL     1      -2.579  22.752  45.629  1.00  0.00     0.031 C 
ATOM     24  C   UNL     1      -3.404  20.800  47.786  1.00  0.00    -0.008 C 
ATOM     25  C   UNL     1      -2.014  21.364  45.746  1.00  0.00    -0.027 C 
ATOM     26  C   UNL     1      -2.470  20.439  46.619  1.00  0.00    -0.065 C 
ATOM     27  C   UNL     1      -4.436  19.645  47.987  1.00  0.00     0.014 C 
ATOM     28  C   UNL     1      -2.537  20.940  49.068  1.00  0.00     0.016 C 
ATOM     29  C   UNL     1      -1.882  19.040  46.554  1.00  0.00     0.063 C 
ATOM     30  C   UNL     1      -3.810  18.241  48.005  1.00  0.00     0.033 C 
ATOM     31  C   UNL     1      -2.959  17.964  46.756  1.00  0.00     0.118 C 
BRANCH  31  32
ATOM     32  O   UNL     1      -3.766  17.810  45.612  1.00  0.00    -0.393 OA
ATOM     33  H   UNL     1      -3.341  17.140  45.017  1.00  0.00     0.210 HD
ENDBRANCH  31  32
ENDBRANCH  10  12
ENDBRANCH   8  10
ENDBRANCH   1   8
TORSDOF 8
ENDMDL
MODEL 3
REMARK VINA RESULT:    -8.025      1.402      1.892
REMARK INTER + INTRA:         -11.385
REMARK INTER:                 -11.257
REMARK INTRA:                  -0.128
REMARK UNBOUND:                -0.076
REMARK SMILES C[C@@H](CO)CCC(=O)[C@@H](C)[C@H]1C(=O)C[C@H]2[C@@H]3CC=C4C[C@H](O)CC[C@]4(C)[C@H]3CC[C@]12C
REMARK SMILES IDX 6 1 5 2 2 3 1 4 3 5 4 6 7 8 8 9 9 10 10 11 11 12 12 13 30 14
REMARK SMILES IDX 13 15 14 16 15 17 29 18 31 19 16 20 28 21 27 22 17 23 25 24
REMARK SMILES IDX 18 25 19 26 24 27 26 28 20 29 23 30 21 31 22 32
REMARK H PARENT 4 7 22 33
REMARK Flexibility Score: inf
ROOT
ATOM      1  C   UNL     1      -6.446  28.324  48.591  1.00  0.00     0.076 C 
ENDROOT
BRANCH   1   2
ATOM      2  C   UNL     1      -5.551  29.479  48.103  1.00  0.00     0.013 C 
BRANCH   2   3
ATOM      3  C   UNL     1      -6.327  30.646  47.432  1.00  0.00     0.012 C 
ATOM      4  C   UNL     1      -7.698  30.183  46.909  1.00  0.00     0.010 C 
BRANCH   3   5
ATOM      5  C   UNL     1      -6.505  31.808  48.431  1.00  0.00     0.159 C 
BRANCH   5   6
ATOM      6  O   UNL     1      -5.850  31.527  49.640  1.00  0.00    -0.396 OA
ATOM      7  H   UNL     1      -5.054  32.119  49.689  1.00  0.00     0.210 HD
ENDBRANCH   5   6
ENDBRANCH   3   5
ENDBRANCH   2   3
ENDBRANCH   1   2
BRANCH   1   8
ATOM      8  C   UNL     1      -6.116  26.987  47.974  1.00  0.00     0.136 C 
ATOM      9  O   UNL     1      -6.256  26.851  46.766  1.00  0.00    -0.299 OA
BRANCH   8  10
ATOM     10  C   UNL     1      -5.576  25.843  48.814  1.00  0.00     0.064 C 
ATOM     11  C   UNL     1      -6.702  25.064  49.529  1.00  0.00     0.017 C 
BRANCH  10  12
ATOM     12  C   UNL     1      -4.521  24.989  48.035  1.00  0.00     0.072 C 
ATOM     13  C   UNL     1      -3.124  25.558  48.051  1.00  0.00     0.137 C 
ATOM     14  C   UNL     1      -4.263  23.492  48.404  1.00  0.00    -0.019 C 
ATOM     15  O   UNL     1      -2.876  26.751  47.974  1.00  0.00    -0.299 OA
ATOM     16  C   UNL     1      -2.064  24.504  48.042  1.00  0.00     0.080 C 
ATOM     17  C   UNL     1      -2.895  23.264  47.719  1.00  0.00     0.007 C 
ATOM     18  C   UNL     1      -5.253  22.483  47.778  1.00  0.00     0.008 C 
ATOM     19  C   UNL     1      -4.194  23.294  49.949  1.00  0.00     0.012 C 
ATOM     20  C   UNL     1      -2.294  21.868  47.985  1.00  0.00     0.001 C 
ATOM     21  C   UNL     1      -4.764  21.026  47.963  1.00  0.00     0.005 C 
ATOM     22  C   UNL     1      -3.296  20.786  47.473  1.00  0.00     0.003 C 
ATOM     23  C   UNL     1      -0.958  21.708  47.243  1.00  0.00     0.031 C 
ATOM     24  C   UNL     1      -2.755  19.329  47.745  1.00  0.00    -0.008 C 
ATOM     25  C   UNL     1      -0.470  20.286  47.221  1.00  0.00    -0.027 C 
ATOM     26  C   UNL     1      -1.285  19.212  47.309  1.00  0.00    -0.065 C 
ATOM     27  C   UNL     1      -3.611  18.314  46.922  1.00  0.00     0.014 C 
ATOM     28  C   UNL     1      -2.838  18.963  49.253  1.00  0.00     0.016 C 
ATOM     29  C   UNL     1      -0.670  17.832  47.161  1.00  0.00     0.063 C 
ATOM     30  C   UNL     1      -3.014  16.899  46.856  1.00  0.00     0.033 C 
ATOM     31  C   UNL     1      -1.568  16.897  46.337  1.00  0.00     0.118 C 
BRANCH  31  32
ATOM     32  O   UNL     1      -1.519  17.201  44.963  1.00  0.00    -0.393 OA
ATOM     33  H   UNL     1      -0.760  16.705  44.560  1.00  0.00     0.210 HD
ENDBRANCH  31  32
ENDBRANCH  10  12
ENDBRANCH   8  10
ENDBRANCH   1   8
TORSDOF 8
ENDMDL
MODEL 4
REMARK VINA RESULT:    -7.568      2.064      3.842
REMARK INTER + INTRA:         -10.741
REMARK INTER:                 -10.928
REMARK INTRA:                   0.187
REMARK UNBOUND:                -0.076
REMARK SMILES C[C@@H](CO)CCC(=O)[C@@H](C)[C@H]1C(=O)C[C@H]2[C@@H]3CC=C4C[C@H](O)CC[C@]4(C)[C@H]3CC[C@]12C
REMARK SMILES IDX 6 1 5 2 2 3 1 4 3 5 4 6 7 8 8 9 9 10 10 11 11 12 12 13 30 14
REMARK SMILES IDX 13 15 14 16 15 17 29 18 31 19 16 20 28 21 27 22 17 23 25 24
REMARK SMILES IDX 18 25 19 26 24 27 26 28 20 29 23 30 21 31 22 32
REMARK H PARENT 4 7 22 33
REMARK Flexibility Score: inf
ROOT
ATOM      1  C   UNL     1      -5.107  26.184  50.953  1.00  0.00     0.076 C 
ENDROOT
BRANCH   1   2
ATOM      2  C   UNL     1      -3.877  26.733  51.703  1.00  0.00     0.013 C 
BRANCH   2   3
ATOM      3  C   UNL     1      -3.263  25.742  52.730  1.00  0.00     0.012 C 
ATOM      4  C   UNL     1      -2.064  24.984  52.134  1.00  0.00     0.010 C 
BRANCH   3   5
ATOM      5  C   UNL     1      -2.833  26.499  54.004  1.00  0.00     0.159 C 
BRANCH   5   6
ATOM      6  O   UNL     1      -2.911  27.886  53.808  1.00  0.00    -0.396 OA
ATOM      7  H   UNL     1      -3.078  28.301  54.694  1.00  0.00     0.210 HD
ENDBRANCH   5   6
ENDBRANCH   3   5
ENDBRANCH   2   3
ENDBRANCH   1   2
BRANCH   1   8
ATOM      8  C   UNL     1      -5.348  26.832  49.612  1.00  0.00     0.136 C 
ATOM      9  O   UNL     1      -5.095  28.023  49.484  1.00  0.00    -0.299 OA
BRANCH   8  10
ATOM     10  C   UNL     1      -5.850  26.026  48.426  1.00  0.00     0.064 C 
ATOM     11  C   UNL     1      -6.716  26.876  47.470  1.00  0.00     0.017 C 
BRANCH  10  12
ATOM     12  C   UNL     1      -4.710  25.177  47.769  1.00  0.00     0.072 C 
ATOM     13  C   UNL     1      -3.331  25.770  47.912  1.00  0.00     0.137 C 
ATOM     14  C   UNL     1      -4.468  23.691  48.189  1.00  0.00    -0.019 C 
ATOM     15  O   UNL     1      -3.094  26.966  47.839  1.00  0.00    -0.299 OA
ATOM     16  C   UNL     1      -2.259  24.733  48.026  1.00  0.00     0.080 C 
ATOM     17  C   UNL     1      -3.036  23.474  47.646  1.00  0.00     0.007 C 
ATOM     18  C   UNL     1      -5.376  22.656  47.487  1.00  0.00     0.008 C 
ATOM     19  C   UNL     1      -4.548  23.519  49.736  1.00  0.00     0.012 C 
ATOM     20  C   UNL     1      -2.442  22.093  47.994  1.00  0.00     0.001 C 
ATOM     21  C   UNL     1      -4.886  21.210  47.744  1.00  0.00     0.005 C 
ATOM     22  C   UNL     1      -3.373  20.987  47.406  1.00  0.00     0.003 C 
ATOM     23  C   UNL     1      -1.038  21.944  47.390  1.00  0.00     0.031 C 
ATOM     24  C   UNL     1      -2.839  19.543  47.755  1.00  0.00    -0.008 C 
ATOM     25  C   UNL     1      -0.528  20.530  47.441  1.00  0.00    -0.027 C 
ATOM     26  C   UNL     1      -1.332  19.444  47.468  1.00  0.00    -0.065 C 
ATOM     27  C   UNL     1      -3.594  18.501  46.871  1.00  0.00     0.014 C 
ATOM     28  C   UNL     1      -3.064  19.201  49.254  1.00  0.00     0.016 C 
ATOM     29  C   UNL     1      -0.684  18.072  47.406  1.00  0.00     0.063 C 
ATOM     30  C   UNL     1      -2.973  17.096  46.889  1.00  0.00     0.033 C 
ATOM     31  C   UNL     1      -1.483  17.109  46.514  1.00  0.00     0.118 C 
BRANCH  31  32
ATOM     32  O   UNL     1      -1.303  17.392  45.147  1.00  0.00    -0.393 OA
ATOM     33  H   UNL     1      -1.610  16.608  44.622  1.00  0.00     0.210 HD
ENDBRANCH  31  32
ENDBRANCH  10  12
ENDBRANCH   8  10
ENDBRANCH   1   8
TORSDOF 8
ENDMDL
MODEL 5
REMARK VINA RESULT:    -7.539      2.816      5.359
REMARK INTER + INTRA:         -10.700
REMARK INTER:                  -9.730
REMARK INTRA:                  -0.970
REMARK UNBOUND:                -0.076
REMARK SMILES C[C@@H](CO)CCC(=O)[C@@H](C)[C@H]1C(=O)C[C@H]2[C@@H]3CC=C4C[C@H](O)CC[C@]4(C)[C@H]3CC[C@]12C
REMARK SMILES IDX 6 1 5 2 2 3 1 4 3 5 4 6 7 8 8 9 9 10 10 11 11 12 12 13 30 14
REMARK SMILES IDX 13 15 14 16 15 17 29 18 31 19 16 20 28 21 27 22 17 23 25 24
REMARK SMILES IDX 18 25 19 26 24 27 26 28 20 29 23 30 21 31 22 32
REMARK H PARENT 4 7 22 33
REMARK Flexibility Score: inf
ROOT
ATOM      1  C   UNL     1      -2.619  28.421  51.947  1.00  0.00     0.076 C 
ENDROOT
BRANCH   1   2
ATOM      2  C   UNL     1      -1.595  27.318  52.280  1.00  0.00     0.013 C 
BRANCH   2   3
ATOM      3  C   UNL     1      -2.071  26.316  53.368  1.00  0.00     0.012 C 
ATOM      4  C   UNL     1      -3.594  26.387  53.572  1.00  0.00     0.010 C 
BRANCH   3   5
ATOM      5  C   UNL     1      -1.654  24.881  52.985  1.00  0.00     0.159 C 
BRANCH   5   6
ATOM      6  O   UNL     1      -0.384  24.876  52.387  1.00  0.00    -0.396 OA
ATOM      7  H   UNL     1      -0.005  25.787  52.492  1.00  0.00     0.210 HD
ENDBRANCH   5   6
ENDBRANCH   3   5
ENDBRANCH   2   3
ENDBRANCH   1   2
BRANCH   1   8
ATOM      8  C   UNL     1      -2.989  28.494  50.486  1.00  0.00     0.136 C 
ATOM      9  O   UNL     1      -2.125  28.810  49.679  1.00  0.00    -0.299 OA
BRANCH   8  10
ATOM     10  C   UNL     1      -4.387  28.141  50.008  1.00  0.00     0.064 C 
ATOM     11  C   UNL     1      -4.784  28.929  48.739  1.00  0.00     0.017 C 
BRANCH  10  12
ATOM     12  C   UNL     1      -4.623  26.594  49.972  1.00  0.00     0.072 C 
ATOM     13  C   UNL     1      -6.061  26.188  49.770  1.00  0.00     0.137 C 
ATOM     14  C   UNL     1      -3.883  25.689  48.934  1.00  0.00    -0.019 C 
ATOM     15  O   UNL     1      -7.009  26.771  50.273  1.00  0.00    -0.299 OA
ATOM     16  C   UNL     1      -6.205  24.918  48.994  1.00  0.00     0.080 C 
ATOM     17  C   UNL     1      -4.762  24.418  48.991  1.00  0.00     0.007 C 
ATOM     18  C   UNL     1      -2.453  25.265  49.337  1.00  0.00     0.008 C 
ATOM     19  C   UNL     1      -3.875  26.342  47.519  1.00  0.00     0.012 C 
ATOM     20  C   UNL     1      -4.347  23.331  47.978  1.00  0.00     0.001 C 
ATOM     21  C   UNL     1      -1.908  24.159  48.402  1.00  0.00     0.005 C 
ATOM     22  C   UNL     1      -2.865  22.928  48.257  1.00  0.00     0.003 C 
ATOM     23  C   UNL     1      -5.242  22.091  48.122  1.00  0.00     0.031 C 
ATOM     24  C   UNL     1      -2.365  21.838  47.231  1.00  0.00    -0.008 C 
ATOM     25  C   UNL     1      -4.711  20.898  47.378  1.00  0.00    -0.027 C 
ATOM     26  C   UNL     1      -3.403  20.712  47.093  1.00  0.00    -0.065 C 
ATOM     27  C   UNL     1      -1.025  21.231  47.756  1.00  0.00     0.014 C 
ATOM     28  C   UNL     1      -2.131  22.449  45.821  1.00  0.00     0.016 C 
ATOM     29  C   UNL     1      -2.992  19.409  46.433  1.00  0.00     0.063 C 
ATOM     30  C   UNL     1      -0.581  19.959  47.017  1.00  0.00     0.033 C 
ATOM     31  C   UNL     1      -1.670  18.876  47.007  1.00  0.00     0.118 C 
BRANCH  31  32
ATOM     32  O   UNL     1      -1.845  18.316  48.287  1.00  0.00    -0.393 OA
ATOM     33  H   UNL     1      -2.692  17.800  48.290  1.00  0.00     0.210 HD
ENDBRANCH  31  32
ENDBRANCH  10  12
ENDBRANCH   8  10
ENDBRANCH   1   8
TORSDOF 8
ENDMDL
MODEL 6
REMARK VINA RESULT:    -7.536      2.063      3.073
REMARK INTER + INTRA:         -10.695
REMARK INTER:                  -9.783
REMARK INTRA:                  -0.912
REMARK UNBOUND:                -0.076
REMARK SMILES C[C@@H](CO)CCC(=O)[C@@H](C)[C@H]1C(=O)C[C@H]2[C@@H]3CC=C4C[C@H](O)CC[C@]4(C)[C@H]3CC[C@]12C
REMARK SMILES IDX 6 1 5 2 2 3 1 4 3 5 4 6 7 8 8 9 9 10 10 11 11 12 12 13 30 14
REMARK SMILES IDX 13 15 14 16 15 17 29 18 31 19 16 20 28 21 27 22 17 23 25 24
REMARK SMILES IDX 18 25 19 26 24 27 26 28 20 29 23 30 21 31 22 32
REMARK H PARENT 4 7 22 33
REMARK Flexibility Score: inf
ROOT
ATOM      1  C   UNL     1      -4.474  26.640  47.881  1.00  0.00     0.076 C 
ENDROOT
BRANCH   1   2
ATOM      2  C   UNL     1      -5.496  25.504  47.678  1.00  0.00     0.013 C 
BRANCH   2   3
ATOM      3  C   UNL     1      -6.468  25.300  48.872  1.00  0.00     0.012 C 
ATOM      4  C   UNL     1      -5.723  24.819  50.129  1.00  0.00     0.010 C 
BRANCH   3   5
ATOM      5  C   UNL     1      -7.220  26.613  49.173  1.00  0.00     0.159 C 
BRANCH   5   6
ATOM      6  O   UNL     1      -7.393  26.781  50.555  1.00  0.00    -0.396 OA
ATOM      7  H   UNL     1      -7.827  25.958  50.901  1.00  0.00     0.210 HD
ENDBRANCH   5   6
ENDBRANCH   3   5
ENDBRANCH   2   3
ENDBRANCH   1   2
BRANCH   1   8
ATOM      8  C   UNL     1      -3.117  26.360  47.283  1.00  0.00     0.136 C 
ATOM      9  O   UNL     1      -2.978  26.471  46.072  1.00  0.00    -0.299 OA
BRANCH   8  10
ATOM     10  C   UNL     1      -1.930  25.994  48.158  1.00  0.00     0.064 C 
ATOM     11  C   UNL     1      -2.286  26.022  49.661  1.00  0.00     0.017 C 
BRANCH  10  12
ATOM     12  C   UNL     1      -1.189  24.717  47.638  1.00  0.00     0.072 C 
ATOM     13  C   UNL     1       0.120  24.431  48.331  1.00  0.00     0.137 C 
ATOM     14  C   UNL     1      -1.881  23.316  47.665  1.00  0.00    -0.019 C 
ATOM     15  O   UNL     1       0.910  25.297  48.674  1.00  0.00    -0.299 OA
ATOM     16  C   UNL     1       0.414  22.970  48.444  1.00  0.00     0.080 C 
ATOM     17  C   UNL     1      -0.650  22.391  47.514  1.00  0.00     0.007 C 
ATOM     18  C   UNL     1      -2.813  23.023  46.467  1.00  0.00     0.008 C 
ATOM     19  C   UNL     1      -2.637  23.084  49.008  1.00  0.00     0.012 C 
ATOM     20  C   UNL     1      -0.989  20.888  47.605  1.00  0.00     0.001 C 
ATOM     21  C   UNL     1      -3.228  21.532  46.428  1.00  0.00     0.005 C 
ATOM     22  C   UNL     1      -2.018  20.539  46.485  1.00  0.00     0.003 C 
ATOM     23  C   UNL     1       0.276  20.039  47.410  1.00  0.00     0.031 C 
ATOM     24  C   UNL     1      -2.435  19.018  46.543  1.00  0.00    -0.008 C 
ATOM     25  C   UNL     1      -0.027  18.582  47.196  1.00  0.00    -0.027 C 
ATOM     26  C   UNL     1      -1.190  18.125  46.680  1.00  0.00    -0.065 C 
ATOM     27  C   UNL     1      -3.179  18.650  45.220  1.00  0.00     0.014 C 
ATOM     28  C   UNL     1      -3.367  18.728  47.751  1.00  0.00     0.016 C 
ATOM     29  C   UNL     1      -1.320  16.636  46.415  1.00  0.00     0.063 C 
ATOM     30  C   UNL     1      -3.377  17.140  45.010  1.00  0.00     0.033 C 
ATOM     31  C   UNL     1      -2.057  16.359  45.095  1.00  0.00     0.118 C 
BRANCH  31  32
ATOM     32  O   UNL     1      -1.241  16.612  43.977  1.00  0.00    -0.393 OA
ATOM     33  H   UNL     1      -0.841  15.754  43.681  1.00  0.00     0.210 HD
ENDBRANCH  31  32
ENDBRANCH  10  12
ENDBRANCH   8  10
ENDBRANCH   1   8
TORSDOF 8
ENDMDL
MODEL 7
REMARK VINA RESULT:    -7.515      2.135      3.438
REMARK INTER + INTRA:         -10.666
REMARK INTER:                  -9.568
REMARK INTRA:                  -1.098
REMARK UNBOUND:                -0.076
REMARK SMILES C[C@@H](CO)CCC(=O)[C@@H](C)[C@H]1C(=O)C[C@H]2[C@@H]3CC=C4C[C@H](O)CC[C@]4(C)[C@H]3CC[C@]12C
REMARK SMILES IDX 6 1 5 2 2 3 1 4 3 5 4 6 7 8 8 9 9 10 10 11 11 12 12 13 30 14
REMARK SMILES IDX 13 15 14 16 15 17 29 18 31 19 16 20 28 21 27 22 17 23 25 24
REMARK SMILES IDX 18 25 19 26 24 27 26 28 20 29 23 30 21 31 22 32
REMARK H PARENT 4 7 22 33
REMARK Flexibility Score: inf
ROOT
ATOM      1  C   UNL     1      -5.728  28.212  48.628  1.00  0.00     0.076 C 
ENDROOT
BRANCH   1   2
ATOM      2  C   UNL     1      -6.184  26.977  49.430  1.00  0.00     0.013 C 
BRANCH   2   3
ATOM      3  C   UNL     1      -5.384  26.740  50.741  1.00  0.00     0.012 C 
ATOM      4  C   UNL     1      -4.921  25.277  50.861  1.00  0.00     0.010 C 
BRANCH   3   5
ATOM      5  C   UNL     1      -4.168  27.687  50.799  1.00  0.00     0.159 C 
BRANCH   5   6
ATOM      6  O   UNL     1      -3.925  28.103  52.117  1.00  0.00    -0.396 OA
ATOM      7  H   UNL     1      -3.162  27.569  52.459  1.00  0.00     0.210 HD
ENDBRANCH   5   6
ENDBRANCH   3   5
ENDBRANCH   2   3
ENDBRANCH   1   2
BRANCH   1   8
ATOM      8  C   UNL     1      -5.566  27.957  47.149  1.00  0.00     0.136 C 
ATOM      9  O   UNL     1      -6.569  27.758  46.477  1.00  0.00    -0.299 OA
BRANCH   8  10
ATOM     10  C   UNL     1      -4.198  27.992  46.489  1.00  0.00     0.064 C 
ATOM     11  C   UNL     1      -3.146  28.700  47.371  1.00  0.00     0.017 C 
BRANCH  10  12
ATOM     12  C   UNL     1      -3.795  26.600  45.899  1.00  0.00     0.072 C 
ATOM     13  C   UNL     1      -2.476  26.592  45.167  1.00  0.00     0.137 C 
ATOM     14  C   UNL     1      -3.661  25.343  46.818  1.00  0.00    -0.019 C 
ATOM     15  O   UNL     1      -2.088  27.506  44.456  1.00  0.00    -0.299 OA
ATOM     16  C   UNL     1      -1.745  25.295  45.296  1.00  0.00     0.080 C 
ATOM     17  C   UNL     1      -2.833  24.411  45.902  1.00  0.00     0.007 C 
ATOM     18  C   UNL     1      -4.988  24.610  47.122  1.00  0.00     0.008 C 
ATOM     19  C   UNL     1      -2.917  25.687  48.143  1.00  0.00     0.012 C 
ATOM     20  C   UNL     1      -2.432  23.080  46.572  1.00  0.00     0.001 C 
ATOM     21  C   UNL     1      -4.733  23.239  47.793  1.00  0.00     0.005 C 
ATOM     22  C   UNL     1      -3.729  22.329  47.008  1.00  0.00     0.003 C 
ATOM     23  C   UNL     1      -1.646  22.199  45.590  1.00  0.00     0.031 C 
ATOM     24  C   UNL     1      -3.388  20.969  47.733  1.00  0.00    -0.008 C 
ATOM     25  C   UNL     1      -1.482  20.786  46.076  1.00  0.00    -0.027 C 
ATOM     26  C   UNL     1      -2.336  20.183  46.932  1.00  0.00    -0.065 C 
ATOM     27  C   UNL     1      -4.690  20.114  47.835  1.00  0.00     0.014 C 
ATOM     28  C   UNL     1      -2.822  21.210  49.160  1.00  0.00     0.016 C 
ATOM     29  C   UNL     1      -2.112  18.717  47.254  1.00  0.00     0.063 C 
ATOM     30  C   UNL     1      -4.451  18.652  48.245  1.00  0.00     0.033 C 
ATOM     31  C   UNL     1      -3.439  17.946  47.331  1.00  0.00     0.118 C 
BRANCH  31  32
ATOM     32  O   UNL     1      -3.982  17.710  46.054  1.00  0.00    -0.393 OA
ATOM     33  H   UNL     1      -3.267  17.848  45.380  1.00  0.00     0.210 HD
ENDBRANCH  31  32
ENDBRANCH  10  12
ENDBRANCH   8  10
ENDBRANCH   1   8
TORSDOF 8
ENDMDL
MODEL 8
REMARK VINA RESULT:    -7.487      3.402      6.124
REMARK INTER + INTRA:         -10.627
REMARK INTER:                  -9.860
REMARK INTRA:                  -0.767
REMARK UNBOUND:                -0.076
REMARK SMILES C[C@@H](CO)CCC(=O)[C@@H](C)[C@H]1C(=O)C[C@H]2[C@@H]3CC=C4C[C@H](O)CC[C@]4(C)[C@H]3CC[C@]12C
REMARK SMILES IDX 6 1 5 2 2 3 1 4 3 5 4 6 7 8 8 9 9 10 10 11 11 12 12 13 30 14
REMARK SMILES IDX 13 15 14 16 15 17 29 18 31 19 16 20 28 21 27 22 17 23 25 24
REMARK SMILES IDX 18 25 19 26 24 27 26 28 20 29 23 30 21 31 22 32
REMARK H PARENT 4 7 22 33
REMARK Flexibility Score: inf
ROOT
ATOM      1  C   UNL     1      -1.650  26.494  52.844  1.00  0.00     0.076 C 
ENDROOT
BRANCH   1   2
ATOM      2  C   UNL     1      -0.965  25.796  54.035  1.00  0.00     0.013 C 
BRANCH   2   3
ATOM      3  C   UNL     1       0.014  24.660  53.629  1.00  0.00     0.012 C 
ATOM      4  C   UNL     1      -0.615  23.272  53.840  1.00  0.00     0.010 C 
BRANCH   3   5
ATOM      5  C   UNL     1       0.442  24.830  52.157  1.00  0.00     0.159 C 
BRANCH   5   6
ATOM      6  O   UNL     1       1.175  23.715  51.721  1.00  0.00    -0.396 OA
ATOM      7  H   UNL     1       2.061  23.752  52.168  1.00  0.00     0.210 HD
ENDBRANCH   5   6
ENDBRANCH   3   5
ENDBRANCH   2   3
ENDBRANCH   1   2
BRANCH   1   8
ATOM      8  C   UNL     1      -3.141  26.663  53.005  1.00  0.00     0.136 C 
ATOM      9  O   UNL     1      -3.623  26.562  54.125  1.00  0.00    -0.299 OA
BRANCH   8  10
ATOM     10  C   UNL     1      -4.029  26.998  51.818  1.00  0.00     0.064 C 
ATOM     11  C   UNL     1      -3.370  28.026  50.872  1.00  0.00     0.017 C 
BRANCH  10  12
ATOM     12  C   UNL     1      -4.626  25.715  51.151  1.00  0.00     0.072 C 
ATOM     13  C   UNL     1      -5.777  25.980  50.213  1.00  0.00     0.137 C 
ATOM     14  C   UNL     1      -3.731  24.757  50.300  1.00  0.00    -0.019 C 
ATOM     15  O   UNL     1      -6.641  26.819  50.416  1.00  0.00    -0.299 OA
ATOM     16  C   UNL     1      -5.828  25.022  49.066  1.00  0.00     0.080 C 
ATOM     17  C   UNL     1      -4.815  23.974  49.522  1.00  0.00     0.007 C 
ATOM     18  C   UNL     1      -2.924  23.720  51.114  1.00  0.00     0.008 C 
ATOM     19  C   UNL     1      -2.784  25.558  49.355  1.00  0.00     0.012 C 
ATOM     20  C   UNL     1      -4.242  22.984  48.487  1.00  0.00     0.001 C 
ATOM     21  C   UNL     1      -2.295  22.647  50.192  1.00  0.00     0.005 C 
ATOM     22  C   UNL     1      -3.322  21.963  49.227  1.00  0.00     0.003 C 
ATOM     23  C   UNL     1      -5.377  22.222  47.786  1.00  0.00     0.031 C 
ATOM     24  C   UNL     1      -2.675  20.938  48.218  1.00  0.00    -0.008 C 
ATOM     25  C   UNL     1      -4.885  21.048  46.987  1.00  0.00    -0.027 C 
ATOM     26  C   UNL     1      -3.741  20.382  47.259  1.00  0.00    -0.065 C 
ATOM     27  C   UNL     1      -2.057  19.756  49.030  1.00  0.00     0.014 C 
ATOM     28  C   UNL     1      -1.563  21.605  47.362  1.00  0.00     0.016 C 
ATOM     29  C   UNL     1      -3.420  19.144  46.440  1.00  0.00     0.063 C 
ATOM     30  C   UNL     1      -1.659  18.545  48.171  1.00  0.00     0.033 C 
ATOM     31  C   UNL     1      -2.822  18.029  47.311  1.00  0.00     0.118 C 
BRANCH  31  32
ATOM     32  O   UNL     1      -3.803  17.401  48.103  1.00  0.00    -0.393 OA
ATOM     33  H   UNL     1      -3.348  16.920  48.842  1.00  0.00     0.210 HD
ENDBRANCH  31  32
ENDBRANCH  10  12
ENDBRANCH   8  10
ENDBRANCH   1   8
TORSDOF 8
ENDMDL
MODEL 9
REMARK VINA RESULT:    -7.395      2.638      4.433
REMARK INTER + INTRA:         -10.497
REMARK INTER:                  -9.824
REMARK INTRA:                  -0.673
REMARK UNBOUND:                -0.076
REMARK SMILES C[C@@H](CO)CCC(=O)[C@@H](C)[C@H]1C(=O)C[C@H]2[C@@H]3CC=C4C[C@H](O)CC[C@]4(C)[C@H]3CC[C@]12C
REMARK SMILES IDX 6 1 5 2 2 3 1 4 3 5 4 6 7 8 8 9 9 10 10 11 11 12 12 13 30 14
REMARK SMILES IDX 13 15 14 16 15 17 29 18 31 19 16 20 28 21 27 22 17 23 25 24
REMARK SMILES IDX 18 25 19 26 24 27 26 28 20 29 23 30 21 31 22 32
REMARK H PARENT 4 7 22 33
REMARK Flexibility Score: inf
ROOT
ATOM      1  C   UNL     1      -4.366  27.134  51.443  1.00  0.00     0.076 C 
ENDROOT
BRANCH   1   2
ATOM      2  C   UNL     1      -4.137  25.775  52.134  1.00  0.00     0.013 C 
BRANCH   2   3
ATOM      3  C   UNL     1      -2.844  25.708  52.993  1.00  0.00     0.012 C 
ATOM      4  C   UNL     1      -1.877  24.631  52.471  1.00  0.00     0.010 C 
BRANCH   3   5
ATOM      5  C   UNL     1      -2.147  27.084  53.009  1.00  0.00     0.159 C 
BRANCH   5   6
ATOM      6  O   UNL     1      -2.552  27.832  54.125  1.00  0.00    -0.396 OA
ATOM      7  H   UNL     1      -3.125  28.571  53.792  1.00  0.00     0.210 HD
ENDBRANCH   5   6
ENDBRANCH   3   5
ENDBRANCH   2   3
ENDBRANCH   1   2
BRANCH   1   8
ATOM      8  C   UNL     1      -5.278  27.067  50.243  1.00  0.00     0.136 C 
ATOM      9  O   UNL     1      -6.436  26.709  50.408  1.00  0.00    -0.299 OA
BRANCH   8  10
ATOM     10  C   UNL     1      -4.795  27.478  48.862  1.00  0.00     0.064 C 
ATOM     11  C   UNL     1      -3.530  28.362  48.929  1.00  0.00     0.017 C 
BRANCH  10  12
ATOM     12  C   UNL     1      -4.752  26.268  47.871  1.00  0.00     0.072 C 
ATOM     13  C   UNL     1      -4.120  26.578  46.537  1.00  0.00     0.137 C 
ATOM     14  C   UNL     1      -4.043  24.931  48.261  1.00  0.00    -0.019 C 
ATOM     15  O   UNL     1      -4.269  27.635  45.943  1.00  0.00    -0.299 OA
ATOM     16  C   UNL     1      -3.393  25.411  45.950  1.00  0.00     0.080 C 
ATOM     17  C   UNL     1      -3.870  24.285  46.865  1.00  0.00     0.007 C 
ATOM     18  C   UNL     1      -4.898  23.958  49.103  1.00  0.00     0.008 C 
ATOM     19  C   UNL     1      -2.678  25.198  48.963  1.00  0.00     0.012 C 
ATOM     20  C   UNL     1      -3.089  22.955  46.889  1.00  0.00     0.001 C 
ATOM     21  C   UNL     1      -4.232  22.564  49.203  1.00  0.00     0.005 C 
ATOM     22  C   UNL     1      -3.842  21.950  47.816  1.00  0.00     0.003 C 
ATOM     23  C   UNL     1      -2.993  22.362  45.476  1.00  0.00     0.031 C 
ATOM     24  C   UNL     1      -3.076  20.574  47.912  1.00  0.00    -0.008 C 
ATOM     25  C   UNL     1      -2.507  20.940  45.471  1.00  0.00    -0.027 C 
ATOM     26  C   UNL     1      -2.662  20.091  46.511  1.00  0.00    -0.065 C 
ATOM     27  C   UNL     1      -4.025  19.514  48.554  1.00  0.00     0.014 C 
ATOM     28  C   UNL     1      -1.789  20.697  48.775  1.00  0.00     0.016 C 
ATOM     29  C   UNL     1      -2.223  18.649  46.331  1.00  0.00     0.063 C 
ATOM     30  C   UNL     1      -3.521  18.066  48.436  1.00  0.00     0.033 C 
ATOM     31  C   UNL     1      -3.210  17.670  46.985  1.00  0.00     0.118 C 
BRANCH  31  32
ATOM     32  O   UNL     1      -4.390  17.535  46.229  1.00  0.00    -0.393 OA
ATOM     33  H   UNL     1      -4.451  18.302  45.604  1.00  0.00     0.210 HD
ENDBRANCH  31  32
ENDBRANCH  10  12
ENDBRANCH   8  10
ENDBRANCH   1   8
TORSDOF 8
ENDMDL
