MODEL 1
REMARK VINA RESULT:    -4.018      0.000      0.000
REMARK INTER + INTRA:          -4.498
REMARK INTER:                  -4.370
REMARK INTRA:                  -0.128
REMARK UNBOUND:                -0.128
REMARK SMILES Cc1ccc(C(C)C)cc1O
REMARK SMILES IDX 1 1 2 2 10 3 9 4 5 5 4 6 3 7 11 8 6 10 7 11 8 12
REMARK H PARENT 11 9
REMARK Flexibility Score: inf
ROOT
ATOM      1  C   UNL     1     157.499 161.519 166.766  1.00  0.00     0.048 C 
ATOM      2  C   UNL     1     158.027 160.330 167.522  1.00  0.00    -0.009 A 
ATOM      3  C   UNL     1     158.967 160.485 168.565  1.00  0.00     0.118 A 
ATOM      4  C   UNL     1     159.438 159.359 169.250  1.00  0.00     0.050 A 
ATOM      5  C   UNL     1     158.988 158.069 168.914  1.00  0.00    -0.042 A 
ATOM      6  C   UNL     1     158.055 157.924 167.876  1.00  0.00     0.004 A 
ATOM      7  C   UNL     1     157.580 159.042 167.188  1.00  0.00     0.007 A 
ENDROOT
BRANCH   3   8
ATOM      8  O   UNL     1     159.450 161.740 168.944  1.00  0.00    -0.508 OA
ATOM      9  H   UNL     1     160.433 161.929 169.095  1.00  0.00     0.293 HD
ENDBRANCH   3   8
BRANCH   5  10
ATOM     10  C   UNL     1     159.497 156.845 169.654  1.00  0.00     0.013 C 
ATOM     11  C   UNL     1     158.339 155.938 170.086  1.00  0.00     0.012 C 
ATOM     12  C   UNL     1     160.518 156.073 168.809  1.00  0.00     0.012 C 
ENDBRANCH   5  10
TORSDOF 2
ENDMDL
MODEL 2
REMARK VINA RESULT:    -3.965      3.814      5.432
REMARK INTER + INTRA:          -4.441
REMARK INTER:                  -4.313
REMARK INTRA:                  -0.128
REMARK UNBOUND:                -0.128
REMARK SMILES Cc1ccc(C(C)C)cc1O
REMARK SMILES IDX 1 1 2 2 10 3 9 4 5 5 4 6 3 7 11 8 6 10 7 11 8 12
REMARK H PARENT 11 9
REMARK Flexibility Score: inf
ROOT
ATOM      1  C   UNL     1     157.643 153.878 166.768  1.00  0.00     0.048 C 
ATOM      2  C   UNL     1     157.100 155.076 167.497  1.00  0.00    -0.009 A 
ATOM      3  C   UNL     1     156.187 154.930 168.565  1.00  0.00     0.118 A 
ATOM      4  C   UNL     1     155.700 156.066 169.224  1.00  0.00     0.050 A 
ATOM      5  C   UNL     1     156.108 157.355 168.838  1.00  0.00    -0.042 A 
ATOM      6  C   UNL     1     157.014 157.491 167.775  1.00  0.00     0.004 A 
ATOM      7  C   UNL     1     157.505 156.364 167.113  1.00  0.00     0.007 A 
ENDROOT
BRANCH   3   8
ATOM      8  O   UNL     1     155.746 153.676 168.995  1.00  0.00    -0.508 OA
ATOM      9  H   UNL     1     155.404 152.965 168.361  1.00  0.00     0.293 HD
ENDBRANCH   3   8
BRANCH   5  10
ATOM     10  C   UNL     1     155.582 158.588 169.549  1.00  0.00     0.013 C 
ATOM     11  C   UNL     1     156.730 159.427 170.125  1.00  0.00     0.012 C 
ATOM     12  C   UNL     1     154.696 159.427 168.620  1.00  0.00     0.012 C 
ENDBRANCH   5  10
TORSDOF 2
ENDMDL
MODEL 3
REMARK VINA RESULT:    -3.954      2.383      4.174
REMARK INTER + INTRA:          -4.429
REMARK INTER:                  -4.303
REMARK INTRA:                  -0.126
REMARK UNBOUND:                -0.128
REMARK SMILES Cc1ccc(C(C)C)cc1O
REMARK SMILES IDX 1 1 2 2 10 3 9 4 5 5 4 6 3 7 11 8 6 10 7 11 8 12
REMARK H PARENT 11 9
REMARK Flexibility Score: inf
ROOT
ATOM      1  C   UNL     1     155.720 155.417 169.389  1.00  0.00     0.048 C 
ATOM      2  C   UNL     1     156.696 156.545 169.194  1.00  0.00    -0.009 A 
ATOM      3  C   UNL     1     156.357 157.873 169.538  1.00  0.00     0.118 A 
ATOM      4  C   UNL     1     157.289 158.900 169.345  1.00  0.00     0.050 A 
ATOM      5  C   UNL     1     158.563 158.630 168.812  1.00  0.00    -0.042 A 
ATOM      6  C   UNL     1     158.890 157.308 168.473  1.00  0.00     0.004 A 
ATOM      7  C   UNL     1     157.967 156.278 168.662  1.00  0.00     0.007 A 
ENDROOT
BRANCH   3   8
ATOM      8  O   UNL     1     155.109 158.203 170.071  1.00  0.00    -0.508 OA
ATOM      9  H   UNL     1     154.236 157.937 169.635  1.00  0.00     0.293 HD
ENDBRANCH   3   8
BRANCH   5  10
ATOM     10  C   UNL     1     159.575 159.740 168.601  1.00  0.00     0.013 C 
ATOM     11  C   UNL     1     160.495 159.433 167.414  1.00  0.00     0.012 C 
ATOM     12  C   UNL     1     158.880 161.096 168.425  1.00  0.00     0.012 C 
ENDBRANCH   5  10
TORSDOF 2
ENDMDL
MODEL 4
REMARK VINA RESULT:    -3.946      2.076      3.092
REMARK INTER + INTRA:          -4.420
REMARK INTER:                  -4.292
REMARK INTRA:                  -0.128
REMARK UNBOUND:                -0.128
REMARK SMILES Cc1ccc(C(C)C)cc1O
REMARK SMILES IDX 1 1 2 2 10 3 9 4 5 5 4 6 3 7 11 8 6 10 7 11 8 12
REMARK H PARENT 11 9
REMARK Flexibility Score: inf
ROOT
ATOM      1  C   UNL     1     160.774 159.400 167.239  1.00  0.00     0.048 C 
ATOM      2  C   UNL     1     159.420 159.197 167.862  1.00  0.00    -0.009 A 
ATOM      3  C   UNL     1     158.849 160.177 168.705  1.00  0.00     0.118 A 
ATOM      4  C   UNL     1     157.586 159.959 169.269  1.00  0.00     0.050 A 
ATOM      5  C   UNL     1     156.874 158.773 169.010  1.00  0.00    -0.042 A 
ATOM      6  C   UNL     1     157.450 157.806 168.172  1.00  0.00     0.004 A 
ATOM      7  C   UNL     1     158.708 158.015 167.605  1.00  0.00     0.007 A 
ENDROOT
BRANCH   3   8
ATOM      8  O   UNL     1     159.507 161.374 169.000  1.00  0.00    -0.508 OA
ATOM      9  H   UNL     1     159.084 162.283 168.864  1.00  0.00     0.293 HD
ENDBRANCH   3   8
BRANCH   5  10
ATOM     10  C   UNL     1     155.506 158.533 169.620  1.00  0.00     0.013 C 
ATOM     11  C   UNL     1     154.389 158.878 168.628  1.00  0.00     0.012 C 
ATOM     12  C   UNL     1     155.371 157.091 170.125  1.00  0.00     0.012 C 
ENDBRANCH   5  10
TORSDOF 2
ENDMDL
MODEL 5
REMARK VINA RESULT:    -3.890      2.041      2.427
REMARK INTER + INTRA:          -4.359
REMARK INTER:                  -4.235
REMARK INTRA:                  -0.124
REMARK UNBOUND:                -0.128
REMARK SMILES Cc1ccc(C(C)C)cc1O
REMARK SMILES IDX 1 1 2 2 10 3 9 4 5 5 4 6 3 7 11 8 6 10 7 11 8 12
REMARK H PARENT 11 9
REMARK Flexibility Score: inf
ROOT
ATOM      1  C   UNL     1     155.326 159.493 169.515  1.00  0.00     0.048 C 
ATOM      2  C   UNL     1     156.454 158.539 169.232  1.00  0.00    -0.009 A 
ATOM      3  C   UNL     1     157.796 158.896 169.493  1.00  0.00     0.118 A 
ATOM      4  C   UNL     1     158.823 157.985 169.219  1.00  0.00     0.050 A 
ATOM      5  C   UNL     1     158.540 156.715 168.686  1.00  0.00    -0.042 A 
ATOM      6  C   UNL     1     157.204 156.370 168.429  1.00  0.00     0.004 A 
ATOM      7  C   UNL     1     156.173 157.271 168.699  1.00  0.00     0.007 A 
ENDROOT
BRANCH   3   8
ATOM      8  O   UNL     1     158.140 160.142 170.023  1.00  0.00    -0.508 OA
ATOM      9  H   UNL     1     158.880 160.266 170.702  1.00  0.00     0.293 HD
ENDBRANCH   3   8
BRANCH   5  10
ATOM     10  C   UNL     1     159.650 155.725 168.387  1.00  0.00     0.013 C 
ATOM     11  C   UNL     1     159.352 154.926 167.113  1.00  0.00     0.012 C 
ATOM     12  C   UNL     1     161.009 156.431 168.291  1.00  0.00     0.012 C 
ENDBRANCH   5  10
TORSDOF 2
ENDMDL
MODEL 6
REMARK VINA RESULT:    -3.877      2.387      3.262
REMARK INTER + INTRA:          -4.345
REMARK INTER:                  -4.218
REMARK INTRA:                  -0.127
REMARK UNBOUND:                -0.128
REMARK SMILES Cc1ccc(C(C)C)cc1O
REMARK SMILES IDX 1 1 2 2 10 3 9 4 5 5 4 6 3 7 11 8 6 10 7 11 8 12
REMARK H PARENT 11 9
REMARK Flexibility Score: inf
ROOT
ATOM      1  C   UNL     1     159.513 160.224 169.011  1.00  0.00     0.048 C 
ATOM      2  C   UNL     1     158.557 159.067 168.902  1.00  0.00    -0.009 A 
ATOM      3  C   UNL     1     158.871 157.805 169.455  1.00  0.00     0.118 A 
ATOM      4  C   UNL     1     157.960 156.748 169.337  1.00  0.00     0.050 A 
ATOM      5  C   UNL     1     156.732 156.923 168.674  1.00  0.00    -0.042 A 
ATOM      6  C   UNL     1     156.429 158.180 168.128  1.00  0.00     0.004 A 
ATOM      7  C   UNL     1     157.332 159.239 168.241  1.00  0.00     0.007 A 
ENDROOT
BRANCH   3   8
ATOM      8  O   UNL     1     160.074 157.570 170.125  1.00  0.00    -0.508 OA
ATOM      9  H   UNL     1     160.454 156.642 170.268  1.00  0.00     0.293 HD
ENDBRANCH   3   8
BRANCH   5  10
ATOM     10  C   UNL     1     155.743 155.780 168.544  1.00  0.00     0.013 C 
ATOM     11  C   UNL     1     154.717 156.059 167.438  1.00  0.00     0.012 C 
ATOM     12  C   UNL     1     156.465 154.448 168.305  1.00  0.00     0.012 C 
ENDBRANCH   5  10
TORSDOF 2
ENDMDL
MODEL 7
REMARK VINA RESULT:    -3.862      2.821      3.750
REMARK INTER + INTRA:          -4.329
REMARK INTER:                  -4.202
REMARK INTRA:                  -0.128
REMARK UNBOUND:                -0.128
REMARK SMILES Cc1ccc(C(C)C)cc1O
REMARK SMILES IDX 1 1 2 2 10 3 9 4 5 5 4 6 3 7 11 8 6 10 7 11 8 12
REMARK H PARENT 11 9
REMARK Flexibility Score: inf
ROOT
ATOM      1  C   UNL     1     153.823 157.605 166.768  1.00  0.00     0.048 C 
ATOM      2  C   UNL     1     155.032 158.122 167.499  1.00  0.00    -0.009 A 
ATOM      3  C   UNL     1     154.904 159.034 168.570  1.00  0.00     0.118 A 
ATOM      4  C   UNL     1     156.049 159.496 169.231  1.00  0.00     0.050 A 
ATOM      5  C   UNL     1     157.330 159.065 168.843  1.00  0.00    -0.042 A 
ATOM      6  C   UNL     1     157.448 158.159 167.777  1.00  0.00     0.004 A 
ATOM      7  C   UNL     1     156.312 157.693 167.113  1.00  0.00     0.007 A 
ENDROOT
BRANCH   3   8
ATOM      8  O   UNL     1     153.659 159.498 169.001  1.00  0.00    -0.508 OA
ATOM      9  H   UNL     1     153.324 159.379 169.949  1.00  0.00     0.293 HD
ENDBRANCH   3   8
BRANCH   5  10
ATOM     10  C   UNL     1     158.573 159.564 169.556  1.00  0.00     0.013 C 
ATOM     11  C   UNL     1     159.391 158.398 170.125  1.00  0.00     0.012 C 
ATOM     12  C   UNL     1     159.428 160.439 168.631  1.00  0.00     0.012 C 
ENDBRANCH   5  10
TORSDOF 2
ENDMDL
MODEL 8
REMARK VINA RESULT:    -3.846      2.694      3.713
REMARK INTER + INTRA:          -4.311
REMARK INTER:                  -4.183
REMARK INTRA:                  -0.128
REMARK UNBOUND:                -0.128
REMARK SMILES Cc1ccc(C(C)C)cc1O
REMARK SMILES IDX 1 1 2 2 10 3 9 4 5 5 4 6 3 7 11 8 6 10 7 11 8 12
REMARK H PARENT 11 9
REMARK Flexibility Score: inf
ROOT
ATOM      1  C   UNL     1     161.192 158.063 166.785  1.00  0.00     0.048 C 
ATOM      2  C   UNL     1     160.004 157.515 167.527  1.00  0.00    -0.009 A 
ATOM      3  C   UNL     1     160.157 156.522 168.521  1.00  0.00     0.118 A 
ATOM      4  C   UNL     1     159.031 156.033 169.195  1.00  0.00     0.050 A 
ATOM      5  C   UNL     1     157.744 156.517 168.896  1.00  0.00    -0.042 A 
ATOM      6  C   UNL     1     157.602 157.502 167.907  1.00  0.00     0.004 A 
ATOM      7  C   UNL     1     158.719 157.995 167.231  1.00  0.00     0.007 A 
ENDROOT
BRANCH   3   8
ATOM      8  O   UNL     1     161.409 156.004 168.862  1.00  0.00    -0.508 OA
ATOM      9  H   UNL     1     162.273 156.510 168.719  1.00  0.00     0.293 HD
ENDBRANCH   3   8
BRANCH   5  10
ATOM     10  C   UNL     1     156.522 155.989 169.623  1.00  0.00     0.013 C 
ATOM     11  C   UNL     1     155.637 157.136 170.125  1.00  0.00     0.012 C 
ATOM     12  C   UNL     1     155.725 155.024 168.737  1.00  0.00     0.012 C 
ENDBRANCH   5  10
TORSDOF 2
ENDMDL
