MODEL 1
REMARK VINA RESULT:    -4.205      0.000      0.000
REMARK INTER + INTRA:          -8.763
REMARK INTER:                  -7.647
REMARK INTRA:                  -1.116
REMARK UNBOUND:                -1.116
REMARK SMILES CCCCCC=CCC=CCCCCCCCC(=O)[O-]
REMARK SMILES IDX 11 1 12 2 13 3 14 4 15 5 16 6 17 7 18 8 19 9 20 10 10 11
REMARK SMILES IDX 9 12 8 13 7 14 6 15 5 16 4 17 3 18 2 19 1 20
REMARK H PARENT
REMARK Flexibility Score: inf
ROOT
ATOM      1  C   UNL     1       5.499   2.003 -25.341  1.00  0.00     0.027 C 
ENDROOT
BRANCH   1   2
ATOM      2  C   UNL     1       6.190   1.113 -26.385  1.00  0.00     0.004 C 
BRANCH   2   3
ATOM      3  C   UNL     1       5.275  -0.016 -26.890  1.00  0.00     0.000 C 
BRANCH   3   4
ATOM      4  C   UNL     1       5.987  -1.379 -26.956  1.00  0.00     0.000 C 
BRANCH   4   5
ATOM      5  C   UNL     1       7.014  -1.631 -25.837  1.00  0.00     0.000 C 
BRANCH   5   6
ATOM      6  C   UNL     1       7.030  -3.090 -25.356  1.00  0.00     0.006 C 
BRANCH   6   7
ATOM      7  C   UNL     1       8.091  -3.295 -24.269  1.00  0.00     0.053 C 
BRANCH   7   8
ATOM      8  C   UNL     1       7.451  -3.704 -22.981  1.00  0.00     0.041 C 
ATOM      9  O   UNL     1       6.453  -4.473 -22.984  1.00  0.00    -0.550 OA
ATOM     10  O   UNL     1       7.982  -3.272 -21.773  1.00  0.00    -0.550 OA
ENDBRANCH   7   8
ENDBRANCH   6   7
ENDBRANCH   5   6
ENDBRANCH   4   5
ENDBRANCH   3   4
ENDBRANCH   2   3
ENDBRANCH   1   2
BRANCH   1  11
ATOM     11  C   UNL     1       4.207   1.410 -24.831  1.00  0.00    -0.031 C 
ATOM     12  C   UNL     1       3.322   2.044 -24.039  1.00  0.00    -0.027 C 
BRANCH  12  13
ATOM     13  C   UNL     1       3.447   3.469 -23.562  1.00  0.00     0.054 C 
BRANCH  13  14
ATOM     14  C   UNL     1       3.680   3.508 -22.078  1.00  0.00    -0.027 C 
ATOM     15  C   UNL     1       3.709   2.387 -21.342  1.00  0.00    -0.031 C 
BRANCH  15  16
ATOM     16  C   UNL     1       3.960   2.443 -19.861  1.00  0.00     0.027 C 
BRANCH  16  17
ATOM     17  C   UNL     1       5.228   1.661 -19.487  1.00  0.00     0.004 C 
BRANCH  17  18
ATOM     18  C   UNL     1       5.763   2.031 -18.096  1.00  0.00     0.000 C 
BRANCH  18  19
ATOM     19  C   UNL     1       7.243   1.661 -17.915  1.00  0.00    -0.003 C 
ATOM     20  C   UNL     1       7.786   0.953 -19.153  1.00  0.00     0.004 C 
ENDBRANCH  18  19
ENDBRANCH  17  18
ENDBRANCH  16  17
ENDBRANCH  15  16
ENDBRANCH  13  14
ENDBRANCH  12  13
ENDBRANCH   1  11
TORSDOF 14
ENDMDL
MODEL 2
REMARK VINA RESULT:    -4.178      2.329      6.640
REMARK INTER + INTRA:          -8.713
REMARK INTER:                  -7.743
REMARK INTRA:                  -0.970
REMARK UNBOUND:                -1.116
REMARK SMILES CCCCCC=CCC=CCCCCCCCC(=O)[O-]
REMARK SMILES IDX 11 1 12 2 13 3 14 4 15 5 16 6 17 7 18 8 19 9 20 10 10 11
REMARK SMILES IDX 9 12 8 13 7 14 6 15 5 16 4 17 3 18 2 19 1 20
REMARK H PARENT
REMARK Flexibility Score: inf
ROOT
ATOM      1  C   UNL     1       3.692   2.657 -23.909  1.00  0.00     0.027 C 
ENDROOT
BRANCH   1   2
ATOM      2  C   UNL     1       3.499   3.794 -22.894  1.00  0.00     0.004 C 
BRANCH   2   3
ATOM      3  C   UNL     1       3.673   3.319 -21.441  1.00  0.00     0.000 C 
BRANCH   3   4
ATOM      4  C   UNL     1       3.004   1.958 -21.171  1.00  0.00     0.000 C 
BRANCH   4   5
ATOM      5  C   UNL     1       3.424   1.277 -19.856  1.00  0.00     0.000 C 
BRANCH   5   6
ATOM      6  C   UNL     1       4.932   1.383 -19.582  1.00  0.00     0.006 C 
BRANCH   6   7
ATOM      7  C   UNL     1       5.206   2.276 -18.367  1.00  0.00     0.053 C 
BRANCH   7   8
ATOM      8  C   UNL     1       6.546   1.968 -17.779  1.00  0.00     0.041 C 
ATOM      9  O   UNL     1       6.773   2.199 -16.562  1.00  0.00    -0.550 OA
ATOM     10  O   UNL     1       7.532   1.386 -18.564  1.00  0.00    -0.550 OA
ENDBRANCH   7   8
ENDBRANCH   6   7
ENDBRANCH   5   6
ENDBRANCH   4   5
ENDBRANCH   3   4
ENDBRANCH   2   3
ENDBRANCH   1   2
BRANCH   1  11
ATOM     11  C   UNL     1       5.029   2.721 -24.610  1.00  0.00    -0.031 C 
ATOM     12  C   UNL     1       5.474   1.829 -25.515  1.00  0.00    -0.027 C 
BRANCH  12  13
ATOM     13  C   UNL     1       4.696   0.638 -26.016  1.00  0.00     0.054 C 
BRANCH  13  14
ATOM     14  C   UNL     1       5.431  -0.636 -25.709  1.00  0.00    -0.027 C 
ATOM     15  C   UNL     1       6.698  -0.829 -26.105  1.00  0.00    -0.031 C 
BRANCH  15  16
ATOM     16  C   UNL     1       7.424  -2.104 -25.774  1.00  0.00     0.027 C 
BRANCH  16  17
ATOM     17  C   UNL     1       6.974  -2.657 -24.415  1.00  0.00     0.004 C 
BRANCH  17  18
ATOM     18  C   UNL     1       7.584  -4.032 -24.104  1.00  0.00     0.000 C 
BRANCH  18  19
ATOM     19  C   UNL     1       8.868  -3.932 -23.267  1.00  0.00    -0.003 C 
ATOM     20  C   UNL     1       8.566  -4.071 -21.778  1.00  0.00     0.004 C 
ENDBRANCH  18  19
ENDBRANCH  17  18
ENDBRANCH  16  17
ENDBRANCH  15  16
ENDBRANCH  13  14
ENDBRANCH  12  13
ENDBRANCH   1  11
TORSDOF 14
ENDMDL
MODEL 3
REMARK VINA RESULT:    -4.117      1.388      3.002
REMARK INTER + INTRA:          -8.603
REMARK INTER:                  -7.285
REMARK INTRA:                  -1.319
REMARK UNBOUND:                -1.116
REMARK SMILES CCCCCC=CCC=CCCCCCCCC(=O)[O-]
REMARK SMILES IDX 11 1 12 2 13 3 14 4 15 5 16 6 17 7 18 8 19 9 20 10 10 11
REMARK SMILES IDX 9 12 8 13 7 14 6 15 5 16 4 17 3 18 2 19 1 20
REMARK H PARENT
REMARK Flexibility Score: inf
ROOT
ATOM      1  C   UNL     1       6.793  -1.091 -25.934  1.00  0.00     0.027 C 
ENDROOT
BRANCH   1   2
ATOM      2  C   UNL     1       7.212  -1.289 -27.399  1.00  0.00     0.004 C 
BRANCH   2   3
ATOM      3  C   UNL     1       8.500  -2.118 -27.533  1.00  0.00     0.000 C 
BRANCH   3   4
ATOM      4  C   UNL     1       8.571  -3.282 -26.527  1.00  0.00     0.000 C 
BRANCH   4   5
ATOM      5  C   UNL     1       9.892  -3.383 -25.743  1.00  0.00     0.000 C 
BRANCH   5   6
ATOM      6  C   UNL     1       9.682  -3.684 -24.251  1.00  0.00     0.006 C 
BRANCH   6   7
ATOM      7  C   UNL     1       8.338  -4.383 -24.018  1.00  0.00     0.053 C 
BRANCH   7   8
ATOM      8  C   UNL     1       7.568  -3.695 -22.937  1.00  0.00     0.041 C 
ATOM      9  O   UNL     1       8.072  -3.555 -21.790  1.00  0.00    -0.550 OA
ATOM     10  O   UNL     1       6.310  -3.171 -23.203  1.00  0.00    -0.550 OA
ENDBRANCH   7   8
ENDBRANCH   6   7
ENDBRANCH   5   6
ENDBRANCH   4   5
ENDBRANCH   3   4
ENDBRANCH   2   3
ENDBRANCH   1   2
BRANCH   1  11
ATOM     11  C   UNL     1       5.306  -0.876 -25.776  1.00  0.00    -0.031 C 
ATOM     12  C   UNL     1       4.704   0.321 -25.646  1.00  0.00    -0.027 C 
BRANCH  12  13
ATOM     13  C   UNL     1       5.407   1.655 -25.680  1.00  0.00     0.054 C 
BRANCH  13  14
ATOM     14  C   UNL     1       4.617   2.684 -24.920  1.00  0.00    -0.027 C 
ATOM     15  C   UNL     1       4.545   2.666 -23.581  1.00  0.00    -0.031 C 
BRANCH  15  16
ATOM     16  C   UNL     1       3.764   3.714 -22.837  1.00  0.00     0.027 C 
BRANCH  16  17
ATOM     17  C   UNL     1       3.446   3.252 -21.408  1.00  0.00     0.004 C 
BRANCH  17  18
ATOM     18  C   UNL     1       3.305   1.726 -21.297  1.00  0.00     0.000 C 
BRANCH  18  19
ATOM     19  C   UNL     1       3.598   1.208 -19.881  1.00  0.00    -0.003 C 
ATOM     20  C   UNL     1       4.963   1.684 -19.394  1.00  0.00     0.004 C 
ENDBRANCH  18  19
ENDBRANCH  17  18
ENDBRANCH  16  17
ENDBRANCH  15  16
ENDBRANCH  13  14
ENDBRANCH  12  13
ENDBRANCH   1  11
TORSDOF 14
ENDMDL
MODEL 4
REMARK VINA RESULT:    -4.013      2.599      6.721
REMARK INTER + INTRA:          -8.414
REMARK INTER:                  -7.530
REMARK INTRA:                  -0.884
REMARK UNBOUND:                -1.116
REMARK SMILES CCCCCC=CCC=CCCCCCCCC(=O)[O-]
REMARK SMILES IDX 11 1 12 2 13 3 14 4 15 5 16 6 17 7 18 8 19 9 20 10 10 11
REMARK SMILES IDX 9 12 8 13 7 14 6 15 5 16 4 17 3 18 2 19 1 20
REMARK H PARENT
REMARK Flexibility Score: inf
ROOT
ATOM      1  C   UNL     1       5.793   1.400 -25.890  1.00  0.00     0.027 C 
ENDROOT
BRANCH   1   2
ATOM      2  C   UNL     1       5.179   2.468 -24.973  1.00  0.00     0.004 C 
BRANCH   2   3
ATOM      3  C   UNL     1       3.687   2.215 -24.695  1.00  0.00     0.000 C 
BRANCH   3   4
ATOM      4  C   UNL     1       2.946   3.474 -24.211  1.00  0.00     0.000 C 
BRANCH   4   5
ATOM      5  C   UNL     1       3.220   3.867 -22.748  1.00  0.00     0.000 C 
BRANCH   5   6
ATOM      6  C   UNL     1       3.221   2.663 -21.794  1.00  0.00     0.006 C 
BRANCH   6   7
ATOM      7  C   UNL     1       4.070   2.950 -20.551  1.00  0.00     0.053 C 
BRANCH   7   8
ATOM      8  C   UNL     1       4.126   1.749 -19.663  1.00  0.00     0.041 C 
ATOM      9  O   UNL     1       5.072   1.609 -18.844  1.00  0.00    -0.550 OA
ATOM     10  O   UNL     1       3.112   0.801 -19.710  1.00  0.00    -0.550 OA
ENDBRANCH   7   8
ENDBRANCH   6   7
ENDBRANCH   5   6
ENDBRANCH   4   5
ENDBRANCH   3   4
ENDBRANCH   2   3
ENDBRANCH   1   2
BRANCH   1  11
ATOM     11  C   UNL     1       4.934   0.162 -26.003  1.00  0.00    -0.031 C 
ATOM     12  C   UNL     1       5.388  -1.075 -26.276  1.00  0.00    -0.027 C 
BRANCH  12  13
ATOM     13  C   UNL     1       6.837  -1.446 -26.474  1.00  0.00     0.054 C 
BRANCH  13  14
ATOM     14  C   UNL     1       7.136  -2.762 -25.813  1.00  0.00    -0.027 C 
ATOM     15  C   UNL     1       8.123  -2.888 -24.914  1.00  0.00    -0.031 C 
BRANCH  15  16
ATOM     16  C   UNL     1       8.398  -4.210 -24.251  1.00  0.00     0.027 C 
BRANCH  16  17
ATOM     17  C   UNL     1       9.872  -4.323 -23.838  1.00  0.00     0.004 C 
BRANCH  17  18
ATOM     18  C   UNL     1      10.071  -4.218 -22.318  1.00  0.00     0.000 C 
BRANCH  18  19
ATOM     19  C   UNL     1       8.776  -3.853 -21.577  1.00  0.00    -0.003 C 
ATOM     20  C   UNL     1       8.449  -4.886 -20.503  1.00  0.00     0.004 C 
ENDBRANCH  18  19
ENDBRANCH  17  18
ENDBRANCH  16  17
ENDBRANCH  15  16
ENDBRANCH  13  14
ENDBRANCH  12  13
ENDBRANCH   1  11
TORSDOF 14
ENDMDL
MODEL 5
REMARK VINA RESULT:    -3.899      2.095      2.940
REMARK INTER + INTRA:          -8.206
REMARK INTER:                  -7.062
REMARK INTRA:                  -1.144
REMARK UNBOUND:                -1.116
REMARK SMILES CCCCCC=CCC=CCCCCCCCC(=O)[O-]
REMARK SMILES IDX 11 1 12 2 13 3 14 4 15 5 16 6 17 7 18 8 19 9 20 10 10 11
REMARK SMILES IDX 9 12 8 13 7 14 6 15 5 16 4 17 3 18 2 19 1 20
REMARK H PARENT
REMARK Flexibility Score: inf
ROOT
ATOM      1  C   UNL     1       6.213   0.725 -26.249  1.00  0.00     0.027 C 
ENDROOT
BRANCH   1   2
ATOM      2  C   UNL     1       7.197  -0.418 -26.541  1.00  0.00     0.004 C 
BRANCH   2   3
ATOM      3  C   UNL     1       6.587  -1.802 -26.257  1.00  0.00     0.000 C 
BRANCH   3   4
ATOM      4  C   UNL     1       7.360  -2.588 -25.181  1.00  0.00     0.000 C 
BRANCH   4   5
ATOM      5  C   UNL     1       7.434  -4.107 -25.415  1.00  0.00     0.000 C 
BRANCH   5   6
ATOM      6  C   UNL     1       8.875  -4.636 -25.473  1.00  0.00     0.006 C 
BRANCH   6   7
ATOM      7  C   UNL     1       9.770  -3.696 -26.288  1.00  0.00     0.053 C 
BRANCH   7   8
ATOM      8  C   UNL     1      11.059  -3.447 -25.574  1.00  0.00     0.041 C 
ATOM      9  O   UNL     1      12.155  -3.555 -26.186  1.00  0.00    -0.550 OA
ATOM     10  O   UNL     1      11.052  -3.054 -24.242  1.00  0.00    -0.550 OA
ENDBRANCH   7   8
ENDBRANCH   6   7
ENDBRANCH   5   6
ENDBRANCH   4   5
ENDBRANCH   3   4
ENDBRANCH   2   3
ENDBRANCH   1   2
BRANCH   1  11
ATOM     11  C   UNL     1       4.870   0.232 -25.766  1.00  0.00    -0.031 C 
ATOM     12  C   UNL     1       3.799   1.011 -25.524  1.00  0.00    -0.027 C 
BRANCH  12  13
ATOM     13  C   UNL     1       3.743   2.503 -25.735  1.00  0.00     0.054 C 
BRANCH  13  14
ATOM     14  C   UNL     1       3.485   3.209 -24.434  1.00  0.00    -0.027 C 
ATOM     15  C   UNL     1       4.250   2.992 -23.353  1.00  0.00    -0.031 C 
BRANCH  15  16
ATOM     16  C   UNL     1       3.987   3.719 -22.064  1.00  0.00     0.027 C 
BRANCH  16  17
ATOM     17  C   UNL     1       3.281   2.807 -21.051  1.00  0.00     0.004 C 
BRANCH  17  18
ATOM     18  C   UNL     1       4.151   1.616 -20.621  1.00  0.00     0.000 C 
BRANCH  18  19
ATOM     19  C   UNL     1       4.717   1.781 -19.202  1.00  0.00    -0.003 C 
ATOM     20  C   UNL     1       6.226   1.553 -19.183  1.00  0.00     0.004 C 
ENDBRANCH  18  19
ENDBRANCH  17  18
ENDBRANCH  16  17
ENDBRANCH  15  16
ENDBRANCH  13  14
ENDBRANCH  12  13
ENDBRANCH   1  11
TORSDOF 14
ENDMDL
MODEL 6
REMARK VINA RESULT:    -3.868      2.339      6.448
REMARK INTER + INTRA:          -8.150
REMARK INTER:                  -7.105
REMARK INTRA:                  -1.044
REMARK UNBOUND:                -1.116
REMARK SMILES CCCCCC=CCC=CCCCCCCCC(=O)[O-]
REMARK SMILES IDX 11 1 12 2 13 3 14 4 15 5 16 6 17 7 18 8 19 9 20 10 10 11
REMARK SMILES IDX 9 12 8 13 7 14 6 15 5 16 4 17 3 18 2 19 1 20
REMARK H PARENT
REMARK Flexibility Score: inf
ROOT
ATOM      1  C   UNL     1       4.373   1.121 -24.889  1.00  0.00     0.027 C 
ENDROOT
BRANCH   1   2
ATOM      2  C   UNL     1       4.746   2.583 -24.598  1.00  0.00     0.004 C 
BRANCH   2   3
ATOM      3  C   UNL     1       3.903   3.187 -23.462  1.00  0.00     0.000 C 
BRANCH   3   4
ATOM      4  C   UNL     1       3.076   2.133 -22.703  1.00  0.00     0.000 C 
BRANCH   4   5
ATOM      5  C   UNL     1       3.021   2.327 -21.177  1.00  0.00     0.000 C 
BRANCH   5   6
ATOM      6  C   UNL     1       4.411   2.470 -20.540  1.00  0.00     0.006 C 
BRANCH   6   7
ATOM      7  C   UNL     1       4.543   1.571 -19.306  1.00  0.00     0.053 C 
BRANCH   7   8
ATOM      8  C   UNL     1       5.894   1.724 -18.685  1.00  0.00     0.041 C 
ATOM      9  O   UNL     1       6.930   1.423 -19.336  1.00  0.00    -0.550 OA
ATOM     10  O   UNL     1       6.015   2.239 -17.401  1.00  0.00    -0.550 OA
ENDBRANCH   7   8
ENDBRANCH   6   7
ENDBRANCH   5   6
ENDBRANCH   4   5
ENDBRANCH   3   4
ENDBRANCH   2   3
ENDBRANCH   1   2
BRANCH   1  11
ATOM     11  C   UNL     1       4.584   0.741 -26.336  1.00  0.00    -0.031 C 
ATOM     12  C   UNL     1       5.605  -0.001 -26.803  1.00  0.00    -0.027 C 
BRANCH  12  13
ATOM     13  C   UNL     1       6.691  -0.617 -25.955  1.00  0.00     0.054 C 
BRANCH  13  14
ATOM     14  C   UNL     1       6.420  -2.079 -25.737  1.00  0.00    -0.027 C 
ATOM     15  C   UNL     1       7.033  -2.769 -24.764  1.00  0.00    -0.031 C 
BRANCH  15  16
ATOM     16  C   UNL     1       6.737  -4.228 -24.550  1.00  0.00     0.027 C 
BRANCH  16  17
ATOM     17  C   UNL     1       7.280  -4.707 -23.196  1.00  0.00     0.004 C 
BRANCH  17  18
ATOM     18  C   UNL     1       8.657  -4.110 -22.866  1.00  0.00     0.000 C 
BRANCH  18  19
ATOM     19  C   UNL     1       8.738  -3.575 -21.428  1.00  0.00    -0.003 C 
ATOM     20  C   UNL     1       8.511  -4.691 -20.413  1.00  0.00     0.004 C 
ENDBRANCH  18  19
ENDBRANCH  17  18
ENDBRANCH  16  17
ENDBRANCH  15  16
ENDBRANCH  13  14
ENDBRANCH  12  13
ENDBRANCH   1  11
TORSDOF 14
ENDMDL
MODEL 7
REMARK VINA RESULT:    -3.694      3.640      6.657
REMARK INTER + INTRA:          -7.833
REMARK INTER:                  -6.542
REMARK INTRA:                  -1.291
REMARK UNBOUND:                -1.116
REMARK SMILES CCCCCC=CCC=CCCCCCCCC(=O)[O-]
REMARK SMILES IDX 11 1 12 2 13 3 14 4 15 5 16 6 17 7 18 8 19 9 20 10 10 11
REMARK SMILES IDX 9 12 8 13 7 14 6 15 5 16 4 17 3 18 2 19 1 20
REMARK H PARENT
REMARK Flexibility Score: inf
ROOT
ATOM      1  C   UNL     1       7.812  -3.281 -22.715  1.00  0.00     0.027 C 
ENDROOT
BRANCH   1   2
ATOM      2  C   UNL     1       8.482  -4.319 -21.802  1.00  0.00     0.004 C 
BRANCH   2   3
ATOM      3  C   UNL     1       9.732  -4.944 -22.443  1.00  0.00     0.000 C 
BRANCH   3   4
ATOM      4  C   UNL     1      10.425  -4.004 -23.446  1.00  0.00     0.000 C 
BRANCH   4   5
ATOM      5  C   UNL     1      10.546  -4.556 -24.878  1.00  0.00     0.000 C 
BRANCH   5   6
ATOM      6  C   UNL     1      10.955  -3.485 -25.901  1.00  0.00     0.006 C 
BRANCH   6   7
ATOM      7  C   UNL     1      11.892  -4.071 -26.961  1.00  0.00     0.053 C 
BRANCH   7   8
ATOM      8  C   UNL     1      13.042  -3.150 -27.215  1.00  0.00     0.041 C 
ATOM      9  O   UNL     1      12.860  -2.059 -27.819  1.00  0.00    -0.550 OA
ATOM     10  O   UNL     1      14.309  -3.474 -26.749  1.00  0.00    -0.550 OA
ENDBRANCH   7   8
ENDBRANCH   6   7
ENDBRANCH   5   6
ENDBRANCH   4   5
ENDBRANCH   3   4
ENDBRANCH   2   3
ENDBRANCH   1   2
BRANCH   1  11
ATOM     11  C   UNL     1       6.933  -3.910 -23.770  1.00  0.00    -0.031 C 
ATOM     12  C   UNL     1       6.763  -3.440 -25.019  1.00  0.00    -0.027 C 
BRANCH  12  13
ATOM     13  C   UNL     1       7.454  -2.229 -25.594  1.00  0.00     0.054 C 
BRANCH  13  14
ATOM     14  C   UNL     1       6.460  -1.133 -25.858  1.00  0.00    -0.027 C 
ATOM     15  C   UNL     1       6.812  -0.000 -26.483  1.00  0.00    -0.031 C 
BRANCH  15  16
ATOM     16  C   UNL     1       5.800   1.078 -26.753  1.00  0.00     0.027 C 
BRANCH  16  17
ATOM     17  C   UNL     1       5.685   2.037 -25.559  1.00  0.00     0.004 C 
BRANCH  17  18
ATOM     18  C   UNL     1       4.383   1.842 -24.767  1.00  0.00     0.000 C 
BRANCH  18  19
ATOM     19  C   UNL     1       3.774   3.172 -24.298  1.00  0.00    -0.003 C 
ATOM     20  C   UNL     1       3.935   3.347 -22.791  1.00  0.00     0.004 C 
ENDBRANCH  18  19
ENDBRANCH  17  18
ENDBRANCH  16  17
ENDBRANCH  15  16
ENDBRANCH  13  14
ENDBRANCH  12  13
ENDBRANCH   1  11
TORSDOF 14
ENDMDL
MODEL 8
REMARK VINA RESULT:    -3.625     14.576     18.336
REMARK INTER + INTRA:          -7.708
REMARK INTER:                  -6.968
REMARK INTRA:                  -0.740
REMARK UNBOUND:                -1.116
REMARK SMILES CCCCCC=CCC=CCCCCCCCC(=O)[O-]
REMARK SMILES IDX 11 1 12 2 13 3 14 4 15 5 16 6 17 7 18 8 19 9 20 10 10 11
REMARK SMILES IDX 9 12 8 13 7 14 6 15 5 16 4 17 3 18 2 19 1 20
REMARK H PARENT
REMARK Flexibility Score: inf
ROOT
ATOM      1  C   UNL     1       9.934  14.261 -13.897  1.00  0.00     0.027 C 
ENDROOT
BRANCH   1   2
ATOM      2  C   UNL     1      11.178  15.011 -13.399  1.00  0.00     0.004 C 
BRANCH   2   3
ATOM      3  C   UNL     1      12.244  14.061 -12.826  1.00  0.00     0.000 C 
BRANCH   3   4
ATOM      4  C   UNL     1      13.521  14.795 -12.376  1.00  0.00     0.000 C 
BRANCH   4   5
ATOM      5  C   UNL     1      13.634  15.031 -10.859  1.00  0.00     0.000 C 
BRANCH   5   6
ATOM      6  C   UNL     1      13.723  13.725 -10.054  1.00  0.00     0.006 C 
BRANCH   6   7
ATOM      7  C   UNL     1      15.016  13.674  -9.235  1.00  0.00     0.053 C 
BRANCH   7   8
ATOM      8  C   UNL     1      16.026  12.795  -9.901  1.00  0.00     0.041 C 
ATOM      9  O   UNL     1      16.167  11.598  -9.535  1.00  0.00    -0.550 OA
ATOM     10  O   UNL     1      16.786  13.285 -10.956  1.00  0.00    -0.550 OA
ENDBRANCH   7   8
ENDBRANCH   6   7
ENDBRANCH   5   6
ENDBRANCH   4   5
ENDBRANCH   3   4
ENDBRANCH   2   3
ENDBRANCH   1   2
BRANCH   1  11
ATOM     11  C   UNL     1       9.217  14.992 -15.008  1.00  0.00    -0.031 C 
ATOM     12  C   UNL     1       7.881  15.047 -15.165  1.00  0.00    -0.027 C 
BRANCH  12  13
ATOM     13  C   UNL     1       6.870  14.424 -14.234  1.00  0.00     0.054 C 
BRANCH  13  14
ATOM     14  C   UNL     1       5.515  14.385 -14.882  1.00  0.00    -0.027 C 
ATOM     15  C   UNL     1       5.283  14.977 -16.063  1.00  0.00    -0.031 C 
BRANCH  15  16
ATOM     16  C   UNL     1       3.924  14.914 -16.704  1.00  0.00     0.027 C 
BRANCH  16  17
ATOM     17  C   UNL     1       3.730  13.588 -17.453  1.00  0.00     0.004 C 
BRANCH  17  18
ATOM     18  C   UNL     1       3.541  13.784 -18.965  1.00  0.00     0.000 C 
BRANCH  18  19
ATOM     19  C   UNL     1       4.448  12.865 -19.797  1.00  0.00    -0.003 C 
ATOM     20  C   UNL     1       4.152  11.396 -19.510  1.00  0.00     0.004 C 
ENDBRANCH  18  19
ENDBRANCH  17  18
ENDBRANCH  16  17
ENDBRANCH  15  16
ENDBRANCH  13  14
ENDBRANCH  12  13
ENDBRANCH   1  11
TORSDOF 14
ENDMDL
MODEL 9
REMARK VINA RESULT:    -3.485     17.974     21.092
REMARK INTER + INTRA:          -7.453
REMARK INTER:                  -5.894
REMARK INTRA:                  -1.559
REMARK UNBOUND:                -1.116
REMARK SMILES CCCCCC=CCC=CCCCCCCCC(=O)[O-]
REMARK SMILES IDX 11 1 12 2 13 3 14 4 15 5 16 6 17 7 18 8 19 9 20 10 10 11
REMARK SMILES IDX 9 12 8 13 7 14 6 15 5 16 4 17 3 18 2 19 1 20
REMARK H PARENT
REMARK Flexibility Score: inf
ROOT
ATOM      1  C   UNL     1      16.207  13.407 -10.903  1.00  0.00     0.027 C 
ENDROOT
BRANCH   1   2
ATOM      2  C   UNL     1      17.288  14.426 -10.509  1.00  0.00     0.004 C 
BRANCH   2   3
ATOM      3  C   UNL     1      17.524  14.472  -8.990  1.00  0.00     0.000 C 
BRANCH   3   4
ATOM      4  C   UNL     1      18.646  13.524  -8.529  1.00  0.00     0.000 C 
BRANCH   4   5
ATOM      5  C   UNL     1      18.200  12.079  -8.243  1.00  0.00     0.000 C 
BRANCH   5   6
ATOM      6  C   UNL     1      19.036  11.033  -8.998  1.00  0.00     0.006 C 
BRANCH   6   7
ATOM      7  C   UNL     1      19.591  11.615 -10.302  1.00  0.00     0.053 C 
BRANCH   7   8
ATOM      8  C   UNL     1      21.038  11.272 -10.456  1.00  0.00     0.041 C 
ATOM      9  O   UNL     1      21.875  12.167 -10.750  1.00  0.00    -0.550 OA
ATOM     10  O   UNL     1      21.472   9.972 -10.235  1.00  0.00    -0.550 OA
ENDBRANCH   7   8
ENDBRANCH   6   7
ENDBRANCH   5   6
ENDBRANCH   4   5
ENDBRANCH   3   4
ENDBRANCH   2   3
ENDBRANCH   1   2
BRANCH   1  11
ATOM     11  C   UNL     1      14.844  14.037 -11.068  1.00  0.00    -0.031 C 
ATOM     12  C   UNL     1      13.868  14.031 -10.140  1.00  0.00    -0.027 C 
BRANCH  12  13
ATOM     13  C   UNL     1      13.986  13.434  -8.760  1.00  0.00     0.054 C 
BRANCH  13  14
ATOM     14  C   UNL     1      13.348  12.074  -8.721  1.00  0.00    -0.027 C 
ATOM     15  C   UNL     1      14.082  10.957  -8.604  1.00  0.00    -0.031 C 
BRANCH  15  16
ATOM     16  C   UNL     1      13.426   9.605  -8.550  1.00  0.00     0.027 C 
BRANCH  16  17
ATOM     17  C   UNL     1      11.950   9.692  -8.963  1.00  0.00     0.004 C 
BRANCH  17  18
ATOM     18  C   UNL     1      11.264   8.318  -9.001  1.00  0.00     0.000 C 
BRANCH  18  19
ATOM     19  C   UNL     1      11.742   7.389  -7.875  1.00  0.00    -0.003 C 
ATOM     20  C   UNL     1      12.296   6.084  -8.439  1.00  0.00     0.004 C 
ENDBRANCH  18  19
ENDBRANCH  17  18
ENDBRANCH  16  17
ENDBRANCH  15  16
ENDBRANCH  13  14
ENDBRANCH  12  13
ENDBRANCH   1  11
TORSDOF 14
ENDMDL
