MODEL 1
REMARK VINA RESULT:    -4.201      0.000      0.000
REMARK INTER + INTRA:          -6.045
REMARK INTER:                  -5.797
REMARK INTRA:                  -0.248
REMARK UNBOUND:                -0.248
REMARK SMILES CCCCCCCCO
REMARK SMILES IDX 5 1 4 2 3 3 2 4 1 5 6 6 7 7 8 8 9 9
REMARK H PARENT 9 10
REMARK Flexibility Score: inf
ROOT
ATOM      1  C   UNL     1       3.009  20.370  21.857  1.00  0.00     0.000 C 
ENDROOT
BRANCH   1   2
ATOM      2  C   UNL     1       4.034  21.506  22.014  1.00  0.00    -0.000 C 
BRANCH   2   3
ATOM      3  C   UNL     1       5.245  21.341  21.083  1.00  0.00    -0.000 C 
BRANCH   3   4
ATOM      4  C   UNL     1       6.101  22.613  20.991  1.00  0.00    -0.003 C 
ATOM      5  C   UNL     1       5.480  23.625  20.032  1.00  0.00     0.004 C 
ENDBRANCH   3   4
ENDBRANCH   2   3
ENDBRANCH   1   2
BRANCH   1   6
ATOM      6  C   UNL     1       3.369  19.402  20.718  1.00  0.00     0.002 C 
BRANCH   6   7
ATOM      7  C   UNL     1       2.130  18.812  20.027  1.00  0.00     0.028 C 
BRANCH   7   8
ATOM      8  C   UNL     1       0.874  19.618  20.369  1.00  0.00     0.156 C 
BRANCH   8   9
ATOM      9  O   UNL     1      -0.186  19.242  19.532  1.00  0.00    -0.396 OA
ATOM     10  H   UNL     1      -0.925  18.945  20.125  1.00  0.00     0.210 HD
ENDBRANCH   8   9
ENDBRANCH   7   8
ENDBRANCH   6   7
ENDBRANCH   1   6
TORSDOF 7
ENDMDL
MODEL 2
REMARK VINA RESULT:    -4.129      3.711      6.030
REMARK INTER + INTRA:          -5.947
REMARK INTER:                  -5.748
REMARK INTRA:                  -0.199
REMARK UNBOUND:                -0.248
REMARK SMILES CCCCCCCCO
REMARK SMILES IDX 5 1 4 2 3 3 2 4 1 5 6 6 7 7 8 8 9 9
REMARK H PARENT 9 10
REMARK Flexibility Score: inf
ROOT
ATOM      1  C   UNL     1       6.064  22.650  21.147  1.00  0.00     0.000 C 
ENDROOT
BRANCH   1   2
ATOM      2  C   UNL     1       5.205  21.378  21.041  1.00  0.00    -0.000 C 
BRANCH   2   3
ATOM      3  C   UNL     1       4.013  21.387  22.011  1.00  0.00    -0.000 C 
BRANCH   3   4
ATOM      4  C   UNL     1       2.964  20.319  21.671  1.00  0.00    -0.003 C 
ATOM      5  C   UNL     1       3.474  19.372  20.589  1.00  0.00     0.004 C 
ENDBRANCH   3   4
ENDBRANCH   2   3
ENDBRANCH   1   2
BRANCH   1   6
ATOM      6  C   UNL     1       5.773  23.655  20.022  1.00  0.00     0.002 C 
BRANCH   6   7
ATOM      7  C   UNL     1       6.923  24.650  19.803  1.00  0.00     0.028 C 
BRANCH   7   8
ATOM      8  C   UNL     1       7.892  24.639  20.988  1.00  0.00     0.156 C 
BRANCH   8   9
ATOM      9  O   UNL     1       9.163  24.219  20.570  1.00  0.00    -0.396 OA
ATOM     10  H   UNL     1       9.073  23.945  19.620  1.00  0.00     0.210 HD
ENDBRANCH   8   9
ENDBRANCH   7   8
ENDBRANCH   6   7
ENDBRANCH   1   6
TORSDOF 7
ENDMDL
MODEL 3
REMARK VINA RESULT:    -4.047      3.304      5.549
REMARK INTER + INTRA:          -5.833
REMARK INTER:                  -5.627
REMARK INTRA:                  -0.206
REMARK UNBOUND:                -0.248
REMARK SMILES CCCCCCCCO
REMARK SMILES IDX 5 1 4 2 3 3 2 4 1 5 6 6 7 7 8 8 9 9
REMARK H PARENT 9 10
REMARK Flexibility Score: inf
ROOT
ATOM      1  C   UNL     1       5.210  21.427  20.921  1.00  0.00     0.000 C 
ENDROOT
BRANCH   1   2
ATOM      2  C   UNL     1       4.099  21.397  21.985  1.00  0.00    -0.000 C 
BRANCH   2   3
ATOM      3  C   UNL     1       3.078  20.275  21.742  1.00  0.00    -0.000 C 
BRANCH   3   4
ATOM      4  C   UNL     1       3.580  19.222  20.744  1.00  0.00    -0.003 C 
ATOM      5  C   UNL     1       2.474  18.808  19.778  1.00  0.00     0.004 C 
ENDBRANCH   3   4
ENDBRANCH   2   3
ENDBRANCH   1   2
BRANCH   1   6
ATOM      6  C   UNL     1       6.117  22.661  21.048  1.00  0.00     0.002 C 
BRANCH   6   7
ATOM      7  C   UNL     1       5.813  23.731  19.989  1.00  0.00     0.028 C 
BRANCH   7   8
ATOM      8  C   UNL     1       6.951  24.752  19.898  1.00  0.00     0.156 C 
BRANCH   8   9
ATOM      9  O   UNL     1       8.186  24.119  20.096  1.00  0.00    -0.396 OA
ATOM     10  H   UNL     1       8.533  24.440  20.970  1.00  0.00     0.210 HD
ENDBRANCH   8   9
ENDBRANCH   7   8
ENDBRANCH   6   7
ENDBRANCH   1   6
TORSDOF 7
ENDMDL
MODEL 4
REMARK VINA RESULT:    -4.011      3.235      5.574
REMARK INTER + INTRA:          -5.783
REMARK INTER:                  -5.664
REMARK INTRA:                  -0.119
REMARK UNBOUND:                -0.248
REMARK SMILES CCCCCCCCO
REMARK SMILES IDX 5 1 4 2 3 3 2 4 1 5 6 6 7 7 8 8 9 9
REMARK H PARENT 9 10
REMARK Flexibility Score: inf
ROOT
ATOM      1  C   UNL     1       4.600  21.771  21.441  1.00  0.00     0.000 C 
ENDROOT
BRANCH   1   2
ATOM      2  C   UNL     1       4.454  20.322  20.944  1.00  0.00    -0.000 C 
BRANCH   2   3
ATOM      3  C   UNL     1       3.133  19.676  21.387  1.00  0.00    -0.000 C 
BRANCH   3   4
ATOM      4  C   UNL     1       2.315  19.129  20.208  1.00  0.00    -0.003 C 
ATOM      5  C   UNL     1       0.838  19.482  20.352  1.00  0.00     0.004 C 
ENDBRANCH   3   4
ENDBRANCH   2   3
ENDBRANCH   1   2
BRANCH   1   6
ATOM      6  C   UNL     1       5.867  22.455  20.905  1.00  0.00     0.002 C 
BRANCH   6   7
ATOM      7  C   UNL     1       5.555  23.667  20.015  1.00  0.00     0.028 C 
BRANCH   7   8
ATOM      8  C   UNL     1       6.762  24.605  19.922  1.00  0.00     0.156 C 
BRANCH   8   9
ATOM      9  O   UNL     1       7.939  23.912  20.238  1.00  0.00    -0.396 OA
ATOM     10  H   UNL     1       8.494  24.529  20.783  1.00  0.00     0.210 HD
ENDBRANCH   8   9
ENDBRANCH   7   8
ENDBRANCH   6   7
ENDBRANCH   1   6
TORSDOF 7
ENDMDL
MODEL 5
REMARK VINA RESULT:    -3.813      1.697      1.959
REMARK INTER + INTRA:          -5.510
REMARK INTER:                  -5.409
REMARK INTRA:                  -0.101
REMARK UNBOUND:                -0.248
REMARK SMILES CCCCCCCCO
REMARK SMILES IDX 5 1 4 2 3 3 2 4 1 5 6 6 7 7 8 8 9 9
REMARK H PARENT 9 10
REMARK Flexibility Score: inf
ROOT
ATOM      1  C   UNL     1       4.036  19.784  21.456  1.00  0.00     0.000 C 
ENDROOT
BRANCH   1   2
ATOM      2  C   UNL     1       4.150  21.312  21.319  1.00  0.00    -0.000 C 
BRANCH   2   3
ATOM      3  C   UNL     1       5.608  21.797  21.314  1.00  0.00    -0.000 C 
BRANCH   3   4
ATOM      4  C   UNL     1       5.793  23.111  20.541  1.00  0.00    -0.003 C 
ATOM      5  C   UNL     1       7.142  23.750  20.859  1.00  0.00     0.004 C 
ENDBRANCH   3   4
ENDBRANCH   2   3
ENDBRANCH   1   2
BRANCH   1   6
ATOM      6  C   UNL     1       2.616  19.270  21.171  1.00  0.00     0.002 C 
BRANCH   6   7
ATOM      7  C   UNL     1       2.430  18.817  19.715  1.00  0.00     0.028 C 
BRANCH   7   8
ATOM      8  C   UNL     1       2.999  17.413  19.499  1.00  0.00     0.156 C 
BRANCH   8   9
ATOM      9  O   UNL     1       3.047  17.115  18.130  1.00  0.00    -0.396 OA
ATOM     10  H   UNL     1       4.005  17.122  17.871  1.00  0.00     0.210 HD
ENDBRANCH   8   9
ENDBRANCH   7   8
ENDBRANCH   6   7
ENDBRANCH   1   6
TORSDOF 7
ENDMDL
MODEL 6
REMARK VINA RESULT:    -3.770      2.435      4.335
REMARK INTER + INTRA:          -5.451
REMARK INTER:                  -4.996
REMARK INTRA:                  -0.455
REMARK UNBOUND:                -0.248
REMARK SMILES CCCCCCCCO
REMARK SMILES IDX 5 1 4 2 3 3 2 4 1 5 6 6 7 7 8 8 9 9
REMARK H PARENT 9 10
REMARK Flexibility Score: inf
ROOT
ATOM      1  C   UNL     1       4.227  20.244  20.904  1.00  0.00     0.000 C 
ENDROOT
BRANCH   1   2
ATOM      2  C   UNL     1       3.528  19.129  21.700  1.00  0.00    -0.000 C 
BRANCH   2   3
ATOM      3  C   UNL     1       2.688  18.204  20.807  1.00  0.00    -0.000 C 
BRANCH   3   4
ATOM      4  C   UNL     1       1.919  18.967  19.719  1.00  0.00    -0.003 C 
ATOM      5  C   UNL     1       0.645  19.591  20.281  1.00  0.00     0.004 C 
ENDBRANCH   3   4
ENDBRANCH   2   3
ENDBRANCH   1   2
BRANCH   1   6
ATOM      6  C   UNL     1       4.257  21.581  21.661  1.00  0.00     0.002 C 
BRANCH   6   7
ATOM      7  C   UNL     1       3.095  21.726  22.655  1.00  0.00     0.028 C 
BRANCH   7   8
ATOM      8  C   UNL     1       2.036  22.697  22.125  1.00  0.00     0.156 C 
BRANCH   8   9
ATOM      9  O   UNL     1       1.672  23.610  23.125  1.00  0.00    -0.396 OA
ATOM     10  H   UNL     1       0.927  23.193  23.632  1.00  0.00     0.210 HD
ENDBRANCH   8   9
ENDBRANCH   7   8
ENDBRANCH   6   7
ENDBRANCH   1   6
TORSDOF 7
ENDMDL
MODEL 7
REMARK VINA RESULT:    -3.753      6.335      9.126
REMARK INTER + INTRA:          -5.427
REMARK INTER:                  -5.256
REMARK INTRA:                  -0.171
REMARK UNBOUND:                -0.248
REMARK SMILES CCCCCCCCO
REMARK SMILES IDX 5 1 4 2 3 3 2 4 1 5 6 6 7 7 8 8 9 9
REMARK H PARENT 9 10
REMARK Flexibility Score: inf
ROOT
ATOM      1  C   UNL     1       7.645  27.098  19.318  1.00  0.00     0.000 C 
ENDROOT
BRANCH   1   2
ATOM      2  C   UNL     1       7.444  26.331  20.636  1.00  0.00    -0.000 C 
BRANCH   2   3
ATOM      3  C   UNL     1       8.105  24.944  20.620  1.00  0.00    -0.000 C 
BRANCH   3   4
ATOM      4  C   UNL     1       7.109  23.809  20.896  1.00  0.00    -0.003 C 
ATOM      5  C   UNL     1       5.837  23.979  20.070  1.00  0.00     0.004 C 
ENDBRANCH   3   4
ENDBRANCH   2   3
ENDBRANCH   1   2
BRANCH   1   6
ATOM      6  C   UNL     1       7.325  28.595  19.450  1.00  0.00     0.002 C 
BRANCH   6   7
ATOM      7  C   UNL     1       7.393  29.337  18.107  1.00  0.00     0.028 C 
BRANCH   7   8
ATOM      8  C   UNL     1       8.815  29.823  17.818  1.00  0.00     0.156 C 
BRANCH   8   9
ATOM      9  O   UNL     1       9.308  29.215  16.655  1.00  0.00    -0.396 OA
ATOM     10  H   UNL     1       9.100  29.829  15.903  1.00  0.00     0.210 HD
ENDBRANCH   8   9
ENDBRANCH   7   8
ENDBRANCH   6   7
ENDBRANCH   1   6
TORSDOF 7
ENDMDL
MODEL 8
REMARK VINA RESULT:    -3.703      6.839      8.830
REMARK INTER + INTRA:          -5.358
REMARK INTER:                  -5.184
REMARK INTRA:                  -0.174
REMARK UNBOUND:                -0.248
REMARK SMILES CCCCCCCCO
REMARK SMILES IDX 5 1 4 2 3 3 2 4 1 5 6 6 7 7 8 8 9 9
REMARK H PARENT 9 10
REMARK Flexibility Score: inf
ROOT
ATOM      1  C   UNL     1       7.275  28.013  20.595  1.00  0.00     0.000 C 
ENDROOT
BRANCH   1   2
ATOM      2  C   UNL     1       7.231  29.256  19.691  1.00  0.00    -0.000 C 
BRANCH   2   3
ATOM      3  C   UNL     1       7.590  28.938  18.231  1.00  0.00    -0.000 C 
BRANCH   3   4
ATOM      4  C   UNL     1       7.242  30.086  17.272  1.00  0.00    -0.003 C 
ATOM      5  C   UNL     1       8.044  29.981  15.977  1.00  0.00     0.004 C 
ENDBRANCH   3   4
ENDBRANCH   2   3
ENDBRANCH   1   2
BRANCH   1   6
ATOM      6  C   UNL     1       7.670  26.740  19.830  1.00  0.00     0.002 C 
BRANCH   6   7
ATOM      7  C   UNL     1       7.247  25.455  20.559  1.00  0.00     0.028 C 
BRANCH   7   8
ATOM      8  C   UNL     1       8.402  24.889  21.389  1.00  0.00     0.156 C 
BRANCH   8   9
ATOM      9  O   UNL     1       9.216  24.070  20.592  1.00  0.00    -0.396 OA
ATOM     10  H   UNL     1       8.614  23.417  20.148  1.00  0.00     0.210 HD
ENDBRANCH   8   9
ENDBRANCH   7   8
ENDBRANCH   6   7
ENDBRANCH   1   6
TORSDOF 7
ENDMDL
MODEL 9
REMARK VINA RESULT:    -3.644      4.186      6.488
REMARK INTER + INTRA:          -5.277
REMARK INTER:                  -5.014
REMARK INTRA:                  -0.263
REMARK UNBOUND:                -0.248
REMARK SMILES CCCCCCCCO
REMARK SMILES IDX 5 1 4 2 3 3 2 4 1 5 6 6 7 7 8 8 9 9
REMARK H PARENT 9 10
REMARK Flexibility Score: inf
ROOT
ATOM      1  C   UNL     1       6.171  23.950  20.057  1.00  0.00     0.000 C 
ENDROOT
BRANCH   1   2
ATOM      2  C   UNL     1       5.070  22.973  20.500  1.00  0.00    -0.000 C 
BRANCH   2   3
ATOM      3  C   UNL     1       5.627  21.762  21.265  1.00  0.00    -0.000 C 
BRANCH   3   4
ATOM      4  C   UNL     1       4.522  20.878  21.862  1.00  0.00    -0.003 C 
ATOM      5  C   UNL     1       3.234  21.670  22.066  1.00  0.00     0.004 C 
ENDBRANCH   3   4
ENDBRANCH   2   3
ENDBRANCH   1   2
BRANCH   1   6
ATOM      6  C   UNL     1       7.373  23.961  21.015  1.00  0.00     0.002 C 
BRANCH   6   7
ATOM      7  C   UNL     1       8.214  25.241  20.898  1.00  0.00     0.028 C 
BRANCH   7   8
ATOM      8  C   UNL     1       7.651  26.172  19.821  1.00  0.00     0.156 C 
BRANCH   8   9
ATOM      9  O   UNL     1       7.252  27.389  20.392  1.00  0.00    -0.396 OA
ATOM     10  H   UNL     1       7.895  27.583  21.124  1.00  0.00     0.210 HD
ENDBRANCH   8   9
ENDBRANCH   7   8
ENDBRANCH   6   7
ENDBRANCH   1   6
TORSDOF 7
ENDMDL
