MODEL 1
REMARK VINA RESULT:    -2.993      0.000      0.000
REMARK INTER + INTRA:          -4.336
REMARK INTER:                  -4.043
REMARK INTRA:                  -0.293
REMARK UNBOUND:                -0.293
REMARK SMILES CCCCCCCC(=O)[O-]
REMARK SMILES IDX 5 1 6 2 7 3 8 4 9 5 10 6 4 7 3 8 2 9 1 10
REMARK H PARENT
REMARK Flexibility Score: inf
ROOT
ATOM      1  C   UNL     1      53.449  18.831  86.572  1.00  0.00     0.000 C 
ENDROOT
BRANCH   1   2
ATOM      2  C   UNL     1      52.502  18.728  85.364  1.00  0.00     0.006 C 
BRANCH   2   3
ATOM      3  C   UNL     1      51.353  19.751  85.382  1.00  0.00     0.053 C 
BRANCH   3   4
ATOM      4  C   UNL     1      50.041  19.143  85.778  1.00  0.00     0.041 C 
ATOM      5  O   UNL     1      49.358  18.502  84.936  1.00  0.00    -0.550 OA
ATOM      6  O   UNL     1      49.589  19.257  87.086  1.00  0.00    -0.550 OA
ENDBRANCH   3   4
ENDBRANCH   2   3
ENDBRANCH   1   2
BRANCH   1   7
ATOM      7  C   UNL     1      54.927  18.979  86.170  1.00  0.00     0.000 C 
BRANCH   7   8
ATOM      8  C   UNL     1      55.167  18.676  84.683  1.00  0.00    -0.000 C 
BRANCH   8   9
ATOM      9  C   UNL     1      55.853  17.320  84.462  1.00  0.00    -0.003 C 
ATOM     10  C   UNL     1      56.125  16.618  85.790  1.00  0.00     0.004 C 
ENDBRANCH   8   9
ENDBRANCH   7   8
ENDBRANCH   1   7
TORSDOF 6
ENDMDL
MODEL 2
REMARK VINA RESULT:    -2.978      0.779      1.515
REMARK INTER + INTRA:          -4.316
REMARK INTER:                  -3.990
REMARK INTRA:                  -0.325
REMARK UNBOUND:                -0.293
REMARK SMILES CCCCCCCC(=O)[O-]
REMARK SMILES IDX 5 1 6 2 7 3 8 4 9 5 10 6 4 7 3 8 2 9 1 10
REMARK H PARENT
REMARK Flexibility Score: inf
ROOT
ATOM      1  C   UNL     1      53.681  18.976  84.621  1.00  0.00     0.000 C 
ENDROOT
BRANCH   1   2
ATOM      2  C   UNL     1      52.661  18.479  85.660  1.00  0.00     0.006 C 
BRANCH   2   3
ATOM      3  C   UNL     1      51.752  19.587  86.221  1.00  0.00     0.053 C 
BRANCH   3   4
ATOM      4  C   UNL     1      50.303  19.202  86.223  1.00  0.00     0.041 C 
ATOM      5  O   UNL     1      49.520  19.677  87.088  1.00  0.00    -0.550 OA
ATOM      6  O   UNL     1      49.811  18.343  85.249  1.00  0.00    -0.550 OA
ENDBRANCH   3   4
ENDBRANCH   2   3
ENDBRANCH   1   2
BRANCH   1   7
ATOM      7  C   UNL     1      55.140  18.779  85.067  1.00  0.00     0.000 C 
BRANCH   7   8
ATOM      8  C   UNL     1      55.737  17.454  84.567  1.00  0.00    -0.000 C 
BRANCH   8   9
ATOM      9  C   UNL     1      56.124  16.511  85.716  1.00  0.00    -0.003 C 
ATOM     10  C   UNL     1      55.918  17.182  87.071  1.00  0.00     0.004 C 
ENDBRANCH   8   9
ENDBRANCH   7   8
ENDBRANCH   1   7
TORSDOF 6
ENDMDL
MODEL 3
REMARK VINA RESULT:    -2.960     12.295     14.946
REMARK INTER + INTRA:          -4.292
REMARK INTER:                  -3.813
REMARK INTRA:                  -0.479
REMARK UNBOUND:                -0.293
REMARK SMILES CCCCCCCC(=O)[O-]
REMARK SMILES IDX 5 1 6 2 7 3 8 4 9 5 10 6 4 7 3 8 2 9 1 10
REMARK H PARENT
REMARK Flexibility Score: inf
ROOT
ATOM      1  C   UNL     1      39.504  21.806  79.035  1.00  0.00     0.000 C 
ENDROOT
BRANCH   1   2
ATOM      2  C   UNL     1      40.384  20.698  78.430  1.00  0.00     0.006 C 
BRANCH   2   3
ATOM      3  C   UNL     1      41.348  20.046  79.437  1.00  0.00     0.053 C 
BRANCH   3   4
ATOM      4  C   UNL     1      42.742  20.588  79.339  1.00  0.00     0.041 C 
ATOM      5  O   UNL     1      43.570  20.072  78.543  1.00  0.00    -0.550 OA
ATOM      6  O   UNL     1      43.117  21.684  80.106  1.00  0.00    -0.550 OA
ENDBRANCH   3   4
ENDBRANCH   2   3
ENDBRANCH   1   2
BRANCH   1   7
ATOM      7  C   UNL     1      38.885  21.413  80.387  1.00  0.00     0.000 C 
BRANCH   7   8
ATOM      8  C   UNL     1      37.470  20.831  80.242  1.00  0.00    -0.000 C 
BRANCH   8   9
ATOM      9  C   UNL     1      37.314  19.479  80.954  1.00  0.00    -0.003 C 
ATOM     10  C   UNL     1      37.733  18.327  80.045  1.00  0.00     0.004 C 
ENDBRANCH   8   9
ENDBRANCH   7   8
ENDBRANCH   1   7
TORSDOF 6
ENDMDL
MODEL 4
REMARK VINA RESULT:    -2.947     11.055     13.112
REMARK INTER + INTRA:          -4.273
REMARK INTER:                  -4.003
REMARK INTRA:                  -0.270
REMARK UNBOUND:                -0.293
REMARK SMILES CCCCCCCC(=O)[O-]
REMARK SMILES IDX 5 1 6 2 7 3 8 4 9 5 10 6 4 7 3 8 2 9 1 10
REMARK H PARENT
REMARK Flexibility Score: inf
ROOT
ATOM      1  C   UNL     1      44.149  20.832  77.424  1.00  0.00     0.000 C 
ENDROOT
BRANCH   1   2
ATOM      2  C   UNL     1      44.771  19.642  78.177  1.00  0.00     0.006 C 
BRANCH   2   3
ATOM      3  C   UNL     1      46.103  19.155  77.581  1.00  0.00     0.053 C 
BRANCH   3   4
ATOM      4  C   UNL     1      45.915  18.140  76.493  1.00  0.00     0.041 C 
ATOM      5  O   UNL     1      46.035  18.475  75.285  1.00  0.00    -0.550 OA
ATOM      6  O   UNL     1      45.638  16.818  76.817  1.00  0.00    -0.550 OA
ENDBRANCH   3   4
ENDBRANCH   2   3
ENDBRANCH   1   2
BRANCH   1   7
ATOM      7  C   UNL     1      42.798  21.277  78.011  1.00  0.00     0.000 C 
BRANCH   7   8
ATOM      8  C   UNL     1      42.348  20.400  79.189  1.00  0.00    -0.000 C 
BRANCH   8   9
ATOM      9  C   UNL     1      40.833  20.150  79.193  1.00  0.00    -0.003 C 
ATOM     10  C   UNL     1      40.073  21.373  78.687  1.00  0.00     0.004 C 
ENDBRANCH   8   9
ENDBRANCH   7   8
ENDBRANCH   1   7
TORSDOF 6
ENDMDL
MODEL 5
REMARK VINA RESULT:    -2.904     13.332     14.592
REMARK INTER + INTRA:          -4.215
REMARK INTER:                  -3.835
REMARK INTRA:                  -0.380
REMARK UNBOUND:                -0.293
REMARK SMILES CCCCCCCC(=O)[O-]
REMARK SMILES IDX 5 1 6 2 7 3 8 4 9 5 10 6 4 7 3 8 2 9 1 10
REMARK H PARENT
REMARK Flexibility Score: inf
ROOT
ATOM      1  C   UNL     1      41.304  20.315  80.086  1.00  0.00     0.000 C 
ENDROOT
BRANCH   1   2
ATOM      2  C   UNL     1      39.985  19.625  79.697  1.00  0.00     0.006 C 
BRANCH   2   3
ATOM      3  C   UNL     1      38.727  20.350  80.207  1.00  0.00     0.053 C 
BRANCH   3   4
ATOM      4  C   UNL     1      37.735  19.417  80.836  1.00  0.00     0.041 C 
ATOM      5  O   UNL     1      37.292  18.431  80.190  1.00  0.00    -0.550 OA
ATOM      6  O   UNL     1      37.325  19.621  82.147  1.00  0.00    -0.550 OA
ENDBRANCH   3   4
ENDBRANCH   2   3
ENDBRANCH   1   2
BRANCH   1   7
ATOM      7  C   UNL     1      42.333  20.338  78.943  1.00  0.00     0.000 C 
BRANCH   7   8
ATOM      8  C   UNL     1      42.597  21.756  78.414  1.00  0.00    -0.000 C 
BRANCH   8   9
ATOM      9  C   UNL     1      41.350  22.390  77.778  1.00  0.00    -0.003 C 
ATOM     10  C   UNL     1      40.885  21.591  76.565  1.00  0.00     0.004 C 
ENDBRANCH   8   9
ENDBRANCH   7   8
ENDBRANCH   1   7
TORSDOF 6
ENDMDL
MODEL 6
REMARK VINA RESULT:    -2.873      3.102      5.345
REMARK INTER + INTRA:          -4.173
REMARK INTER:                  -3.970
REMARK INTRA:                  -0.203
REMARK UNBOUND:                -0.293
REMARK SMILES CCCCCCCC(=O)[O-]
REMARK SMILES IDX 5 1 6 2 7 3 8 4 9 5 10 6 4 7 3 8 2 9 1 10
REMARK H PARENT
REMARK Flexibility Score: inf
ROOT
ATOM      1  C   UNL     1      53.323  19.313  84.537  1.00  0.00     0.000 C 
ENDROOT
BRANCH   1   2
ATOM      2  C   UNL     1      54.770  19.141  85.034  1.00  0.00     0.006 C 
BRANCH   2   3
ATOM      3  C   UNL     1      55.319  17.713  84.874  1.00  0.00     0.053 C 
BRANCH   3   4
ATOM      4  C   UNL     1      55.591  17.046  86.190  1.00  0.00     0.041 C 
ATOM      5  O   UNL     1      56.113  15.901  86.225  1.00  0.00    -0.550 OA
ATOM      6  O   UNL     1      55.296  17.704  87.376  1.00  0.00    -0.550 OA
ENDBRANCH   3   4
ENDBRANCH   2   3
ENDBRANCH   1   2
BRANCH   1   7
ATOM      7  C   UNL     1      52.305  18.502  85.357  1.00  0.00     0.000 C 
BRANCH   7   8
ATOM      8  C   UNL     1      51.070  19.328  85.748  1.00  0.00    -0.000 C 
BRANCH   8   9
ATOM      9  C   UNL     1      49.753  18.637  85.366  1.00  0.00    -0.003 C 
ATOM     10  C   UNL     1      48.667  19.660  85.048  1.00  0.00     0.004 C 
ENDBRANCH   8   9
ENDBRANCH   7   8
ENDBRANCH   1   7
TORSDOF 6
ENDMDL
MODEL 7
REMARK VINA RESULT:    -2.851     12.492     14.579
REMARK INTER + INTRA:          -4.143
REMARK INTER:                  -3.705
REMARK INTRA:                  -0.438
REMARK UNBOUND:                -0.293
REMARK SMILES CCCCCCCC(=O)[O-]
REMARK SMILES IDX 5 1 6 2 7 3 8 4 9 5 10 6 4 7 3 8 2 9 1 10
REMARK H PARENT
REMARK Flexibility Score: inf
ROOT
ATOM      1  C   UNL     1      39.637  22.161  78.727  1.00  0.00     0.000 C 
ENDROOT
BRANCH   1   2
ATOM      2  C   UNL     1      39.138  21.795  80.136  1.00  0.00     0.006 C 
BRANCH   2   3
ATOM      3  C   UNL     1      37.758  21.116  80.153  1.00  0.00     0.053 C 
BRANCH   3   4
ATOM      4  C   UNL     1      37.785  19.763  80.798  1.00  0.00     0.041 C 
ATOM      5  O   UNL     1      38.208  18.763  80.160  1.00  0.00    -0.550 OA
ATOM      6  O   UNL     1      37.373  19.613  82.116  1.00  0.00    -0.550 OA
ENDBRANCH   3   4
ENDBRANCH   2   3
ENDBRANCH   1   2
BRANCH   1   7
ATOM      7  C   UNL     1      40.517  21.068  78.096  1.00  0.00     0.000 C 
BRANCH   7   8
ATOM      8  C   UNL     1      41.306  20.268  79.143  1.00  0.00    -0.000 C 
BRANCH   8   9
ATOM      9  C   UNL     1      42.825  20.366  78.938  1.00  0.00    -0.003 C 
ATOM     10  C   UNL     1      43.402  21.572  79.673  1.00  0.00     0.004 C 
ENDBRANCH   8   9
ENDBRANCH   7   8
ENDBRANCH   1   7
TORSDOF 6
ENDMDL
MODEL 8
REMARK VINA RESULT:    -2.844     13.939     15.048
REMARK INTER + INTRA:          -4.134
REMARK INTER:                  -3.919
REMARK INTRA:                  -0.215
REMARK UNBOUND:                -0.293
REMARK SMILES CCCCCCCC(=O)[O-]
REMARK SMILES IDX 5 1 6 2 7 3 8 4 9 5 10 6 4 7 3 8 2 9 1 10
REMARK H PARENT
REMARK Flexibility Score: inf
ROOT
ATOM      1  C   UNL     1      47.803  30.542  90.612  1.00  0.00     0.000 C 
ENDROOT
BRANCH   1   2
ATOM      2  C   UNL     1      46.753  31.662  90.511  1.00  0.00     0.006 C 
BRANCH   2   3
ATOM      3  C   UNL     1      45.300  31.167  90.621  1.00  0.00     0.053 C 
BRANCH   3   4
ATOM      4  C   UNL     1      44.810  31.117  92.037  1.00  0.00     0.041 C 
ATOM      5  O   UNL     1      44.467  32.175  92.628  1.00  0.00    -0.550 OA
ATOM      6  O   UNL     1      44.704  29.897  92.693  1.00  0.00    -0.550 OA
ENDBRANCH   3   4
ENDBRANCH   2   3
ENDBRANCH   1   2
BRANCH   1   7
ATOM      7  C   UNL     1      49.214  31.001  90.205  1.00  0.00     0.000 C 
BRANCH   7   8
ATOM      8  C   UNL     1      50.287  30.588  91.225  1.00  0.00    -0.000 C 
BRANCH   8   9
ATOM      9  C   UNL     1      51.235  31.742  91.582  1.00  0.00    -0.003 C 
ATOM     10  C   UNL     1      50.839  32.389  92.906  1.00  0.00     0.004 C 
ENDBRANCH   8   9
ENDBRANCH   7   8
ENDBRANCH   1   7
TORSDOF 6
ENDMDL
MODEL 9
REMARK VINA RESULT:    -2.840      9.547     10.968
REMARK INTER + INTRA:          -4.129
REMARK INTER:                  -3.732
REMARK INTRA:                  -0.396
REMARK UNBOUND:                -0.293
REMARK SMILES CCCCCCCC(=O)[O-]
REMARK SMILES IDX 5 1 6 2 7 3 8 4 9 5 10 6 4 7 3 8 2 9 1 10
REMARK H PARENT
REMARK Flexibility Score: inf
ROOT
ATOM      1  C   UNL     1      48.266  20.963  74.939  1.00  0.00     0.000 C 
ENDROOT
BRANCH   1   2
ATOM      2  C   UNL     1      46.915  20.569  75.563  1.00  0.00     0.006 C 
BRANCH   2   3
ATOM      3  C   UNL     1      46.388  19.201  75.096  1.00  0.00     0.053 C 
BRANCH   3   4
ATOM      4  C   UNL     1      46.000  18.309  76.237  1.00  0.00     0.041 C 
ATOM      5  O   UNL     1      45.542  18.803  77.301  1.00  0.00    -0.550 OA
ATOM      6  O   UNL     1      46.116  16.931  76.112  1.00  0.00    -0.550 OA
ENDBRANCH   3   4
ENDBRANCH   2   3
ENDBRANCH   1   2
BRANCH   1   7
ATOM      7  C   UNL     1      49.219  21.638  75.940  1.00  0.00     0.000 C 
BRANCH   7   8
ATOM      8  C   UNL     1      48.682  21.607  77.379  1.00  0.00    -0.000 C 
BRANCH   8   9
ATOM      9  C   UNL     1      49.344  20.515  78.232  1.00  0.00    -0.003 C 
ATOM     10  C   UNL     1      48.310  19.774  79.076  1.00  0.00     0.004 C 
ENDBRANCH   8   9
ENDBRANCH   7   8
ENDBRANCH   1   7
TORSDOF 6
ENDMDL
