MODEL 1
REMARK VINA RESULT:    -4.926      0.000      0.000
REMARK INTER + INTRA:          -7.356
REMARK INTER:                  -7.518
REMARK INTRA:                   0.162
REMARK UNBOUND:                 0.162
REMARK SMILES CC1=CCC[C@H](C)C(=O)C[C@H](C(C)C)C(=O)C1
REMARK SMILES IDX 8 1 9 2 6 3 7 4 5 5 4 6 3 7 2 8 1 9 10 11 11 12 15 13 16 14
REMARK SMILES IDX 17 15 12 17 13 18 14 19
REMARK H PARENT
REMARK Flexibility Score: 70.00
ROOT
ATOM      1  C   UNL     1      -4.728 -13.653  28.120  1.00  0.00     0.136 C 
ATOM      2  O   UNL     1      -5.677 -14.364  27.823  1.00  0.00    -0.299 OA
ENDROOT
BRANCH   1   3
ATOM      3  C   UNL     1      -3.459 -13.741  27.288  1.00  0.00     0.053 C 
ATOM      4  C   UNL     1      -3.142 -12.383  26.650  1.00  0.00     0.016 C 
BRANCH   3   5
ATOM      5  C   UNL     1      -2.259 -14.260  28.103  1.00  0.00     0.015 C 
BRANCH   5   6
ATOM      6  C   UNL     1      -1.084 -13.266  28.088  1.00  0.00     0.028 C 
BRANCH   6   7
ATOM      7  C   UNL     1      -0.390 -13.144  29.420  1.00  0.00    -0.028 C 
ATOM      8  C   UNL     1      -0.757 -12.328  30.441  1.00  0.00    -0.070 CG0
ATOM      9  C   UNL     1       0.004 -12.463  31.738  1.00  0.00     0.039 C 
ATOM     10  G   UNL     1      -1.824 -11.241  30.338  1.00  0.00     0.000 G0
ENDBRANCH   6   7
ENDBRANCH   5   6
ENDBRANCH   3   5
ENDBRANCH   1   3
BRANCH   1  11
ATOM     11  C   UNL     1      -4.876 -12.678  29.266  1.00  0.00     0.087 C 
BRANCH  11  12
ATOM     12  C   UNL     1      -3.858 -12.930  30.415  1.00  0.00     0.066 C 
BRANCH  12  13
ATOM     13  C   UNL     1      -3.193 -11.634  30.865  1.00  0.00     0.140 C 
ATOM     14  O   UNL     1      -3.832 -10.846  31.547  1.00  0.00    -0.299 OA
BRANCH  13  15
ATOM     15  C   UNL     1      -1.828 -11.232  30.352  1.00  0.00     0.106 CG0
ATOM     16  G   UNL     1      -0.763 -12.321  30.431  1.00  0.00     0.000 G0
ENDBRANCH  13  15
ENDBRANCH  12  13
BRANCH  12  17
ATOM     17  C   UNL     1      -4.502 -13.667  31.635  1.00  0.00    -0.006 C 
ATOM     18  C   UNL     1      -3.422 -14.212  32.589  1.00  0.00     0.008 C 
ATOM     19  C   UNL     1      -5.414 -14.831  31.206  1.00  0.00     0.008 C 
ENDBRANCH  12  17
ENDBRANCH  11  12
ENDBRANCH   1  11
TORSDOF 1
ENDMDL
MODEL 2
REMARK VINA RESULT:    -4.888      1.815      3.817
REMARK INTER + INTRA:          -7.298
REMARK INTER:                  -7.609
REMARK INTRA:                   0.311
REMARK UNBOUND:                 0.162
REMARK SMILES CC1=CCC[C@H](C)C(=O)C[C@H](C(C)C)C(=O)C1
REMARK SMILES IDX 8 1 9 2 6 3 7 4 5 5 4 6 3 7 2 8 1 9 10 11 11 12 15 13 16 14
REMARK SMILES IDX 17 15 12 17 13 18 14 19
REMARK H PARENT
REMARK Flexibility Score: 70.00
ROOT
ATOM      1  C   UNL     1      -3.126 -11.457  28.212  1.00  0.00     0.136 C 
ATOM      2  O   UNL     1      -3.131 -10.256  28.437  1.00  0.00    -0.299 OA
ENDROOT
BRANCH   1   3
ATOM      3  C   UNL     1      -4.294 -12.064  27.452  1.00  0.00     0.053 C 
ATOM      4  C   UNL     1      -3.788 -13.049  26.391  1.00  0.00     0.016 C 
BRANCH   3   5
ATOM      5  C   UNL     1      -5.314 -12.739  28.388  1.00  0.00     0.015 C 
BRANCH   5   6
ATOM      6  C   UNL     1      -4.859 -14.148  28.810  1.00  0.00     0.028 C 
BRANCH   6   7
ATOM      7  C   UNL     1      -5.363 -14.553  30.171  1.00  0.00    -0.028 C 
ATOM      8  C   UNL     1      -4.714 -14.372  31.351  1.00  0.00    -0.070 CG0
ATOM      9  C   UNL     1      -5.462 -14.735  32.611  1.00  0.00     0.039 C 
ATOM     10  G   UNL     1      -3.267 -13.906  31.478  1.00  0.00     0.000 G0
ENDBRANCH   6   7
ENDBRANCH   5   6
ENDBRANCH   3   5
ENDBRANCH   1   3
BRANCH   1  11
ATOM     11  C   UNL     1      -1.934 -12.277  28.650  1.00  0.00     0.087 C 
BRANCH  11  12
ATOM     12  C   UNL     1      -1.682 -12.214  30.184  1.00  0.00     0.066 C 
BRANCH  12  13
ATOM     13  C   UNL     1      -2.955 -12.501  30.971  1.00  0.00     0.140 C 
ATOM     14  O   UNL     1      -3.674 -11.568  31.296  1.00  0.00    -0.299 OA
BRANCH  13  15
ATOM     15  C   UNL     1      -3.260 -13.887  31.495  1.00  0.00     0.106 CG0
ATOM     16  G   UNL     1      -4.710 -14.333  31.330  1.00  0.00     0.000 G0
ENDBRANCH  13  15
ENDBRANCH  12  13
BRANCH  12  17
ATOM     17  C   UNL     1      -0.529 -13.166  30.641  1.00  0.00    -0.006 C 
ATOM     18  C   UNL     1       0.335 -12.510  31.734  1.00  0.00     0.008 C 
ATOM     19  C   UNL     1       0.386 -13.588  29.476  1.00  0.00     0.008 C 
ENDBRANCH  12  17
ENDBRANCH  11  12
ENDBRANCH   1  11
TORSDOF 1
ENDMDL
MODEL 3
REMARK VINA RESULT:    -4.885      1.978      4.178
REMARK INTER + INTRA:          -7.294
REMARK INTER:                  -7.397
REMARK INTRA:                   0.103
REMARK UNBOUND:                 0.162
REMARK SMILES CC1=CCC[C@H](C)C(=O)C[C@H](C(C)C)C(=O)C1
REMARK SMILES IDX 8 1 9 2 6 3 7 4 5 5 4 6 3 7 2 8 1 9 10 11 11 12 15 13 16 14
REMARK SMILES IDX 17 15 12 17 13 18 14 19
REMARK H PARENT
REMARK Flexibility Score: 70.00
ROOT
ATOM      1  C   UNL     1      -1.473 -13.332  29.282  1.00  0.00     0.136 C 
ATOM      2  O   UNL     1      -1.466 -14.414  28.715  1.00  0.00    -0.299 OA
ENDROOT
BRANCH   1   3
ATOM      3  C   UNL     1      -0.890 -13.236  30.683  1.00  0.00     0.053 C 
ATOM      4  C   UNL     1      -0.367 -11.819  30.950  1.00  0.00     0.016 C 
BRANCH   3   5
ATOM      5  C   UNL     1      -1.898 -13.664  31.766  1.00  0.00     0.015 C 
BRANCH   5   6
ATOM      6  C   UNL     1      -3.348 -13.339  31.360  1.00  0.00     0.028 C 
BRANCH   6   7
ATOM      7  C   UNL     1      -3.940 -12.191  32.136  1.00  0.00    -0.028 C 
ATOM      8  C   UNL     1      -4.111 -10.922  31.682  1.00  0.00    -0.070 CG0
ATOM      9  C   UNL     1      -4.848  -9.962  32.584  1.00  0.00     0.039 C 
ATOM     10  G   UNL     1      -3.544 -10.391  30.369  1.00  0.00     0.000 G0
ENDBRANCH   6   7
ENDBRANCH   5   6
ENDBRANCH   3   5
ENDBRANCH   1   3
BRANCH   1  11
ATOM     11  C   UNL     1      -2.007 -12.124  28.546  1.00  0.00     0.087 C 
BRANCH  11  12
ATOM     12  C   UNL     1      -3.555 -12.140  28.392  1.00  0.00     0.066 C 
BRANCH  12  13
ATOM     13  C   UNL     1      -4.201 -10.974  29.131  1.00  0.00     0.140 C 
ATOM     14  O   UNL     1      -5.177 -10.427  28.637  1.00  0.00    -0.299 OA
BRANCH  13  15
ATOM     15  C   UNL     1      -3.566 -10.378  30.368  1.00  0.00     0.106 CG0
ATOM     16  G   UNL     1      -4.100 -10.921  31.691  1.00  0.00     0.000 G0
ENDBRANCH  13  15
ENDBRANCH  12  13
BRANCH  12  17
ATOM     17  C   UNL     1      -4.008 -12.159  26.896  1.00  0.00    -0.006 C 
ATOM     18  C   UNL     1      -4.142 -13.601  26.372  1.00  0.00     0.008 C 
ATOM     19  C   UNL     1      -3.042 -11.388  25.977  1.00  0.00     0.008 C 
ENDBRANCH  12  17
ENDBRANCH  11  12
ENDBRANCH   1  11
TORSDOF 1
ENDMDL
MODEL 4
REMARK VINA RESULT:    -4.770      2.091      3.773
REMARK INTER + INTRA:          -7.118
REMARK INTER:                  -7.320
REMARK INTRA:                   0.202
REMARK UNBOUND:                 0.162
REMARK SMILES CC1=CCC[C@H](C)C(=O)C[C@H](C(C)C)C(=O)C1
REMARK SMILES IDX 8 1 9 2 6 3 7 4 5 5 4 6 3 7 2 8 1 9 10 11 11 12 15 13 16 14
REMARK SMILES IDX 17 15 12 17 13 18 14 19
REMARK H PARENT
REMARK Flexibility Score: 70.00
ROOT
ATOM      1  C   UNL     1      -2.162 -13.631  30.355  1.00  0.00     0.136 C 
ATOM      2  O   UNL     1      -2.728 -13.727  31.433  1.00  0.00    -0.299 OA
ENDROOT
BRANCH   1   3
ATOM      3  C   UNL     1      -0.680 -13.293  30.333  1.00  0.00     0.053 C 
ATOM      4  C   UNL     1      -0.162 -13.250  28.891  1.00  0.00     0.016 C 
BRANCH   3   5
ATOM      5  C   UNL     1      -0.370 -11.975  31.069  1.00  0.00     0.015 C 
BRANCH   5   6
ATOM      6  C   UNL     1      -1.093 -10.777  30.427  1.00  0.00     0.028 C 
BRANCH   6   7
ATOM      7  C   UNL     1      -2.339 -10.366  31.170  1.00  0.00    -0.028 C 
ATOM      8  C   UNL     1      -3.576 -10.213  30.631  1.00  0.00    -0.070 CG0
ATOM      9  C   UNL     1      -4.711  -9.923  31.584  1.00  0.00     0.039 C 
ATOM     10  G   UNL     1      -3.876 -10.234  29.135  1.00  0.00     0.000 G0
ENDBRANCH   6   7
ENDBRANCH   5   6
ENDBRANCH   3   5
ENDBRANCH   1   3
BRANCH   1  11
ATOM     11  C   UNL     1      -2.946 -13.907  29.091  1.00  0.00     0.087 C 
BRANCH  11  12
ATOM     12  C   UNL     1      -4.078 -12.871  28.839  1.00  0.00     0.066 C 
BRANCH  12  13
ATOM     13  C   UNL     1      -3.514 -11.520  28.413  1.00  0.00     0.140 C 
ATOM     14  O   UNL     1      -2.642 -11.486  27.556  1.00  0.00    -0.299 OA
BRANCH  13  15
ATOM     15  C   UNL     1      -3.888 -10.248  29.139  1.00  0.00     0.106 CG0
ATOM     16  G   UNL     1      -3.564 -10.238  30.631  1.00  0.00     0.000 G0
ENDBRANCH  13  15
ENDBRANCH  12  13
BRANCH  12  17
ATOM     17  C   UNL     1      -5.131 -13.376  27.799  1.00  0.00    -0.006 C 
ATOM     18  C   UNL     1      -6.099 -14.391  28.436  1.00  0.00     0.008 C 
ATOM     19  C   UNL     1      -4.478 -14.026  26.565  1.00  0.00     0.008 C 
ENDBRANCH  12  17
ENDBRANCH  11  12
ENDBRANCH   1  11
TORSDOF 1
ENDMDL
MODEL 5
REMARK VINA RESULT:    -4.687      2.020      4.562
REMARK INTER + INTRA:          -6.990
REMARK INTER:                  -7.229
REMARK INTRA:                   0.239
REMARK UNBOUND:                 0.162
REMARK SMILES CC1=CCC[C@H](C)C(=O)C[C@H](C(C)C)C(=O)C1
REMARK SMILES IDX 8 1 9 2 6 3 7 4 5 5 4 6 3 7 2 8 1 9 10 11 11 12 15 13 16 14
REMARK SMILES IDX 17 15 12 17 13 18 14 19
REMARK H PARENT
REMARK Flexibility Score: 70.00
ROOT
ATOM      1  C   UNL     1      -4.170 -13.390  31.370  1.00  0.00     0.136 C 
ATOM      2  O   UNL     1      -4.167 -12.908  32.493  1.00  0.00    -0.299 OA
ENDROOT
BRANCH   1   3
ATOM      3  C   UNL     1      -4.960 -14.664  31.122  1.00  0.00     0.053 C 
ATOM      4  C   UNL     1      -5.571 -15.178  32.431  1.00  0.00     0.016 C 
BRANCH   3   5
ATOM      5  C   UNL     1      -6.044 -14.480  30.043  1.00  0.00     0.015 C 
BRANCH   5   6
ATOM      6  C   UNL     1      -5.591 -15.026  28.677  1.00  0.00     0.028 C 
BRANCH   6   7
ATOM      7  C   UNL     1      -5.114 -13.951  27.734  1.00  0.00    -0.028 C 
ATOM      8  C   UNL     1      -3.832 -13.751  27.333  1.00  0.00    -0.070 CG0
ATOM      9  C   UNL     1      -3.598 -12.697  26.278  1.00  0.00     0.039 C 
ATOM     10  G   UNL     1      -2.619 -14.460  27.929  1.00  0.00     0.000 G0
ENDBRANCH   6   7
ENDBRANCH   5   6
ENDBRANCH   3   5
ENDBRANCH   1   3
BRANCH   1  11
ATOM     11  C   UNL     1      -3.434 -12.668  30.263  1.00  0.00     0.087 C 
BRANCH  11  12
ATOM     12  C   UNL     1      -1.955 -13.125  30.117  1.00  0.00     0.066 C 
BRANCH  12  13
ATOM     13  C   UNL     1      -1.649 -13.577  28.693  1.00  0.00     0.140 C 
ATOM     14  O   UNL     1      -0.675 -13.110  28.120  1.00  0.00    -0.299 OA
BRANCH  13  15
ATOM     15  C   UNL     1      -2.609 -14.455  27.923  1.00  0.00     0.106 CG0
ATOM     16  G   UNL     1      -3.830 -13.735  27.357  1.00  0.00     0.000 G0
ENDBRANCH  13  15
ENDBRANCH  12  13
BRANCH  12  17
ATOM     17  C   UNL     1      -0.940 -12.026  30.572  1.00  0.00    -0.006 C 
ATOM     18  C   UNL     1      -0.084 -12.514  31.756  1.00  0.00     0.008 C 
ATOM     19  C   UNL     1      -1.635 -10.712  30.975  1.00  0.00     0.008 C 
ENDBRANCH  12  17
ENDBRANCH  11  12
ENDBRANCH   1  11
TORSDOF 1
ENDMDL
MODEL 6
REMARK VINA RESULT:    -4.581      1.978      2.479
REMARK INTER + INTRA:          -6.829
REMARK INTER:                  -7.417
REMARK INTRA:                   0.588
REMARK UNBOUND:                 0.162
REMARK SMILES CC1=CCC[C@H](C)C(=O)C[C@H](C(C)C)C(=O)C1
REMARK SMILES IDX 8 1 9 2 6 3 7 4 5 5 4 6 3 7 2 8 1 9 10 11 11 12 15 13 16 14
REMARK SMILES IDX 17 15 12 17 13 18 14 19
REMARK H PARENT
REMARK Flexibility Score: 70.00
ROOT
ATOM      1  C   UNL     1      -3.289 -13.727  28.102  1.00  0.00     0.136 C 
ATOM      2  O   UNL     1      -2.216 -14.054  28.588  1.00  0.00    -0.299 OA
ENDROOT
BRANCH   1   3
ATOM      3  C   UNL     1      -3.318 -13.210  26.673  1.00  0.00     0.053 C 
ATOM      4  C   UNL     1      -4.540 -13.763  25.929  1.00  0.00     0.016 C 
BRANCH   3   5
ATOM      5  C   UNL     1      -3.283 -11.671  26.607  1.00  0.00     0.015 C 
BRANCH   5   6
ATOM      6  C   UNL     1      -4.016 -11.030  27.799  1.00  0.00     0.028 C 
BRANCH   6   7
ATOM      7  C   UNL     1      -3.084 -10.429  28.819  1.00  0.00    -0.028 C 
ATOM      8  C   UNL     1      -3.031 -10.746  30.138  1.00  0.00    -0.070 CG0
ATOM      9  C   UNL     1      -1.928 -10.116  30.954  1.00  0.00     0.039 C 
ATOM     10  G   UNL     1      -4.051 -11.625  30.857  1.00  0.00     0.000 G0
ENDBRANCH   6   7
ENDBRANCH   5   6
ENDBRANCH   3   5
ENDBRANCH   1   3
BRANCH   1  11
ATOM     11  C   UNL     1      -4.547 -13.903  28.923  1.00  0.00     0.087 C 
BRANCH  11  12
ATOM     12  C   UNL     1      -4.258 -14.226  30.417  1.00  0.00     0.066 C 
BRANCH  12  13
ATOM     13  C   UNL     1      -3.577 -13.056  31.119  1.00  0.00     0.140 C 
ATOM     14  O   UNL     1      -2.742 -13.287  31.980  1.00  0.00    -0.299 OA
BRANCH  13  15
ATOM     15  C   UNL     1      -4.030 -11.631  30.890  1.00  0.00     0.106 CG0
ATOM     16  G   UNL     1      -3.033 -10.751  30.141  1.00  0.00     0.000 G0
ENDBRANCH  13  15
ENDBRANCH  12  13
BRANCH  12  17
ATOM     17  C   UNL     1      -5.543 -14.658  31.196  1.00  0.00    -0.006 C 
ATOM     18  C   UNL     1      -5.183 -15.428  32.480  1.00  0.00     0.008 C 
ATOM     19  C   UNL     1      -6.483 -15.533  30.344  1.00  0.00     0.008 C 
ENDBRANCH  12  17
ENDBRANCH  11  12
ENDBRANCH   1  11
TORSDOF 1
ENDMDL
MODEL 7
REMARK VINA RESULT:    -4.525      1.853      3.485
REMARK INTER + INTRA:          -6.744
REMARK INTER:                  -6.928
REMARK INTRA:                   0.184
REMARK UNBOUND:                 0.162
REMARK SMILES CC1=CCC[C@H](C)C(=O)C[C@H](C(C)C)C(=O)C1
REMARK SMILES IDX 8 1 9 2 6 3 7 4 5 5 4 6 3 7 2 8 1 9 10 11 11 12 15 13 16 14
REMARK SMILES IDX 17 15 12 17 13 18 14 19
REMARK H PARENT
REMARK Flexibility Score: 70.00
ROOT
ATOM      1  C   UNL     1      -3.414 -13.155  27.611  1.00  0.00     0.136 C 
ATOM      2  O   UNL     1      -4.468 -13.508  27.105  1.00  0.00    -0.299 OA
ENDROOT
BRANCH   1   3
ATOM      3  C   UNL     1      -2.759 -11.875  27.121  1.00  0.00     0.053 C 
ATOM      4  C   UNL     1      -3.385 -11.427  25.794  1.00  0.00     0.016 C 
BRANCH   3   5
ATOM      5  C   UNL     1      -2.823 -10.746  28.168  1.00  0.00     0.015 C 
BRANCH   5   6
ATOM      6  C   UNL     1      -4.261 -10.505  28.663  1.00  0.00     0.028 C 
BRANCH   6   7
ATOM      7  C   UNL     1      -4.328 -10.049  30.097  1.00  0.00    -0.028 C 
ATOM      8  C   UNL     1      -4.219 -10.843  31.194  1.00  0.00    -0.070 CG0
ATOM      9  C   UNL     1      -4.183 -10.157  32.539  1.00  0.00     0.039 C 
ATOM     10  G   UNL     1      -4.212 -12.369  31.160  1.00  0.00     0.000 G0
ENDBRANCH   6   7
ENDBRANCH   5   6
ENDBRANCH   3   5
ENDBRANCH   1   3
BRANCH   1  11
ATOM     11  C   UNL     1      -2.836 -13.976  28.742  1.00  0.00     0.087 C 
BRANCH  11  12
ATOM     12  C   UNL     1      -2.085 -13.115  29.798  1.00  0.00     0.066 C 
BRANCH  12  13
ATOM     13  C   UNL     1      -2.862 -13.035  31.107  1.00  0.00     0.140 C 
ATOM     14  O   UNL     1      -2.432 -13.626  32.087  1.00  0.00    -0.299 OA
BRANCH  13  15
ATOM     15  C   UNL     1      -4.225 -12.384  31.174  1.00  0.00     0.106 CG0
ATOM     16  G   UNL     1      -4.211 -10.858  31.176  1.00  0.00     0.000 G0
ENDBRANCH  13  15
ENDBRANCH  12  13
BRANCH  12  17
ATOM     17  C   UNL     1      -0.628 -13.619  30.056  1.00  0.00    -0.006 C 
ATOM     18  C   UNL     1       0.238 -12.516  30.694  1.00  0.00     0.008 C 
ATOM     19  C   UNL     1       0.064 -14.107  28.770  1.00  0.00     0.008 C 
ENDBRANCH  12  17
ENDBRANCH  11  12
ENDBRANCH   1  11
TORSDOF 1
ENDMDL
MODEL 8
REMARK VINA RESULT:    -4.503      1.728      3.653
REMARK INTER + INTRA:          -6.710
REMARK INTER:                  -7.569
REMARK INTRA:                   0.860
REMARK UNBOUND:                 0.162
REMARK SMILES CC1=CCC[C@H](C)C(=O)C[C@H](C(C)C)C(=O)C1
REMARK SMILES IDX 8 1 9 2 6 3 7 4 5 5 4 6 3 7 2 8 1 9 10 11 11 12 15 13 16 14
REMARK SMILES IDX 17 15 12 17 13 18 14 19
REMARK H PARENT
REMARK Flexibility Score: 70.00
ROOT
ATOM      1  C   UNL     1      -4.010 -12.488  31.320  1.00  0.00     0.136 C 
ATOM      2  O   UNL     1      -4.349 -12.511  32.494  1.00  0.00    -0.299 OA
ENDROOT
BRANCH   1   3
ATOM      3  C   UNL     1      -3.207 -11.302  30.813  1.00  0.00     0.053 C 
ATOM      4  C   UNL     1      -3.858  -9.986  31.256  1.00  0.00     0.016 C 
BRANCH   3   5
ATOM      5  C   UNL     1      -1.732 -11.363  31.254  1.00  0.00     0.015 C 
BRANCH   5   6
ATOM      6  C   UNL     1      -1.251 -12.813  31.447  1.00  0.00     0.028 C 
BRANCH   6   7
ATOM      7  C   UNL     1      -0.197 -13.228  30.454  1.00  0.00    -0.028 C 
ATOM      8  C   UNL     1      -0.421 -13.770  29.229  1.00  0.00    -0.070 CG0
ATOM      9  C   UNL     1       0.781 -13.989  28.342  1.00  0.00     0.039 C 
ATOM     10  G   UNL     1      -1.784 -14.239  28.729  1.00  0.00     0.000 G0
ENDBRANCH   6   7
ENDBRANCH   5   6
ENDBRANCH   3   5
ENDBRANCH   1   3
BRANCH   1  11
ATOM     11  C   UNL     1      -4.354 -13.667  30.438  1.00  0.00     0.087 C 
BRANCH  11  12
ATOM     12  C   UNL     1      -4.253 -13.342  28.921  1.00  0.00     0.066 C 
BRANCH  12  13
ATOM     13  C   UNL     1      -2.804 -13.166  28.483  1.00  0.00     0.140 C 
ATOM     14  O   UNL     1      -2.502 -12.190  27.811  1.00  0.00    -0.299 OA
BRANCH  13  15
ATOM     15  C   UNL     1      -1.774 -14.247  28.721  1.00  0.00     0.106 CG0
ATOM     16  G   UNL     1      -0.419 -13.749  29.215  1.00  0.00     0.000 G0
ENDBRANCH  13  15
ENDBRANCH  12  13
BRANCH  12  17
ATOM     17  C   UNL     1      -4.968 -14.410  28.030  1.00  0.00    -0.006 C 
ATOM     18  C   UNL     1      -4.957 -13.996  26.546  1.00  0.00     0.008 C 
ATOM     19  C   UNL     1      -6.425 -14.659  28.461  1.00  0.00     0.008 C 
ENDBRANCH  12  17
ENDBRANCH  11  12
ENDBRANCH   1  11
TORSDOF 1
ENDMDL
MODEL 9
REMARK VINA RESULT:    -4.352      1.891      4.181
REMARK INTER + INTRA:          -6.479
REMARK INTER:                  -6.941
REMARK INTRA:                   0.462
REMARK UNBOUND:                 0.162
REMARK SMILES CC1=CCC[C@H](C)C(=O)C[C@H](C(C)C)C(=O)C1
REMARK SMILES IDX 8 1 9 2 6 3 7 4 5 5 4 6 3 7 2 8 1 9 10 11 11 12 15 13 16 14
REMARK SMILES IDX 17 15 12 17 13 18 14 19
REMARK H PARENT
REMARK Flexibility Score: 70.00
ROOT
ATOM      1  C   UNL     1      -3.783 -13.086  31.757  1.00  0.00     0.136 C 
ATOM      2  O   UNL     1      -4.472 -12.168  32.177  1.00  0.00    -0.299 OA
ENDROOT
BRANCH   1   3
ATOM      3  C   UNL     1      -4.465 -14.371  31.317  1.00  0.00     0.053 C 
ATOM      4  C   UNL     1      -5.677 -14.666  32.209  1.00  0.00     0.016 C 
BRANCH   3   5
ATOM      5  C   UNL     1      -4.869 -14.340  29.831  1.00  0.00     0.015 C 
BRANCH   5   6
ATOM      6  C   UNL     1      -5.263 -12.924  29.374  1.00  0.00     0.028 C 
BRANCH   6   7
ATOM      7  C   UNL     1      -4.564 -12.489  28.112  1.00  0.00    -0.028 C 
ATOM      8  C   UNL     1      -3.658 -11.482  28.006  1.00  0.00    -0.070 CG0
ATOM      9  C   UNL     1      -2.982 -11.303  26.669  1.00  0.00     0.039 C 
ATOM     10  G   UNL     1      -3.343 -10.483  29.116  1.00  0.00     0.000 G0
ENDBRANCH   6   7
ENDBRANCH   5   6
ENDBRANCH   3   5
ENDBRANCH   1   3
BRANCH   1  11
ATOM     11  C   UNL     1      -2.289 -12.883  31.638  1.00  0.00     0.087 C 
BRANCH  11  12
ATOM     12  C   UNL     1      -1.855 -12.355  30.241  1.00  0.00     0.066 C 
BRANCH  12  13
ATOM     13  C   UNL     1      -2.243 -10.893  30.052  1.00  0.00     0.140 C 
ATOM     14  O   UNL     1      -1.737 -10.048  30.776  1.00  0.00    -0.299 OA
BRANCH  13  15
ATOM     15  C   UNL     1      -3.353 -10.490  29.107  1.00  0.00     0.106 CG0
ATOM     16  G   UNL     1      -3.655 -11.497  28.001  1.00  0.00     0.000 G0
ENDBRANCH  13  15
ENDBRANCH  12  13
BRANCH  12  17
ATOM     17  C   UNL     1      -0.328 -12.556  29.973  1.00  0.00    -0.006 C 
ATOM     18  C   UNL     1      -0.079 -13.750  29.033  1.00  0.00     0.008 C 
ATOM     19  C   UNL     1       0.476 -12.772  31.269  1.00  0.00     0.008 C 
ENDBRANCH  12  17
ENDBRANCH  11  12
ENDBRANCH   1  11
TORSDOF 1
ENDMDL
