MODEL 1
REMARK VINA RESULT:    -4.873      0.000      0.000
REMARK INTER + INTRA:          -9.011
REMARK INTER:                  -7.722
REMARK INTRA:                  -1.289
REMARK UNBOUND:                -1.289
REMARK SMILES CCCCCCCCCCCC(=O)[O-]
REMARK SMILES IDX 7 1 8 2 9 3 10 4 11 5 12 6 13 7 14 8 6 9 5 10 4 11 3 12 2 13
REMARK SMILES IDX 1 14
REMARK H PARENT
REMARK Flexibility Score: inf
ROOT
ATOM      1  C   UNL     1     -22.040  -7.386  14.481  1.00  0.00     0.000 C 
ENDROOT
BRANCH   1   2
ATOM      2  C   UNL     1     -20.587  -7.875  14.336  1.00  0.00     0.000 C 
BRANCH   2   3
ATOM      3  C   UNL     1     -19.595  -7.277  15.351  1.00  0.00     0.000 C 
BRANCH   3   4
ATOM      4  C   UNL     1     -18.623  -8.314  15.958  1.00  0.00     0.006 C 
BRANCH   4   5
ATOM      5  C   UNL     1     -19.134  -8.953  17.260  1.00  0.00     0.053 C 
BRANCH   5   6
ATOM      6  C   UNL     1     -18.018  -9.543  18.068  1.00  0.00     0.041 C 
ATOM      7  O   UNL     1     -18.138 -10.691  18.570  1.00  0.00    -0.550 OA
ATOM      8  O   UNL     1     -16.839  -8.831  18.251  1.00  0.00    -0.550 OA
ENDBRANCH   5   6
ENDBRANCH   4   5
ENDBRANCH   3   4
ENDBRANCH   2   3
ENDBRANCH   1   2
BRANCH   1   9
ATOM      9  C   UNL     1     -23.073  -8.483  14.802  1.00  0.00     0.000 C 
BRANCH   9  10
ATOM     10  C   UNL     1     -22.758  -9.238  16.106  1.00  0.00    -0.000 C 
BRANCH  10  11
ATOM     11  C   UNL     1     -23.860  -9.071  17.164  1.00  0.00    -0.000 C 
BRANCH  11  12
ATOM     12  C   UNL     1     -23.754  -7.742  17.928  1.00  0.00    -0.000 C 
BRANCH  12  13
ATOM     13  C   UNL     1     -22.288  -7.345  18.133  1.00  0.00    -0.003 C 
ATOM     14  C   UNL     1     -22.056  -5.881  17.768  1.00  0.00     0.004 C 
ENDBRANCH  12  13
ENDBRANCH  11  12
ENDBRANCH  10  11
ENDBRANCH   9  10
ENDBRANCH   1   9
TORSDOF 10
ENDMDL
MODEL 2
REMARK VINA RESULT:    -4.735      0.922      2.351
REMARK INTER + INTRA:          -8.792
REMARK INTER:                  -7.603
REMARK INTRA:                  -1.189
REMARK UNBOUND:                -1.289
REMARK SMILES CCCCCCCCCCCC(=O)[O-]
REMARK SMILES IDX 7 1 8 2 9 3 10 4 11 5 12 6 13 7 14 8 6 9 5 10 4 11 3 12 2 13
REMARK SMILES IDX 1 14
REMARK H PARENT
REMARK Flexibility Score: inf
ROOT
ATOM      1  C   UNL     1     -21.339  -6.366  15.522  1.00  0.00     0.000 C 
ENDROOT
BRANCH   1   2
ATOM      2  C   UNL     1     -19.930  -6.599  14.947  1.00  0.00     0.000 C 
BRANCH   2   3
ATOM      3  C   UNL     1     -19.392  -8.035  15.101  1.00  0.00     0.000 C 
BRANCH   3   4
ATOM      4  C   UNL     1     -18.481  -8.230  16.333  1.00  0.00     0.006 C 
BRANCH   4   5
ATOM      5  C   UNL     1     -19.112  -9.088  17.442  1.00  0.00     0.053 C 
BRANCH   5   6
ATOM      6  C   UNL     1     -18.097  -9.947  18.131  1.00  0.00     0.041 C 
ATOM      7  O   UNL     1     -17.048  -9.434  18.603  1.00  0.00    -0.550 OA
ATOM      8  O   UNL     1     -18.316 -11.312  18.267  1.00  0.00    -0.550 OA
ENDBRANCH   5   6
ENDBRANCH   4   5
ENDBRANCH   3   4
ENDBRANCH   2   3
ENDBRANCH   1   2
BRANCH   1   9
ATOM      9  C   UNL     1     -21.402  -5.432  16.745  1.00  0.00     0.000 C 
BRANCH   9  10
ATOM     10  C   UNL     1     -22.215  -6.024  17.910  1.00  0.00    -0.000 C 
BRANCH  10  11
ATOM     11  C   UNL     1     -22.347  -7.553  17.819  1.00  0.00    -0.000 C 
BRANCH  11  12
ATOM     12  C   UNL     1     -23.801  -8.032  17.949  1.00  0.00    -0.000 C 
BRANCH  12  13
ATOM     13  C   UNL     1     -24.068  -9.225  17.025  1.00  0.00    -0.003 C 
ATOM     14  C   UNL     1     -22.771  -9.761  16.426  1.00  0.00     0.004 C 
ENDBRANCH  12  13
ENDBRANCH  11  12
ENDBRANCH  10  11
ENDBRANCH   9  10
ENDBRANCH   1   9
TORSDOF 10
ENDMDL
MODEL 3
REMARK VINA RESULT:    -4.623      3.549      5.806
REMARK INTER + INTRA:          -8.613
REMARK INTER:                  -7.740
REMARK INTRA:                  -0.873
REMARK UNBOUND:                -1.289
REMARK SMILES CCCCCCCCCCCC(=O)[O-]
REMARK SMILES IDX 7 1 8 2 9 3 10 4 11 5 12 6 13 7 14 8 6 9 5 10 4 11 3 12 2 13
REMARK SMILES IDX 1 14
REMARK H PARENT
REMARK Flexibility Score: inf
ROOT
ATOM      1  C   UNL     1     -21.031  -5.516  16.032  1.00  0.00     0.000 C 
ENDROOT
BRANCH   1   2
ATOM      2  C   UNL     1     -21.923  -5.681  17.277  1.00  0.00     0.000 C 
BRANCH   2   3
ATOM      3  C   UNL     1     -21.787  -7.033  18.001  1.00  0.00     0.000 C 
BRANCH   3   4
ATOM      4  C   UNL     1     -22.981  -7.987  17.773  1.00  0.00     0.006 C 
BRANCH   4   5
ATOM      5  C   UNL     1     -24.345  -7.277  17.752  1.00  0.00     0.053 C 
BRANCH   5   6
ATOM      6  C   UNL     1     -25.462  -8.223  17.433  1.00  0.00     0.041 C 
ATOM      7  O   UNL     1     -25.318  -9.460  17.621  1.00  0.00    -0.550 OA
ATOM      8  O   UNL     1     -26.669  -7.737  16.947  1.00  0.00    -0.550 OA
ENDBRANCH   5   6
ENDBRANCH   4   5
ENDBRANCH   3   4
ENDBRANCH   2   3
ENDBRANCH   1   2
BRANCH   1   9
ATOM      9  C   UNL     1     -21.463  -6.335  14.802  1.00  0.00     0.000 C 
BRANCH   9  10
ATOM     10  C   UNL     1     -20.584  -7.577  14.570  1.00  0.00    -0.000 C 
BRANCH  10  11
ATOM     11  C   UNL     1     -19.215  -7.467  15.261  1.00  0.00    -0.000 C 
BRANCH  11  12
ATOM     12  C   UNL     1     -18.098  -7.033  14.300  1.00  0.00    -0.000 C 
BRANCH  12  13
ATOM     13  C   UNL     1     -17.691  -5.578  14.556  1.00  0.00    -0.003 C 
ATOM     14  C   UNL     1     -16.897  -5.012  13.382  1.00  0.00     0.004 C 
ENDBRANCH  12  13
ENDBRANCH  11  12
ENDBRANCH  10  11
ENDBRANCH   9  10
ENDBRANCH   1   9
TORSDOF 10
ENDMDL
MODEL 4
REMARK VINA RESULT:    -4.469      1.498      2.785
REMARK INTER + INTRA:          -8.370
REMARK INTER:                  -7.220
REMARK INTRA:                  -1.151
REMARK UNBOUND:                -1.289
REMARK SMILES CCCCCCCCCCCC(=O)[O-]
REMARK SMILES IDX 7 1 8 2 9 3 10 4 11 5 12 6 13 7 14 8 6 9 5 10 4 11 3 12 2 13
REMARK SMILES IDX 1 14
REMARK H PARENT
REMARK Flexibility Score: inf
ROOT
ATOM      1  C   UNL     1     -21.303  -4.940  16.922  1.00  0.00     0.000 C 
ENDROOT
BRANCH   1   2
ATOM      2  C   UNL     1     -21.142  -5.386  15.457  1.00  0.00     0.000 C 
BRANCH   2   3
ATOM      3  C   UNL     1     -19.721  -5.832  15.064  1.00  0.00     0.000 C 
BRANCH   3   4
ATOM      4  C   UNL     1     -19.597  -7.346  14.784  1.00  0.00     0.006 C 
BRANCH   4   5
ATOM      5  C   UNL     1     -18.591  -8.065  15.697  1.00  0.00     0.053 C 
BRANCH   5   6
ATOM      6  C   UNL     1     -19.270  -8.770  16.831  1.00  0.00     0.041 C 
ATOM      7  O   UNL     1     -20.523  -8.891  16.843  1.00  0.00    -0.550 OA
ATOM      8  O   UNL     1     -18.517  -9.309  17.867  1.00  0.00    -0.550 OA
ENDBRANCH   5   6
ENDBRANCH   4   5
ENDBRANCH   3   4
ENDBRANCH   2   3
ENDBRANCH   1   2
BRANCH   1   9
ATOM      9  C   UNL     1     -21.771  -6.039  17.895  1.00  0.00     0.000 C 
BRANCH   9  10
ATOM     10  C   UNL     1     -23.294  -6.258  17.863  1.00  0.00    -0.000 C 
BRANCH  10  11
ATOM     11  C   UNL     1     -23.684  -7.720  18.135  1.00  0.00    -0.000 C 
BRANCH  11  12
ATOM     12  C   UNL     1     -24.306  -8.406  16.909  1.00  0.00    -0.000 C 
BRANCH  12  13
ATOM     13  C   UNL     1     -24.281  -7.477  15.690  1.00  0.00    -0.003 C 
ATOM     14  C   UNL     1     -23.392  -8.039  14.585  1.00  0.00     0.004 C 
ENDBRANCH  12  13
ENDBRANCH  11  12
ENDBRANCH  10  11
ENDBRANCH   9  10
ENDBRANCH   1   9
TORSDOF 10
ENDMDL
MODEL 5
REMARK VINA RESULT:    -4.454      3.232      5.630
REMARK INTER + INTRA:          -8.347
REMARK INTER:                  -7.576
REMARK INTRA:                  -0.771
REMARK UNBOUND:                -1.289
REMARK SMILES CCCCCCCCCCCC(=O)[O-]
REMARK SMILES IDX 7 1 8 2 9 3 10 4 11 5 12 6 13 7 14 8 6 9 5 10 4 11 3 12 2 13
REMARK SMILES IDX 1 14
REMARK H PARENT
REMARK Flexibility Score: inf
ROOT
ATOM      1  C   UNL     1     -21.881  -7.818  14.601  1.00  0.00     0.000 C 
ENDROOT
BRANCH   1   2
ATOM      2  C   UNL     1     -23.211  -8.387  15.131  1.00  0.00     0.000 C 
BRANCH   2   3
ATOM      3  C   UNL     1     -23.098  -9.193  16.440  1.00  0.00     0.000 C 
BRANCH   3   4
ATOM      4  C   UNL     1     -24.232  -8.904  17.450  1.00  0.00     0.006 C 
BRANCH   4   5
ATOM      5  C   UNL     1     -24.757  -7.460  17.395  1.00  0.00     0.053 C 
BRANCH   5   6
ATOM      6  C   UNL     1     -24.099  -6.587  18.419  1.00  0.00     0.041 C 
ATOM      7  O   UNL     1     -22.931  -6.157  18.229  1.00  0.00    -0.550 OA
ATOM      8  O   UNL     1     -24.784  -6.231  19.574  1.00  0.00    -0.550 OA
ENDBRANCH   5   6
ENDBRANCH   4   5
ENDBRANCH   3   4
ENDBRANCH   2   3
ENDBRANCH   1   2
BRANCH   1   9
ATOM      9  C   UNL     1     -21.639  -6.327  14.904  1.00  0.00     0.000 C 
BRANCH   9  10
ATOM     10  C   UNL     1     -20.166  -6.012  15.219  1.00  0.00    -0.000 C 
BRANCH  10  11
ATOM     11  C   UNL     1     -19.252  -7.237  15.052  1.00  0.00    -0.000 C 
BRANCH  11  12
ATOM     12  C   UNL     1     -17.952  -6.910  14.301  1.00  0.00    -0.000 C 
BRANCH  12  13
ATOM     13  C   UNL     1     -17.583  -5.431  14.465  1.00  0.00    -0.003 C 
ATOM     14  C   UNL     1     -16.752  -4.935  13.285  1.00  0.00     0.004 C 
ENDBRANCH  12  13
ENDBRANCH  11  12
ENDBRANCH  10  11
ENDBRANCH   9  10
ENDBRANCH   1   9
TORSDOF 10
ENDMDL
MODEL 6
REMARK VINA RESULT:    -4.444      2.089      3.648
REMARK INTER + INTRA:          -8.330
REMARK INTER:                  -7.216
REMARK INTRA:                  -1.114
REMARK UNBOUND:                -1.289
REMARK SMILES CCCCCCCCCCCC(=O)[O-]
REMARK SMILES IDX 7 1 8 2 9 3 10 4 11 5 12 6 13 7 14 8 6 9 5 10 4 11 3 12 2 13
REMARK SMILES IDX 1 14
REMARK H PARENT
REMARK Flexibility Score: inf
ROOT
ATOM      1  C   UNL     1     -22.972  -6.043  18.327  1.00  0.00     0.000 C 
ENDROOT
BRANCH   1   2
ATOM      2  C   UNL     1     -21.750  -6.275  17.420  1.00  0.00     0.000 C 
BRANCH   2   3
ATOM      3  C   UNL     1     -21.355  -5.075  16.538  1.00  0.00     0.000 C 
BRANCH   3   4
ATOM      4  C   UNL     1     -20.921  -5.469  15.108  1.00  0.00     0.006 C 
BRANCH   4   5
ATOM      5  C   UNL     1     -19.476  -5.985  15.019  1.00  0.00     0.053 C 
BRANCH   5   6
ATOM      6  C   UNL     1     -19.424  -7.469  14.824  1.00  0.00     0.041 C 
ATOM      7  O   UNL     1     -19.952  -7.994  13.809  1.00  0.00    -0.550 OA
ATOM      8  O   UNL     1     -18.775  -8.271  15.754  1.00  0.00    -0.550 OA
ENDBRANCH   5   6
ENDBRANCH   4   5
ENDBRANCH   3   4
ENDBRANCH   2   3
ENDBRANCH   1   2
BRANCH   1   9
ATOM      9  C   UNL     1     -24.281  -6.695  17.844  1.00  0.00     0.000 C 
BRANCH   9  10
ATOM     10  C   UNL     1     -24.411  -8.167  18.273  1.00  0.00    -0.000 C 
BRANCH  10  11
ATOM     11  C   UNL     1     -24.411  -9.132  17.076  1.00  0.00    -0.000 C 
BRANCH  11  12
ATOM     12  C   UNL     1     -22.996  -9.453  16.571  1.00  0.00    -0.000 C 
BRANCH  12  13
ATOM     13  C   UNL     1     -22.892  -9.231  15.058  1.00  0.00    -0.003 C 
ATOM     14  C   UNL     1     -23.556  -7.921  14.645  1.00  0.00     0.004 C 
ENDBRANCH  12  13
ENDBRANCH  11  12
ENDBRANCH  10  11
ENDBRANCH   9  10
ENDBRANCH   1   9
TORSDOF 10
ENDMDL
MODEL 7
REMARK VINA RESULT:    -4.403      2.346      4.859
REMARK INTER + INTRA:          -8.266
REMARK INTER:                  -7.266
REMARK INTRA:                  -1.000
REMARK UNBOUND:                -1.289
REMARK SMILES CCCCCCCCCCCC(=O)[O-]
REMARK SMILES IDX 7 1 8 2 9 3 10 4 11 5 12 6 13 7 14 8 6 9 5 10 4 11 3 12 2 13
REMARK SMILES IDX 1 14
REMARK H PARENT
REMARK Flexibility Score: inf
ROOT
ATOM      1  C   UNL     1     -21.694  -5.984  15.944  1.00  0.00     0.000 C 
ENDROOT
BRANCH   1   2
ATOM      2  C   UNL     1     -21.787  -5.771  17.466  1.00  0.00     0.000 C 
BRANCH   2   3
ATOM      3  C   UNL     1     -22.962  -6.492  18.154  1.00  0.00     0.000 C 
BRANCH   3   4
ATOM      4  C   UNL     1     -23.904  -7.225  17.173  1.00  0.00     0.006 C 
BRANCH   4   5
ATOM      5  C   UNL     1     -23.955  -8.747  17.382  1.00  0.00     0.053 C 
BRANCH   5   6
ATOM      6  C   UNL     1     -23.156  -9.480  16.348  1.00  0.00     0.041 C 
ATOM      7  O   UNL     1     -22.558 -10.547  16.648  1.00  0.00    -0.550 OA
ATOM      8  O   UNL     1     -23.086  -8.994  15.048  1.00  0.00    -0.550 OA
ENDBRANCH   5   6
ENDBRANCH   4   5
ENDBRANCH   3   4
ENDBRANCH   2   3
ENDBRANCH   1   2
BRANCH   1   9
ATOM      9  C   UNL     1     -20.603  -5.162  15.231  1.00  0.00     0.000 C 
BRANCH   9  10
ATOM     10  C   UNL     1     -19.348  -5.989  14.904  1.00  0.00    -0.000 C 
BRANCH  10  11
ATOM     11  C   UNL     1     -19.611  -7.503  14.949  1.00  0.00    -0.000 C 
BRANCH  11  12
ATOM     12  C   UNL     1     -18.639  -8.248  15.877  1.00  0.00    -0.000 C 
BRANCH  12  13
ATOM     13  C   UNL     1     -19.383  -8.870  17.063  1.00  0.00    -0.003 C 
ATOM     14  C   UNL     1     -18.409  -9.461  18.078  1.00  0.00     0.004 C 
ENDBRANCH  12  13
ENDBRANCH  11  12
ENDBRANCH  10  11
ENDBRANCH   9  10
ENDBRANCH   1   9
TORSDOF 10
ENDMDL
MODEL 8
REMARK VINA RESULT:    -4.387      2.308      3.488
REMARK INTER + INTRA:          -8.240
REMARK INTER:                  -7.239
REMARK INTRA:                  -1.001
REMARK UNBOUND:                -1.289
REMARK SMILES CCCCCCCCCCCC(=O)[O-]
REMARK SMILES IDX 7 1 8 2 9 3 10 4 11 5 12 6 13 7 14 8 6 9 5 10 4 11 3 12 2 13
REMARK SMILES IDX 1 14
REMARK H PARENT
REMARK Flexibility Score: inf
ROOT
ATOM      1  C   UNL     1     -21.902  -7.431  17.608  1.00  0.00     0.000 C 
ENDROOT
BRANCH   1   2
ATOM      2  C   UNL     1     -22.236  -5.928  17.563  1.00  0.00     0.000 C 
BRANCH   2   3
ATOM      3  C   UNL     1     -21.204  -5.054  16.824  1.00  0.00     0.000 C 
BRANCH   3   4
ATOM      4  C   UNL     1     -21.009  -5.440  15.340  1.00  0.00     0.006 C 
BRANCH   4   5
ATOM      5  C   UNL     1     -19.587  -5.915  15.005  1.00  0.00     0.053 C 
BRANCH   5   6
ATOM      6  C   UNL     1     -19.518  -7.403  14.845  1.00  0.00     0.041 C 
ATOM      7  O   UNL     1     -18.839  -8.096  15.647  1.00  0.00    -0.550 OA
ATOM      8  O   UNL     1     -20.219  -8.026  13.820  1.00  0.00    -0.550 OA
ENDBRANCH   5   6
ENDBRANCH   4   5
ENDBRANCH   3   4
ENDBRANCH   2   3
ENDBRANCH   1   2
BRANCH   1   9
ATOM      9  C   UNL     1     -22.628  -8.295  16.559  1.00  0.00     0.000 C 
BRANCH   9  10
ATOM     10  C   UNL     1     -23.686  -9.226  17.178  1.00  0.00    -0.000 C 
BRANCH  10  11
ATOM     11  C   UNL     1     -24.704  -8.466  18.044  1.00  0.00    -0.000 C 
BRANCH  11  12
ATOM     12  C   UNL     1     -25.761  -7.727  17.208  1.00  0.00    -0.000 C 
BRANCH  12  13
ATOM     13  C   UNL     1     -26.066  -6.350  17.807  1.00  0.00    -0.003 C 
ATOM     14  C   UNL     1     -25.398  -6.179  19.168  1.00  0.00     0.004 C 
ENDBRANCH  12  13
ENDBRANCH  11  12
ENDBRANCH  10  11
ENDBRANCH   9  10
ENDBRANCH   1   9
TORSDOF 10
ENDMDL
MODEL 9
REMARK VINA RESULT:    -4.378      2.126      3.508
REMARK INTER + INTRA:          -8.226
REMARK INTER:                  -6.956
REMARK INTRA:                  -1.270
REMARK UNBOUND:                -1.289
REMARK SMILES CCCCCCCCCCCC(=O)[O-]
REMARK SMILES IDX 7 1 8 2 9 3 10 4 11 5 12 6 13 7 14 8 6 9 5 10 4 11 3 12 2 13
REMARK SMILES IDX 1 14
REMARK H PARENT
REMARK Flexibility Score: inf
ROOT
ATOM      1  C   UNL     1     -23.168  -9.398  16.238  1.00  0.00     0.000 C 
ENDROOT
BRANCH   1   2
ATOM      2  C   UNL     1     -22.920  -8.681  14.898  1.00  0.00     0.000 C 
BRANCH   2   3
ATOM      3  C   UNL     1     -22.784  -7.149  14.994  1.00  0.00     0.000 C 
BRANCH   3   4
ATOM      4  C   UNL     1     -21.347  -6.634  14.753  1.00  0.00     0.006 C 
BRANCH   4   5
ATOM      5  C   UNL     1     -20.348  -7.739  14.375  1.00  0.00     0.053 C 
BRANCH   5   6
ATOM      6  C   UNL     1     -19.222  -7.834  15.359  1.00  0.00     0.041 C 
ATOM      7  O   UNL     1     -18.136  -7.235  15.139  1.00  0.00    -0.550 OA
ATOM      8  O   UNL     1     -19.378  -8.568  16.528  1.00  0.00    -0.550 OA
ENDBRANCH   5   6
ENDBRANCH   4   5
ENDBRANCH   3   4
ENDBRANCH   2   3
ENDBRANCH   1   2
BRANCH   1   9
ATOM      9  C   UNL     1     -23.184  -8.483  17.478  1.00  0.00     0.000 C 
BRANCH   9  10
ATOM     10  C   UNL     1     -24.600  -8.263  18.040  1.00  0.00    -0.000 C 
BRANCH  10  11
ATOM     11  C   UNL     1     -24.915  -6.777  18.278  1.00  0.00    -0.000 C 
BRANCH  11  12
ATOM     12  C   UNL     1     -26.205  -6.323  17.579  1.00  0.00    -0.000 C 
BRANCH  12  13
ATOM     13  C   UNL     1     -26.624  -7.328  16.500  1.00  0.00    -0.003 C 
ATOM     14  C   UNL     1     -26.409  -6.759  15.101  1.00  0.00     0.004 C 
ENDBRANCH  12  13
ENDBRANCH  11  12
ENDBRANCH  10  11
ENDBRANCH   9  10
ENDBRANCH   1   9
TORSDOF 10
ENDMDL
