MODEL 1
REMARK VINA RESULT:    -7.490      0.000      0.000
REMARK INTER + INTRA:         -10.966
REMARK INTER:                  -9.899
REMARK INTRA:                  -1.068
REMARK UNBOUND:                -1.068
REMARK SMILES CC[C@@H](C=C[C@H](C)[C@@H]1CC[C@@H]2[C@H]3CC=C4C[C@H](O)CC[C@]4(C)[C@H]3CC[C@@]21C)C(C)C
REMARK SMILES IDX 6 1 7 2 5 3 4 4 3 5 2 6 1 7 28 8 29 9 30 10 8 11 9 12 26 13
REMARK SMILES IDX 10 14 11 15 25 16 27 17 12 18 24 19 23 20 13 21 21 22 14 23
REMARK SMILES IDX 15 24 20 25 22 26 16 27 19 28 17 29 18 30
REMARK H PARENT 18 31
REMARK Flexibility Score: inf
ROOT
ATOM      1  C   UNL     1      39.366  28.919   8.172  1.00  0.00     0.012 C 
ATOM      2  C   UNL     1      37.876  28.553   8.025  1.00  0.00     0.012 C 
ENDROOT
BRANCH   1   3
ATOM      3  C   UNL     1      39.964  28.144   9.323  1.00  0.00    -0.028 C 
ATOM      4  C   UNL     1      39.359  28.069  10.519  1.00  0.00    -0.027 C 
BRANCH   4   5
ATOM      5  C   UNL     1      39.968  27.286  11.666  1.00  0.00     0.014 C 
BRANCH   5   6
ATOM      6  C   UNL     1      39.744  25.769  11.459  1.00  0.00     0.004 C 
ATOM      7  C   UNL     1      40.119  24.955  12.700  1.00  0.00     0.004 C 
ENDBRANCH   5   6
BRANCH   5   8
ATOM      8  C   UNL     1      39.441  27.769  13.051  1.00  0.00    -0.011 C 
ATOM      9  C   UNL     1      38.071  28.469  12.989  1.00  0.00     0.008 C 
ATOM     10  C   UNL     1      40.464  28.675  13.754  1.00  0.00     0.008 C 
ENDBRANCH   5   8
ENDBRANCH   4   5
ENDBRANCH   1   3
BRANCH   1  11
ATOM     11  C   UNL     1      40.266  28.833   6.885  1.00  0.00     0.002 C 
ATOM     12  C   UNL     1      41.210  27.614   6.885  1.00  0.00     0.005 C 
ATOM     13  C   UNL     1      41.100  30.069   6.385  1.00  0.00    -0.026 C 
ATOM     14  C   UNL     1      42.532  28.080   6.298  1.00  0.00     0.005 C 
ATOM     15  C   UNL     1      42.233  29.387   5.560  1.00  0.00    -0.001 C 
ATOM     16  C   UNL     1      41.703  30.902   7.546  1.00  0.00     0.007 C 
ATOM     17  C   UNL     1      40.209  30.972   5.487  1.00  0.00     0.012 C 
ATOM     18  C   UNL     1      43.530  30.215   5.292  1.00  0.00     0.000 C 
ATOM     19  C   UNL     1      42.851  31.829   7.119  1.00  0.00     0.005 C 
ATOM     20  C   UNL     1      44.024  31.011   6.526  1.00  0.00     0.003 C 
ATOM     21  C   UNL     1      43.365  31.146   4.078  1.00  0.00     0.031 C 
ATOM     22  C   UNL     1      45.365  31.818   6.221  1.00  0.00    -0.008 C 
ATOM     23  C   UNL     1      44.619  31.904   3.798  1.00  0.00    -0.027 C 
ATOM     24  C   UNL     1      45.488  32.277   4.759  1.00  0.00    -0.065 C 
ATOM     25  C   UNL     1      46.577  30.869   6.492  1.00  0.00     0.014 C 
ATOM     26  C   UNL     1      45.486  33.052   7.155  1.00  0.00     0.016 C 
ATOM     27  C   UNL     1      46.791  32.926   4.335  1.00  0.00     0.063 C 
ATOM     28  C   UNL     1      47.948  31.446   6.073  1.00  0.00     0.033 C 
ATOM     29  C   UNL     1      47.972  31.983   4.626  1.00  0.00     0.118 C 
BRANCH  29  30
ATOM     30  O   UNL     1      48.027  30.933   3.689  1.00  0.00    -0.393 OA
ATOM     31  H   UNL     1      47.440  31.170   2.926  1.00  0.00     0.210 HD
ENDBRANCH  29  30
ENDBRANCH   1  11
TORSDOF 6
ENDMDL
MODEL 2
REMARK VINA RESULT:    -7.464      4.275      8.591
REMARK INTER + INTRA:         -10.932
REMARK INTER:                  -9.407
REMARK INTRA:                  -1.525
REMARK UNBOUND:                -1.068
REMARK SMILES CC[C@@H](C=C[C@H](C)[C@@H]1CC[C@@H]2[C@H]3CC=C4C[C@H](O)CC[C@]4(C)[C@H]3CC[C@@]21C)C(C)C
REMARK SMILES IDX 6 1 7 2 5 3 4 4 3 5 2 6 1 7 28 8 29 9 30 10 8 11 9 12 26 13
REMARK SMILES IDX 10 14 11 15 25 16 27 17 12 18 24 19 23 20 13 21 21 22 14 23
REMARK SMILES IDX 15 24 20 25 22 26 16 27 19 28 17 29 18 30
REMARK H PARENT 18 31
REMARK Flexibility Score: inf
ROOT
ATOM      1  C   UNL     1      42.867  32.279   6.883  1.00  0.00     0.012 C 
ATOM      2  C   UNL     1      44.058  33.160   7.311  1.00  0.00     0.012 C 
ENDROOT
BRANCH   1   3
ATOM      3  C   UNL     1      43.337  30.855   6.696  1.00  0.00    -0.028 C 
ATOM      4  C   UNL     1      42.854  30.071   5.719  1.00  0.00    -0.027 C 
BRANCH   4   5
ATOM      5  C   UNL     1      43.335  28.644   5.540  1.00  0.00     0.014 C 
BRANCH   5   6
ATOM      6  C   UNL     1      44.402  28.573   4.422  1.00  0.00     0.004 C 
ATOM      7  C   UNL     1      45.815  28.817   4.955  1.00  0.00     0.004 C 
ENDBRANCH   5   6
BRANCH   5   8
ATOM      8  C   UNL     1      42.156  27.656   5.284  1.00  0.00    -0.011 C 
ATOM      9  C   UNL     1      41.732  27.557   3.807  1.00  0.00     0.008 C 
ATOM     10  C   UNL     1      40.940  27.998   6.159  1.00  0.00     0.008 C 
ENDBRANCH   5   8
ENDBRANCH   4   5
ENDBRANCH   1   3
BRANCH   1  11
ATOM     11  C   UNL     1      41.562  32.349   7.756  1.00  0.00     0.002 C 
ATOM     12  C   UNL     1      41.407  31.152   8.715  1.00  0.00     0.005 C 
ATOM     13  C   UNL     1      40.154  32.609   7.104  1.00  0.00    -0.026 C 
ATOM     14  C   UNL     1      39.933  30.779   8.722  1.00  0.00     0.005 C 
ATOM     15  C   UNL     1      39.186  31.989   8.157  1.00  0.00    -0.001 C 
ATOM     16  C   UNL     1      39.983  31.906   5.733  1.00  0.00     0.007 C 
ATOM     17  C   UNL     1      39.923  34.138   6.952  1.00  0.00     0.012 C 
ATOM     18  C   UNL     1      37.746  31.615   7.682  1.00  0.00     0.000 C 
ATOM     19  C   UNL     1      38.523  31.769   5.279  1.00  0.00     0.005 C 
ATOM     20  C   UNL     1      37.709  30.928   6.294  1.00  0.00     0.003 C 
ATOM     21  C   UNL     1      36.808  32.834   7.708  1.00  0.00     0.031 C 
ATOM     22  C   UNL     1      36.227  30.536   5.858  1.00  0.00    -0.008 C 
ATOM     23  C   UNL     1      35.422  32.464   7.295  1.00  0.00    -0.027 C 
ATOM     24  C   UNL     1      35.151  31.485   6.409  1.00  0.00    -0.065 C 
ATOM     25  C   UNL     1      35.908  29.119   6.438  1.00  0.00     0.014 C 
ATOM     26  C   UNL     1      36.109  30.473   4.311  1.00  0.00     0.016 C 
ATOM     27  C   UNL     1      33.700  31.116   6.172  1.00  0.00     0.063 C 
ATOM     28  C   UNL     1      34.441  28.667   6.254  1.00  0.00     0.033 C 
ATOM     29  C   UNL     1      33.412  29.712   6.734  1.00  0.00     0.118 C 
BRANCH  29  30
ATOM     30  O   UNL     1      33.322  29.737   8.139  1.00  0.00    -0.393 OA
ATOM     31  H   UNL     1      34.213  29.511   8.510  1.00  0.00     0.210 HD
ENDBRANCH  29  30
ENDBRANCH   1  11
TORSDOF 6
ENDMDL
MODEL 3
REMARK VINA RESULT:    -7.196      6.447     10.636
REMARK INTER + INTRA:         -10.577
REMARK INTER:                  -9.469
REMARK INTRA:                  -1.108
REMARK UNBOUND:                -1.068
REMARK SMILES CC[C@@H](C=C[C@H](C)[C@@H]1CC[C@@H]2[C@H]3CC=C4C[C@H](O)CC[C@]4(C)[C@H]3CC[C@@]21C)C(C)C
REMARK SMILES IDX 6 1 7 2 5 3 4 4 3 5 2 6 1 7 28 8 29 9 30 10 8 11 9 12 26 13
REMARK SMILES IDX 10 14 11 15 25 16 27 17 12 18 24 19 23 20 13 21 21 22 14 23
REMARK SMILES IDX 15 24 20 25 22 26 16 27 19 28 17 29 18 30
REMARK H PARENT 18 31
REMARK Flexibility Score: inf
ROOT
ATOM      1  C   UNL     1      46.381  39.083   6.478  1.00  0.00     0.012 C 
ATOM      2  C   UNL     1      47.314  39.983   5.644  1.00  0.00     0.012 C 
ENDROOT
BRANCH   1   3
ATOM      3  C   UNL     1      46.689  39.264   7.946  1.00  0.00    -0.028 C 
ATOM      4  C   UNL     1      47.475  38.408   8.618  1.00  0.00    -0.027 C 
BRANCH   4   5
ATOM      5  C   UNL     1      47.779  38.601  10.092  1.00  0.00     0.014 C 
BRANCH   5   6
ATOM      6  C   UNL     1      46.803  39.630  10.710  1.00  0.00     0.004 C 
ATOM      7  C   UNL     1      45.817  38.980  11.682  1.00  0.00     0.004 C 
ENDBRANCH   5   6
BRANCH   5   8
ATOM      8  C   UNL     1      49.268  38.990  10.337  1.00  0.00    -0.011 C 
ATOM      9  C   UNL     1      50.278  38.101   9.589  1.00  0.00     0.008 C 
ATOM     10  C   UNL     1      49.599  39.015  11.838  1.00  0.00     0.008 C 
ENDBRANCH   5   8
ENDBRANCH   4   5
ENDBRANCH   1   3
BRANCH   1  11
ATOM     11  C   UNL     1      44.838  39.175   6.194  1.00  0.00     0.002 C 
ATOM     12  C   UNL     1      43.974  38.957   7.452  1.00  0.00     0.005 C 
ATOM     13  C   UNL     1      44.171  38.363   5.024  1.00  0.00    -0.026 C 
ATOM     14  C   UNL     1      42.770  38.134   7.023  1.00  0.00     0.005 C 
ATOM     15  C   UNL     1      42.691  38.257   5.500  1.00  0.00    -0.001 C 
ATOM     16  C   UNL     1      44.783  36.949   4.844  1.00  0.00     0.007 C 
ATOM     17  C   UNL     1      44.285  39.166   3.699  1.00  0.00     0.012 C 
ATOM     18  C   UNL     1      41.807  37.134   4.870  1.00  0.00     0.000 C 
ATOM     19  C   UNL     1      43.902  35.985   4.036  1.00  0.00     0.005 C 
ATOM     20  C   UNL     1      42.536  35.774   4.734  1.00  0.00     0.003 C 
ATOM     21  C   UNL     1      41.219  37.570   3.517  1.00  0.00     0.031 C 
ATOM     22  C   UNL     1      41.593  34.647   4.116  1.00  0.00    -0.008 C 
ATOM     23  C   UNL     1      40.341  36.512   2.938  1.00  0.00    -0.027 C 
ATOM     24  C   UNL     1      40.542  35.194   3.137  1.00  0.00    -0.065 C 
ATOM     25  C   UNL     1      40.804  33.976   5.286  1.00  0.00     0.014 C 
ATOM     26  C   UNL     1      42.438  33.558   3.401  1.00  0.00     0.016 C 
ATOM     27  C   UNL     1      39.505  34.223   2.605  1.00  0.00     0.063 C 
ATOM     28  C   UNL     1      39.712  32.980   4.833  1.00  0.00     0.033 C 
ATOM     29  C   UNL     1      38.752  33.561   3.773  1.00  0.00     0.118 C 
BRANCH  29  30
ATOM     30  O   UNL     1      37.827  34.452   4.351  1.00  0.00    -0.393 OA
ATOM     31  H   UNL     1      38.177  35.373   4.243  1.00  0.00     0.210 HD
ENDBRANCH  29  30
ENDBRANCH   1  11
TORSDOF 6
ENDMDL
MODEL 4
REMARK VINA RESULT:    -7.189      6.419     10.082
REMARK INTER + INTRA:         -10.568
REMARK INTER:                  -9.476
REMARK INTRA:                  -1.092
REMARK UNBOUND:                -1.068
REMARK SMILES CC[C@@H](C=C[C@H](C)[C@@H]1CC[C@@H]2[C@H]3CC=C4C[C@H](O)CC[C@]4(C)[C@H]3CC[C@@]21C)C(C)C
REMARK SMILES IDX 6 1 7 2 5 3 4 4 3 5 2 6 1 7 28 8 29 9 30 10 8 11 9 12 26 13
REMARK SMILES IDX 10 14 11 15 25 16 27 17 12 18 24 19 23 20 13 21 21 22 14 23
REMARK SMILES IDX 15 24 20 25 22 26 16 27 19 28 17 29 18 30
REMARK H PARENT 18 31
REMARK Flexibility Score: inf
ROOT
ATOM      1  C   UNL     1      46.428  38.617  10.234  1.00  0.00     0.012 C 
ATOM      2  C   UNL     1      47.735  39.221  10.783  1.00  0.00     0.012 C 
ENDROOT
BRANCH   1   3
ATOM      3  C   UNL     1      45.249  39.227  10.956  1.00  0.00    -0.028 C 
ATOM      4  C   UNL     1      45.359  39.732  12.195  1.00  0.00    -0.027 C 
BRANCH   4   5
ATOM      5  C   UNL     1      44.169  40.344  12.909  1.00  0.00     0.014 C 
BRANCH   5   6
ATOM      6  C   UNL     1      44.329  41.880  13.000  1.00  0.00     0.004 C 
ATOM      7  C   UNL     1      43.140  42.545  13.695  1.00  0.00     0.004 C 
ENDBRANCH   5   6
BRANCH   5   8
ATOM      8  C   UNL     1      43.929  39.699  14.307  1.00  0.00    -0.011 C 
ATOM      9  C   UNL     1      45.094  38.820  14.798  1.00  0.00     0.008 C 
ATOM     10  C   UNL     1      42.616  38.900  14.338  1.00  0.00     0.008 C 
ENDBRANCH   5   8
ENDBRANCH   4   5
ENDBRANCH   1   3
BRANCH   1  11
ATOM     11  C   UNL     1      46.222  38.627   8.676  1.00  0.00     0.002 C 
ATOM     12  C   UNL     1      45.181  39.664   8.207  1.00  0.00     0.005 C 
ATOM     13  C   UNL     1      45.949  37.299   7.877  1.00  0.00    -0.026 C 
ATOM     14  C   UNL     1      44.385  39.014   7.086  1.00  0.00     0.005 C 
ATOM     15  C   UNL     1      45.220  37.826   6.604  1.00  0.00    -0.001 C 
ATOM     16  C   UNL     1      45.041  36.305   8.647  1.00  0.00     0.007 C 
ATOM     17  C   UNL     1      47.299  36.619   7.517  1.00  0.00     0.012 C 
ATOM     18  C   UNL     1      44.365  36.806   5.787  1.00  0.00     0.000 C 
ATOM     19  C   UNL     1      44.407  35.224   7.761  1.00  0.00     0.005 C 
ATOM     20  C   UNL     1      43.511  35.863   6.671  1.00  0.00     0.003 C 
ATOM     21  C   UNL     1      45.234  35.994   4.812  1.00  0.00     0.031 C 
ATOM     22  C   UNL     1      42.632  34.859   5.801  1.00  0.00    -0.008 C 
ATOM     23  C   UNL     1      44.409  35.051   4.002  1.00  0.00    -0.027 C 
ATOM     24  C   UNL     1      43.279  34.476   4.460  1.00  0.00    -0.065 C 
ATOM     25  C   UNL     1      41.281  35.567   5.455  1.00  0.00     0.014 C 
ATOM     26  C   UNL     1      42.319  33.567   6.604  1.00  0.00     0.016 C 
ATOM     27  C   UNL     1      42.458  33.640   3.497  1.00  0.00     0.063 C 
ATOM     28  C   UNL     1      40.386  34.791   4.464  1.00  0.00     0.033 C 
ATOM     29  C   UNL     1      41.127  34.347   3.184  1.00  0.00     0.118 C 
BRANCH  29  30
ATOM     30  O   UNL     1      41.321  35.428   2.302  1.00  0.00    -0.393 OA
ATOM     31  H   UNL     1      42.280  35.452   2.050  1.00  0.00     0.210 HD
ENDBRANCH  29  30
ENDBRANCH   1  11
TORSDOF 6
ENDMDL
MODEL 5
REMARK VINA RESULT:    -7.181      6.590     10.754
REMARK INTER + INTRA:         -10.558
REMARK INTER:                  -9.185
REMARK INTRA:                  -1.373
REMARK UNBOUND:                -1.068
REMARK SMILES CC[C@@H](C=C[C@H](C)[C@@H]1CC[C@@H]2[C@H]3CC=C4C[C@H](O)CC[C@]4(C)[C@H]3CC[C@@]21C)C(C)C
REMARK SMILES IDX 6 1 7 2 5 3 4 4 3 5 2 6 1 7 28 8 29 9 30 10 8 11 9 12 26 13
REMARK SMILES IDX 10 14 11 15 25 16 27 17 12 18 24 19 23 20 13 21 21 22 14 23
REMARK SMILES IDX 15 24 20 25 22 26 16 27 19 28 17 29 18 30
REMARK H PARENT 18 31
REMARK Flexibility Score: inf
ROOT
ATOM      1  C   UNL     1      43.038  37.181   1.371  1.00  0.00     0.012 C 
ATOM      2  C   UNL     1      43.861  37.724   0.186  1.00  0.00     0.012 C 
ENDROOT
BRANCH   1   3
ATOM      3  C   UNL     1      43.237  38.074   2.573  1.00  0.00    -0.028 C 
ATOM      4  C   UNL     1      43.796  37.624   3.707  1.00  0.00    -0.027 C 
BRANCH   4   5
ATOM      5  C   UNL     1      43.993  38.531   4.907  1.00  0.00     0.014 C 
BRANCH   5   6
ATOM      6  C   UNL     1      45.482  38.553   5.325  1.00  0.00     0.004 C 
ATOM      7  C   UNL     1      46.147  39.897   5.024  1.00  0.00     0.004 C 
ENDBRANCH   5   6
BRANCH   5   8
ATOM      8  C   UNL     1      43.060  38.143   6.094  1.00  0.00    -0.011 C 
ATOM      9  C   UNL     1      41.588  38.547   5.891  1.00  0.00     0.008 C 
ATOM     10  C   UNL     1      43.583  38.708   7.424  1.00  0.00     0.008 C 
ENDBRANCH   5   8
ENDBRANCH   4   5
ENDBRANCH   1   3
BRANCH   1  11
ATOM     11  C   UNL     1      41.516  36.877   1.119  1.00  0.00     0.002 C 
ATOM     12  C   UNL     1      40.578  37.951   1.706  1.00  0.00     0.005 C 
ATOM     13  C   UNL     1      40.893  35.475   1.464  1.00  0.00    -0.026 C 
ATOM     14  C   UNL     1      39.377  37.219   2.284  1.00  0.00     0.005 C 
ATOM     15  C   UNL     1      39.386  35.824   1.656  1.00  0.00    -0.001 C 
ATOM     16  C   UNL     1      41.474  34.858   2.763  1.00  0.00     0.007 C 
ATOM     17  C   UNL     1      41.103  34.502   0.271  1.00  0.00     0.012 C 
ATOM     18  C   UNL     1      38.508  34.816   2.463  1.00  0.00     0.000 C 
ATOM     19  C   UNL     1      40.613  33.736   3.361  1.00  0.00     0.005 C 
ATOM     20  C   UNL     1      39.205  34.264   3.732  1.00  0.00     0.003 C 
ATOM     21  C   UNL     1      38.009  33.664   1.575  1.00  0.00     0.031 C 
ATOM     22  C   UNL     1      38.267  33.263   4.544  1.00  0.00    -0.008 C 
ATOM     23  C   UNL     1      37.135  32.726   2.339  1.00  0.00    -0.027 C 
ATOM     24  C   UNL     1      37.287  32.480   3.655  1.00  0.00    -0.065 C 
ATOM     25  C   UNL     1      37.394  34.105   5.531  1.00  0.00     0.014 C 
ATOM     26  C   UNL     1      39.119  32.261   5.370  1.00  0.00     0.016 C 
ATOM     27  C   UNL     1      36.255  31.609   4.346  1.00  0.00     0.063 C 
ATOM     28  C   UNL     1      36.302  33.298   6.268  1.00  0.00     0.033 C 
ATOM     29  C   UNL     1      35.420  32.454   5.324  1.00  0.00     0.118 C 
BRANCH  29  30
ATOM     30  O   UNL     1      34.489  33.256   4.637  1.00  0.00    -0.393 OA
ATOM     31  H   UNL     1      33.822  32.659   4.211  1.00  0.00     0.210 HD
ENDBRANCH  29  30
ENDBRANCH   1  11
TORSDOF 6
ENDMDL
MODEL 6
REMARK VINA RESULT:    -7.142      3.674      8.812
REMARK INTER + INTRA:         -10.506
REMARK INTER:                  -8.869
REMARK INTRA:                  -1.637
REMARK UNBOUND:                -1.068
REMARK SMILES CC[C@@H](C=C[C@H](C)[C@@H]1CC[C@@H]2[C@H]3CC=C4C[C@H](O)CC[C@]4(C)[C@H]3CC[C@@]21C)C(C)C
REMARK SMILES IDX 6 1 7 2 5 3 4 4 3 5 2 6 1 7 28 8 29 9 30 10 8 11 9 12 26 13
REMARK SMILES IDX 10 14 11 15 25 16 27 17 12 18 24 19 23 20 13 21 21 22 14 23
REMARK SMILES IDX 15 24 20 25 22 26 16 27 19 28 17 29 18 30
REMARK H PARENT 18 31
REMARK Flexibility Score: inf
ROOT
ATOM      1  C   UNL     1      44.241  29.123   6.450  1.00  0.00     0.012 C 
ATOM      2  C   UNL     1      45.515  28.383   6.902  1.00  0.00     0.012 C 
ENDROOT
BRANCH   1   3
ATOM      3  C   UNL     1      44.544  29.937   5.214  1.00  0.00    -0.028 C 
ATOM      4  C   UNL     1      44.282  31.252   5.148  1.00  0.00    -0.027 C 
BRANCH   4   5
ATOM      5  C   UNL     1      44.593  32.060   3.902  1.00  0.00     0.014 C 
BRANCH   5   6
ATOM      6  C   UNL     1      43.348  32.136   2.987  1.00  0.00     0.004 C 
ATOM      7  C   UNL     1      42.047  31.909   3.760  1.00  0.00     0.004 C 
ENDBRANCH   5   6
BRANCH   5   8
ATOM      8  C   UNL     1      45.840  31.512   3.144  1.00  0.00    -0.011 C 
ATOM      9  C   UNL     1      47.184  31.953   3.752  1.00  0.00     0.008 C 
ATOM     10  C   UNL     1      45.792  31.876   1.651  1.00  0.00     0.008 C 
ENDBRANCH   5   8
ENDBRANCH   4   5
ENDBRANCH   1   3
BRANCH   1  11
ATOM     11  C   UNL     1      42.930  28.273   6.277  1.00  0.00     0.002 C 
ATOM     12  C   UNL     1      42.546  28.043   4.802  1.00  0.00     0.005 C 
ATOM     13  C   UNL     1      41.610  28.635   7.051  1.00  0.00    -0.026 C 
ATOM     14  C   UNL     1      41.032  28.153   4.717  1.00  0.00     0.005 C 
ATOM     15  C   UNL     1      40.514  27.994   6.148  1.00  0.00    -0.001 C 
ATOM     16  C   UNL     1      41.382  30.165   7.175  1.00  0.00     0.007 C 
ATOM     17  C   UNL     1      41.636  27.984   8.462  1.00  0.00     0.012 C 
ATOM     18  C   UNL     1      39.052  28.523   6.301  1.00  0.00     0.000 C 
ATOM     19  C   UNL     1      39.938  30.555   7.521  1.00  0.00     0.005 C 
ATOM     20  C   UNL     1      38.960  30.064   6.426  1.00  0.00     0.003 C 
ATOM     21  C   UNL     1      38.324  27.841   7.471  1.00  0.00     0.031 C 
ATOM     22  C   UNL     1      37.452  30.567   6.549  1.00  0.00    -0.008 C 
ATOM     23  C   UNL     1      36.914  28.316   7.588  1.00  0.00    -0.027 C 
ATOM     24  C   UNL     1      36.523  29.561   7.248  1.00  0.00    -0.065 C 
ATOM     25  C   UNL     1      36.885  30.766   5.106  1.00  0.00     0.014 C 
ATOM     26  C   UNL     1      37.387  31.926   7.297  1.00  0.00     0.016 C 
ATOM     27  C   UNL     1      35.042  29.883   7.286  1.00  0.00     0.063 C 
ATOM     28  C   UNL     1      35.373  31.082   5.050  1.00  0.00     0.033 C 
ATOM     29  C   UNL     1      34.508  30.091   5.858  1.00  0.00     0.118 C 
BRANCH  29  30
ATOM     30  O   UNL     1      34.368  28.863   5.183  1.00  0.00    -0.393 OA
ATOM     31  H   UNL     1      33.894  29.033   4.329  1.00  0.00     0.210 HD
ENDBRANCH  29  30
ENDBRANCH   1  11
TORSDOF 6
ENDMDL
MODEL 7
REMARK VINA RESULT:    -7.114      8.754     11.369
REMARK INTER + INTRA:         -10.470
REMARK INTER:                  -9.488
REMARK INTRA:                  -0.981
REMARK UNBOUND:                -1.068
REMARK SMILES CC[C@@H](C=C[C@H](C)[C@@H]1CC[C@@H]2[C@H]3CC=C4C[C@H](O)CC[C@]4(C)[C@H]3CC[C@@]21C)C(C)C
REMARK SMILES IDX 6 1 7 2 5 3 4 4 3 5 2 6 1 7 28 8 29 9 30 10 8 11 9 12 26 13
REMARK SMILES IDX 10 14 11 15 25 16 27 17 12 18 24 19 23 20 13 21 21 22 14 23
REMARK SMILES IDX 15 24 20 25 22 26 16 27 19 28 17 29 18 30
REMARK H PARENT 18 31
REMARK Flexibility Score: inf
ROOT
ATOM      1  C   UNL     1      43.672  38.216   5.554  1.00  0.00     0.012 C 
ATOM      2  C   UNL     1      42.228  38.417   6.054  1.00  0.00     0.012 C 
ENDROOT
BRANCH   1   3
ATOM      3  C   UNL     1      43.726  38.456   4.063  1.00  0.00    -0.028 C 
ATOM      4  C   UNL     1      43.396  37.503   3.177  1.00  0.00    -0.027 C 
BRANCH   4   5
ATOM      5  C   UNL     1      43.452  37.757   1.683  1.00  0.00     0.014 C 
BRANCH   5   6
ATOM      6  C   UNL     1      43.502  39.277   1.398  1.00  0.00     0.004 C 
ATOM      7  C   UNL     1      44.302  39.603   0.136  1.00  0.00     0.004 C 
ENDBRANCH   5   6
BRANCH   5   8
ATOM      8  C   UNL     1      42.283  37.060   0.926  1.00  0.00    -0.011 C 
ATOM      9  C   UNL     1      40.885  37.430   1.457  1.00  0.00     0.008 C 
ATOM     10  C   UNL     1      42.454  35.532   0.915  1.00  0.00     0.008 C 
ENDBRANCH   5   8
ENDBRANCH   4   5
ENDBRANCH   1   3
BRANCH   1  11
ATOM     11  C   UNL     1      44.816  38.987   6.307  1.00  0.00     0.002 C 
ATOM     12  C   UNL     1      46.106  39.125   5.474  1.00  0.00     0.005 C 
ATOM     13  C   UNL     1      45.244  38.594   7.769  1.00  0.00    -0.026 C 
ATOM     14  C   UNL     1      47.272  38.932   6.431  1.00  0.00     0.005 C 
ATOM     15  C   UNL     1      46.705  39.132   7.838  1.00  0.00    -0.001 C 
ATOM     16  C   UNL     1      45.221  37.062   8.014  1.00  0.00     0.007 C 
ATOM     17  C   UNL     1      44.325  39.312   8.794  1.00  0.00     0.012 C 
ATOM     18  C   UNL     1      47.644  38.536   8.935  1.00  0.00     0.000 C 
ATOM     19  C   UNL     1      46.026  36.614   9.242  1.00  0.00     0.005 C 
ATOM     20  C   UNL     1      47.518  36.999   9.090  1.00  0.00     0.003 C 
ATOM     21  C   UNL     1      47.444  39.235  10.290  1.00  0.00     0.031 C 
ATOM     22  C   UNL     1      48.512  36.426  10.196  1.00  0.00    -0.008 C 
ATOM     23  C   UNL     1      48.372  38.692  11.326  1.00  0.00    -0.027 C 
ATOM     24  C   UNL     1      48.800  37.414  11.338  1.00  0.00    -0.065 C 
ATOM     25  C   UNL     1      49.885  36.127   9.511  1.00  0.00     0.014 C 
ATOM     26  C   UNL     1      47.961  35.102  10.794  1.00  0.00     0.016 C 
ATOM     27  C   UNL     1      49.844  37.017  12.363  1.00  0.00     0.063 C 
ATOM     28  C   UNL     1      51.016  35.730  10.487  1.00  0.00     0.033 C 
ATOM     29  C   UNL     1      51.182  36.712  11.666  1.00  0.00     0.118 C 
BRANCH  29  30
ATOM     30  O   UNL     1      51.826  37.897  11.261  1.00  0.00    -0.393 OA
ATOM     31  H   UNL     1      51.141  38.610  11.187  1.00  0.00     0.210 HD
ENDBRANCH  29  30
ENDBRANCH   1  11
TORSDOF 6
ENDMDL
MODEL 8
REMARK VINA RESULT:    -6.979      6.698     10.622
REMARK INTER + INTRA:         -10.291
REMARK INTER:                  -9.129
REMARK INTRA:                  -1.162
REMARK UNBOUND:                -1.068
REMARK SMILES CC[C@@H](C=C[C@H](C)[C@@H]1CC[C@@H]2[C@H]3CC=C4C[C@H](O)CC[C@]4(C)[C@H]3CC[C@@]21C)C(C)C
REMARK SMILES IDX 6 1 7 2 5 3 4 4 3 5 2 6 1 7 28 8 29 9 30 10 8 11 9 12 26 13
REMARK SMILES IDX 10 14 11 15 25 16 27 17 12 18 24 19 23 20 13 21 21 22 14 23
REMARK SMILES IDX 15 24 20 25 22 26 16 27 19 28 17 29 18 30
REMARK H PARENT 18 31
REMARK Flexibility Score: inf
ROOT
ATOM      1  C   UNL     1      44.392  37.997   4.765  1.00  0.00     0.012 C 
ATOM      2  C   UNL     1      43.883  38.672   3.476  1.00  0.00     0.012 C 
ENDROOT
BRANCH   1   3
ATOM      3  C   UNL     1      45.280  36.829   4.404  1.00  0.00    -0.028 C 
ATOM      4  C   UNL     1      44.801  35.579   4.297  1.00  0.00    -0.027 C 
BRANCH   4   5
ATOM      5  C   UNL     1      45.702  34.415   3.932  1.00  0.00     0.014 C 
BRANCH   5   6
ATOM      6  C   UNL     1      45.408  33.201   4.845  1.00  0.00     0.004 C 
ATOM      7  C   UNL     1      44.381  33.530   5.930  1.00  0.00     0.004 C 
ENDBRANCH   5   6
BRANCH   5   8
ATOM      8  C   UNL     1      47.209  34.810   3.956  1.00  0.00    -0.011 C 
ATOM      9  C   UNL     1      47.929  34.616   2.608  1.00  0.00     0.008 C 
ATOM     10  C   UNL     1      47.965  34.066   5.069  1.00  0.00     0.008 C 
ENDBRANCH   5   8
ENDBRANCH   4   5
ENDBRANCH   1   3
BRANCH   1  11
ATOM     11  C   UNL     1      45.057  38.916   5.853  1.00  0.00     0.002 C 
ATOM     12  C   UNL     1      46.422  39.484   5.415  1.00  0.00     0.005 C 
ATOM     13  C   UNL     1      45.206  38.444   7.346  1.00  0.00    -0.026 C 
ATOM     14  C   UNL     1      47.325  39.456   6.639  1.00  0.00     0.005 C 
ATOM     15  C   UNL     1      46.397  39.314   7.847  1.00  0.00    -0.001 C 
ATOM     16  C   UNL     1      45.547  36.936   7.472  1.00  0.00     0.007 C 
ATOM     17  C   UNL     1      43.901  38.763   8.127  1.00  0.00     0.012 C 
ATOM     18  C   UNL     1      47.166  38.823   9.116  1.00  0.00     0.000 C 
ATOM     19  C   UNL     1      46.117  36.537   8.840  1.00  0.00     0.005 C 
ATOM     20  C   UNL     1      47.435  37.298   9.128  1.00  0.00     0.003 C 
ATOM     21  C   UNL     1      46.455  39.257  10.409  1.00  0.00     0.031 C 
ATOM     22  C   UNL     1      48.246  36.842  10.422  1.00  0.00    -0.008 C 
ATOM     23  C   UNL     1      47.213  38.824  11.620  1.00  0.00    -0.027 C 
ATOM     24  C   UNL     1      47.961  37.703  11.662  1.00  0.00    -0.065 C 
ATOM     25  C   UNL     1      49.773  36.992  10.119  1.00  0.00     0.014 C 
ATOM     26  C   UNL     1      47.953  35.354  10.756  1.00  0.00     0.016 C 
ATOM     27  C   UNL     1      48.789  37.441  12.905  1.00  0.00     0.063 C 
ATOM     28  C   UNL     1      50.693  36.757  11.337  1.00  0.00     0.033 C 
ATOM     29  C   UNL     1      50.288  37.577  12.581  1.00  0.00     0.118 C 
BRANCH  29  30
ATOM     30  O   UNL     1      50.658  38.929  12.448  1.00  0.00    -0.393 OA
ATOM     31  H   UNL     1      50.413  39.228  11.535  1.00  0.00     0.210 HD
ENDBRANCH  29  30
ENDBRANCH   1  11
TORSDOF 6
ENDMDL
MODEL 9
REMARK VINA RESULT:    -6.902      4.984     10.099
REMARK INTER + INTRA:         -10.189
REMARK INTER:                  -8.415
REMARK INTRA:                  -1.774
REMARK UNBOUND:                -1.068
REMARK SMILES CC[C@@H](C=C[C@H](C)[C@@H]1CC[C@@H]2[C@H]3CC=C4C[C@H](O)CC[C@]4(C)[C@H]3CC[C@@]21C)C(C)C
REMARK SMILES IDX 6 1 7 2 5 3 4 4 3 5 2 6 1 7 28 8 29 9 30 10 8 11 9 12 26 13
REMARK SMILES IDX 10 14 11 15 25 16 27 17 12 18 24 19 23 20 13 21 21 22 14 23
REMARK SMILES IDX 15 24 20 25 22 26 16 27 19 28 17 29 18 30
REMARK H PARENT 18 31
REMARK Flexibility Score: inf
ROOT
ATOM      1  C   UNL     1      41.466  35.479   4.744  1.00  0.00     0.012 C 
ATOM      2  C   UNL     1      42.759  36.278   4.996  1.00  0.00     0.012 C 
ENDROOT
BRANCH   1   3
ATOM      3  C   UNL     1      41.179  35.441   3.262  1.00  0.00    -0.028 C 
ATOM      4  C   UNL     1      39.964  35.726   2.766  1.00  0.00    -0.027 C 
BRANCH   4   5
ATOM      5  C   UNL     1      39.688  35.687   1.275  1.00  0.00     0.014 C 
BRANCH   5   6
ATOM      6  C   UNL     1      38.786  36.875   0.864  1.00  0.00     0.004 C 
ATOM      7  C   UNL     1      38.631  37.900   1.989  1.00  0.00     0.004 C 
ENDBRANCH   5   6
BRANCH   5   8
ATOM      8  C   UNL     1      39.091  34.320   0.825  1.00  0.00    -0.011 C 
ATOM      9  C   UNL     1      38.372  33.551   1.949  1.00  0.00     0.008 C 
ATOM     10  C   UNL     1      40.163  33.427   0.179  1.00  0.00     0.008 C 
ENDBRANCH   5   8
ENDBRANCH   4   5
ENDBRANCH   1   3
BRANCH   1  11
ATOM     11  C   UNL     1      41.357  34.051   5.393  1.00  0.00     0.002 C 
ATOM     12  C   UNL     1      41.677  32.910   4.406  1.00  0.00     0.005 C 
ATOM     13  C   UNL     1      40.085  33.617   6.210  1.00  0.00    -0.026 C 
ATOM     14  C   UNL     1      40.697  31.784   4.701  1.00  0.00     0.005 C 
ATOM     15  C   UNL     1      40.136  32.064   6.096  1.00  0.00    -0.001 C 
ATOM     16  C   UNL     1      38.763  34.160   5.607  1.00  0.00     0.007 C 
ATOM     17  C   UNL     1      40.228  34.083   7.686  1.00  0.00     0.012 C 
ATOM     18  C   UNL     1      38.813  31.276   6.360  1.00  0.00     0.000 C 
ATOM     19  C   UNL     1      37.506  33.427   6.094  1.00  0.00     0.005 C 
ATOM     20  C   UNL     1      37.564  31.926   5.714  1.00  0.00     0.003 C 
ATOM     21  C   UNL     1      38.585  31.043   7.863  1.00  0.00     0.031 C 
ATOM     22  C   UNL     1      36.241  31.078   5.980  1.00  0.00    -0.008 C 
ATOM     23  C   UNL     1      37.343  30.253   8.110  1.00  0.00    -0.027 C 
ATOM     24  C   UNL     1      36.256  30.316   7.315  1.00  0.00    -0.065 C 
ATOM     25  C   UNL     1      36.119  30.000   4.855  1.00  0.00     0.014 C 
ATOM     26  C   UNL     1      34.986  31.991   5.928  1.00  0.00     0.016 C 
ATOM     27  C   UNL     1      35.107  29.367   7.595  1.00  0.00     0.063 C 
ATOM     28  C   UNL     1      34.979  28.978   5.068  1.00  0.00     0.033 C 
ATOM     29  C   UNL     1      34.994  28.326   6.468  1.00  0.00     0.118 C 
BRANCH  29  30
ATOM     30  O   UNL     1      36.007  27.353   6.571  1.00  0.00    -0.393 OA
ATOM     31  H   UNL     1      35.602  26.522   6.928  1.00  0.00     0.210 HD
ENDBRANCH  29  30
ENDBRANCH   1  11
TORSDOF 6
ENDMDL
