MODEL 1
REMARK VINA RESULT:    -5.497      0.000      0.000
REMARK INTER + INTRA:         -13.626
REMARK INTER:                 -11.924
REMARK INTRA:                  -1.702
REMARK UNBOUND:                -1.702
REMARK SMILES CCCCCCCCCCCCCCCCCCCCCC(=O)[O-]
REMARK SMILES IDX 12 1 11 2 10 3 9 4 8 5 7 6 6 7 5 8 4 9 3 10 2 11 1 12 13 13
REMARK SMILES IDX 14 14 15 15 16 16 17 17 18 18 19 19 20 20 21 21 22 22 23 23
REMARK SMILES IDX 24 24
REMARK H PARENT
REMARK Flexibility Score: inf
ROOT
ATOM      1  C   UNL     1     -17.028  37.886  18.529  1.00  0.00     0.000 C 
ENDROOT
BRANCH   1   2
ATOM      2  C   UNL     1     -16.677  37.514  17.082  1.00  0.00     0.000 C 
BRANCH   2   3
ATOM      3  C   UNL     1     -15.998  36.138  16.963  1.00  0.00     0.000 C 
BRANCH   3   4
ATOM      4  C   UNL     1     -15.559  35.745  15.538  1.00  0.00    -0.000 C 
BRANCH   4   5
ATOM      5  C   UNL     1     -14.123  36.151  15.158  1.00  0.00    -0.000 C 
BRANCH   5   6
ATOM      6  C   UNL     1     -14.073  37.190  14.030  1.00  0.00    -0.000 C 
BRANCH   6   7
ATOM      7  C   UNL     1     -15.423  37.286  13.309  1.00  0.00    -0.000 C 
BRANCH   7   8
ATOM      8  C   UNL     1     -15.465  36.348  12.092  1.00  0.00    -0.000 C 
BRANCH   8   9
ATOM      9  C   UNL     1     -16.858  35.738  11.852  1.00  0.00    -0.000 C 
BRANCH   9  10
ATOM     10  C   UNL     1     -16.964  34.229  12.138  1.00  0.00    -0.000 C 
BRANCH  10  11
ATOM     11  C   UNL     1     -17.816  33.914  13.376  1.00  0.00    -0.003 C 
ATOM     12  C   UNL     1     -18.608  35.140  13.825  1.00  0.00     0.004 C 
ENDBRANCH  10  11
ENDBRANCH   9  10
ENDBRANCH   8   9
ENDBRANCH   7   8
ENDBRANCH   6   7
ENDBRANCH   5   6
ENDBRANCH   4   5
ENDBRANCH   3   4
ENDBRANCH   2   3
ENDBRANCH   1   2
BRANCH   1  13
ATOM     13  C   UNL     1     -17.332  39.385  18.649  1.00  0.00     0.000 C 
BRANCH  13  14
ATOM     14  C   UNL     1     -18.586  39.632  19.496  1.00  0.00     0.000 C 
BRANCH  14  15
ATOM     15  C   UNL     1     -19.014  41.105  19.422  1.00  0.00     0.000 C 
BRANCH  15  16
ATOM     16  C   UNL     1     -18.003  42.050  20.087  1.00  0.00     0.000 C 
BRANCH  16  17
ATOM     17  C   UNL     1     -17.784  41.737  21.578  1.00  0.00     0.000 C 
BRANCH  17  18
ATOM     18  C   UNL     1     -16.286  41.720  21.952  1.00  0.00     0.000 C 
BRANCH  18  19
ATOM     19  C   UNL     1     -15.585  43.074  21.756  1.00  0.00     0.000 C 
BRANCH  19  20
ATOM     20  C   UNL     1     -16.209  44.200  22.592  1.00  0.00     0.006 C 
BRANCH  20  21
ATOM     21  C   UNL     1     -16.647  45.369  21.702  1.00  0.00     0.053 C 
BRANCH  21  22
ATOM     22  C   UNL     1     -16.305  46.677  22.341  1.00  0.00     0.041 C 
ATOM     23  O   UNL     1     -15.625  47.532  21.715  1.00  0.00    -0.550 OA
ATOM     24  O   UNL     1     -16.738  46.953  23.633  1.00  0.00    -0.550 OA
ENDBRANCH  21  22
ENDBRANCH  20  21
ENDBRANCH  19  20
ENDBRANCH  18  19
ENDBRANCH  17  18
ENDBRANCH  16  17
ENDBRANCH  15  16
ENDBRANCH  14  15
ENDBRANCH  13  14
ENDBRANCH   1  13
TORSDOF 20
ENDMDL
MODEL 2
REMARK VINA RESULT:    -5.340      4.652     11.139
REMARK INTER + INTRA:         -13.286
REMARK INTER:                 -11.668
REMARK INTRA:                  -1.618
REMARK UNBOUND:                -1.702
REMARK SMILES CCCCCCCCCCCCCCCCCCCCCC(=O)[O-]
REMARK SMILES IDX 12 1 11 2 10 3 9 4 8 5 7 6 6 7 5 8 4 9 3 10 2 11 1 12 13 13
REMARK SMILES IDX 14 14 15 15 16 16 17 17 18 18 19 19 20 20 21 21 22 22 23 23
REMARK SMILES IDX 24 24
REMARK H PARENT
REMARK Flexibility Score: inf
ROOT
ATOM      1  C   UNL     1     -17.230  38.198  18.592  1.00  0.00     0.000 C 
ENDROOT
BRANCH   1   2
ATOM      2  C   UNL     1     -16.998  39.714  18.659  1.00  0.00     0.000 C 
BRANCH   2   3
ATOM      3  C   UNL     1     -18.299  40.513  18.848  1.00  0.00     0.000 C 
BRANCH   3   4
ATOM      4  C   UNL     1     -18.360  41.371  20.128  1.00  0.00    -0.000 C 
BRANCH   4   5
ATOM      5  C   UNL     1     -17.906  40.661  21.416  1.00  0.00    -0.000 C 
BRANCH   5   6
ATOM      6  C   UNL     1     -16.592  41.222  21.978  1.00  0.00    -0.000 C 
BRANCH   6   7
ATOM      7  C   UNL     1     -16.244  42.565  21.326  1.00  0.00    -0.000 C 
BRANCH   7   8
ATOM      8  C   UNL     1     -15.932  43.629  22.390  1.00  0.00    -0.000 C 
BRANCH   8   9
ATOM      9  C   UNL     1     -16.955  44.779  22.408  1.00  0.00    -0.000 C 
BRANCH   9  10
ATOM     10  C   UNL     1     -16.870  45.707  23.632  1.00  0.00    -0.000 C 
BRANCH  10  11
ATOM     11  C   UNL     1     -16.530  47.158  23.260  1.00  0.00    -0.003 C 
ATOM     12  C   UNL     1     -16.026  47.253  21.822  1.00  0.00     0.004 C 
ENDBRANCH  10  11
ENDBRANCH   9  10
ENDBRANCH   8   9
ENDBRANCH   7   8
ENDBRANCH   6   7
ENDBRANCH   5   6
ENDBRANCH   4   5
ENDBRANCH   3   4
ENDBRANCH   2   3
ENDBRANCH   1   2
BRANCH   1  13
ATOM     13  C   UNL     1     -16.876  37.653  17.202  1.00  0.00     0.000 C 
BRANCH  13  14
ATOM     14  C   UNL     1     -16.059  36.359  17.304  1.00  0.00     0.000 C 
BRANCH  14  15
ATOM     15  C   UNL     1     -15.756  35.793  15.909  1.00  0.00     0.000 C 
BRANCH  15  16
ATOM     16  C   UNL     1     -14.347  36.156  15.416  1.00  0.00     0.000 C 
BRANCH  16  17
ATOM     17  C   UNL     1     -14.321  36.567  13.934  1.00  0.00     0.000 C 
BRANCH  17  18
ATOM     18  C   UNL     1     -15.344  37.681  13.624  1.00  0.00     0.000 C 
BRANCH  18  19
ATOM     19  C   UNL     1     -16.167  37.428  12.350  1.00  0.00     0.000 C 
BRANCH  19  20
ATOM     20  C   UNL     1     -16.919  36.091  12.377  1.00  0.00     0.006 C 
BRANCH  20  21
ATOM     21  C   UNL     1     -18.092  36.139  13.363  1.00  0.00     0.053 C 
BRANCH  21  22
ATOM     22  C   UNL     1     -18.537  34.757  13.722  1.00  0.00     0.041 C 
ATOM     23  O   UNL     1     -19.730  34.543  14.067  1.00  0.00    -0.550 OA
ATOM     24  O   UNL     1     -17.633  33.702  13.677  1.00  0.00    -0.550 OA
ENDBRANCH  21  22
ENDBRANCH  20  21
ENDBRANCH  19  20
ENDBRANCH  18  19
ENDBRANCH  17  18
ENDBRANCH  16  17
ENDBRANCH  15  16
ENDBRANCH  14  15
ENDBRANCH  13  14
ENDBRANCH   1  13
TORSDOF 20
ENDMDL
MODEL 3
REMARK VINA RESULT:    -5.278      4.109     10.635
REMARK INTER + INTRA:         -13.151
REMARK INTER:                 -12.058
REMARK INTRA:                  -1.094
REMARK UNBOUND:                -1.702
REMARK SMILES CCCCCCCCCCCCCCCCCCCCCC(=O)[O-]
REMARK SMILES IDX 12 1 11 2 10 3 9 4 8 5 7 6 6 7 5 8 4 9 3 10 2 11 1 12 13 13
REMARK SMILES IDX 14 14 15 15 16 16 17 17 18 18 19 19 20 20 21 21 22 22 23 23
REMARK SMILES IDX 24 24
REMARK H PARENT
REMARK Flexibility Score: inf
ROOT
ATOM      1  C   UNL     1     -16.915  37.645  18.150  1.00  0.00     0.000 C 
ENDROOT
BRANCH   1   2
ATOM      2  C   UNL     1     -17.072  39.122  18.538  1.00  0.00     0.000 C 
BRANCH   2   3
ATOM      3  C   UNL     1     -18.280  39.377  19.458  1.00  0.00     0.000 C 
BRANCH   3   4
ATOM      4  C   UNL     1     -18.903  40.782  19.344  1.00  0.00    -0.000 C 
BRANCH   4   5
ATOM      5  C   UNL     1     -18.532  41.757  20.476  1.00  0.00    -0.000 C 
BRANCH   5   6
ATOM      6  C   UNL     1     -17.540  41.158  21.482  1.00  0.00    -0.000 C 
BRANCH   6   7
ATOM      7  C   UNL     1     -16.491  42.193  21.905  1.00  0.00    -0.000 C 
BRANCH   7   8
ATOM      8  C   UNL     1     -17.029  43.623  21.734  1.00  0.00    -0.000 C 
BRANCH   8   9
ATOM      9  C   UNL     1     -16.169  44.678  22.453  1.00  0.00    -0.000 C 
BRANCH   9  10
ATOM     10  C   UNL     1     -16.895  45.463  23.561  1.00  0.00    -0.000 C 
BRANCH  10  11
ATOM     11  C   UNL     1     -16.573  46.965  23.536  1.00  0.00    -0.003 C 
ATOM     12  C   UNL     1     -16.004  47.383  22.182  1.00  0.00     0.004 C 
ENDBRANCH  10  11
ENDBRANCH   9  10
ENDBRANCH   8   9
ENDBRANCH   7   8
ENDBRANCH   6   7
ENDBRANCH   5   6
ENDBRANCH   4   5
ENDBRANCH   3   4
ENDBRANCH   2   3
ENDBRANCH   1   2
BRANCH   1  13
ATOM     13  C   UNL     1     -16.634  37.502  16.649  1.00  0.00     0.000 C 
BRANCH  13  14
ATOM     14  C   UNL     1     -15.937  36.172  16.338  1.00  0.00     0.000 C 
BRANCH  14  15
ATOM     15  C   UNL     1     -16.175  35.759  14.878  1.00  0.00     0.000 C 
BRANCH  15  16
ATOM     16  C   UNL     1     -15.104  36.309  13.925  1.00  0.00     0.000 C 
BRANCH  16  17
ATOM     17  C   UNL     1     -15.521  37.632  13.257  1.00  0.00     0.000 C 
BRANCH  17  18
ATOM     18  C   UNL     1     -17.055  37.768  13.152  1.00  0.00     0.000 C 
BRANCH  18  19
ATOM     19  C   UNL     1     -17.518  39.113  12.569  1.00  0.00     0.000 C 
BRANCH  19  20
ATOM     20  C   UNL     1     -16.365  39.946  11.994  1.00  0.00     0.006 C 
BRANCH  20  21
ATOM     21  C   UNL     1     -16.581  40.233  10.504  1.00  0.00     0.053 C 
BRANCH  21  22
ATOM     22  C   UNL     1     -16.892  41.679  10.283  1.00  0.00     0.041 C 
ATOM     23  O   UNL     1     -17.150  42.104   9.126  1.00  0.00    -0.550 OA
ATOM     24  O   UNL     1     -16.897  42.560  11.358  1.00  0.00    -0.550 OA
ENDBRANCH  21  22
ENDBRANCH  20  21
ENDBRANCH  19  20
ENDBRANCH  18  19
ENDBRANCH  17  18
ENDBRANCH  16  17
ENDBRANCH  15  16
ENDBRANCH  14  15
ENDBRANCH  13  14
ENDBRANCH   1  13
TORSDOF 20
ENDMDL
MODEL 4
REMARK VINA RESULT:    -5.269      6.336      8.749
REMARK INTER + INTRA:         -13.133
REMARK INTER:                 -10.431
REMARK INTRA:                  -2.702
REMARK UNBOUND:                -1.702
REMARK SMILES CCCCCCCCCCCCCCCCCCCCCC(=O)[O-]
REMARK SMILES IDX 12 1 11 2 10 3 9 4 8 5 7 6 6 7 5 8 4 9 3 10 2 11 1 12 13 13
REMARK SMILES IDX 14 14 15 15 16 16 17 17 18 18 19 19 20 20 21 21 22 22 23 23
REMARK SMILES IDX 24 24
REMARK H PARENT
REMARK Flexibility Score: inf
ROOT
ATOM      1  C   UNL     1     -17.207  40.755  11.291  1.00  0.00     0.000 C 
ENDROOT
BRANCH   1   2
ATOM      2  C   UNL     1     -15.788  40.502  11.819  1.00  0.00     0.000 C 
BRANCH   2   3
ATOM      3  C   UNL     1     -15.660  39.172  12.584  1.00  0.00     0.000 C 
BRANCH   3   4
ATOM      4  C   UNL     1     -14.284  38.919  13.233  1.00  0.00    -0.000 C 
BRANCH   4   5
ATOM      5  C   UNL     1     -13.900  37.438  13.400  1.00  0.00    -0.000 C 
BRANCH   5   6
ATOM      6  C   UNL     1     -13.881  36.986  14.867  1.00  0.00    -0.000 C 
BRANCH   6   7
ATOM      7  C   UNL     1     -14.884  35.850  15.105  1.00  0.00    -0.000 C 
BRANCH   7   8
ATOM      8  C   UNL     1     -16.323  36.386  15.145  1.00  0.00    -0.000 C 
BRANCH   8   9
ATOM      9  C   UNL     1     -17.285  35.590  14.244  1.00  0.00    -0.000 C 
BRANCH   9  10
ATOM     10  C   UNL     1     -17.355  36.070  12.784  1.00  0.00    -0.000 C 
BRANCH  10  11
ATOM     11  C   UNL     1     -16.705  35.086  11.800  1.00  0.00    -0.003 C 
ATOM     12  C   UNL     1     -15.847  35.821  10.773  1.00  0.00     0.004 C 
ENDBRANCH  10  11
ENDBRANCH   9  10
ENDBRANCH   8   9
ENDBRANCH   7   8
ENDBRANCH   6   7
ENDBRANCH   5   6
ENDBRANCH   4   5
ENDBRANCH   3   4
ENDBRANCH   2   3
ENDBRANCH   1   2
BRANCH   1  13
ATOM     13  C   UNL     1     -17.169  41.237   9.835  1.00  0.00     0.000 C 
BRANCH  13  14
ATOM     14  C   UNL     1     -16.227  40.374   8.988  1.00  0.00     0.000 C 
BRANCH  14  15
ATOM     15  C   UNL     1     -15.380  41.248   8.050  1.00  0.00     0.000 C 
BRANCH  15  16
ATOM     16  C   UNL     1     -16.233  42.030   7.039  1.00  0.00     0.000 C 
BRANCH  16  17
ATOM     17  C   UNL     1     -16.113  43.554   7.210  1.00  0.00     0.000 C 
BRANCH  17  18
ATOM     18  C   UNL     1     -15.002  43.939   8.211  1.00  0.00     0.000 C 
BRANCH  18  19
ATOM     19  C   UNL     1     -15.528  44.612   9.490  1.00  0.00     0.000 C 
BRANCH  19  20
ATOM     20  C   UNL     1     -14.881  44.060  10.768  1.00  0.00     0.006 C 
BRANCH  20  21
ATOM     21  C   UNL     1     -15.418  44.779  12.011  1.00  0.00     0.053 C 
BRANCH  21  22
ATOM     22  C   UNL     1     -14.606  46.000  12.307  1.00  0.00     0.041 C 
ATOM     23  O   UNL     1     -15.145  47.139  12.296  1.00  0.00    -0.550 OA
ATOM     24  O   UNL     1     -13.252  45.881  12.596  1.00  0.00    -0.550 OA
ENDBRANCH  21  22
ENDBRANCH  20  21
ENDBRANCH  19  20
ENDBRANCH  18  19
ENDBRANCH  17  18
ENDBRANCH  16  17
ENDBRANCH  15  16
ENDBRANCH  14  15
ENDBRANCH  13  14
ENDBRANCH   1  13
TORSDOF 20
ENDMDL
MODEL 5
REMARK VINA RESULT:    -5.259      5.200     11.229
REMARK INTER + INTRA:         -13.110
REMARK INTER:                 -11.585
REMARK INTRA:                  -1.525
REMARK UNBOUND:                -1.702
REMARK SMILES CCCCCCCCCCCCCCCCCCCCCC(=O)[O-]
REMARK SMILES IDX 12 1 11 2 10 3 9 4 8 5 7 6 6 7 5 8 4 9 3 10 2 11 1 12 13 13
REMARK SMILES IDX 14 14 15 15 16 16 17 17 18 18 19 19 20 20 21 21 22 22 23 23
REMARK SMILES IDX 24 24
REMARK H PARENT
REMARK Flexibility Score: inf
ROOT
ATOM      1  C   UNL     1     -16.175  36.418  17.468  1.00  0.00     0.000 C 
ENDROOT
BRANCH   1   2
ATOM      2  C   UNL     1     -16.887  37.778  17.489  1.00  0.00     0.000 C 
BRANCH   2   3
ATOM      3  C   UNL     1     -17.032  38.358  18.908  1.00  0.00     0.000 C 
BRANCH   3   4
ATOM      4  C   UNL     1     -18.148  39.410  19.074  1.00  0.00    -0.000 C 
BRANCH   4   5
ATOM      5  C   UNL     1     -17.662  40.863  19.222  1.00  0.00    -0.000 C 
BRANCH   5   6
ATOM      6  C   UNL     1     -18.729  41.793  19.817  1.00  0.00    -0.000 C 
BRANCH   6   7
ATOM      7  C   UNL     1     -18.092  42.843  20.736  1.00  0.00    -0.000 C 
BRANCH   7   8
ATOM      8  C   UNL     1     -16.746  42.348  21.288  1.00  0.00    -0.000 C 
BRANCH   8   9
ATOM      9  C   UNL     1     -15.886  43.481  21.876  1.00  0.00    -0.000 C 
BRANCH   9  10
ATOM     10  C   UNL     1     -16.677  44.612  22.557  1.00  0.00    -0.000 C 
BRANCH  10  11
ATOM     11  C   UNL     1     -16.292  46.005  22.039  1.00  0.00    -0.003 C 
ATOM     12  C   UNL     1     -16.645  47.088  23.055  1.00  0.00     0.004 C 
ENDBRANCH  10  11
ENDBRANCH   9  10
ENDBRANCH   8   9
ENDBRANCH   7   8
ENDBRANCH   6   7
ENDBRANCH   5   6
ENDBRANCH   4   5
ENDBRANCH   3   4
ENDBRANCH   2   3
ENDBRANCH   1   2
BRANCH   1  13
ATOM     13  C   UNL     1     -15.973  35.930  16.028  1.00  0.00     0.000 C 
BRANCH  13  14
ATOM     14  C   UNL     1     -14.572  36.283  15.513  1.00  0.00     0.000 C 
BRANCH  14  15
ATOM     15  C   UNL     1     -14.619  36.680  14.030  1.00  0.00     0.000 C 
BRANCH  15  16
ATOM     16  C   UNL     1     -15.170  38.097  13.814  1.00  0.00     0.000 C 
BRANCH  16  17
ATOM     17  C   UNL     1     -16.290  38.148  12.759  1.00  0.00     0.000 C 
BRANCH  17  18
ATOM     18  C   UNL     1     -17.582  37.462  13.252  1.00  0.00     0.000 C 
BRANCH  18  19
ATOM     19  C   UNL     1     -17.760  36.028  12.728  1.00  0.00     0.000 C 
BRANCH  19  20
ATOM     20  C   UNL     1     -18.342  35.073  13.778  1.00  0.00     0.006 C 
BRANCH  20  21
ATOM     21  C   UNL     1     -17.758  33.664  13.625  1.00  0.00     0.053 C 
BRANCH  21  22
ATOM     22  C   UNL     1     -18.825  32.629  13.790  1.00  0.00     0.041 C 
ATOM     23  O   UNL     1     -20.013  32.973  14.029  1.00  0.00    -0.550 OA
ATOM     24  O   UNL     1     -18.508  31.280  13.679  1.00  0.00    -0.550 OA
ENDBRANCH  21  22
ENDBRANCH  20  21
ENDBRANCH  19  20
ENDBRANCH  18  19
ENDBRANCH  17  18
ENDBRANCH  16  17
ENDBRANCH  15  16
ENDBRANCH  14  15
ENDBRANCH  13  14
ENDBRANCH   1  13
TORSDOF 20
ENDMDL
MODEL 6
REMARK VINA RESULT:    -5.179      3.615      6.795
REMARK INTER + INTRA:         -12.936
REMARK INTER:                 -11.160
REMARK INTRA:                  -1.776
REMARK UNBOUND:                -1.702
REMARK SMILES CCCCCCCCCCCCCCCCCCCCCC(=O)[O-]
REMARK SMILES IDX 12 1 11 2 10 3 9 4 8 5 7 6 6 7 5 8 4 9 3 10 2 11 1 12 13 13
REMARK SMILES IDX 14 14 15 15 16 16 17 17 18 18 19 19 20 20 21 21 22 22 23 23
REMARK SMILES IDX 24 24
REMARK H PARENT
REMARK Flexibility Score: inf
ROOT
ATOM      1  C   UNL     1     -17.637  36.971  13.340  1.00  0.00     0.000 C 
ENDROOT
BRANCH   1   2
ATOM      2  C   UNL     1     -18.416  35.731  13.799  1.00  0.00     0.000 C 
BRANCH   2   3
ATOM      3  C   UNL     1     -17.532  34.476  13.915  1.00  0.00     0.000 C 
BRANCH   3   4
ATOM      4  C   UNL     1     -18.095  33.213  13.232  1.00  0.00    -0.000 C 
BRANCH   4   5
ATOM      5  C   UNL     1     -18.482  32.069  14.186  1.00  0.00    -0.000 C 
BRANCH   5   6
ATOM      6  C   UNL     1     -19.897  31.529  13.932  1.00  0.00    -0.000 C 
BRANCH   6   7
ATOM      7  C   UNL     1     -20.958  32.581  14.278  1.00  0.00    -0.000 C 
BRANCH   7   8
ATOM      8  C   UNL     1     -22.372  32.047  14.006  1.00  0.00    -0.000 C 
BRANCH   8   9
ATOM      9  C   UNL     1     -23.068  31.517  15.273  1.00  0.00    -0.000 C 
BRANCH   9  10
ATOM     10  C   UNL     1     -22.928  32.415  16.515  1.00  0.00    -0.000 C 
BRANCH  10  11
ATOM     11  C   UNL     1     -23.876  33.623  16.489  1.00  0.00    -0.003 C 
ATOM     12  C   UNL     1     -25.278  33.213  16.046  1.00  0.00     0.004 C 
ENDBRANCH  10  11
ENDBRANCH   9  10
ENDBRANCH   8   9
ENDBRANCH   7   8
ENDBRANCH   6   7
ENDBRANCH   5   6
ENDBRANCH   4   5
ENDBRANCH   3   4
ENDBRANCH   2   3
ENDBRANCH   1   2
BRANCH   1  13
ATOM     13  C   UNL     1     -16.460  36.575  12.440  1.00  0.00     0.000 C 
BRANCH  13  14
ATOM     14  C   UNL     1     -15.124  37.026  13.042  1.00  0.00     0.000 C 
BRANCH  14  15
ATOM     15  C   UNL     1     -15.302  37.467  14.502  1.00  0.00     0.000 C 
BRANCH  15  16
ATOM     16  C   UNL     1     -14.895  36.376  15.504  1.00  0.00     0.000 C 
BRANCH  16  17
ATOM     17  C   UNL     1     -15.889  36.236  16.671  1.00  0.00     0.000 C 
BRANCH  17  18
ATOM     18  C   UNL     1     -16.623  37.562  16.967  1.00  0.00     0.000 C 
BRANCH  18  19
ATOM     19  C   UNL     1     -16.985  37.750  18.450  1.00  0.00     0.000 C 
BRANCH  19  20
ATOM     20  C   UNL     1     -17.795  39.026  18.713  1.00  0.00     0.006 C 
BRANCH  20  21
ATOM     21  C   UNL     1     -17.330  39.719  19.999  1.00  0.00     0.053 C 
BRANCH  21  22
ATOM     22  C   UNL     1     -18.139  40.949  20.259  1.00  0.00     0.041 C 
ATOM     23  O   UNL     1     -17.830  41.726  21.201  1.00  0.00    -0.550 OA
ATOM     24  O   UNL     1     -19.239  41.239  19.459  1.00  0.00    -0.550 OA
ENDBRANCH  21  22
ENDBRANCH  20  21
ENDBRANCH  19  20
ENDBRANCH  18  19
ENDBRANCH  17  18
ENDBRANCH  16  17
ENDBRANCH  15  16
ENDBRANCH  14  15
ENDBRANCH  13  14
ENDBRANCH   1  13
TORSDOF 20
ENDMDL
MODEL 7
REMARK VINA RESULT:    -5.124      7.263      9.076
REMARK INTER + INTRA:         -12.818
REMARK INTER:                 -11.422
REMARK INTRA:                  -1.396
REMARK UNBOUND:                -1.702
REMARK SMILES CCCCCCCCCCCCCCCCCCCCCC(=O)[O-]
REMARK SMILES IDX 12 1 11 2 10 3 9 4 8 5 7 6 6 7 5 8 4 9 3 10 2 11 1 12 13 13
REMARK SMILES IDX 14 14 15 15 16 16 17 17 18 18 19 19 20 20 21 21 22 22 23 23
REMARK SMILES IDX 24 24
REMARK H PARENT
REMARK Flexibility Score: inf
ROOT
ATOM      1  C   UNL     1     -13.861  36.240  14.723  1.00  0.00     0.000 C 
ENDROOT
BRANCH   1   2
ATOM      2  C   UNL     1     -15.176  36.547  15.453  1.00  0.00     0.000 C 
BRANCH   2   3
ATOM      3  C   UNL     1     -16.181  35.382  15.397  1.00  0.00     0.000 C 
BRANCH   3   4
ATOM      4  C   UNL     1     -17.325  35.553  14.377  1.00  0.00    -0.000 C 
BRANCH   4   5
ATOM      5  C   UNL     1     -16.929  35.341  12.905  1.00  0.00    -0.000 C 
BRANCH   5   6
ATOM      6  C   UNL     1     -17.162  33.902  12.424  1.00  0.00    -0.000 C 
BRANCH   6   7
ATOM      7  C   UNL     1     -18.019  33.118  13.425  1.00  0.00    -0.000 C 
BRANCH   7   8
ATOM      8  C   UNL     1     -17.910  31.605  13.177  1.00  0.00    -0.000 C 
BRANCH   8   9
ATOM      9  C   UNL     1     -19.018  30.801  13.881  1.00  0.00    -0.000 C 
BRANCH   9  10
ATOM     10  C   UNL     1     -20.251  31.621  14.302  1.00  0.00    -0.000 C 
BRANCH  10  11
ATOM     11  C   UNL     1     -21.576  30.934  13.941  1.00  0.00    -0.003 C 
ATOM     12  C   UNL     1     -22.732  31.932  13.946  1.00  0.00     0.004 C 
ENDBRANCH  10  11
ENDBRANCH   9  10
ENDBRANCH   8   9
ENDBRANCH   7   8
ENDBRANCH   6   7
ENDBRANCH   5   6
ENDBRANCH   4   5
ENDBRANCH   3   4
ENDBRANCH   2   3
ENDBRANCH   1   2
BRANCH   1  13
ATOM     13  C   UNL     1     -13.765  37.035  13.414  1.00  0.00     0.000 C 
BRANCH  13  14
ATOM     14  C   UNL     1     -14.225  38.484  13.609  1.00  0.00     0.000 C 
BRANCH  14  15
ATOM     15  C   UNL     1     -15.504  38.765  12.805  1.00  0.00     0.000 C 
BRANCH  15  16
ATOM     16  C   UNL     1     -15.448  40.101  12.050  1.00  0.00     0.000 C 
BRANCH  16  17
ATOM     17  C   UNL     1     -16.832  40.754  11.890  1.00  0.00     0.000 C 
BRANCH  17  18
ATOM     18  C   UNL     1     -17.315  40.733  10.423  1.00  0.00     0.000 C 
BRANCH  18  19
ATOM     19  C   UNL     1     -18.013  42.031   9.984  1.00  0.00     0.000 C 
BRANCH  19  20
ATOM     20  C   UNL     1     -17.282  42.749   8.842  1.00  0.00     0.006 C 
BRANCH  20  21
ATOM     21  C   UNL     1     -16.361  41.785   8.085  1.00  0.00     0.053 C 
BRANCH  21  22
ATOM     22  C   UNL     1     -15.066  42.451   7.742  1.00  0.00     0.041 C 
ATOM     23  O   UNL     1     -14.116  41.781   7.258  1.00  0.00    -0.550 OA
ATOM     24  O   UNL     1     -14.908  43.816   7.957  1.00  0.00    -0.550 OA
ENDBRANCH  21  22
ENDBRANCH  20  21
ENDBRANCH  19  20
ENDBRANCH  18  19
ENDBRANCH  17  18
ENDBRANCH  16  17
ENDBRANCH  15  16
ENDBRANCH  14  15
ENDBRANCH  13  14
ENDBRANCH   1  13
TORSDOF 20
ENDMDL
MODEL 8
REMARK VINA RESULT:    -5.113      4.640      9.857
REMARK INTER + INTRA:         -12.794
REMARK INTER:                 -11.096
REMARK INTRA:                  -1.698
REMARK UNBOUND:                -1.702
REMARK SMILES CCCCCCCCCCCCCCCCCCCCCC(=O)[O-]
REMARK SMILES IDX 12 1 11 2 10 3 9 4 8 5 7 6 6 7 5 8 4 9 3 10 2 11 1 12 13 13
REMARK SMILES IDX 14 14 15 15 16 16 17 17 18 18 19 19 20 20 21 21 22 22 23 23
REMARK SMILES IDX 24 24
REMARK H PARENT
REMARK Flexibility Score: inf
ROOT
ATOM      1  C   UNL     1     -17.723  36.061  14.366  1.00  0.00     0.000 C 
ENDROOT
BRANCH   1   2
ATOM      2  C   UNL     1     -16.617  35.308  15.118  1.00  0.00     0.000 C 
BRANCH   2   3
ATOM      3  C   UNL     1     -15.764  36.226  16.011  1.00  0.00     0.000 C 
BRANCH   3   4
ATOM      4  C   UNL     1     -16.398  36.593  17.368  1.00  0.00    -0.000 C 
BRANCH   4   5
ATOM      5  C   UNL     1     -16.989  38.011  17.454  1.00  0.00    -0.000 C 
BRANCH   5   6
ATOM      6  C   UNL     1     -16.997  38.571  18.883  1.00  0.00    -0.000 C 
BRANCH   6   7
ATOM      7  C   UNL     1     -17.518  40.014  18.906  1.00  0.00    -0.000 C 
BRANCH   7   8
ATOM      8  C   UNL     1     -18.875  40.098  19.622  1.00  0.00    -0.000 C 
BRANCH   8   9
ATOM      9  C   UNL     1     -18.877  41.103  20.788  1.00  0.00    -0.000 C 
BRANCH   9  10
ATOM     10  C   UNL     1     -18.115  42.413  20.519  1.00  0.00    -0.000 C 
BRANCH  10  11
ATOM     11  C   UNL     1     -16.962  42.647  21.506  1.00  0.00    -0.003 C 
ATOM     12  C   UNL     1     -16.935  44.095  21.988  1.00  0.00     0.004 C 
ENDBRANCH  10  11
ENDBRANCH   9  10
ENDBRANCH   8   9
ENDBRANCH   7   8
ENDBRANCH   6   7
ENDBRANCH   5   6
ENDBRANCH   4   5
ENDBRANCH   3   4
ENDBRANCH   2   3
ENDBRANCH   1   2
BRANCH   1  13
ATOM     13  C   UNL     1     -17.713  35.701  12.875  1.00  0.00     0.000 C 
BRANCH  13  14
ATOM     14  C   UNL     1     -16.324  35.231  12.426  1.00  0.00     0.000 C 
BRANCH  14  15
ATOM     15  C   UNL     1     -15.549  36.375  11.756  1.00  0.00     0.000 C 
BRANCH  15  16
ATOM     16  C   UNL     1     -14.523  37.025  12.695  1.00  0.00     0.000 C 
BRANCH  16  17
ATOM     17  C   UNL     1     -14.991  38.386  13.240  1.00  0.00     0.000 C 
BRANCH  17  18
ATOM     18  C   UNL     1     -16.170  38.961  12.426  1.00  0.00     0.000 C 
BRANCH  18  19
ATOM     19  C   UNL     1     -15.885  40.345  11.819  1.00  0.00     0.000 C 
BRANCH  19  20
ATOM     20  C   UNL     1     -17.005  40.837  10.893  1.00  0.00     0.006 C 
BRANCH  20  21
ATOM     21  C   UNL     1     -16.626  40.647   9.420  1.00  0.00     0.053 C 
BRANCH  21  22
ATOM     22  C   UNL     1     -15.744  41.762   8.954  1.00  0.00     0.041 C 
ATOM     23  O   UNL     1     -15.905  42.928   9.401  1.00  0.00    -0.550 OA
ATOM     24  O   UNL     1     -14.742  41.512   8.023  1.00  0.00    -0.550 OA
ENDBRANCH  21  22
ENDBRANCH  20  21
ENDBRANCH  19  20
ENDBRANCH  18  19
ENDBRANCH  17  18
ENDBRANCH  16  17
ENDBRANCH  15  16
ENDBRANCH  14  15
ENDBRANCH  13  14
ENDBRANCH   1  13
TORSDOF 20
ENDMDL
MODEL 9
REMARK VINA RESULT:    -5.098      6.519      9.261
REMARK INTER + INTRA:         -12.761
REMARK INTER:                 -10.097
REMARK INTRA:                  -2.664
REMARK UNBOUND:                -1.702
REMARK SMILES CCCCCCCCCCCCCCCCCCCCCC(=O)[O-]
REMARK SMILES IDX 12 1 11 2 10 3 9 4 8 5 7 6 6 7 5 8 4 9 3 10 2 11 1 12 13 13
REMARK SMILES IDX 14 14 15 15 16 16 17 17 18 18 19 19 20 20 21 21 22 22 23 23
REMARK SMILES IDX 24 24
REMARK H PARENT
REMARK Flexibility Score: inf
ROOT
ATOM      1  C   UNL     1     -15.747  40.292  12.123  1.00  0.00     0.000 C 
ENDROOT
BRANCH   1   2
ATOM      2  C   UNL     1     -15.548  38.965  12.867  1.00  0.00     0.000 C 
BRANCH   2   3
ATOM      3  C   UNL     1     -14.072  38.673  13.190  1.00  0.00     0.000 C 
BRANCH   3   4
ATOM      4  C   UNL     1     -13.726  37.182  13.383  1.00  0.00    -0.000 C 
BRANCH   4   5
ATOM      5  C   UNL     1     -13.586  36.727  14.847  1.00  0.00    -0.000 C 
BRANCH   5   6
ATOM      6  C   UNL     1     -14.768  35.872  15.324  1.00  0.00    -0.000 C 
BRANCH   6   7
ATOM      7  C   UNL     1     -15.970  36.751  15.691  1.00  0.00    -0.000 C 
BRANCH   7   8
ATOM      8  C   UNL     1     -17.250  36.247  15.007  1.00  0.00    -0.000 C 
BRANCH   8   9
ATOM      9  C   UNL     1     -16.969  35.253  13.865  1.00  0.00    -0.000 C 
BRANCH   9  10
ATOM     10  C   UNL     1     -17.070  35.844  12.448  1.00  0.00    -0.000 C 
BRANCH  10  11
ATOM     11  C   UNL     1     -16.230  35.074  11.419  1.00  0.00    -0.003 C 
ATOM     12  C   UNL     1     -15.752  35.996  10.299  1.00  0.00     0.004 C 
ENDBRANCH  10  11
ENDBRANCH   9  10
ENDBRANCH   8   9
ENDBRANCH   7   8
ENDBRANCH   6   7
ENDBRANCH   5   6
ENDBRANCH   4   5
ENDBRANCH   3   4
ENDBRANCH   2   3
ENDBRANCH   1   2
BRANCH   1  13
ATOM     13  C   UNL     1     -17.112  40.326  11.422  1.00  0.00     0.000 C 
BRANCH  13  14
ATOM     14  C   UNL     1     -16.976  40.767   9.960  1.00  0.00     0.000 C 
BRANCH  14  15
ATOM     15  C   UNL     1     -17.717  42.090   9.717  1.00  0.00     0.000 C 
BRANCH  15  16
ATOM     16  C   UNL     1     -17.036  42.963   8.653  1.00  0.00     0.000 C 
BRANCH  16  17
ATOM     17  C   UNL     1     -16.628  42.168   7.400  1.00  0.00     0.000 C 
BRANCH  17  18
ATOM     18  C   UNL     1     -15.232  42.577   6.884  1.00  0.00     0.000 C 
BRANCH  18  19
ATOM     19  C   UNL     1     -14.747  43.934   7.422  1.00  0.00     0.000 C 
BRANCH  19  20
ATOM     20  C   UNL     1     -13.358  43.861   8.069  1.00  0.00     0.006 C 
BRANCH  20  21
ATOM     21  C   UNL     1     -13.404  44.336   9.526  1.00  0.00     0.053 C 
BRANCH  21  22
ATOM     22  C   UNL     1     -13.830  43.224  10.431  1.00  0.00     0.041 C 
ATOM     23  O   UNL     1     -14.508  43.469  11.464  1.00  0.00    -0.550 OA
ATOM     24  O   UNL     1     -13.478  41.912  10.133  1.00  0.00    -0.550 OA
ENDBRANCH  21  22
ENDBRANCH  20  21
ENDBRANCH  19  20
ENDBRANCH  18  19
ENDBRANCH  17  18
ENDBRANCH  16  17
ENDBRANCH  15  16
ENDBRANCH  14  15
ENDBRANCH  13  14
ENDBRANCH   1  13
TORSDOF 20
ENDMDL
