MODEL 1
REMARK VINA RESULT:    -2.296      0.000      0.000
REMARK INTER + INTRA:          -2.453
REMARK INTER:                  -2.430
REMARK INTRA:                  -0.023
REMARK UNBOUND:                -0.023
REMARK SMILES O=C([O-])c1cccnc1
REMARK SMILES IDX 4 1 5 2 9 3 6 4 8 5 7 6 2 7 1 8 3 9
REMARK H PARENT
REMARK Flexibility Score: inf
ROOT
ATOM      1  C   UNL     1     -31.113 -34.636  12.389  1.00  0.00     0.016 A 
ATOM      2  C   UNL     1     -31.658 -35.904  12.651  1.00  0.00     0.013 A 
ATOM      3  C   UNL     1     -31.984 -33.604  11.996  1.00  0.00     0.120 A 
ATOM      4  C   UNL     1     -33.031 -36.118  12.519  1.00  0.00     0.021 A 
ATOM      5  N   UNL     1     -33.318 -33.839  11.875  1.00  0.00    -0.264 NA
ATOM      6  C   UNL     1     -33.854 -35.063  12.126  1.00  0.00     0.111 A 
ENDROOT
BRANCH   1   7
ATOM      7  C   UNL     1     -29.661 -34.397  12.525  1.00  0.00     0.073 C 
ATOM      8  O   UNL     1     -28.949 -35.161  13.230  1.00  0.00    -0.545 OA
ATOM      9  O   UNL     1     -29.059 -33.325  11.875  1.00  0.00    -0.545 OA
ENDBRANCH   1   7
TORSDOF 1
ENDMDL
MODEL 2
REMARK VINA RESULT:    -2.203     25.957     26.957
REMARK INTER + INTRA:          -2.354
REMARK INTER:                  -2.331
REMARK INTRA:                  -0.023
REMARK UNBOUND:                -0.023
REMARK SMILES O=C([O-])c1cccnc1
REMARK SMILES IDX 4 1 5 2 9 3 6 4 8 5 7 6 2 7 1 8 3 9
REMARK H PARENT
REMARK Flexibility Score: inf
ROOT
ATOM      1  C   UNL     1     -16.774 -23.027  31.623  1.00  0.00     0.016 A 
ATOM      2  C   UNL     1     -17.447 -24.072  30.968  1.00  0.00     0.013 A 
ATOM      3  C   UNL     1     -15.484 -23.275  32.125  1.00  0.00     0.120 A 
ATOM      4  C   UNL     1     -16.837 -25.320  30.828  1.00  0.00     0.021 A 
ATOM      5  N   UNL     1     -14.912 -24.500  31.975  1.00  0.00    -0.264 NA
ATOM      6  C   UNL     1     -15.556 -25.517  31.343  1.00  0.00     0.111 A 
ENDROOT
BRANCH   1   7
ATOM      7  C   UNL     1     -17.410 -21.702  31.777  1.00  0.00     0.073 C 
ATOM      8  O   UNL     1     -16.722 -20.693  32.086  1.00  0.00    -0.545 OA
ATOM      9  O   UNL     1     -18.779 -21.550  31.583  1.00  0.00    -0.545 OA
ENDBRANCH   1   7
TORSDOF 1
ENDMDL
MODEL 3
REMARK VINA RESULT:    -2.196     25.762     26.842
REMARK INTER + INTRA:          -2.348
REMARK INTER:                  -2.325
REMARK INTRA:                  -0.022
REMARK UNBOUND:                -0.023
REMARK SMILES O=C([O-])c1cccnc1
REMARK SMILES IDX 4 1 5 2 9 3 6 4 8 5 7 6 2 7 1 8 3 9
REMARK H PARENT
REMARK Flexibility Score: inf
ROOT
ATOM      1  C   UNL     1     -16.852 -23.019  31.510  1.00  0.00     0.016 A 
ATOM      2  C   UNL     1     -16.384 -21.790  32.003  1.00  0.00     0.013 A 
ATOM      3  C   UNL     1     -18.207 -23.120  31.147  1.00  0.00     0.120 A 
ATOM      4  C   UNL     1     -17.255 -20.705  32.124  1.00  0.00     0.021 A 
ATOM      5  N   UNL     1     -19.035 -22.048  31.275  1.00  0.00    -0.264 NA
ATOM      6  C   UNL     1     -18.591 -20.855  31.752  1.00  0.00     0.111 A 
ENDROOT
BRANCH   1   7
ATOM      7  C   UNL     1     -15.940 -24.173  31.376  1.00  0.00     0.073 C 
ATOM      8  O   UNL     1     -14.929 -24.281  32.121  1.00  0.00    -0.545 OA
ATOM      9  O   UNL     1     -16.183 -25.159  30.426  1.00  0.00    -0.545 OA
ENDBRANCH   1   7
TORSDOF 1
ENDMDL
MODEL 4
REMARK VINA RESULT:    -2.156     25.911     26.877
REMARK INTER + INTRA:          -2.305
REMARK INTER:                  -2.289
REMARK INTRA:                  -0.016
REMARK UNBOUND:                -0.023
REMARK SMILES O=C([O-])c1cccnc1
REMARK SMILES IDX 4 1 5 2 9 3 6 4 8 5 7 6 2 7 1 8 3 9
REMARK H PARENT
REMARK Flexibility Score: inf
ROOT
ATOM      1  C   UNL     1     -17.042 -22.442  31.388  1.00  0.00     0.016 A 
ATOM      2  C   UNL     1     -16.913 -21.148  31.919  1.00  0.00     0.013 A 
ATOM      3  C   UNL     1     -18.330 -22.910  31.074  1.00  0.00     0.120 A 
ATOM      4  C   UNL     1     -18.046 -20.358  32.125  1.00  0.00     0.021 A 
ATOM      5  N   UNL     1     -19.418 -22.120  31.285  1.00  0.00    -0.264 NA
ATOM      6  C   UNL     1     -19.303 -20.867  31.798  1.00  0.00     0.111 A 
ENDROOT
BRANCH   1   7
ATOM      7  C   UNL     1     -15.850 -23.286  31.165  1.00  0.00     0.073 C 
ATOM      8  O   UNL     1     -15.169 -23.170  30.111  1.00  0.00    -0.545 OA
ATOM      9  O   UNL     1     -15.462 -24.223  32.117  1.00  0.00    -0.545 OA
ENDBRANCH   1   7
TORSDOF 1
ENDMDL
MODEL 5
REMARK VINA RESULT:    -2.143     26.421     27.096
REMARK INTER + INTRA:          -2.291
REMARK INTER:                  -2.275
REMARK INTRA:                  -0.016
REMARK UNBOUND:                -0.023
REMARK SMILES O=C([O-])c1cccnc1
REMARK SMILES IDX 4 1 5 2 9 3 6 4 8 5 7 6 2 7 1 8 3 9
REMARK H PARENT
REMARK Flexibility Score: inf
ROOT
ATOM      1  C   UNL     1     -17.063 -21.929  31.213  1.00  0.00     0.016 A 
ATOM      2  C   UNL     1     -16.454 -22.818  32.113  1.00  0.00     0.013 A 
ATOM      3  C   UNL     1     -16.541 -21.836  29.910  1.00  0.00     0.120 A 
ATOM      4  C   UNL     1     -15.359 -23.585  31.710  1.00  0.00     0.021 A 
ATOM      5  N   UNL     1     -15.472 -22.593  29.543  1.00  0.00    -0.264 NA
ATOM      6  C   UNL     1     -14.877 -23.457  30.408  1.00  0.00     0.111 A 
ENDROOT
BRANCH   1   7
ATOM      7  C   UNL     1     -18.223 -21.113  31.628  1.00  0.00     0.073 C 
ATOM      8  O   UNL     1     -18.056 -19.966  32.124  1.00  0.00    -0.545 OA
ATOM      9  O   UNL     1     -19.517 -21.599  31.478  1.00  0.00    -0.545 OA
ENDBRANCH   1   7
TORSDOF 1
ENDMDL
MODEL 6
REMARK VINA RESULT:    -2.127     25.826     26.880
REMARK INTER + INTRA:          -2.274
REMARK INTER:                  -2.251
REMARK INTRA:                  -0.023
REMARK UNBOUND:                -0.023
REMARK SMILES O=C([O-])c1cccnc1
REMARK SMILES IDX 4 1 5 2 9 3 6 4 8 5 7 6 2 7 1 8 3 9
REMARK H PARENT
REMARK Flexibility Score: inf
ROOT
ATOM      1  C   UNL     1     -19.029 -21.148  31.588  1.00  0.00     0.016 A 
ATOM      2  C   UNL     1     -17.872 -20.487  32.031  1.00  0.00     0.013 A 
ATOM      3  C   UNL     1     -18.933 -22.509  31.247  1.00  0.00     0.120 A 
ATOM      4  C   UNL     1     -16.662 -21.179  32.125  1.00  0.00     0.021 A 
ATOM      5  N   UNL     1     -17.743 -23.159  31.347  1.00  0.00    -0.264 NA
ATOM      6  C   UNL     1     -16.617 -22.528  31.775  1.00  0.00     0.111 A 
ENDROOT
BRANCH   1   7
ATOM      7  C   UNL     1     -20.315 -20.426  31.485  1.00  0.00     0.073 C 
ATOM      8  O   UNL     1     -20.503 -19.357  32.125  1.00  0.00    -0.545 OA
ATOM      9  O   UNL     1     -21.337 -20.918  30.680  1.00  0.00    -0.545 OA
ENDBRANCH   1   7
TORSDOF 1
ENDMDL
MODEL 7
REMARK VINA RESULT:    -2.072      2.686      3.230
REMARK INTER + INTRA:          -2.216
REMARK INTER:                  -2.196
REMARK INTRA:                  -0.021
REMARK UNBOUND:                -0.023
REMARK SMILES O=C([O-])c1cccnc1
REMARK SMILES IDX 4 1 5 2 9 3 6 4 8 5 7 6 2 7 1 8 3 9
REMARK H PARENT
REMARK Flexibility Score: inf
ROOT
ATOM      1  C   UNL     1     -32.323 -35.708  13.927  1.00  0.00     0.016 A 
ATOM      2  C   UNL     1     -33.674 -35.875  13.580  1.00  0.00     0.013 A 
ATOM      3  C   UNL     1     -31.974 -35.751  15.288  1.00  0.00     0.120 A 
ATOM      4  C   UNL     1     -34.634 -36.079  14.573  1.00  0.00     0.021 A 
ATOM      5  N   UNL     1     -32.928 -35.951  16.236  1.00  0.00    -0.264 NA
ATOM      6  C   UNL     1     -34.238 -36.114  15.910  1.00  0.00     0.111 A 
ENDROOT
BRANCH   1   7
ATOM      7  C   UNL     1     -31.299 -35.492  12.884  1.00  0.00     0.073 C 
ATOM      8  O   UNL     1     -31.551 -34.781  11.875  1.00  0.00    -0.545 OA
ATOM      9  O   UNL     1     -30.040 -36.071  13.002  1.00  0.00    -0.545 OA
ENDBRANCH   1   7
TORSDOF 1
ENDMDL
MODEL 8
REMARK VINA RESULT:    -2.061      3.515      4.202
REMARK INTER + INTRA:          -2.204
REMARK INTER:                  -2.188
REMARK INTRA:                  -0.016
REMARK UNBOUND:                -0.023
REMARK SMILES O=C([O-])c1cccnc1
REMARK SMILES IDX 4 1 5 2 9 3 6 4 8 5 7 6 2 7 1 8 3 9
REMARK H PARENT
REMARK Flexibility Score: inf
ROOT
ATOM      1  C   UNL     1     -33.897 -35.276  14.625  1.00  0.00     0.016 A 
ATOM      2  C   UNL     1     -32.994 -36.125  13.964  1.00  0.00     0.013 A 
ATOM      3  C   UNL     1     -34.560 -34.290  13.872  1.00  0.00     0.120 A 
ATOM      4  C   UNL     1     -32.770 -35.981  12.594  1.00  0.00     0.021 A 
ATOM      5  N   UNL     1     -34.323 -34.171  12.538  1.00  0.00    -0.264 NA
ATOM      6  C   UNL     1     -33.451 -34.987  11.890  1.00  0.00     0.111 A 
ENDROOT
BRANCH   1   7
ATOM      7  C   UNL     1     -34.143 -35.420  16.075  1.00  0.00     0.073 C 
ATOM      8  O   UNL     1     -35.098 -36.125  16.497  1.00  0.00    -0.545 OA
ATOM      9  O   UNL     1     -33.322 -34.777  16.996  1.00  0.00    -0.545 OA
ENDBRANCH   1   7
TORSDOF 1
ENDMDL
MODEL 9
REMARK VINA RESULT:    -0.854     25.885     26.968
REMARK INTER + INTRA:          -0.927
REMARK INTER:                  -0.904
REMARK INTRA:                  -0.023
REMARK UNBOUND:                -0.023
REMARK SMILES O=C([O-])c1cccnc1
REMARK SMILES IDX 4 1 5 2 9 3 6 4 8 5 7 6 2 7 1 8 3 9
REMARK H PARENT
REMARK Flexibility Score: inf
ROOT
ATOM      1  C   UNL     1     -16.676 -23.057  31.592  1.00  0.00     0.016 A 
ATOM      2  C   UNL     1     -15.398 -23.385  32.073  1.00  0.00     0.013 A 
ATOM      3  C   UNL     1     -17.418 -24.053  30.933  1.00  0.00     0.120 A 
ATOM      4  C   UNL     1     -14.890 -24.673  31.892  1.00  0.00     0.021 A 
ATOM      5  N   UNL     1     -16.900 -25.300  30.770  1.00  0.00    -0.264 NA
ATOM      6  C   UNL     1     -15.664 -25.627  31.232  1.00  0.00     0.111 A 
ENDROOT
BRANCH   1   7
ATOM      7  C   UNL     1     -17.224 -21.696  31.778  1.00  0.00     0.073 C 
ATOM      8  O   UNL     1     -18.454 -21.474  31.624  1.00  0.00    -0.545 OA
ATOM      9  O   UNL     1     -16.387 -20.641  32.125  1.00  0.00    -0.545 OA
ENDBRANCH   1   7
TORSDOF 1
ENDMDL
