MODEL 1
REMARK VINA RESULT:    -3.926      0.000      0.000
REMARK INTER + INTRA:          -6.105
REMARK INTER:                  -5.991
REMARK INTRA:                  -0.114
REMARK UNBOUND:                -0.114
REMARK SMILES CC1=CCC[C@@H](C)C(=O)C[C@H](C(C)C)C(=O)C1
REMARK SMILES IDX 8 1 9 2 6 3 7 4 5 5 4 6 3 7 2 8 1 9 10 11 11 12 15 13 16 14
REMARK SMILES IDX 17 15 12 17 13 18 14 19
REMARK H PARENT
REMARK Flexibility Score: 70.00
ROOT
ATOM      1  C   UNL     1      13.700   1.309  55.479  1.00  0.00     0.136 C 
ATOM      2  O   UNL     1      13.616   1.479  54.271  1.00  0.00    -0.299 OA
ENDROOT
BRANCH   1   3
ATOM      3  C   UNL     1      13.482  -0.070  56.067  1.00  0.00     0.053 C 
ATOM      4  C   UNL     1      12.282  -0.727  55.378  1.00  0.00     0.016 C 
BRANCH   3   5
ATOM      5  C   UNL     1      13.269  -0.044  57.601  1.00  0.00     0.015 C 
BRANCH   5   6
ATOM      6  C   UNL     1      11.789  -0.052  58.022  1.00  0.00     0.028 C 
BRANCH   6   7
ATOM      7  C   UNL     1      11.585   0.668  59.334  1.00  0.00    -0.028 C 
ATOM      8  C   UNL     1      11.298   1.982  59.471  1.00  0.00    -0.070 CG0
ATOM      9  C   UNL     1      11.104   2.523  60.865  1.00  0.00     0.039 C 
ATOM     10  G   UNL     1      11.176   2.928  58.293  1.00  0.00     0.000 G0
ENDBRANCH   6   7
ENDBRANCH   5   6
ENDBRANCH   3   5
ENDBRANCH   1   3
BRANCH   1  11
ATOM     11  C   UNL     1      14.105   2.467  56.359  1.00  0.00     0.087 C 
BRANCH  11  12
ATOM     12  C   UNL     1      12.994   3.540  56.476  1.00  0.00     0.066 C 
BRANCH  12  13
ATOM     13  C   UNL     1      12.486   3.591  57.909  1.00  0.00     0.140 C 
ATOM     14  O   UNL     1      13.127   4.202  58.752  1.00  0.00    -0.299 OA
BRANCH  13  15
ATOM     15  C   UNL     1      11.171   2.966  58.303  1.00  0.00     0.106 CG0
ATOM     16  G   UNL     1      11.316   1.997  59.460  1.00  0.00     0.000 G0
ENDBRANCH  13  15
ENDBRANCH  12  13
BRANCH  12  17
ATOM     17  C   UNL     1      13.488   4.951  56.024  1.00  0.00    -0.006 C 
ATOM     18  C   UNL     1      12.339   5.779  55.418  1.00  0.00     0.008 C 
ATOM     19  C   UNL     1      14.632   4.866  54.996  1.00  0.00     0.008 C 
ENDBRANCH  12  17
ENDBRANCH  11  12
ENDBRANCH   1  11
TORSDOF 1
ENDMDL
MODEL 2
REMARK VINA RESULT:    -3.880     15.790     17.810
REMARK INTER + INTRA:          -6.035
REMARK INTER:                  -5.895
REMARK INTRA:                  -0.141
REMARK UNBOUND:                -0.114
REMARK SMILES CC1=CCC[C@@H](C)C(=O)C[C@H](C(C)C)C(=O)C1
REMARK SMILES IDX 8 1 9 2 6 3 7 4 5 5 4 6 3 7 2 8 1 9 10 11 11 12 15 13 16 14
REMARK SMILES IDX 17 15 12 17 13 18 14 19
REMARK H PARENT
REMARK Flexibility Score: 70.00
ROOT
ATOM      1  C   UNL     1      18.040 -11.775  67.167  1.00  0.00     0.136 C 
ATOM      2  O   UNL     1      16.889 -11.476  67.451  1.00  0.00    -0.299 OA
ENDROOT
BRANCH   1   3
ATOM      3  C   UNL     1      19.016 -12.157  68.260  1.00  0.00     0.053 C 
ATOM      4  C   UNL     1      19.256 -10.944  69.165  1.00  0.00     0.016 C 
BRANCH   3   5
ATOM      5  C   UNL     1      20.363 -12.685  67.707  1.00  0.00     0.015 C 
BRANCH   5   6
ATOM      6  C   UNL     1      21.495 -11.643  67.728  1.00  0.00     0.028 C 
BRANCH   6   7
ATOM      7  C   UNL     1      22.258 -11.631  66.425  1.00  0.00    -0.028 C 
ATOM      8  C   UNL     1      22.033 -10.788  65.392  1.00  0.00    -0.070 CG0
ATOM      9  C   UNL     1      22.915 -10.907  64.175  1.00  0.00     0.039 C 
ATOM     10  G   UNL     1      20.933  -9.745  65.402  1.00  0.00     0.000 G0
ENDBRANCH   6   7
ENDBRANCH   5   6
ENDBRANCH   3   5
ENDBRANCH   1   3
BRANCH   1  11
ATOM     11  C   UNL     1      18.444 -11.841  65.714  1.00  0.00     0.087 C 
BRANCH  11  12
ATOM     12  C   UNL     1      18.401 -10.456  65.022  1.00  0.00     0.066 C 
BRANCH  12  13
ATOM     13  C   UNL     1      19.778 -10.120  64.472  1.00  0.00     0.140 C 
ATOM     14  O   UNL     1      19.953 -10.095  63.262  1.00  0.00    -0.299 OA
BRANCH  13  15
ATOM     15  C   UNL     1      20.922  -9.745  65.382  1.00  0.00     0.106 CG0
ATOM     16  G   UNL     1      22.023 -10.788  65.384  1.00  0.00     0.000 G0
ENDBRANCH  13  15
ENDBRANCH  12  13
BRANCH  12  17
ATOM     17  C   UNL     1      17.332 -10.399  63.884  1.00  0.00    -0.006 C 
ATOM     18  C   UNL     1      16.146  -9.496  64.275  1.00  0.00     0.008 C 
ATOM     19  C   UNL     1      16.793 -11.795  63.521  1.00  0.00     0.008 C 
ENDBRANCH  12  17
ENDBRANCH  11  12
ENDBRANCH   1  11
TORSDOF 1
ENDMDL
MODEL 3
REMARK VINA RESULT:    -3.829      5.975      8.321
REMARK INTER + INTRA:          -5.957
REMARK INTER:                  -5.695
REMARK INTRA:                  -0.262
REMARK UNBOUND:                -0.114
REMARK SMILES CC1=CCC[C@@H](C)C(=O)C[C@H](C(C)C)C(=O)C1
REMARK SMILES IDX 8 1 9 2 6 3 7 4 5 5 4 6 3 7 2 8 1 9 10 11 11 12 15 13 16 14
REMARK SMILES IDX 17 15 12 17 13 18 14 19
REMARK H PARENT
REMARK Flexibility Score: 70.00
ROOT
ATOM      1  C   UNL     1       8.919   0.199  62.707  1.00  0.00     0.136 C 
ATOM      2  O   UNL     1       9.347  -0.636  63.492  1.00  0.00    -0.299 OA
ENDROOT
BRANCH   1   3
ATOM      3  C   UNL     1       9.783   1.375  62.304  1.00  0.00     0.053 C 
ATOM      4  C   UNL     1      11.229   0.898  62.124  1.00  0.00     0.016 C 
BRANCH   3   5
ATOM      5  C   UNL     1       9.728   2.540  63.323  1.00  0.00     0.015 C 
BRANCH   5   6
ATOM      6  C   UNL     1       9.099   3.827  62.761  1.00  0.00     0.028 C 
BRANCH   6   7
ATOM      7  C   UNL     1       8.896   3.735  61.267  1.00  0.00    -0.028 C 
ATOM      8  C   UNL     1       7.711   3.541  60.647  1.00  0.00    -0.070 CG0
ATOM      9  C   UNL     1       7.698   3.500  59.140  1.00  0.00     0.039 C 
ATOM     10  G   UNL     1       6.407   3.352  61.398  1.00  0.00     0.000 G0
ENDBRANCH   6   7
ENDBRANCH   5   6
ENDBRANCH   3   5
ENDBRANCH   1   3
BRANCH   1  11
ATOM     11  C   UNL     1       7.559  -0.007  62.084  1.00  0.00     0.087 C 
BRANCH  11  12
ATOM     12  C   UNL     1       6.505   0.995  62.618  1.00  0.00     0.066 C 
BRANCH  12  13
ATOM     13  C   UNL     1       6.014   1.871  61.475  1.00  0.00     0.140 C 
ATOM     14  O   UNL     1       5.244   1.404  60.647  1.00  0.00    -0.299 OA
BRANCH  13  15
ATOM     15  C   UNL     1       6.395   3.328  61.379  1.00  0.00     0.106 CG0
ATOM     16  G   UNL     1       7.702   3.533  60.639  1.00  0.00     0.000 G0
ENDBRANCH  13  15
ENDBRANCH  12  13
BRANCH  12  17
ATOM     17  C   UNL     1       5.301   0.273  63.305  1.00  0.00    -0.006 C 
ATOM     18  C   UNL     1       5.056   0.822  64.723  1.00  0.00     0.008 C 
ATOM     19  C   UNL     1       5.508  -1.251  63.392  1.00  0.00     0.008 C 
ENDBRANCH  12  17
ENDBRANCH  11  12
ENDBRANCH   1  11
TORSDOF 1
ENDMDL
MODEL 4
REMARK VINA RESULT:    -3.716      8.721     11.327
REMARK INTER + INTRA:          -5.785
REMARK INTER:                  -5.506
REMARK INTRA:                  -0.279
REMARK UNBOUND:                -0.114
REMARK SMILES CC1=CCC[C@@H](C)C(=O)C[C@H](C(C)C)C(=O)C1
REMARK SMILES IDX 8 1 9 2 6 3 7 4 5 5 4 6 3 7 2 8 1 9 10 11 11 12 15 13 16 14
REMARK SMILES IDX 17 15 12 17 13 18 14 19
REMARK H PARENT
REMARK Flexibility Score: 70.00
ROOT
ATOM      1  C   UNL     1      12.556  -6.778  63.052  1.00  0.00     0.136 C 
ATOM      2  O   UNL     1      11.819  -7.372  63.825  1.00  0.00    -0.299 OA
ENDROOT
BRANCH   1   3
ATOM      3  C   UNL     1      12.071  -5.525  62.352  1.00  0.00     0.053 C 
ATOM      4  C   UNL     1      11.409  -4.601  63.380  1.00  0.00     0.016 C 
BRANCH   3   5
ATOM      5  C   UNL     1      11.089  -5.825  61.193  1.00  0.00     0.015 C 
BRANCH   5   6
ATOM      6  C   UNL     1      11.743  -5.780  59.799  1.00  0.00     0.028 C 
BRANCH   6   7
ATOM      7  C   UNL     1      13.011  -4.960  59.812  1.00  0.00    -0.028 C 
ATOM      8  C   UNL     1      14.259  -5.443  59.623  1.00  0.00    -0.070 CG0
ATOM      9  C   UNL     1      15.408  -4.467  59.644  1.00  0.00     0.039 C 
ATOM     10  G   UNL     1      14.551  -6.915  59.404  1.00  0.00     0.000 G0
ENDBRANCH   6   7
ENDBRANCH   5   6
ENDBRANCH   3   5
ENDBRANCH   1   3
BRANCH   1  11
ATOM     11  C   UNL     1      13.976  -7.260  62.872  1.00  0.00     0.087 C 
BRANCH  11  12
ATOM     12  C   UNL     1      14.129  -8.218  61.665  1.00  0.00     0.066 C 
BRANCH  12  13
ATOM     13  C   UNL     1      15.075  -7.603  60.645  1.00  0.00     0.140 C 
ATOM     14  O   UNL     1      16.283  -7.716  60.800  1.00  0.00    -0.299 OA
BRANCH  13  15
ATOM     15  C   UNL     1      14.560  -6.918  59.404  1.00  0.00     0.106 CG0
ATOM     16  G   UNL     1      14.259  -5.450  59.639  1.00  0.00     0.000 G0
ENDBRANCH  13  15
ENDBRANCH  12  13
BRANCH  12  17
ATOM     17  C   UNL     1      14.638  -9.631  62.096  1.00  0.00    -0.006 C 
ATOM     18  C   UNL     1      14.188 -10.716  61.099  1.00  0.00     0.008 C 
ATOM     19  C   UNL     1      14.152 -10.021  63.505  1.00  0.00     0.008 C 
ENDBRANCH  12  17
ENDBRANCH  11  12
ENDBRANCH   1  11
TORSDOF 1
ENDMDL
MODEL 5
REMARK VINA RESULT:    -3.688      1.929      3.945
REMARK INTER + INTRA:          -5.743
REMARK INTER:                  -5.490
REMARK INTRA:                  -0.253
REMARK UNBOUND:                -0.114
REMARK SMILES CC1=CCC[C@@H](C)C(=O)C[C@H](C(C)C)C(=O)C1
REMARK SMILES IDX 8 1 9 2 6 3 7 4 5 5 4 6 3 7 2 8 1 9 10 11 11 12 15 13 16 14
REMARK SMILES IDX 17 15 12 17 13 18 14 19
REMARK H PARENT
REMARK Flexibility Score: 70.00
ROOT
ATOM      1  C   UNL     1      12.159   2.535  59.500  1.00  0.00     0.136 C 
ATOM      2  O   UNL     1      12.142   3.076  60.596  1.00  0.00    -0.299 OA
ENDROOT
BRANCH   1   3
ATOM      3  C   UNL     1      12.752   1.150  59.347  1.00  0.00     0.053 C 
ATOM      4  C   UNL     1      12.198   0.242  60.450  1.00  0.00     0.016 C 
BRANCH   3   5
ATOM      5  C   UNL     1      14.300   1.149  59.382  1.00  0.00     0.015 C 
BRANCH   5   6
ATOM      6  C   UNL     1      14.952   0.912  58.008  1.00  0.00     0.028 C 
BRANCH   6   7
ATOM      7  C   UNL     1      14.091   0.032  57.134  1.00  0.00    -0.028 C 
ATOM      8  C   UNL     1      13.446   0.430  56.014  1.00  0.00    -0.070 CG0
ATOM      9  C   UNL     1      12.649  -0.598  55.252  1.00  0.00     0.039 C 
ATOM     10  G   UNL     1      13.483   1.857  55.503  1.00  0.00     0.000 G0
ENDBRANCH   6   7
ENDBRANCH   5   6
ENDBRANCH   3   5
ENDBRANCH   1   3
BRANCH   1  11
ATOM     11  C   UNL     1      11.508   3.228  58.327  1.00  0.00     0.087 C 
BRANCH  11  12
ATOM     12  C   UNL     1      12.526   3.613  57.225  1.00  0.00     0.066 C 
BRANCH  12  13
ATOM     13  C   UNL     1      12.341   2.700  56.023  1.00  0.00     0.140 C 
ATOM     14  O   UNL     1      11.267   2.688  55.436  1.00  0.00    -0.299 OA
BRANCH  13  15
ATOM     15  C   UNL     1      13.474   1.859  55.488  1.00  0.00     0.106 CG0
ATOM     16  G   UNL     1      13.446   0.443  56.028  1.00  0.00     0.000 G0
ENDBRANCH  13  15
ENDBRANCH  12  13
BRANCH  12  17
ATOM     17  C   UNL     1      12.393   5.109  56.797  1.00  0.00    -0.006 C 
ATOM     18  C   UNL     1      13.624   5.572  55.994  1.00  0.00     0.008 C 
ATOM     19  C   UNL     1      12.209   6.047  58.005  1.00  0.00     0.008 C 
ENDBRANCH  12  17
ENDBRANCH  11  12
ENDBRANCH   1  11
TORSDOF 1
ENDMDL
MODEL 6
REMARK VINA RESULT:    -3.670     12.949     14.850
REMARK INTER + INTRA:          -5.716
REMARK INTER:                  -6.091
REMARK INTRA:                   0.375
REMARK UNBOUND:                -0.114
REMARK SMILES CC1=CCC[C@@H](C)C(=O)C[C@H](C(C)C)C(=O)C1
REMARK SMILES IDX 8 1 9 2 6 3 7 4 5 5 4 6 3 7 2 8 1 9 10 11 11 12 15 13 16 14
REMARK SMILES IDX 17 15 12 17 13 18 14 19
REMARK H PARENT
REMARK Flexibility Score: 70.00
ROOT
ATOM      1  C   UNL     1      17.773  -9.623  64.025  1.00  0.00     0.136 C 
ATOM      2  O   UNL     1      18.606  -9.853  63.160  1.00  0.00    -0.299 OA
ENDROOT
BRANCH   1   3
ATOM      3  C   UNL     1      18.110  -9.853  65.483  1.00  0.00     0.053 C 
ATOM      4  C   UNL     1      19.390 -10.689  65.577  1.00  0.00     0.016 C 
BRANCH   3   5
ATOM      5  C   UNL     1      16.964 -10.541  66.265  1.00  0.00     0.015 C 
BRANCH   5   6
ATOM      6  C   UNL     1      16.607 -11.942  65.738  1.00  0.00     0.028 C 
BRANCH   6   7
ATOM      7  C   UNL     1      15.169 -12.010  65.283  1.00  0.00    -0.028 C 
ATOM      8  C   UNL     1      14.749 -11.953  63.999  1.00  0.00    -0.070 CG0
ATOM      9  C   UNL     1      13.269 -12.061  63.731  1.00  0.00     0.039 C 
ATOM     10  G   UNL     1      15.696 -11.775  62.828  1.00  0.00     0.000 G0
ENDBRANCH   6   7
ENDBRANCH   5   6
ENDBRANCH   3   5
ENDBRANCH   1   3
BRANCH   1  11
ATOM     11  C   UNL     1      16.443  -9.029  63.625  1.00  0.00     0.087 C 
BRANCH  11  12
ATOM     12  C   UNL     1      16.117  -9.257  62.129  1.00  0.00     0.066 C 
BRANCH  12  13
ATOM     13  C   UNL     1      15.369 -10.572  61.967  1.00  0.00     0.140 C 
ATOM     14  O   UNL     1      14.528 -10.682  61.086  1.00  0.00    -0.299 OA
BRANCH  13  15
ATOM     15  C   UNL     1      15.692 -11.773  62.822  1.00  0.00     0.106 CG0
ATOM     16  G   UNL     1      14.734 -11.924  63.988  1.00  0.00     0.000 G0
ENDBRANCH  13  15
ENDBRANCH  12  13
BRANCH  12  17
ATOM     17  C   UNL     1      15.286  -8.082  61.521  1.00  0.00    -0.006 C 
ATOM     18  C   UNL     1      15.995  -7.471  60.297  1.00  0.00     0.008 C 
ATOM     19  C   UNL     1      15.020  -6.965  62.547  1.00  0.00     0.008 C 
ENDBRANCH  12  17
ENDBRANCH  11  12
ENDBRANCH   1  11
TORSDOF 1
ENDMDL
MODEL 7
REMARK VINA RESULT:    -3.634      3.883      6.737
REMARK INTER + INTRA:          -5.660
REMARK INTER:                  -5.461
REMARK INTRA:                  -0.199
REMARK UNBOUND:                -0.114
REMARK SMILES CC1=CCC[C@@H](C)C(=O)C[C@H](C(C)C)C(=O)C1
REMARK SMILES IDX 8 1 9 2 6 3 7 4 5 5 4 6 3 7 2 8 1 9 10 11 11 12 15 13 16 14
REMARK SMILES IDX 17 15 12 17 13 18 14 19
REMARK H PARENT
REMARK Flexibility Score: 70.00
ROOT
ATOM      1  C   UNL     1       9.263   1.102  63.154  1.00  0.00     0.136 C 
ATOM      2  O   UNL     1       9.372  -0.083  63.434  1.00  0.00    -0.299 OA
ENDROOT
BRANCH   1   3
ATOM      3  C   UNL     1       7.949   1.819  63.384  1.00  0.00     0.053 C 
ATOM      4  C   UNL     1       7.280   1.250  64.639  1.00  0.00     0.016 C 
BRANCH   3   5
ATOM      5  C   UNL     1       6.988   1.720  62.174  1.00  0.00     0.015 C 
BRANCH   5   6
ATOM      6  C   UNL     1       6.595   3.085  61.580  1.00  0.00     0.028 C 
BRANCH   6   7
ATOM      7  C   UNL     1       7.286   4.218  62.299  1.00  0.00    -0.028 C 
ATOM      8  C   UNL     1       8.410   4.844  61.881  1.00  0.00    -0.070 CG0
ATOM      9  C   UNL     1       8.945   5.977  62.720  1.00  0.00     0.039 C 
ATOM     10  G   UNL     1       9.154   4.449  60.620  1.00  0.00     0.000 G0
ENDBRANCH   6   7
ENDBRANCH   5   6
ENDBRANCH   3   5
ENDBRANCH   1   3
BRANCH   1  11
ATOM     11  C   UNL     1      10.475   1.855  62.659  1.00  0.00     0.087 C 
BRANCH  11  12
ATOM     12  C   UNL     1      10.399   2.172  61.145  1.00  0.00     0.066 C 
BRANCH  12  13
ATOM     13  C   UNL     1      10.424   3.679  60.941  1.00  0.00     0.140 C 
ATOM     14  O   UNL     1      11.492   4.274  60.979  1.00  0.00    -0.299 OA
BRANCH  13  15
ATOM     15  C   UNL     1       9.169   4.452  60.619  1.00  0.00     0.106 CG0
ATOM     16  G   UNL     1       8.409   4.863  61.866  1.00  0.00     0.000 G0
ENDBRANCH  13  15
ENDBRANCH  12  13
BRANCH  12  17
ATOM     17  C   UNL     1      11.556   1.496  60.342  1.00  0.00    -0.006 C 
ATOM     18  C   UNL     1      11.226   1.423  58.839  1.00  0.00     0.008 C 
ATOM     19  C   UNL     1      11.866   0.076  60.851  1.00  0.00     0.008 C 
ENDBRANCH  12  17
ENDBRANCH  11  12
ENDBRANCH   1  11
TORSDOF 1
ENDMDL
MODEL 8
REMARK VINA RESULT:    -3.581      5.303      8.046
REMARK INTER + INTRA:          -5.579
REMARK INTER:                  -5.840
REMARK INTRA:                   0.261
REMARK UNBOUND:                -0.114
REMARK SMILES CC1=CCC[C@@H](C)C(=O)C[C@H](C(C)C)C(=O)C1
REMARK SMILES IDX 8 1 9 2 6 3 7 4 5 5 4 6 3 7 2 8 1 9 10 11 11 12 15 13 16 14
REMARK SMILES IDX 17 15 12 17 13 18 14 19
REMARK H PARENT
REMARK Flexibility Score: 70.00
ROOT
ATOM      1  C   UNL     1       7.011   0.787  63.393  1.00  0.00     0.136 C 
ATOM      2  O   UNL     1       6.043   0.465  62.718  1.00  0.00    -0.299 OA
ENDROOT
BRANCH   1   3
ATOM      3  C   UNL     1       6.894   1.916  64.396  1.00  0.00     0.053 C 
ATOM      4  C   UNL     1       6.180   1.402  65.650  1.00  0.00     0.016 C 
BRANCH   3   5
ATOM      5  C   UNL     1       6.153   3.152  63.829  1.00  0.00     0.015 C 
BRANCH   5   6
ATOM      6  C   UNL     1       7.051   4.085  62.996  1.00  0.00     0.028 C 
BRANCH   6   7
ATOM      7  C   UNL     1       7.152   3.619  61.563  1.00  0.00    -0.028 C 
ATOM      8  C   UNL     1       8.275   3.162  60.964  1.00  0.00    -0.070 CG0
ATOM      9  C   UNL     1       8.180   2.714  59.528  1.00  0.00     0.039 C 
ATOM     10  G   UNL     1       9.616   3.093  61.668  1.00  0.00     0.000 G0
ENDBRANCH   6   7
ENDBRANCH   5   6
ENDBRANCH   3   5
ENDBRANCH   1   3
BRANCH   1  11
ATOM     11  C   UNL     1       8.289  -0.008  63.273  1.00  0.00     0.087 C 
BRANCH  11  12
ATOM     12  C   UNL     1       9.216   0.525  62.153  1.00  0.00     0.066 C 
BRANCH  12  13
ATOM     13  C   UNL     1       9.767   1.885  62.555  1.00  0.00     0.140 C 
ATOM     14  O   UNL     1      10.390   1.996  63.601  1.00  0.00    -0.299 OA
BRANCH  13  15
ATOM     15  C   UNL     1       9.626   3.089  61.657  1.00  0.00     0.106 CG0
ATOM     16  G   UNL     1       8.268   3.152  60.986  1.00  0.00     0.000 G0
ENDBRANCH  13  15
ENDBRANCH  12  13
BRANCH  12  17
ATOM     17  C   UNL     1      10.385  -0.463  61.836  1.00  0.00    -0.006 C 
ATOM     18  C   UNL     1      10.774  -0.409  60.346  1.00  0.00     0.008 C 
ATOM     19  C   UNL     1      10.035  -1.917  62.204  1.00  0.00     0.008 C 
ENDBRANCH  12  17
ENDBRANCH  11  12
ENDBRANCH   1  11
TORSDOF 1
ENDMDL
MODEL 9
REMARK VINA RESULT:    -3.496     10.000     11.793
REMARK INTER + INTRA:          -5.450
REMARK INTER:                  -5.266
REMARK INTRA:                  -0.184
REMARK UNBOUND:                -0.114
REMARK SMILES CC1=CCC[C@@H](C)C(=O)C[C@H](C(C)C)C(=O)C1
REMARK SMILES IDX 8 1 9 2 6 3 7 4 5 5 4 6 3 7 2 8 1 9 10 11 11 12 15 13 16 14
REMARK SMILES IDX 17 15 12 17 13 18 14 19
REMARK H PARENT
REMARK Flexibility Score: 70.00
ROOT
ATOM      1  C   UNL     1      11.331  -9.534  58.729  1.00  0.00     0.136 C 
ATOM      2  O   UNL     1      10.203  -9.567  59.200  1.00  0.00    -0.299 OA
ENDROOT
BRANCH   1   3
ATOM      3  C   UNL     1      12.534  -9.445  59.645  1.00  0.00     0.053 C 
ATOM      4  C   UNL     1      12.523  -8.088  60.358  1.00  0.00     0.016 C 
BRANCH   3   5
ATOM      5  C   UNL     1      13.876  -9.646  58.899  1.00  0.00     0.015 C 
BRANCH   5   6
ATOM      6  C   UNL     1      14.589  -8.330  58.539  1.00  0.00     0.028 C 
BRANCH   6   7
ATOM      7  C   UNL     1      15.092  -8.347  57.115  1.00  0.00    -0.028 C 
ATOM      8  C   UNL     1      14.470  -7.780  56.057  1.00  0.00    -0.070 CG0
ATOM      9  C   UNL     1      15.137  -7.878  54.708  1.00  0.00     0.039 C 
ATOM     10  G   UNL     1      13.137  -7.066  56.167  1.00  0.00     0.000 G0
ENDBRANCH   6   7
ENDBRANCH   5   6
ENDBRANCH   3   5
ENDBRANCH   1   3
BRANCH   1  11
ATOM     11  C   UNL     1      11.509  -9.668  57.235  1.00  0.00     0.087 C 
BRANCH  11  12
ATOM     12  C   UNL     1      10.910  -8.471  56.457  1.00  0.00     0.066 C 
BRANCH  12  13
ATOM     13  C   UNL     1      11.984  -7.850  55.576  1.00  0.00     0.140 C 
ATOM     14  O   UNL     1      11.893  -7.944  54.360  1.00  0.00    -0.299 OA
BRANCH  13  15
ATOM     15  C   UNL     1      13.124  -7.056  56.164  1.00  0.00     0.106 CG0
ATOM     16  G   UNL     1      14.450  -7.783  56.052  1.00  0.00     0.000 G0
ENDBRANCH  13  15
ENDBRANCH  12  13
BRANCH  12  17
ATOM     17  C   UNL     1       9.674  -8.886  55.596  1.00  0.00    -0.006 C 
ATOM     18  C   UNL     1       8.383  -8.227  56.116  1.00  0.00     0.008 C 
ATOM     19  C   UNL     1       9.473 -10.413  55.564  1.00  0.00     0.008 C 
ENDBRANCH  12  17
ENDBRANCH  11  12
ENDBRANCH   1  11
TORSDOF 1
ENDMDL
