MODEL 1
REMARK VINA RESULT:    -5.122      0.000      0.000
REMARK INTER + INTRA:          -8.378
REMARK INTER:                  -7.818
REMARK INTRA:                  -0.560
REMARK UNBOUND:                -0.560
REMARK SMILES O=C([O-])CCCCCCCCC(=O)[O-]
REMARK SMILES IDX 7 1 6 2 5 3 4 4 2 5 1 6 3 7 8 8 9 9 10 10 11 11 12 12 13 13
REMARK SMILES IDX 14 14
REMARK H PARENT
REMARK Flexibility Score: inf
ROOT
ATOM      1  C   UNL     1      35.023  44.438  47.488  1.00  0.00     0.000 C 
ENDROOT
BRANCH   1   2
ATOM      2  C   UNL     1      33.501  44.345  47.313  1.00  0.00     0.000 C 
BRANCH   2   3
ATOM      3  C   UNL     1      33.096  43.527  46.076  1.00  0.00     0.006 C 
BRANCH   3   4
ATOM      4  C   UNL     1      32.114  44.278  45.166  1.00  0.00     0.053 C 
BRANCH   4   5
ATOM      5  C   UNL     1      32.742  44.553  43.836  1.00  0.00     0.041 C 
ATOM      6  O   UNL     1      33.861  45.126  43.770  1.00  0.00    -0.550 OA
ATOM      7  O   UNL     1      32.069  44.221  42.668  1.00  0.00    -0.550 OA
ENDBRANCH   4   5
ENDBRANCH   3   4
ENDBRANCH   2   3
ENDBRANCH   1   2
BRANCH   1   8
ATOM      8  C   UNL     1      35.753  43.738  46.335  1.00  0.00     0.000 C 
BRANCH   8   9
ATOM      9  C   UNL     1      36.591  42.560  46.847  1.00  0.00     0.000 C 
BRANCH   9  10
ATOM     10  C   UNL     1      36.729  42.605  48.374  1.00  0.00     0.006 C 
BRANCH  10  11
ATOM     11  C   UNL     1      38.079  42.036  48.821  1.00  0.00     0.053 C 
BRANCH  11  12
ATOM     12  C   UNL     1      38.351  42.393  50.248  1.00  0.00     0.041 C 
ATOM     13  O   UNL     1      37.665  43.279  50.822  1.00  0.00    -0.550 OA
ATOM     14  O   UNL     1      39.330  41.712  50.960  1.00  0.00    -0.550 OA
ENDBRANCH  11  12
ENDBRANCH  10  11
ENDBRANCH   9  10
ENDBRANCH   8   9
ENDBRANCH   1   8
TORSDOF 9
ENDMDL
MODEL 2
REMARK VINA RESULT:    -5.033      1.431      7.128
REMARK INTER + INTRA:          -8.241
REMARK INTER:                  -7.774
REMARK INTRA:                  -0.467
REMARK UNBOUND:                -0.560
REMARK SMILES O=C([O-])CCCCCCCCC(=O)[O-]
REMARK SMILES IDX 7 1 6 2 5 3 4 4 2 5 1 6 3 7 8 8 9 9 10 10 11 11 12 12 13 13
REMARK SMILES IDX 14 14
REMARK H PARENT
REMARK Flexibility Score: inf
ROOT
ATOM      1  C   UNL     1      34.883  42.693  48.317  1.00  0.00     0.000 C 
ENDROOT
BRANCH   1   2
ATOM      2  C   UNL     1      35.478  43.512  49.472  1.00  0.00     0.000 C 
BRANCH   2   3
ATOM      3  C   UNL     1      36.239  42.643  50.485  1.00  0.00     0.006 C 
BRANCH   3   4
ATOM      4  C   UNL     1      37.716  43.039  50.611  1.00  0.00     0.053 C 
BRANCH   4   5
ATOM      5  C   UNL     1      38.598  41.877  50.276  1.00  0.00     0.041 C 
ATOM      6  O   UNL     1      39.410  41.432  51.129  1.00  0.00    -0.550 OA
ATOM      7  O   UNL     1      38.558  41.318  49.006  1.00  0.00    -0.550 OA
ENDBRANCH   4   5
ENDBRANCH   3   4
ENDBRANCH   2   3
ENDBRANCH   1   2
BRANCH   1   8
ATOM      8  C   UNL     1      35.828  42.679  47.110  1.00  0.00     0.000 C 
BRANCH   8   9
ATOM      9  C   UNL     1      35.763  44.005  46.343  1.00  0.00     0.000 C 
BRANCH   9  10
ATOM     10  C   UNL     1      34.349  44.264  45.809  1.00  0.00     0.006 C 
BRANCH  10  11
ATOM     11  C   UNL     1      34.394  44.831  44.387  1.00  0.00     0.053 C 
BRANCH  11  12
ATOM     12  C   UNL     1      33.029  44.822  43.776  1.00  0.00     0.041 C 
ATOM     13  O   UNL     1      32.774  45.556  42.785  1.00  0.00    -0.550 OA
ATOM     14  O   UNL     1      32.052  43.967  44.269  1.00  0.00    -0.550 OA
ENDBRANCH  11  12
ENDBRANCH  10  11
ENDBRANCH   9  10
ENDBRANCH   8   9
ENDBRANCH   1   8
TORSDOF 9
ENDMDL
MODEL 3
REMARK VINA RESULT:    -4.966      2.244      3.280
REMARK INTER + INTRA:          -8.139
REMARK INTER:                  -7.449
REMARK INTRA:                  -0.690
REMARK UNBOUND:                -0.560
REMARK SMILES O=C([O-])CCCCCCCCC(=O)[O-]
REMARK SMILES IDX 7 1 6 2 5 3 4 4 2 5 1 6 3 7 8 8 9 9 10 10 11 11 12 12 13 13
REMARK SMILES IDX 14 14
REMARK H PARENT
REMARK Flexibility Score: inf
ROOT
ATOM      1  C   UNL     1      34.096  42.548  49.599  1.00  0.00     0.000 C 
ENDROOT
BRANCH   1   2
ATOM      2  C   UNL     1      33.084  43.537  49.003  1.00  0.00     0.000 C 
BRANCH   2   3
ATOM      3  C   UNL     1      33.542  44.113  47.654  1.00  0.00     0.006 C 
BRANCH   3   4
ATOM      4  C   UNL     1      35.027  44.503  47.652  1.00  0.00     0.053 C 
BRANCH   4   5
ATOM      5  C   UNL     1      35.712  43.942  46.446  1.00  0.00     0.041 C 
ATOM      6  O   UNL     1      36.582  43.041  46.573  1.00  0.00    -0.550 OA
ATOM      7  O   UNL     1      35.425  44.448  45.185  1.00  0.00    -0.550 OA
ENDBRANCH   4   5
ENDBRANCH   3   4
ENDBRANCH   2   3
ENDBRANCH   1   2
BRANCH   1   8
ATOM      8  C   UNL     1      34.375  42.869  51.072  1.00  0.00     0.000 C 
BRANCH   8   9
ATOM      9  C   UNL     1      35.804  43.391  51.262  1.00  0.00     0.000 C 
BRANCH   9  10
ATOM     10  C   UNL     1      36.783  42.670  50.327  1.00  0.00     0.006 C 
BRANCH  10  11
ATOM     11  C   UNL     1      38.234  42.959  50.721  1.00  0.00     0.053 C 
BRANCH  11  12
ATOM     12  C   UNL     1      39.066  41.721  50.602  1.00  0.00     0.041 C 
ATOM     13  O   UNL     1      39.786  41.346  51.565  1.00  0.00    -0.550 OA
ATOM     14  O   UNL     1      39.008  40.953  49.446  1.00  0.00    -0.550 OA
ENDBRANCH  11  12
ENDBRANCH  10  11
ENDBRANCH   9  10
ENDBRANCH   8   9
ENDBRANCH   1   8
TORSDOF 9
ENDMDL
MODEL 4
REMARK VINA RESULT:    -4.941      2.234      6.264
REMARK INTER + INTRA:          -8.101
REMARK INTER:                  -7.245
REMARK INTRA:                  -0.856
REMARK UNBOUND:                -0.560
REMARK SMILES O=C([O-])CCCCCCCCC(=O)[O-]
REMARK SMILES IDX 7 1 6 2 5 3 4 4 2 5 1 6 3 7 8 8 9 9 10 10 11 11 12 12 13 13
REMARK SMILES IDX 14 14
REMARK H PARENT
REMARK Flexibility Score: inf
ROOT
ATOM      1  C   UNL     1      34.513  42.362  50.696  1.00  0.00     0.000 C 
ENDROOT
BRANCH   1   2
ATOM      2  C   UNL     1      35.309  43.394  51.508  1.00  0.00     0.000 C 
BRANCH   2   3
ATOM      3  C   UNL     1      36.726  43.617  50.956  1.00  0.00     0.006 C 
BRANCH   3   4
ATOM      4  C   UNL     1      37.119  42.574  49.901  1.00  0.00     0.053 C 
BRANCH   4   5
ATOM      5  C   UNL     1      38.479  42.022  50.196  1.00  0.00     0.041 C 
ATOM      6  O   UNL     1      39.183  42.527  51.109  1.00  0.00    -0.550 OA
ATOM      7  O   UNL     1      38.989  40.983  49.428  1.00  0.00    -0.550 OA
ENDBRANCH   4   5
ENDBRANCH   3   4
ENDBRANCH   2   3
ENDBRANCH   1   2
BRANCH   1   8
ATOM      8  C   UNL     1      33.347  43.026  49.955  1.00  0.00     0.000 C 
BRANCH   8   9
ATOM      9  C   UNL     1      33.425  42.756  48.448  1.00  0.00     0.000 C 
BRANCH   9  10
ATOM     10  C   UNL     1      33.596  44.062  47.662  1.00  0.00     0.006 C 
BRANCH  10  11
ATOM     11  C   UNL     1      35.069  44.475  47.596  1.00  0.00     0.053 C 
BRANCH  11  12
ATOM     12  C   UNL     1      35.706  43.950  46.348  1.00  0.00     0.041 C 
ATOM     13  O   UNL     1      35.420  44.455  45.231  1.00  0.00    -0.550 OA
ATOM     14  O   UNL     1      36.653  42.937  46.424  1.00  0.00    -0.550 OA
ENDBRANCH  11  12
ENDBRANCH  10  11
ENDBRANCH   9  10
ENDBRANCH   8   9
ENDBRANCH   1   8
TORSDOF 9
ENDMDL
MODEL 5
REMARK VINA RESULT:    -4.909      2.071      6.460
REMARK INTER + INTRA:          -8.052
REMARK INTER:                  -7.464
REMARK INTRA:                  -0.588
REMARK UNBOUND:                -0.560
REMARK SMILES O=C([O-])CCCCCCCCC(=O)[O-]
REMARK SMILES IDX 7 1 6 2 5 3 4 4 2 5 1 6 3 7 8 8 9 9 10 10 11 11 12 12 13 13
REMARK SMILES IDX 14 14
REMARK H PARENT
REMARK Flexibility Score: inf
ROOT
ATOM      1  C   UNL     1      36.296  43.708  46.014  1.00  0.00     0.000 C 
ENDROOT
BRANCH   1   2
ATOM      2  C   UNL     1      36.180  42.453  46.890  1.00  0.00     0.000 C 
BRANCH   2   3
ATOM      3  C   UNL     1      36.559  42.717  48.356  1.00  0.00     0.006 C 
BRANCH   3   4
ATOM      4  C   UNL     1      37.924  42.122  48.729  1.00  0.00     0.053 C 
BRANCH   4   5
ATOM      5  C   UNL     1      38.247  42.416  50.161  1.00  0.00     0.041 C 
ATOM      6  O   UNL     1      37.606  43.301  50.786  1.00  0.00    -0.550 OA
ATOM      7  O   UNL     1      39.290  41.748  50.789  1.00  0.00    -0.550 OA
ENDBRANCH   4   5
ENDBRANCH   3   4
ENDBRANCH   2   3
ENDBRANCH   1   2
BRANCH   1   8
ATOM      8  C   UNL     1      35.062  44.604  46.172  1.00  0.00     0.000 C 
BRANCH   8   9
ATOM      9  C   UNL     1      34.159  44.522  44.935  1.00  0.00     0.000 C 
BRANCH   9  10
ATOM     10  C   UNL     1      32.737  44.094  45.319  1.00  0.00     0.006 C 
BRANCH  10  11
ATOM     11  C   UNL     1      32.613  43.891  46.831  1.00  0.00     0.053 C 
BRANCH  11  12
ATOM     12  C   UNL     1      32.453  42.439  47.154  1.00  0.00     0.041 C 
ATOM     13  O   UNL     1      33.002  41.953  48.177  1.00  0.00    -0.550 OA
ATOM     14  O   UNL     1      31.654  41.634  46.353  1.00  0.00    -0.550 OA
ENDBRANCH  11  12
ENDBRANCH  10  11
ENDBRANCH   9  10
ENDBRANCH   8   9
ENDBRANCH   1   8
TORSDOF 9
ENDMDL
MODEL 6
REMARK VINA RESULT:    -4.879      2.480      3.877
REMARK INTER + INTRA:          -8.007
REMARK INTER:                  -7.342
REMARK INTRA:                  -0.665
REMARK UNBOUND:                -0.560
REMARK SMILES O=C([O-])CCCCCCCCC(=O)[O-]
REMARK SMILES IDX 7 1 6 2 5 3 4 4 2 5 1 6 3 7 8 8 9 9 10 10 11 11 12 12 13 13
REMARK SMILES IDX 14 14
REMARK H PARENT
REMARK Flexibility Score: inf
ROOT
ATOM      1  C   UNL     1      37.892  42.187  48.311  1.00  0.00     0.000 C 
ENDROOT
BRANCH   1   2
ATOM      2  C   UNL     1      36.465  42.420  47.794  1.00  0.00     0.000 C 
BRANCH   2   3
ATOM      3  C   UNL     1      36.437  43.094  46.413  1.00  0.00     0.006 C 
BRANCH   3   4
ATOM      4  C   UNL     1      35.696  44.438  46.428  1.00  0.00     0.053 C 
BRANCH   4   5
ATOM      5  C   UNL     1      34.515  44.392  45.509  1.00  0.00     0.041 C 
ATOM      6  O   UNL     1      34.639  44.725  44.301  1.00  0.00    -0.550 OA
ATOM      7  O   UNL     1      33.267  44.030  45.999  1.00  0.00    -0.550 OA
ENDBRANCH   4   5
ENDBRANCH   3   4
ENDBRANCH   2   3
ENDBRANCH   1   2
BRANCH   1   8
ATOM      8  C   UNL     1      37.915  42.103  49.841  1.00  0.00     0.000 C 
BRANCH   8   9
ATOM      9  C   UNL     1      37.202  43.306  50.471  1.00  0.00     0.000 C 
BRANCH   9  10
ATOM     10  C   UNL     1      35.897  42.877  51.154  1.00  0.00     0.006 C 
BRANCH  10  11
ATOM     11  C   UNL     1      34.966  44.075  51.361  1.00  0.00     0.053 C 
BRANCH  11  12
ATOM     12  C   UNL     1      34.532  44.636  50.044  1.00  0.00     0.041 C 
ATOM     13  O   UNL     1      33.680  44.027  49.346  1.00  0.00    -0.550 OA
ATOM     14  O   UNL     1      35.032  45.857  49.610  1.00  0.00    -0.550 OA
ENDBRANCH  11  12
ENDBRANCH  10  11
ENDBRANCH   9  10
ENDBRANCH   8   9
ENDBRANCH   1   8
TORSDOF 9
ENDMDL
MODEL 7
REMARK VINA RESULT:    -4.865      2.434      6.187
REMARK INTER + INTRA:          -7.984
REMARK INTER:                  -7.266
REMARK INTRA:                  -0.718
REMARK UNBOUND:                -0.560
REMARK SMILES O=C([O-])CCCCCCCCC(=O)[O-]
REMARK SMILES IDX 7 1 6 2 5 3 4 4 2 5 1 6 3 7 8 8 9 9 10 10 11 11 12 12 13 13
REMARK SMILES IDX 14 14
REMARK H PARENT
REMARK Flexibility Score: inf
ROOT
ATOM      1  C   UNL     1      35.798  42.681  46.833  1.00  0.00     0.000 C 
ENDROOT
BRANCH   1   2
ATOM      2  C   UNL     1      37.019  42.298  47.682  1.00  0.00     0.000 C 
BRANCH   2   3
ATOM      3  C   UNL     1      36.852  42.675  49.163  1.00  0.00     0.006 C 
BRANCH   3   4
ATOM      4  C   UNL     1      35.415  43.087  49.509  1.00  0.00     0.053 C 
BRANCH   4   5
ATOM      5  C   UNL     1      35.390  44.478  50.060  1.00  0.00     0.041 C 
ATOM      6  O   UNL     1      35.789  44.703  51.233  1.00  0.00    -0.550 OA
ATOM      7  O   UNL     1      34.879  45.519  49.295  1.00  0.00    -0.550 OA
ENDBRANCH   4   5
ENDBRANCH   3   4
ENDBRANCH   2   3
ENDBRANCH   1   2
BRANCH   1   8
ATOM      8  C   UNL     1      36.079  43.942  46.007  1.00  0.00     0.000 C 
BRANCH   8   9
ATOM      9  C   UNL     1      34.774  44.589  45.528  1.00  0.00     0.000 C 
BRANCH   9  10
ATOM     10  C   UNL     1      33.569  44.036  46.298  1.00  0.00     0.006 C 
BRANCH  10  11
ATOM     11  C   UNL     1      32.375  43.812  45.366  1.00  0.00     0.053 C 
BRANCH  11  12
ATOM     12  C   UNL     1      31.275  43.097  46.085  1.00  0.00     0.041 C 
ATOM     13  O   UNL     1      30.238  43.719  46.436  1.00  0.00    -0.550 OA
ATOM     14  O   UNL     1      31.372  41.732  46.321  1.00  0.00    -0.550 OA
ENDBRANCH  11  12
ENDBRANCH  10  11
ENDBRANCH   9  10
ENDBRANCH   8   9
ENDBRANCH   1   8
TORSDOF 9
ENDMDL
MODEL 8
REMARK VINA RESULT:    -4.855      3.638      5.880
REMARK INTER + INTRA:          -7.970
REMARK INTER:                  -7.070
REMARK INTRA:                  -0.900
REMARK UNBOUND:                -0.560
REMARK SMILES O=C([O-])CCCCCCCCC(=O)[O-]
REMARK SMILES IDX 7 1 6 2 5 3 4 4 2 5 1 6 3 7 8 8 9 9 10 10 11 11 12 12 13 13
REMARK SMILES IDX 14 14
REMARK H PARENT
REMARK Flexibility Score: inf
ROOT
ATOM      1  C   UNL     1      36.167  43.608  46.346  1.00  0.00     0.000 C 
ENDROOT
BRANCH   1   2
ATOM      2  C   UNL     1      36.247  42.305  47.155  1.00  0.00     0.000 C 
BRANCH   2   3
ATOM      3  C   UNL     1      37.481  42.251  48.069  1.00  0.00     0.006 C 
BRANCH   3   4
ATOM      4  C   UNL     1      37.121  42.385  49.555  1.00  0.00     0.053 C 
BRANCH   4   5
ATOM      5  C   UNL     1      38.348  42.263  50.403  1.00  0.00     0.041 C 
ATOM      6  O   UNL     1      38.862  43.287  50.924  1.00  0.00    -0.550 OA
ATOM      7  O   UNL     1      38.953  41.025  50.576  1.00  0.00    -0.550 OA
ENDBRANCH   4   5
ENDBRANCH   3   4
ENDBRANCH   2   3
ENDBRANCH   1   2
BRANCH   1   8
ATOM      8  C   UNL     1      35.244  44.623  47.031  1.00  0.00     0.000 C 
BRANCH   8   9
ATOM      9  C   UNL     1      33.960  43.951  47.532  1.00  0.00     0.000 C 
BRANCH   9  10
ATOM     10  C   UNL     1      33.716  44.263  49.013  1.00  0.00     0.006 C 
BRANCH  10  11
ATOM     11  C   UNL     1      34.779  45.223  49.555  1.00  0.00     0.053 C 
BRANCH  11  12
ATOM     12  C   UNL     1      34.854  45.134  51.046  1.00  0.00     0.041 C 
ATOM     13  O   UNL     1      35.953  44.892  51.612  1.00  0.00    -0.550 OA
ATOM     14  O   UNL     1      33.721  45.368  51.815  1.00  0.00    -0.550 OA
ENDBRANCH  11  12
ENDBRANCH  10  11
ENDBRANCH   9  10
ENDBRANCH   8   9
ENDBRANCH   1   8
TORSDOF 9
ENDMDL
MODEL 9
REMARK VINA RESULT:    -4.822      2.575      6.447
REMARK INTER + INTRA:          -7.919
REMARK INTER:                  -7.136
REMARK INTRA:                  -0.782
REMARK UNBOUND:                -0.560
REMARK SMILES O=C([O-])CCCCCCCCC(=O)[O-]
REMARK SMILES IDX 7 1 6 2 5 3 4 4 2 5 1 6 3 7 8 8 9 9 10 10 11 11 12 12 13 13
REMARK SMILES IDX 14 14
REMARK H PARENT
REMARK Flexibility Score: inf
ROOT
ATOM      1  C   UNL     1      32.352  44.103  48.181  1.00  0.00     0.000 C 
ENDROOT
BRANCH   1   2
ATOM      2  C   UNL     1      33.226  42.893  48.539  1.00  0.00     0.000 C 
BRANCH   2   3
ATOM      3  C   UNL     1      34.729  43.209  48.476  1.00  0.00     0.006 C 
BRANCH   3   4
ATOM      4  C   UNL     1      35.053  44.348  47.499  1.00  0.00     0.053 C 
BRANCH   4   5
ATOM      5  C   UNL     1      35.855  43.833  46.345  1.00  0.00     0.041 C 
ATOM      6  O   UNL     1      35.724  44.346  45.203  1.00  0.00    -0.550 OA
ATOM      7  O   UNL     1      36.710  42.753  46.521  1.00  0.00    -0.550 OA
ENDBRANCH   4   5
ENDBRANCH   3   4
ENDBRANCH   2   3
ENDBRANCH   1   2
BRANCH   1   8
ATOM      8  C   UNL     1      31.228  43.703  47.218  1.00  0.00     0.000 C 
BRANCH   8   9
ATOM      9  C   UNL     1      31.795  43.235  45.873  1.00  0.00     0.000 C 
BRANCH   9  10
ATOM     10  C   UNL     1      32.175  44.430  44.990  1.00  0.00     0.006 C 
BRANCH  10  11
ATOM     11  C   UNL     1      32.186  44.038  43.509  1.00  0.00     0.053 C 
BRANCH  11  12
ATOM     12  C   UNL     1      32.505  45.224  42.655  1.00  0.00     0.041 C 
ATOM     13  O   UNL     1      31.732  45.556  41.718  1.00  0.00    -0.550 OA
ATOM     14  O   UNL     1      33.629  45.994  42.926  1.00  0.00    -0.550 OA
ENDBRANCH  11  12
ENDBRANCH  10  11
ENDBRANCH   9  10
ENDBRANCH   8   9
ENDBRANCH   1   8
TORSDOF 9
ENDMDL
