MODEL 1
REMARK VINA RESULT:    -3.309      0.000      0.000
REMARK INTER + INTRA:          -3.406
REMARK INTER:                  -3.406
REMARK INTRA:                   0.000
REMARK UNBOUND:                 0.000
REMARK SMILES Cc1ccccc1O
REMARK SMILES IDX 1 1 2 2 3 3 4 4 5 5 6 6 7 7 8 8
REMARK H PARENT 8 9
REMARK Flexibility Score: inf
ROOT
ATOM      1  C   UNL     1    -102.072  -9.747 -65.707  1.00  0.00     0.048 C 
ATOM      2  C   UNL     1    -101.246  -8.694 -66.393  1.00  0.00    -0.009 A 
ATOM      3  C   UNL     1    -101.784  -7.989 -67.484  1.00  0.00     0.007 A 
ATOM      4  C   UNL     1    -101.032  -7.007 -68.134  1.00  0.00     0.001 A 
ATOM      5  C   UNL     1     -99.737  -6.720 -67.704  1.00  0.00     0.004 A 
ATOM      6  C   UNL     1     -99.189  -7.412 -66.621  1.00  0.00     0.046 A 
ATOM      7  C   UNL     1     -99.931  -8.398 -65.960  1.00  0.00     0.118 A 
ENDROOT
BRANCH   7   8
ATOM      8  O   UNL     1     -99.340  -9.062 -64.884  1.00  0.00    -0.508 OA
ATOM      9  H   UNL     1     -98.546  -8.693 -64.376  1.00  0.00     0.293 HD
ENDBRANCH   7   8
TORSDOF 1
ENDMDL
MODEL 2
REMARK VINA RESULT:    -3.266     15.641     16.025
REMARK INTER + INTRA:          -3.362
REMARK INTER:                  -3.362
REMARK INTRA:                   0.000
REMARK UNBOUND:                 0.000
REMARK SMILES Cc1ccccc1O
REMARK SMILES IDX 1 1 2 2 3 3 4 4 5 5 6 6 7 7 8 8
REMARK H PARENT 8 9
REMARK Flexibility Score: inf
ROOT
ATOM      1  C   UNL     1     -93.468 -16.992 -79.855  1.00  0.00     0.048 C 
ATOM      2  C   UNL     1     -94.894 -16.583 -79.612  1.00  0.00    -0.009 A 
ATOM      3  C   UNL     1     -95.938 -17.464 -79.945  1.00  0.00     0.007 A 
ATOM      4  C   UNL     1     -97.269 -17.102 -79.727  1.00  0.00     0.001 A 
ATOM      5  C   UNL     1     -97.573 -15.857 -79.177  1.00  0.00     0.004 A 
ATOM      6  C   UNL     1     -96.547 -14.971 -78.841  1.00  0.00     0.046 A 
ATOM      7  C   UNL     1     -95.209 -15.321 -79.054  1.00  0.00     0.118 A 
ENDROOT
BRANCH   7   8
ATOM      8  O   UNL     1     -94.219 -14.401 -78.702  1.00  0.00    -0.508 OA
ATOM      9  H   UNL     1     -94.396 -13.600 -78.109  1.00  0.00     0.293 HD
ENDBRANCH   7   8
TORSDOF 1
ENDMDL
MODEL 3
REMARK VINA RESULT:    -3.260     11.027     11.872
REMARK INTER + INTRA:          -3.356
REMARK INTER:                  -3.356
REMARK INTRA:                   0.000
REMARK UNBOUND:                 0.000
REMARK SMILES Cc1ccccc1O
REMARK SMILES IDX 1 1 2 2 3 3 4 4 5 5 6 6 7 7 8 8
REMARK H PARENT 8 9
REMARK Flexibility Score: inf
ROOT
ATOM      1  C   UNL     1     -92.707 -19.469 -64.277  1.00  0.00     0.048 C 
ATOM      2  C   UNL     1     -93.833 -18.473 -64.276  1.00  0.00    -0.009 A 
ATOM      3  C   UNL     1     -94.898 -18.625 -65.182  1.00  0.00     0.007 A 
ATOM      4  C   UNL     1     -95.953 -17.709 -65.196  1.00  0.00     0.001 A 
ATOM      5  C   UNL     1     -95.957 -16.634 -64.308  1.00  0.00     0.004 A 
ATOM      6  C   UNL     1     -94.907 -16.471 -63.402  1.00  0.00     0.046 A 
ATOM      7  C   UNL     1     -93.843 -17.380 -63.377  1.00  0.00     0.118 A 
ENDROOT
BRANCH   7   8
ATOM      8  O   UNL     1     -92.816 -17.173 -62.453  1.00  0.00    -0.508 OA
ATOM      9  H   UNL     1     -92.862 -16.472 -61.725  1.00  0.00     0.293 HD
ENDBRANCH   7   8
TORSDOF 1
ENDMDL
MODEL 4
REMARK VINA RESULT:    -3.221      9.506     10.530
REMARK INTER + INTRA:          -3.315
REMARK INTER:                  -3.315
REMARK INTRA:                   0.000
REMARK UNBOUND:                 0.000
REMARK SMILES Cc1ccccc1O
REMARK SMILES IDX 1 1 2 2 3 3 4 4 5 5 6 6 7 7 8 8
REMARK H PARENT 8 9
REMARK Flexibility Score: inf
ROOT
ATOM      1  C   UNL     1     -98.021 -18.168 -65.102  1.00  0.00     0.048 C 
ATOM      2  C   UNL     1     -96.800 -17.589 -64.443  1.00  0.00    -0.009 A 
ATOM      3  C   UNL     1     -96.066 -18.368 -63.531  1.00  0.00     0.007 A 
ATOM      4  C   UNL     1     -94.929 -17.847 -62.908  1.00  0.00     0.001 A 
ATOM      5  C   UNL     1     -94.513 -16.546 -63.188  1.00  0.00     0.004 A 
ATOM      6  C   UNL     1     -95.232 -15.760 -64.092  1.00  0.00     0.046 A 
ATOM      7  C   UNL     1     -96.373 -16.269 -64.723  1.00  0.00     0.118 A 
ENDROOT
BRANCH   7   8
ATOM      8  O   UNL     1     -97.058 -15.445 -65.618  1.00  0.00    -0.508 OA
ATOM      9  H   UNL     1     -96.593 -14.899 -66.333  1.00  0.00     0.293 HD
ENDBRANCH   7   8
TORSDOF 1
ENDMDL
MODEL 5
REMARK VINA RESULT:    -3.170      0.751      2.582
REMARK INTER + INTRA:          -3.262
REMARK INTER:                  -3.262
REMARK INTRA:                   0.000
REMARK UNBOUND:                 0.000
REMARK SMILES Cc1ccccc1O
REMARK SMILES IDX 1 1 2 2 3 3 4 4 5 5 6 6 7 7 8 8
REMARK H PARENT 8 9
REMARK Flexibility Score: inf
ROOT
ATOM      1  C   UNL     1     -99.131  -6.878 -66.831  1.00  0.00     0.048 C 
ATOM      2  C   UNL     1    -100.352  -7.748 -66.719  1.00  0.00    -0.009 A 
ATOM      3  C   UNL     1    -101.448  -7.523 -67.570  1.00  0.00     0.007 A 
ATOM      4  C   UNL     1    -102.591  -8.321 -67.480  1.00  0.00     0.001 A 
ATOM      5  C   UNL     1    -102.653  -9.351 -66.542  1.00  0.00     0.004 A 
ATOM      6  C   UNL     1    -101.571  -9.587 -65.690  1.00  0.00     0.046 A 
ATOM      7  C   UNL     1    -100.420  -8.795 -65.769  1.00  0.00     0.118 A 
ENDROOT
BRANCH   7   8
ATOM      8  O   UNL     1     -99.365  -9.070 -64.895  1.00  0.00    -0.508 OA
ATOM      9  H   UNL     1     -98.409  -8.795 -65.080  1.00  0.00     0.293 HD
ENDBRANCH   7   8
TORSDOF 1
ENDMDL
MODEL 6
REMARK VINA RESULT:    -3.154     10.679     11.669
REMARK INTER + INTRA:          -3.246
REMARK INTER:                  -3.246
REMARK INTRA:                   0.000
REMARK UNBOUND:                 0.000
REMARK SMILES Cc1ccccc1O
REMARK SMILES IDX 1 1 2 2 3 3 4 4 5 5 6 6 7 7 8 8
REMARK H PARENT 8 9
REMARK Flexibility Score: inf
ROOT
ATOM      1  C   UNL     1     -96.467 -15.754 -64.038  1.00  0.00     0.048 C 
ATOM      2  C   UNL     1     -95.403 -16.812 -63.944  1.00  0.00    -0.009 A 
ATOM      3  C   UNL     1     -94.454 -16.754 -62.908  1.00  0.00     0.007 A 
ATOM      4  C   UNL     1     -93.457 -17.727 -62.804  1.00  0.00     0.001 A 
ATOM      5  C   UNL     1     -93.395 -18.766 -63.733  1.00  0.00     0.004 A 
ATOM      6  C   UNL     1     -94.331 -18.837 -64.767  1.00  0.00     0.046 A 
ATOM      7  C   UNL     1     -95.335 -17.868 -64.883  1.00  0.00     0.118 A 
ENDROOT
BRANCH   7   8
ATOM      8  O   UNL     1     -96.247 -17.982 -65.935  1.00  0.00    -0.508 OA
ATOM      9  H   UNL     1     -96.178 -18.695 -66.650  1.00  0.00     0.293 HD
ENDBRANCH   7   8
TORSDOF 1
ENDMDL
MODEL 7
REMARK VINA RESULT:    -3.138     12.522     13.470
REMARK INTER + INTRA:          -3.229
REMARK INTER:                  -3.229
REMARK INTRA:                   0.000
REMARK UNBOUND:                 0.000
REMARK SMILES Cc1ccccc1O
REMARK SMILES IDX 1 1 2 2 3 3 4 4 5 5 6 6 7 7 8 8
REMARK H PARENT 8 9
REMARK Flexibility Score: inf
ROOT
ATOM      1  C   UNL     1     -91.031 -18.977 -62.547  1.00  0.00     0.048 C 
ATOM      2  C   UNL     1     -92.374 -18.660 -63.142  1.00  0.00    -0.009 A 
ATOM      3  C   UNL     1     -93.238 -17.772 -62.477  1.00  0.00     0.007 A 
ATOM      4  C   UNL     1     -94.491 -17.465 -63.015  1.00  0.00     0.001 A 
ATOM      5  C   UNL     1     -94.895 -18.041 -64.218  1.00  0.00     0.004 A 
ATOM      6  C   UNL     1     -94.048 -18.926 -64.890  1.00  0.00     0.046 A 
ATOM      7  C   UNL     1     -92.790 -19.242 -64.363  1.00  0.00     0.118 A 
ENDROOT
BRANCH   7   8
ATOM      8  O   UNL     1     -91.980 -20.133 -65.072  1.00  0.00    -0.508 OA
ATOM      9  H   UNL     1     -91.254 -20.686 -64.634  1.00  0.00     0.293 HD
ENDBRANCH   7   8
TORSDOF 1
ENDMDL
MODEL 8
REMARK VINA RESULT:    -3.104     10.689     11.580
REMARK INTER + INTRA:          -3.195
REMARK INTER:                  -3.195
REMARK INTRA:                   0.000
REMARK UNBOUND:                 0.000
REMARK SMILES Cc1ccccc1O
REMARK SMILES IDX 1 1 2 2 3 3 4 4 5 5 6 6 7 7 8 8
REMARK H PARENT 8 9
REMARK Flexibility Score: inf
ROOT
ATOM      1  C   UNL     1     -93.102 -18.485 -62.789  1.00  0.00     0.048 C 
ATOM      2  C   UNL     1     -94.165 -17.782 -63.588  1.00  0.00    -0.009 A 
ATOM      3  C   UNL     1     -94.550 -16.476 -63.237  1.00  0.00     0.007 A 
ATOM      4  C   UNL     1     -95.536 -15.807 -63.967  1.00  0.00     0.001 A 
ATOM      5  C   UNL     1     -96.148 -16.434 -65.052  1.00  0.00     0.004 A 
ATOM      6  C   UNL     1     -95.775 -17.731 -65.413  1.00  0.00     0.046 A 
ATOM      7  C   UNL     1     -94.789 -18.413 -64.690  1.00  0.00     0.118 A 
ENDROOT
BRANCH   7   8
ATOM      8  O   UNL     1     -94.452 -19.708 -65.089  1.00  0.00    -0.508 OA
ATOM      9  H   UNL     1     -95.099 -20.326 -65.561  1.00  0.00     0.293 HD
ENDBRANCH   7   8
TORSDOF 1
ENDMDL
