MODEL 1
REMARK VINA RESULT:    -3.204      0.000      0.000
REMARK INTER + INTRA:          -4.158
REMARK INTER:                  -3.954
REMARK INTRA:                  -0.204
REMARK UNBOUND:                -0.204
REMARK SMILES CCCCCC(=O)[O-]
REMARK SMILES IDX 4 1 5 2 6 3 7 4 8 5 3 6 2 7 1 8
REMARK H PARENT
REMARK Flexibility Score: inf
ROOT
ATOM      1  C   UNL     1      11.583  62.044   7.852  1.00  0.00     0.006 C 
ENDROOT
BRANCH   1   2
ATOM      2  C   UNL     1      11.024  62.967   8.947  1.00  0.00     0.053 C 
BRANCH   2   3
ATOM      3  C   UNL     1       9.855  63.769   8.463  1.00  0.00     0.041 C 
ATOM      4  O   UNL     1       8.680  63.379   8.691  1.00  0.00    -0.550 OA
ATOM      5  O   UNL     1      10.065  64.966   7.789  1.00  0.00    -0.550 OA
ENDBRANCH   2   3
ENDBRANCH   1   2
BRANCH   1   6
ATOM      6  C   UNL     1      12.735  62.655   7.028  1.00  0.00     0.000 C 
BRANCH   6   7
ATOM      7  C   UNL     1      13.498  63.794   7.728  1.00  0.00    -0.003 C 
ATOM      8  C   UNL     1      13.866  64.936   6.782  1.00  0.00     0.004 C 
ENDBRANCH   6   7
ENDBRANCH   1   6
TORSDOF 4
ENDMDL
MODEL 2
REMARK VINA RESULT:    -3.085      2.375      3.539
REMARK INTER + INTRA:          -4.011
REMARK INTER:                  -3.807
REMARK INTRA:                  -0.204
REMARK UNBOUND:                -0.204
REMARK SMILES CCCCCC(=O)[O-]
REMARK SMILES IDX 4 1 5 2 6 3 7 4 8 5 3 6 2 7 1 8
REMARK H PARENT
REMARK Flexibility Score: inf
ROOT
ATOM      1  C   UNL     1      10.910  62.839   9.044  1.00  0.00     0.006 C 
ENDROOT
BRANCH   1   2
ATOM      2  C   UNL     1      11.620  62.097   7.899  1.00  0.00     0.053 C 
BRANCH   2   3
ATOM      3  C   UNL     1      12.784  62.873   7.365  1.00  0.00     0.041 C 
ATOM      4  O   UNL     1      13.083  62.806   6.144  1.00  0.00    -0.550 OA
ATOM      5  O   UNL     1      13.519  63.695   8.210  1.00  0.00    -0.550 OA
ENDBRANCH   2   3
ENDBRANCH   1   2
BRANCH   1   6
ATOM      6  C   UNL     1       9.565  63.485   8.651  1.00  0.00     0.000 C 
BRANCH   6   7
ATOM      7  C   UNL     1       9.554  65.024   8.675  1.00  0.00    -0.003 C 
ATOM      8  C   UNL     1      10.316  65.646   7.506  1.00  0.00     0.004 C 
ENDBRANCH   6   7
ENDBRANCH   1   6
TORSDOF 4
ENDMDL
MODEL 3
REMARK VINA RESULT:    -3.080      1.254      1.727
REMARK INTER + INTRA:          -4.005
REMARK INTER:                  -3.771
REMARK INTRA:                  -0.234
REMARK UNBOUND:                -0.204
REMARK SMILES CCCCCC(=O)[O-]
REMARK SMILES IDX 4 1 5 2 6 3 7 4 8 5 3 6 2 7 1 8
REMARK H PARENT
REMARK Flexibility Score: inf
ROOT
ATOM      1  C   UNL     1      12.708  62.658   6.892  1.00  0.00     0.006 C 
ENDROOT
BRANCH   1   2
ATOM      2  C   UNL     1      11.664  62.100   7.873  1.00  0.00     0.053 C 
BRANCH   2   3
ATOM      3  C   UNL     1      10.963  63.189   8.625  1.00  0.00     0.041 C 
ATOM      4  O   UNL     1      11.148  63.325   9.863  1.00  0.00    -0.550 OA
ATOM      5  O   UNL     1      10.130  64.075   7.951  1.00  0.00    -0.550 OA
ENDBRANCH   2   3
ENDBRANCH   1   2
BRANCH   1   6
ATOM      6  C   UNL     1      13.526  63.847   7.437  1.00  0.00     0.000 C 
BRANCH   6   7
ATOM      7  C   UNL     1      13.486  65.114   6.563  1.00  0.00    -0.003 C 
ATOM      8  C   UNL     1      12.463  65.028   5.432  1.00  0.00     0.004 C 
ENDBRANCH   6   7
ENDBRANCH   1   6
TORSDOF 4
ENDMDL
MODEL 4
REMARK VINA RESULT:    -3.032      1.800      3.519
REMARK INTER + INTRA:          -3.945
REMARK INTER:                  -3.689
REMARK INTRA:                  -0.256
REMARK UNBOUND:                -0.204
REMARK SMILES CCCCCC(=O)[O-]
REMARK SMILES IDX 4 1 5 2 6 3 7 4 8 5 3 6 2 7 1 8
REMARK H PARENT
REMARK Flexibility Score: inf
ROOT
ATOM      1  C   UNL     1      13.388  63.826   7.575  1.00  0.00     0.006 C 
ENDROOT
BRANCH   1   2
ATOM      2  C   UNL     1      13.650  64.892   6.499  1.00  0.00     0.053 C 
BRANCH   2   3
ATOM      3  C   UNL     1      12.417  65.207   5.709  1.00  0.00     0.041 C 
ATOM      4  O   UNL     1      11.446  65.793   6.256  1.00  0.00    -0.550 OA
ATOM      5  O   UNL     1      12.354  64.883   4.359  1.00  0.00    -0.550 OA
ENDBRANCH   2   3
ENDBRANCH   1   2
BRANCH   1   6
ATOM      6  C   UNL     1      12.691  62.551   7.056  1.00  0.00     0.000 C 
BRANCH   6   7
ATOM      7  C   UNL     1      11.545  62.033   7.943  1.00  0.00    -0.003 C 
ATOM      8  C   UNL     1      10.668  63.152   8.502  1.00  0.00     0.004 C 
ENDBRANCH   6   7
ENDBRANCH   1   6
TORSDOF 4
ENDMDL
MODEL 5
REMARK VINA RESULT:    -2.988      2.071      3.566
REMARK INTER + INTRA:          -3.891
REMARK INTER:                  -3.674
REMARK INTRA:                  -0.217
REMARK UNBOUND:                -0.204
REMARK SMILES CCCCCC(=O)[O-]
REMARK SMILES IDX 4 1 5 2 6 3 7 4 8 5 3 6 2 7 1 8
REMARK H PARENT
REMARK Flexibility Score: inf
ROOT
ATOM      1  C   UNL     1      12.878  62.800   7.572  1.00  0.00     0.006 C 
ENDROOT
BRANCH   1   2
ATOM      2  C   UNL     1      12.988  63.253   6.107  1.00  0.00     0.053 C 
BRANCH   2   3
ATOM      3  C   UNL     1      12.591  64.686   5.932  1.00  0.00     0.041 C 
ATOM      4  O   UNL     1      12.574  65.465   6.921  1.00  0.00    -0.550 OA
ATOM      5  O   UNL     1      12.273  65.170   4.669  1.00  0.00    -0.550 OA
ENDBRANCH   2   3
ENDBRANCH   1   2
BRANCH   1   6
ATOM      6  C   UNL     1      11.500  62.228   7.963  1.00  0.00     0.000 C 
BRANCH   6   7
ATOM      7  C   UNL     1      10.772  62.999   9.078  1.00  0.00    -0.003 C 
ATOM      8  C   UNL     1       9.575  63.800   8.567  1.00  0.00     0.004 C 
ENDBRANCH   6   7
ENDBRANCH   1   6
TORSDOF 4
ENDMDL
MODEL 6
REMARK VINA RESULT:    -2.915      2.839      3.623
REMARK INTER + INTRA:          -3.802
REMARK INTER:                  -3.708
REMARK INTRA:                  -0.094
REMARK UNBOUND:                -0.204
REMARK SMILES CCCCCC(=O)[O-]
REMARK SMILES IDX 4 1 5 2 6 3 7 4 8 5 3 6 2 7 1 8
REMARK H PARENT
REMARK Flexibility Score: inf
ROOT
ATOM      1  C   UNL     1      13.125  64.710   6.140  1.00  0.00     0.006 C 
ENDROOT
BRANCH   1   2
ATOM      2  C   UNL     1      13.077  63.190   6.360  1.00  0.00     0.053 C 
BRANCH   2   3
ATOM      3  C   UNL     1      12.330  62.827   7.606  1.00  0.00     0.041 C 
ATOM      4  O   UNL     1      11.669  61.757   7.660  1.00  0.00    -0.550 OA
ATOM      5  O   UNL     1      12.392  63.655   8.721  1.00  0.00    -0.550 OA
ENDBRANCH   2   3
ENDBRANCH   1   2
BRANCH   1   6
ATOM      6  C   UNL     1      11.904  65.287   5.394  1.00  0.00     0.000 C 
BRANCH   6   7
ATOM      7  C   UNL     1      12.035  65.314   3.861  1.00  0.00    -0.003 C 
ATOM      8  C   UNL     1      10.726  65.666   3.155  1.00  0.00     0.004 C 
ENDBRANCH   6   7
ENDBRANCH   1   6
TORSDOF 4
ENDMDL
MODEL 7
REMARK VINA RESULT:    -2.893      1.835      2.169
REMARK INTER + INTRA:          -3.774
REMARK INTER:                  -3.569
REMARK INTRA:                  -0.205
REMARK UNBOUND:                -0.204
REMARK SMILES CCCCCC(=O)[O-]
REMARK SMILES IDX 4 1 5 2 6 3 7 4 8 5 3 6 2 7 1 8
REMARK H PARENT
REMARK Flexibility Score: inf
ROOT
ATOM      1  C   UNL     1      11.042  63.113   8.091  1.00  0.00     0.006 C 
ENDROOT
BRANCH   1   2
ATOM      2  C   UNL     1      11.148  63.431   9.591  1.00  0.00     0.053 C 
BRANCH   2   3
ATOM      3  C   UNL     1      11.621  64.831   9.836  1.00  0.00     0.041 C 
ATOM      4  O   UNL     1      10.814  65.794   9.761  1.00  0.00    -0.550 OA
ATOM      5  O   UNL     1      12.946  65.067  10.180  1.00  0.00    -0.550 OA
ENDBRANCH   2   3
ENDBRANCH   1   2
BRANCH   1   6
ATOM      6  C   UNL     1      12.239  62.325   7.518  1.00  0.00     0.000 C 
BRANCH   6   7
ATOM      7  C   UNL     1      12.982  63.025   6.366  1.00  0.00    -0.003 C 
ATOM      8  C   UNL     1      13.801  64.230   6.827  1.00  0.00     0.004 C 
ENDBRANCH   6   7
ENDBRANCH   1   6
TORSDOF 4
ENDMDL
MODEL 8
REMARK VINA RESULT:    -2.828      1.732      2.590
REMARK INTER + INTRA:          -3.694
REMARK INTER:                  -3.425
REMARK INTRA:                  -0.269
REMARK UNBOUND:                -0.204
REMARK SMILES CCCCCC(=O)[O-]
REMARK SMILES IDX 4 1 5 2 6 3 7 4 8 5 3 6 2 7 1 8
REMARK H PARENT
REMARK Flexibility Score: inf
ROOT
ATOM      1  C   UNL     1       9.743  63.481   8.522  1.00  0.00     0.006 C 
ENDROOT
BRANCH   1   2
ATOM      2  C   UNL     1       9.683  65.008   8.688  1.00  0.00     0.053 C 
BRANCH   2   3
ATOM      3  C   UNL     1      10.726  65.704   7.869  1.00  0.00     0.041 C 
ATOM      4  O   UNL     1      10.672  65.668   6.611  1.00  0.00    -0.550 OA
ATOM      5  O   UNL     1      11.740  66.419   8.495  1.00  0.00    -0.550 OA
ENDBRANCH   2   3
ENDBRANCH   1   2
BRANCH   1   6
ATOM      6  C   UNL     1      11.125  62.860   8.813  1.00  0.00     0.000 C 
BRANCH   6   7
ATOM      7  C   UNL     1      11.719  62.031   7.660  1.00  0.00    -0.003 C 
ATOM      8  C   UNL     1      12.837  62.759   6.915  1.00  0.00     0.004 C 
ENDBRANCH   6   7
ENDBRANCH   1   6
TORSDOF 4
ENDMDL
MODEL 9
REMARK VINA RESULT:    -2.735      2.192      3.680
REMARK INTER + INTRA:          -3.579
REMARK INTER:                  -3.336
REMARK INTRA:                  -0.243
REMARK UNBOUND:                -0.204
REMARK SMILES CCCCCC(=O)[O-]
REMARK SMILES IDX 4 1 5 2 6 3 7 4 8 5 3 6 2 7 1 8
REMARK H PARENT
REMARK Flexibility Score: inf
ROOT
ATOM      1  C   UNL     1      12.972  63.580   6.531  1.00  0.00     0.006 C 
ENDROOT
BRANCH   1   2
ATOM      2  C   UNL     1      14.078  64.465   7.128  1.00  0.00     0.053 C 
BRANCH   2   3
ATOM      3  C   UNL     1      13.619  65.183   8.360  1.00  0.00     0.041 C 
ATOM      4  O   UNL     1      12.751  66.092   8.278  1.00  0.00    -0.550 OA
ATOM      5  O   UNL     1      14.125  64.824   9.604  1.00  0.00    -0.550 OA
ENDBRANCH   2   3
ENDBRANCH   1   2
BRANCH   1   6
ATOM      6  C   UNL     1      12.433  62.497   7.488  1.00  0.00     0.000 C 
BRANCH   6   7
ATOM      7  C   UNL     1      11.001  62.740   8.000  1.00  0.00    -0.003 C 
ATOM      8  C   UNL     1      10.943  63.020   9.501  1.00  0.00     0.004 C 
ENDBRANCH   6   7
ENDBRANCH   1   6
TORSDOF 4
ENDMDL
