MODEL 1
REMARK VINA RESULT:    -4.445      0.000      0.000
REMARK INTER + INTRA:         -10.039
REMARK INTER:                  -8.083
REMARK INTRA:                  -1.956
REMARK UNBOUND:                -1.956
REMARK SMILES CCCCCC=CCC=CCCCCCCCC(=O)[O-]
REMARK SMILES IDX 11 1 12 2 13 3 14 4 15 5 16 6 17 7 18 8 19 9 20 10 10 11
REMARK SMILES IDX 9 12 8 13 7 14 6 15 5 16 4 17 3 18 2 19 1 20
REMARK H PARENT
REMARK Flexibility Score: inf
ROOT
ATOM      1  C   UNL     1      31.107  12.614  67.926  1.00  0.00     0.027 C 
ENDROOT
BRANCH   1   2
ATOM      2  C   UNL     1      29.591  12.865  67.895  1.00  0.00     0.004 C 
BRANCH   2   3
ATOM      3  C   UNL     1      28.785  11.602  67.541  1.00  0.00     0.000 C 
BRANCH   3   4
ATOM      4  C   UNL     1      28.239  11.557  66.099  1.00  0.00     0.000 C 
BRANCH   4   5
ATOM      5  C   UNL     1      28.288  12.897  65.344  1.00  0.00     0.000 C 
BRANCH   5   6
ATOM      6  C   UNL     1      26.902  13.546  65.184  1.00  0.00     0.006 C 
BRANCH   6   7
ATOM      7  C   UNL     1      26.987  15.072  65.049  1.00  0.00     0.053 C 
BRANCH   7   8
ATOM      8  C   UNL     1      25.728  15.651  64.481  1.00  0.00     0.041 C 
ATOM      9  O   UNL     1      25.528  15.642  63.238  1.00  0.00    -0.550 OA
ATOM     10  O   UNL     1      24.756  16.166  65.330  1.00  0.00    -0.550 OA
ENDBRANCH   7   8
ENDBRANCH   6   7
ENDBRANCH   5   6
ENDBRANCH   4   5
ENDBRANCH   3   4
ENDBRANCH   2   3
ENDBRANCH   1   2
BRANCH   1  11
ATOM     11  C   UNL     1      31.755  13.104  66.657  1.00  0.00    -0.031 C 
ATOM     12  C   UNL     1      32.056  12.323  65.603  1.00  0.00    -0.027 C 
BRANCH  12  13
ATOM     13  C   UNL     1      31.884  10.828  65.564  1.00  0.00     0.054 C 
BRANCH  13  14
ATOM     14  C   UNL     1      31.682  10.377  64.146  1.00  0.00    -0.027 C 
ATOM     15  C   UNL     1      30.501   9.915  63.707  1.00  0.00    -0.031 C 
BRANCH  15  16
ATOM     16  C   UNL     1      30.318   9.449  62.290  1.00  0.00     0.027 C 
BRANCH  16  17
ATOM     17  C   UNL     1      31.473   8.543  61.846  1.00  0.00     0.004 C 
BRANCH  17  18
ATOM     18  C   UNL     1      32.083   9.039  60.526  1.00  0.00     0.000 C 
BRANCH  18  19
ATOM     19  C   UNL     1      33.599   9.266  60.623  1.00  0.00    -0.003 C 
ATOM     20  C   UNL     1      34.190   8.756  61.939  1.00  0.00     0.004 C 
ENDBRANCH  18  19
ENDBRANCH  17  18
ENDBRANCH  16  17
ENDBRANCH  15  16
ENDBRANCH  13  14
ENDBRANCH  12  13
ENDBRANCH   1  11
TORSDOF 14
ENDMDL
MODEL 2
REMARK VINA RESULT:    -4.351      3.767      6.168
REMARK INTER + INTRA:          -9.868
REMARK INTER:                  -7.174
REMARK INTRA:                  -2.693
REMARK UNBOUND:                -1.956
REMARK SMILES CCCCCC=CCC=CCCCCCCCC(=O)[O-]
REMARK SMILES IDX 11 1 12 2 13 3 14 4 15 5 16 6 17 7 18 8 19 9 20 10 10 11
REMARK SMILES IDX 9 12 8 13 7 14 6 15 5 16 4 17 3 18 2 19 1 20
REMARK H PARENT
REMARK Flexibility Score: inf
ROOT
ATOM      1  C   UNL     1      27.898  13.054  66.043  1.00  0.00     0.027 C 
ENDROOT
BRANCH   1   2
ATOM      2  C   UNL     1      29.104  12.607  65.201  1.00  0.00     0.004 C 
BRANCH   2   3
ATOM      3  C   UNL     1      28.882  11.245  64.520  1.00  0.00     0.000 C 
BRANCH   3   4
ATOM      4  C   UNL     1      30.079  10.274  64.594  1.00  0.00     0.000 C 
BRANCH   4   5
ATOM      5  C   UNL     1      30.628   9.813  63.232  1.00  0.00     0.000 C 
BRANCH   5   6
ATOM      6  C   UNL     1      31.436  10.906  62.510  1.00  0.00     0.006 C 
BRANCH   6   7
ATOM      7  C   UNL     1      31.419  10.730  60.986  1.00  0.00     0.053 C 
BRANCH   7   8
ATOM      8  C   UNL     1      32.220   9.540  60.555  1.00  0.00     0.041 C 
ATOM      9  O   UNL     1      31.643   8.499  60.144  1.00  0.00    -0.550 OA
ATOM     10  O   UNL     1      33.609   9.596  60.571  1.00  0.00    -0.550 OA
ENDBRANCH   7   8
ENDBRANCH   6   7
ENDBRANCH   5   6
ENDBRANCH   4   5
ENDBRANCH   3   4
ENDBRANCH   2   3
ENDBRANCH   1   2
BRANCH   1  11
ATOM     11  C   UNL     1      28.334  13.448  67.430  1.00  0.00    -0.031 C 
ATOM     12  C   UNL     1      28.475  12.592  68.459  1.00  0.00    -0.027 C 
BRANCH  12  13
ATOM     13  C   UNL     1      28.126  11.128  68.412  1.00  0.00     0.054 C 
BRANCH  13  14
ATOM     14  C   UNL     1      29.370  10.317  68.187  1.00  0.00    -0.027 C 
ATOM     15  C   UNL     1      30.592  10.872  68.198  1.00  0.00    -0.031 C 
BRANCH  15  16
ATOM     16  C   UNL     1      31.828  10.051  67.952  1.00  0.00     0.027 C 
BRANCH  16  17
ATOM     17  C   UNL     1      32.976  10.917  67.419  1.00  0.00     0.004 C 
BRANCH  17  18
ATOM     18  C   UNL     1      32.452  12.264  66.901  1.00  0.00     0.000 C 
BRANCH  18  19
ATOM     19  C   UNL     1      32.966  12.598  65.492  1.00  0.00    -0.003 C 
ATOM     20  C   UNL     1      34.073  11.650  65.027  1.00  0.00     0.004 C 
ENDBRANCH  18  19
ENDBRANCH  17  18
ENDBRANCH  16  17
ENDBRANCH  15  16
ENDBRANCH  13  14
ENDBRANCH  12  13
ENDBRANCH   1  11
TORSDOF 14
ENDMDL
MODEL 3
REMARK VINA RESULT:    -4.329      1.465      2.033
REMARK INTER + INTRA:          -9.828
REMARK INTER:                  -8.143
REMARK INTRA:                  -1.686
REMARK UNBOUND:                -1.956
REMARK SMILES CCCCCC=CCC=CCCCCCCCC(=O)[O-]
REMARK SMILES IDX 11 1 12 2 13 3 14 4 15 5 16 6 17 7 18 8 19 9 20 10 10 11
REMARK SMILES IDX 9 12 8 13 7 14 6 15 5 16 4 17 3 18 2 19 1 20
REMARK H PARENT
REMARK Flexibility Score: inf
ROOT
ATOM      1  C   UNL     1      29.655  12.292  67.825  1.00  0.00     0.027 C 
ENDROOT
BRANCH   1   2
ATOM      2  C   UNL     1      28.745  13.263  68.594  1.00  0.00     0.004 C 
BRANCH   2   3
ATOM      3  C   UNL     1      27.281  12.791  68.647  1.00  0.00     0.000 C 
BRANCH   3   4
ATOM      4  C   UNL     1      26.228  13.917  68.577  1.00  0.00     0.000 C 
BRANCH   4   5
ATOM      5  C   UNL     1      26.172  14.672  67.237  1.00  0.00     0.000 C 
BRANCH   5   6
ATOM      6  C   UNL     1      26.057  13.732  66.024  1.00  0.00     0.006 C 
BRANCH   6   7
ATOM      7  C   UNL     1      26.405  14.439  64.707  1.00  0.00     0.053 C 
BRANCH   7   8
ATOM      8  C   UNL     1      25.178  14.909  63.987  1.00  0.00     0.041 C 
ATOM      9  O   UNL     1      24.062  14.372  64.215  1.00  0.00    -0.550 OA
ATOM     10  O   UNL     1      25.261  15.968  63.092  1.00  0.00    -0.550 OA
ENDBRANCH   7   8
ENDBRANCH   6   7
ENDBRANCH   5   6
ENDBRANCH   4   5
ENDBRANCH   3   4
ENDBRANCH   2   3
ENDBRANCH   1   2
BRANCH   1  11
ATOM     11  C   UNL     1      29.868  12.767  66.412  1.00  0.00    -0.031 C 
ATOM     12  C   UNL     1      29.313  12.200  65.324  1.00  0.00    -0.027 C 
BRANCH  12  13
ATOM     13  C   UNL     1      28.476  10.948  65.340  1.00  0.00     0.054 C 
BRANCH  13  14
ATOM     14  C   UNL     1      28.956  10.004  64.276  1.00  0.00    -0.027 C 
ATOM     15  C   UNL     1      30.010  10.288  63.494  1.00  0.00    -0.031 C 
BRANCH  15  16
ATOM     16  C   UNL     1      30.468   9.342  62.420  1.00  0.00     0.027 C 
BRANCH  16  17
ATOM     17  C   UNL     1      31.293  10.068  61.350  1.00  0.00     0.004 C 
BRANCH  17  18
ATOM     18  C   UNL     1      32.137   9.072  60.541  1.00  0.00     0.000 C 
BRANCH  18  19
ATOM     19  C   UNL     1      33.646   9.329  60.676  1.00  0.00    -0.003 C 
ATOM     20  C   UNL     1      34.264   8.604  61.873  1.00  0.00     0.004 C 
ENDBRANCH  18  19
ENDBRANCH  17  18
ENDBRANCH  16  17
ENDBRANCH  15  16
ENDBRANCH  13  14
ENDBRANCH  12  13
ENDBRANCH   1  11
TORSDOF 14
ENDMDL
MODEL 4
REMARK VINA RESULT:    -4.304      1.151      2.178
REMARK INTER + INTRA:          -9.782
REMARK INTER:                  -7.569
REMARK INTRA:                  -2.214
REMARK UNBOUND:                -1.956
REMARK SMILES CCCCCC=CCC=CCCCCCCCC(=O)[O-]
REMARK SMILES IDX 11 1 12 2 13 3 14 4 15 5 16 6 17 7 18 8 19 9 20 10 10 11
REMARK SMILES IDX 9 12 8 13 7 14 6 15 5 16 4 17 3 18 2 19 1 20
REMARK H PARENT
REMARK Flexibility Score: inf
ROOT
ATOM      1  C   UNL     1      30.220  11.579  68.818  1.00  0.00     0.027 C 
ENDROOT
BRANCH   1   2
ATOM      2  C   UNL     1      28.854  11.123  68.280  1.00  0.00     0.004 C 
BRANCH   2   3
ATOM      3  C   UNL     1      28.903  10.721  66.795  1.00  0.00     0.000 C 
BRANCH   3   4
ATOM      4  C   UNL     1      27.990  11.546  65.865  1.00  0.00     0.000 C 
BRANCH   4   5
ATOM      5  C   UNL     1      28.586  12.881  65.385  1.00  0.00     0.000 C 
BRANCH   5   6
ATOM      6  C   UNL     1      27.653  14.079  65.638  1.00  0.00     0.006 C 
BRANCH   6   7
ATOM      7  C   UNL     1      26.179  13.659  65.722  1.00  0.00     0.053 C 
BRANCH   7   8
ATOM      8  C   UNL     1      25.335  14.389  64.724  1.00  0.00     0.041 C 
ATOM      9  O   UNL     1      24.127  14.072  64.560  1.00  0.00    -0.550 OA
ATOM     10  O   UNL     1      25.873  15.446  64.001  1.00  0.00    -0.550 OA
ENDBRANCH   7   8
ENDBRANCH   6   7
ENDBRANCH   5   6
ENDBRANCH   4   5
ENDBRANCH   3   4
ENDBRANCH   2   3
ENDBRANCH   1   2
BRANCH   1  11
ATOM     11  C   UNL     1      30.444  13.041  68.533  1.00  0.00    -0.031 C 
ATOM     12  C   UNL     1      31.493  13.534  67.851  1.00  0.00    -0.027 C 
BRANCH  12  13
ATOM     13  C   UNL     1      32.655  12.716  67.352  1.00  0.00     0.054 C 
BRANCH  13  14
ATOM     14  C   UNL     1      32.428  12.334  65.919  1.00  0.00    -0.027 C 
ATOM     15  C   UNL     1      32.531  11.064  65.495  1.00  0.00    -0.031 C 
BRANCH  15  16
ATOM     16  C   UNL     1      32.320  10.698  64.053  1.00  0.00     0.027 C 
BRANCH  16  17
ATOM     17  C   UNL     1      30.827  10.617  63.710  1.00  0.00     0.004 C 
BRANCH  17  18
ATOM     18  C   UNL     1      30.615   9.962  62.337  1.00  0.00     0.000 C 
BRANCH  18  19
ATOM     19  C   UNL     1      31.932   9.503  61.691  1.00  0.00    -0.003 C 
ATOM     20  C   UNL     1      31.713   8.715  60.399  1.00  0.00     0.004 C 
ENDBRANCH  18  19
ENDBRANCH  17  18
ENDBRANCH  16  17
ENDBRANCH  15  16
ENDBRANCH  13  14
ENDBRANCH  12  13
ENDBRANCH   1  11
TORSDOF 14
ENDMDL
MODEL 5
REMARK VINA RESULT:    -4.234      3.665      5.046
REMARK INTER + INTRA:          -9.656
REMARK INTER:                  -7.177
REMARK INTRA:                  -2.479
REMARK UNBOUND:                -1.956
REMARK SMILES CCCCCC=CCC=CCCCCCCCC(=O)[O-]
REMARK SMILES IDX 11 1 12 2 13 3 14 4 15 5 16 6 17 7 18 8 19 9 20 10 10 11
REMARK SMILES IDX 9 12 8 13 7 14 6 15 5 16 4 17 3 18 2 19 1 20
REMARK H PARENT
REMARK Flexibility Score: inf
ROOT
ATOM      1  C   UNL     1      29.704  11.348  68.012  1.00  0.00     0.027 C 
ENDROOT
BRANCH   1   2
ATOM      2  C   UNL     1      30.903  10.387  68.047  1.00  0.00     0.004 C 
BRANCH   2   3
ATOM      3  C   UNL     1      32.113  10.914  67.256  1.00  0.00     0.000 C 
BRANCH   3   4
ATOM      4  C   UNL     1      32.574  10.016  66.090  1.00  0.00     0.000 C 
BRANCH   4   5
ATOM      5  C   UNL     1      33.429  10.722  65.024  1.00  0.00     0.000 C 
BRANCH   5   6
ATOM      6  C   UNL     1      33.007  12.183  64.788  1.00  0.00     0.006 C 
BRANCH   6   7
ATOM      7  C   UNL     1      34.013  13.181  65.377  1.00  0.00     0.053 C 
BRANCH   7   8
ATOM      8  C   UNL     1      34.782  13.893  64.306  1.00  0.00     0.041 C 
ATOM      9  O   UNL     1      35.555  14.841  64.602  1.00  0.00    -0.550 OA
ATOM     10  O   UNL     1      34.673  13.481  62.983  1.00  0.00    -0.550 OA
ENDBRANCH   7   8
ENDBRANCH   6   7
ENDBRANCH   5   6
ENDBRANCH   4   5
ENDBRANCH   3   4
ENDBRANCH   2   3
ENDBRANCH   1   2
BRANCH   1  11
ATOM     11  C   UNL     1      29.834  12.320  66.869  1.00  0.00    -0.031 C 
ATOM     12  C   UNL     1      29.142  12.241  65.717  1.00  0.00    -0.027 C 
BRANCH  12  13
ATOM     13  C   UNL     1      28.207  11.119  65.351  1.00  0.00     0.054 C 
BRANCH  13  14
ATOM     14  C   UNL     1      28.920  10.130  64.476  1.00  0.00    -0.027 C 
ATOM     15  C   UNL     1      29.902  10.499  63.638  1.00  0.00    -0.031 C 
BRANCH  15  16
ATOM     16  C   UNL     1      30.595   9.501  62.753  1.00  0.00     0.027 C 
BRANCH  16  17
ATOM     17  C   UNL     1      31.130  10.162  61.477  1.00  0.00     0.004 C 
BRANCH  17  18
ATOM     18  C   UNL     1      31.783   9.122  60.554  1.00  0.00     0.000 C 
BRANCH  18  19
ATOM     19  C   UNL     1      33.317   9.211  60.555  1.00  0.00    -0.003 C 
ATOM     20  C   UNL     1      33.833  10.524  61.146  1.00  0.00     0.004 C 
ENDBRANCH  18  19
ENDBRANCH  17  18
ENDBRANCH  16  17
ENDBRANCH  15  16
ENDBRANCH  13  14
ENDBRANCH  12  13
ENDBRANCH   1  11
TORSDOF 14
ENDMDL
MODEL 6
REMARK VINA RESULT:    -4.217      1.430      2.057
REMARK INTER + INTRA:          -9.625
REMARK INTER:                  -7.118
REMARK INTRA:                  -2.507
REMARK UNBOUND:                -1.956
REMARK SMILES CCCCCC=CCC=CCCCCCCCC(=O)[O-]
REMARK SMILES IDX 11 1 12 2 13 3 14 4 15 5 16 6 17 7 18 8 19 9 20 10 10 11
REMARK SMILES IDX 9 12 8 13 7 14 6 15 5 16 4 17 3 18 2 19 1 20
REMARK H PARENT
REMARK Flexibility Score: inf
ROOT
ATOM      1  C   UNL     1      32.950  11.418  68.091  1.00  0.00     0.027 C 
ENDROOT
BRANCH   1   2
ATOM      2  C   UNL     1      31.975  10.235  67.979  1.00  0.00     0.004 C 
BRANCH   2   3
ATOM      3  C   UNL     1      30.548  10.595  68.431  1.00  0.00     0.000 C 
BRANCH   3   4
ATOM      4  C   UNL     1      29.457  10.412  67.356  1.00  0.00     0.000 C 
BRANCH   4   5
ATOM      5  C   UNL     1      28.339  11.469  67.379  1.00  0.00     0.000 C 
BRANCH   5   6
ATOM      6  C   UNL     1      28.745  12.786  66.694  1.00  0.00     0.006 C 
BRANCH   6   7
ATOM      7  C   UNL     1      28.092  12.949  65.315  1.00  0.00     0.053 C 
BRANCH   7   8
ATOM      8  C   UNL     1      27.070  14.044  65.309  1.00  0.00     0.041 C 
ATOM      9  O   UNL     1      26.407  14.290  64.267  1.00  0.00    -0.550 OA
ATOM     10  O   UNL     1      26.821  14.767  66.470  1.00  0.00    -0.550 OA
ENDBRANCH   7   8
ENDBRANCH   6   7
ENDBRANCH   5   6
ENDBRANCH   4   5
ENDBRANCH   3   4
ENDBRANCH   2   3
ENDBRANCH   1   2
BRANCH   1  11
ATOM     11  C   UNL     1      32.423  12.616  67.346  1.00  0.00    -0.031 C 
ATOM     12  C   UNL     1      32.586  12.828  66.027  1.00  0.00    -0.027 C 
BRANCH  12  13
ATOM     13  C   UNL     1      33.403  11.956  65.111  1.00  0.00     0.054 C 
BRANCH  13  14
ATOM     14  C   UNL     1      32.492  11.082  64.298  1.00  0.00    -0.027 C 
ATOM     15  C   UNL     1      31.158  11.232  64.317  1.00  0.00    -0.031 C 
BRANCH  15  16
ATOM     16  C   UNL     1      30.256  10.338  63.513  1.00  0.00     0.027 C 
BRANCH  16  17
ATOM     17  C   UNL     1      30.683  10.293  62.040  1.00  0.00     0.004 C 
BRANCH  17  18
ATOM     18  C   UNL     1      31.082   8.868  61.629  1.00  0.00     0.000 C 
BRANCH  18  19
ATOM     19  C   UNL     1      32.593   8.723  61.385  1.00  0.00    -0.003 C 
ATOM     20  C   UNL     1      33.208   9.965  60.738  1.00  0.00     0.004 C 
ENDBRANCH  18  19
ENDBRANCH  17  18
ENDBRANCH  16  17
ENDBRANCH  15  16
ENDBRANCH  13  14
ENDBRANCH  12  13
ENDBRANCH   1  11
TORSDOF 14
ENDMDL
MODEL 7
REMARK VINA RESULT:    -4.178      3.689      7.463
REMARK INTER + INTRA:          -9.554
REMARK INTER:                  -7.063
REMARK INTRA:                  -2.491
REMARK UNBOUND:                -1.956
REMARK SMILES CCCCCC=CCC=CCCCCCCCC(=O)[O-]
REMARK SMILES IDX 11 1 12 2 13 3 14 4 15 5 16 6 17 7 18 8 19 9 20 10 10 11
REMARK SMILES IDX 9 12 8 13 7 14 6 15 5 16 4 17 3 18 2 19 1 20
REMARK H PARENT
REMARK Flexibility Score: inf
ROOT
ATOM      1  C   UNL     1      32.125   8.832  60.488  1.00  0.00     0.027 C 
ENDROOT
BRANCH   1   2
ATOM      2  C   UNL     1      33.651   8.929  60.648  1.00  0.00     0.004 C 
BRANCH   2   3
ATOM      3  C   UNL     1      34.136   8.463  62.032  1.00  0.00     0.000 C 
BRANCH   3   4
ATOM      4  C   UNL     1      34.380   9.592  63.054  1.00  0.00     0.000 C 
BRANCH   4   5
ATOM      5  C   UNL     1      34.862  10.923  62.450  1.00  0.00     0.000 C 
BRANCH   5   6
ATOM      6  C   UNL     1      33.969  12.115  62.838  1.00  0.00     0.006 C 
BRANCH   6   7
ATOM      7  C   UNL     1      34.417  12.774  64.150  1.00  0.00     0.053 C 
BRANCH   7   8
ATOM      8  C   UNL     1      35.218  14.015  63.903  1.00  0.00     0.041 C 
ATOM      9  O   UNL     1      35.626  14.289  62.744  1.00  0.00    -0.550 OA
ATOM     10  O   UNL     1      35.481  14.890  64.950  1.00  0.00    -0.550 OA
ENDBRANCH   7   8
ENDBRANCH   6   7
ENDBRANCH   5   6
ENDBRANCH   4   5
ENDBRANCH   3   4
ENDBRANCH   2   3
ENDBRANCH   1   2
BRANCH   1  11
ATOM     11  C   UNL     1      31.481  10.178  60.696  1.00  0.00    -0.031 C 
ATOM     12  C   UNL     1      30.838  10.552  61.817  1.00  0.00    -0.027 C 
BRANCH  12  13
ATOM     13  C   UNL     1      30.576   9.654  62.998  1.00  0.00     0.054 C 
BRANCH  13  14
ATOM     14  C   UNL     1      30.546  10.470  64.258  1.00  0.00    -0.027 C 
ATOM     15  C   UNL     1      31.474  10.331  65.218  1.00  0.00    -0.031 C 
BRANCH  15  16
ATOM     16  C   UNL     1      31.420  11.141  66.484  1.00  0.00     0.027 C 
BRANCH  16  17
ATOM     17  C   UNL     1      30.373  10.588  67.458  1.00  0.00     0.004 C 
BRANCH  17  18
ATOM     18  C   UNL     1      29.548  11.725  68.079  1.00  0.00     0.000 C 
BRANCH  18  19
ATOM     19  C   UNL     1      29.049  12.734  67.032  1.00  0.00    -0.003 C 
ATOM     20  C   UNL     1      27.858  12.211  66.228  1.00  0.00     0.004 C 
ENDBRANCH  18  19
ENDBRANCH  17  18
ENDBRANCH  16  17
ENDBRANCH  15  16
ENDBRANCH  13  14
ENDBRANCH  12  13
ENDBRANCH   1  11
TORSDOF 14
ENDMDL
MODEL 8
REMARK VINA RESULT:    -4.175      1.605      2.173
REMARK INTER + INTRA:          -9.548
REMARK INTER:                  -7.578
REMARK INTRA:                  -1.970
REMARK UNBOUND:                -1.956
REMARK SMILES CCCCCC=CCC=CCCCCCCCC(=O)[O-]
REMARK SMILES IDX 11 1 12 2 13 3 14 4 15 5 16 6 17 7 18 8 19 9 20 10 10 11
REMARK SMILES IDX 9 12 8 13 7 14 6 15 5 16 4 17 3 18 2 19 1 20
REMARK H PARENT
REMARK Flexibility Score: inf
ROOT
ATOM      1  C   UNL     1      31.554  10.872  66.568  1.00  0.00     0.027 C 
ENDROOT
BRANCH   1   2
ATOM      2  C   UNL     1      30.823  11.202  67.879  1.00  0.00     0.004 C 
BRANCH   2   3
ATOM      3  C   UNL     1      29.521  10.400  68.054  1.00  0.00     0.000 C 
BRANCH   3   4
ATOM      4  C   UNL     1      28.223  11.225  67.932  1.00  0.00     0.000 C 
BRANCH   4   5
ATOM      5  C   UNL     1      28.428  12.716  67.612  1.00  0.00     0.000 C 
BRANCH   5   6
ATOM      6  C   UNL     1      27.165  13.386  67.042  1.00  0.00     0.006 C 
BRANCH   6   7
ATOM      7  C   UNL     1      27.396  13.961  65.638  1.00  0.00     0.053 C 
BRANCH   7   8
ATOM      8  C   UNL     1      26.105  14.225  64.926  1.00  0.00     0.041 C 
ATOM      9  O   UNL     1      25.025  13.761  65.375  1.00  0.00    -0.550 OA
ATOM     10  O   UNL     1      26.092  15.018  63.785  1.00  0.00    -0.550 OA
ENDBRANCH   7   8
ENDBRANCH   6   7
ENDBRANCH   5   6
ENDBRANCH   4   5
ENDBRANCH   3   4
ENDBRANCH   2   3
ENDBRANCH   1   2
BRANCH   1  11
ATOM     11  C   UNL     1      31.248  11.902  65.513  1.00  0.00    -0.031 C 
ATOM     12  C   UNL     1      30.313  11.760  64.555  1.00  0.00    -0.027 C 
BRANCH  12  13
ATOM     13  C   UNL     1      29.498  10.514  64.327  1.00  0.00     0.054 C 
BRANCH  13  14
ATOM     14  C   UNL     1      30.237   9.587  63.406  1.00  0.00    -0.027 C 
ATOM     15  C   UNL     1      30.594   9.951  62.164  1.00  0.00    -0.031 C 
BRANCH  15  16
ATOM     16  C   UNL     1      31.316   9.006  61.246  1.00  0.00     0.027 C 
BRANCH  16  17
ATOM     17  C   UNL     1      32.743   9.490  60.956  1.00  0.00     0.004 C 
BRANCH  17  18
ATOM     18  C   UNL     1      33.351  10.173  62.190  1.00  0.00     0.000 C 
BRANCH  18  19
ATOM     19  C   UNL     1      33.672  11.656  61.946  1.00  0.00    -0.003 C 
ATOM     20  C   UNL     1      34.587  12.246  63.021  1.00  0.00     0.004 C 
ENDBRANCH  18  19
ENDBRANCH  17  18
ENDBRANCH  16  17
ENDBRANCH  15  16
ENDBRANCH  13  14
ENDBRANCH  12  13
ENDBRANCH   1  11
TORSDOF 14
ENDMDL
MODEL 9
REMARK VINA RESULT:    -4.102      3.836      6.875
REMARK INTER + INTRA:          -9.416
REMARK INTER:                  -7.099
REMARK INTRA:                  -2.317
REMARK UNBOUND:                -1.956
REMARK SMILES CCCCCC=CCC=CCCCCCCCC(=O)[O-]
REMARK SMILES IDX 11 1 12 2 13 3 14 4 15 5 16 6 17 7 18 8 19 9 20 10 10 11
REMARK SMILES IDX 9 12 8 13 7 14 6 15 5 16 4 17 3 18 2 19 1 20
REMARK H PARENT
REMARK Flexibility Score: inf
ROOT
ATOM      1  C   UNL     1      28.355  10.840  64.593  1.00  0.00     0.027 C 
ENDROOT
BRANCH   1   2
ATOM      2  C   UNL     1      29.620   9.997  64.364  1.00  0.00     0.004 C 
BRANCH   2   3
ATOM      3  C   UNL     1      30.674  10.724  63.509  1.00  0.00     0.000 C 
BRANCH   3   4
ATOM      4  C   UNL     1      30.617  10.414  61.999  1.00  0.00     0.000 C 
BRANCH   4   5
ATOM      5  C   UNL     1      31.001   8.974  61.616  1.00  0.00     0.000 C 
BRANCH   5   6
ATOM      6  C   UNL     1      32.069   8.913  60.509  1.00  0.00     0.006 C 
BRANCH   6   7
ATOM      7  C   UNL     1      33.488   8.787  61.077  1.00  0.00     0.053 C 
BRANCH   7   8
ATOM      8  C   UNL     1      34.079  10.125  61.400  1.00  0.00     0.041 C 
ATOM      9  O   UNL     1      34.571  10.346  62.538  1.00  0.00    -0.550 OA
ATOM     10  O   UNL     1      34.120  11.119  60.429  1.00  0.00    -0.550 OA
ENDBRANCH   7   8
ENDBRANCH   6   7
ENDBRANCH   5   6
ENDBRANCH   4   5
ENDBRANCH   3   4
ENDBRANCH   2   3
ENDBRANCH   1   2
BRANCH   1  11
ATOM     11  C   UNL     1      28.716  12.225  65.062  1.00  0.00    -0.031 C 
ATOM     12  C   UNL     1      28.627  12.647  66.337  1.00  0.00    -0.027 C 
BRANCH  12  13
ATOM     13  C   UNL     1      28.062  11.836  67.473  1.00  0.00     0.054 C 
BRANCH  13  14
ATOM     14  C   UNL     1      29.168  11.420  68.399  1.00  0.00    -0.027 C 
ATOM     15  C   UNL     1      29.994  10.402  68.109  1.00  0.00    -0.031 C 
BRANCH  15  16
ATOM     16  C   UNL     1      31.086   9.984  69.053  1.00  0.00     0.027 C 
BRANCH  16  17
ATOM     17  C   UNL     1      32.472  10.181  68.427  1.00  0.00     0.004 C 
BRANCH  17  18
ATOM     18  C   UNL     1      32.397  10.108  66.895  1.00  0.00     0.000 C 
BRANCH  18  19
ATOM     19  C   UNL     1      33.148  11.260  66.210  1.00  0.00    -0.003 C 
ATOM     20  C   UNL     1      32.385  12.584  66.271  1.00  0.00     0.004 C 
ENDBRANCH  18  19
ENDBRANCH  17  18
ENDBRANCH  16  17
ENDBRANCH  15  16
ENDBRANCH  13  14
ENDBRANCH  12  13
ENDBRANCH   1  11
TORSDOF 14
ENDMDL
