MODEL 1
REMARK VINA RESULT:    -5.459      0.000      0.000
REMARK INTER + INTRA:          -5.619
REMARK INTER:                  -5.619
REMARK INTRA:                   0.000
REMARK UNBOUND:                 0.000
REMARK SMILES O=c1ccc2cc(O)ccc2o1
REMARK SMILES IDX 9 1 10 2 11 3 5 4 4 5 3 6 2 7 1 8 12 9 6 10 7 11 8 12
REMARK H PARENT 8 13
REMARK Flexibility Score: inf
ROOT
ATOM      1  C   UNL     1      14.579 -16.225   6.751  1.00  0.00     0.050 A 
ATOM      2  C   UNL     1      13.710 -17.321   6.751  1.00  0.00     0.052 A 
ATOM      3  C   UNL     1      12.374 -17.157   7.129  1.00  0.00     0.138 A 
ATOM      4  C   UNL     1      11.904 -15.881   7.512  1.00  0.00     0.021 A 
ATOM      5  C   UNL     1      10.565 -15.747   7.885  1.00  0.00     0.019 A 
ATOM      6  C   UNL     1       9.735 -16.868   7.869  1.00  0.00     0.094 A 
ATOM      7  C   UNL     1      10.268 -18.102   7.479  1.00  0.00     0.336 A 
ATOM      8  O   UNL     1       9.536 -19.125   7.458  1.00  0.00    -0.246 OA
ATOM      9  O   UNL     1      11.548 -18.202   7.129  1.00  0.00    -0.423 OA
ATOM     10  C   UNL     1      12.780 -14.785   7.510  1.00  0.00     0.058 A 
ATOM     11  C   UNL     1      14.119 -14.958   7.130  1.00  0.00     0.116 A 
ENDROOT
BRANCH  11  12
ATOM     12  O   UNL     1      15.000 -13.879   7.123  1.00  0.00    -0.508 OA
ATOM     13  H   UNL     1      15.822 -13.871   6.531  1.00  0.00     0.293 HD
ENDBRANCH  11  12
TORSDOF 1
ENDMDL
MODEL 2
REMARK VINA RESULT:    -5.336      0.974      2.129
REMARK INTER + INTRA:          -5.492
REMARK INTER:                  -5.492
REMARK INTRA:                   0.000
REMARK UNBOUND:                 0.000
REMARK SMILES O=c1ccc2cc(O)ccc2o1
REMARK SMILES IDX 9 1 10 2 11 3 5 4 4 5 3 6 2 7 1 8 12 9 6 10 7 11 8 12
REMARK H PARENT 8 13
REMARK Flexibility Score: inf
ROOT
ATOM      1  C   UNL     1      13.069 -14.252   7.699  1.00  0.00     0.050 A 
ATOM      2  C   UNL     1      11.945 -15.071   7.843  1.00  0.00     0.052 A 
ATOM      3  C   UNL     1      11.978 -16.394   7.392  1.00  0.00     0.138 A 
ATOM      4  C   UNL     1      13.151 -16.901   6.790  1.00  0.00     0.021 A 
ATOM      5  C   UNL     1      13.155 -18.226   6.348  1.00  0.00     0.019 A 
ATOM      6  C   UNL     1      12.010 -19.006   6.513  1.00  0.00     0.094 A 
ATOM      7  C   UNL     1      10.884 -18.438   7.118  1.00  0.00     0.336 A 
ATOM      8  O   UNL     1       9.842 -19.125   7.276  1.00  0.00    -0.246 OA
ATOM      9  O   UNL     1      10.907 -17.172   7.530  1.00  0.00    -0.423 OA
ATOM     10  C   UNL     1      14.276 -16.075   6.647  1.00  0.00     0.058 A 
ATOM     11  C   UNL     1      14.234 -14.749   7.103  1.00  0.00     0.116 A 
ENDROOT
BRANCH  11  12
ATOM     12  O   UNL     1      15.344 -13.917   6.968  1.00  0.00    -0.508 OA
ATOM     13  H   UNL     1      16.125 -13.969   7.612  1.00  0.00     0.293 HD
ENDBRANCH  11  12
TORSDOF 1
ENDMDL
MODEL 3
REMARK VINA RESULT:    -5.087      1.020      4.785
REMARK INTER + INTRA:          -5.236
REMARK INTER:                  -5.236
REMARK INTRA:                   0.000
REMARK UNBOUND:                 0.000
REMARK SMILES O=c1ccc2cc(O)ccc2o1
REMARK SMILES IDX 9 1 10 2 11 3 5 4 4 5 3 6 2 7 1 8 12 9 6 10 7 11 8 12
REMARK H PARENT 8 13
REMARK Flexibility Score: inf
ROOT
ATOM      1  C   UNL     1       9.312 -16.779   7.787  1.00  0.00     0.050 A 
ATOM      2  C   UNL     1      10.255 -15.749   7.871  1.00  0.00     0.052 A 
ATOM      3  C   UNL     1      11.599 -16.004   7.585  1.00  0.00     0.138 A 
ATOM      4  C   UNL     1      12.003 -17.306   7.211  1.00  0.00     0.021 A 
ATOM      5  C   UNL     1      13.354 -17.530   6.932  1.00  0.00     0.019 A 
ATOM      6  C   UNL     1      14.258 -16.473   7.028  1.00  0.00     0.094 A 
ATOM      7  C   UNL     1      13.788 -15.210   7.404  1.00  0.00     0.336 A 
ATOM      8  O   UNL     1      14.587 -14.243   7.497  1.00  0.00    -0.246 OA
ATOM      9  O   UNL     1      12.496 -15.023   7.665  1.00  0.00    -0.423 OA
ATOM     10  C   UNL     1      11.054 -18.335   7.128  1.00  0.00     0.058 A 
ATOM     11  C   UNL     1       9.707 -18.071   7.417  1.00  0.00     0.116 A 
ENDROOT
BRANCH  11  12
ATOM     12  O   UNL     1       8.753 -19.083   7.338  1.00  0.00    -0.508 OA
ATOM     13  H   UNL     1       8.255 -19.405   8.160  1.00  0.00     0.293 HD
ENDBRANCH  11  12
TORSDOF 1
ENDMDL
MODEL 4
REMARK VINA RESULT:    -4.979      2.000      2.999
REMARK INTER + INTRA:          -5.124
REMARK INTER:                  -5.124
REMARK INTRA:                   0.000
REMARK UNBOUND:                 0.000
REMARK SMILES O=c1ccc2cc(O)ccc2o1
REMARK SMILES IDX 9 1 10 2 11 3 5 4 4 5 3 6 2 7 1 8 12 9 6 10 7 11 8 12
REMARK H PARENT 8 13
REMARK Flexibility Score: inf
ROOT
ATOM      1  C   UNL     1      12.924 -16.213   7.438  1.00  0.00     0.050 A 
ATOM      2  C   UNL     1      11.709 -15.668   7.862  1.00  0.00     0.052 A 
ATOM      3  C   UNL     1      10.546 -16.445   7.844  1.00  0.00     0.138 A 
ATOM      4  C   UNL     1      10.604 -17.783   7.395  1.00  0.00     0.021 A 
ATOM      5  C   UNL     1       9.426 -18.535   7.387  1.00  0.00     0.019 A 
ATOM      6  C   UNL     1       8.237 -17.950   7.819  1.00  0.00     0.094 A 
ATOM      7  C   UNL     1       8.254 -16.619   8.251  1.00  0.00     0.336 A 
ATOM      8  O   UNL     1       7.191 -16.072   8.644  1.00  0.00    -0.246 OA
ATOM      9  O   UNL     1       9.389 -15.924   8.248  1.00  0.00    -0.423 OA
ATOM     10  C   UNL     1      11.826 -18.326   6.970  1.00  0.00     0.058 A 
ATOM     11  C   UNL     1      12.987 -17.539   6.992  1.00  0.00     0.116 A 
ENDROOT
BRANCH  11  12
ATOM     12  O   UNL     1      14.207 -18.065   6.573  1.00  0.00    -0.508 OA
ATOM     13  H   UNL     1      14.946 -17.469   6.218  1.00  0.00     0.293 HD
ENDBRANCH  11  12
TORSDOF 1
ENDMDL
MODEL 5
REMARK VINA RESULT:    -4.886      1.905      4.238
REMARK INTER + INTRA:          -5.029
REMARK INTER:                  -5.029
REMARK INTRA:                   0.000
REMARK UNBOUND:                 0.000
REMARK SMILES O=c1ccc2cc(O)ccc2o1
REMARK SMILES IDX 9 1 10 2 11 3 5 4 4 5 3 6 2 7 1 8 12 9 6 10 7 11 8 12
REMARK H PARENT 8 13
REMARK Flexibility Score: inf
ROOT
ATOM      1  C   UNL     1       8.799 -17.972   7.388  1.00  0.00     0.050 A 
ATOM      2  C   UNL     1      10.027 -18.592   7.139  1.00  0.00     0.052 A 
ATOM      3  C   UNL     1      11.221 -17.905   7.381  1.00  0.00     0.138 A 
ATOM      4  C   UNL     1      11.182 -16.583   7.878  1.00  0.00     0.021 A 
ATOM      5  C   UNL     1      12.391 -15.922   8.110  1.00  0.00     0.019 A 
ATOM      6  C   UNL     1      13.593 -16.580   7.847  1.00  0.00     0.094 A 
ATOM      7  C   UNL     1      13.556 -17.890   7.356  1.00  0.00     0.336 A 
ATOM      8  O   UNL     1      14.628 -18.500   7.112  1.00  0.00    -0.246 OA
ATOM      9  O   UNL     1      12.390 -18.497   7.143  1.00  0.00    -0.423 OA
ATOM     10  C   UNL     1       9.947 -15.966   8.127  1.00  0.00     0.058 A 
ATOM     11  C   UNL     1       8.754 -16.662   7.881  1.00  0.00     0.116 A 
ENDROOT
BRANCH  11  12
ATOM     12  O   UNL     1       7.521 -16.062   8.123  1.00  0.00    -0.508 OA
ATOM     13  H   UNL     1       6.681 -16.367   7.644  1.00  0.00     0.293 HD
ENDBRANCH  11  12
TORSDOF 1
ENDMDL
MODEL 6
REMARK VINA RESULT:    -4.689      1.487      5.013
REMARK INTER + INTRA:          -4.826
REMARK INTER:                  -4.826
REMARK INTRA:                   0.000
REMARK UNBOUND:                 0.000
REMARK SMILES O=c1ccc2cc(O)ccc2o1
REMARK SMILES IDX 9 1 10 2 11 3 5 4 4 5 3 6 2 7 1 8 12 9 6 10 7 11 8 12
REMARK H PARENT 8 13
REMARK Flexibility Score: inf
ROOT
ATOM      1  C   UNL     1       8.268 -17.001   8.098  1.00  0.00     0.050 A 
ATOM      2  C   UNL     1       9.348 -16.127   8.253  1.00  0.00     0.052 A 
ATOM      3  C   UNL     1      10.625 -16.509   7.831  1.00  0.00     0.138 A 
ATOM      4  C   UNL     1      10.821 -17.781   7.248  1.00  0.00     0.021 A 
ATOM      5  C   UNL     1      12.109 -18.135   6.837  1.00  0.00     0.019 A 
ATOM      6  C   UNL     1      13.156 -17.231   7.011  1.00  0.00     0.094 A 
ATOM      7  C   UNL     1      12.889 -15.988   7.595  1.00  0.00     0.336 A 
ATOM      8  O   UNL     1      13.820 -15.158   7.761  1.00  0.00    -0.246 OA
ATOM      9  O   UNL     1      11.653 -15.676   7.979  1.00  0.00    -0.423 OA
ATOM     10  C   UNL     1       9.734 -18.654   7.095  1.00  0.00     0.058 A 
ATOM     11  C   UNL     1       8.456 -18.263   7.521  1.00  0.00     0.116 A 
ENDROOT
BRANCH  11  12
ATOM     12  O   UNL     1       7.367 -19.120   7.375  1.00  0.00    -0.508 OA
ATOM     13  H   UNL     1       7.254 -19.936   7.964  1.00  0.00     0.293 HD
ENDBRANCH  11  12
TORSDOF 1
ENDMDL
MODEL 7
REMARK VINA RESULT:    -4.593      2.395      5.755
REMARK INTER + INTRA:          -4.728
REMARK INTER:                  -4.728
REMARK INTRA:                   0.000
REMARK UNBOUND:                 0.000
REMARK SMILES O=c1ccc2cc(O)ccc2o1
REMARK SMILES IDX 9 1 10 2 11 3 5 4 4 5 3 6 2 7 1 8 12 9 6 10 7 11 8 12
REMARK H PARENT 8 13
REMARK Flexibility Score: inf
ROOT
ATOM      1  C   UNL     1       6.662 -16.971   8.602  1.00  0.00     0.050 A 
ATOM      2  C   UNL     1       7.768 -16.116   8.644  1.00  0.00     0.052 A 
ATOM      3  C   UNL     1       9.021 -16.568   8.218  1.00  0.00     0.138 A 
ATOM      4  C   UNL     1       9.167 -17.892   7.747  1.00  0.00     0.021 A 
ATOM      5  C   UNL     1      10.431 -18.316   7.330  1.00  0.00     0.019 A 
ATOM      6  C   UNL     1      11.505 -17.428   7.389  1.00  0.00     0.094 A 
ATOM      7  C   UNL     1      11.287 -16.131   7.867  1.00  0.00     0.336 A 
ATOM      8  O   UNL     1      12.243 -15.314   7.928  1.00  0.00    -0.246 OA
ATOM      9  O   UNL     1      10.073 -15.752   8.259  1.00  0.00    -0.423 OA
ATOM     10  C   UNL     1       8.054 -18.746   7.708  1.00  0.00     0.058 A 
ATOM     11  C   UNL     1       6.801 -18.284   8.136  1.00  0.00     0.116 A 
ENDROOT
BRANCH  11  12
ATOM     12  O   UNL     1       5.688 -19.121   8.102  1.00  0.00    -0.508 OA
ATOM     13  H   UNL     1       4.798 -18.803   7.736  1.00  0.00     0.293 HD
ENDBRANCH  11  12
TORSDOF 1
ENDMDL
MODEL 8
REMARK VINA RESULT:    -4.450      2.008      3.175
REMARK INTER + INTRA:          -4.580
REMARK INTER:                  -4.580
REMARK INTRA:                   0.000
REMARK UNBOUND:                 0.000
REMARK SMILES O=c1ccc2cc(O)ccc2o1
REMARK SMILES IDX 9 1 10 2 11 3 5 4 4 5 3 6 2 7 1 8 12 9 6 10 7 11 8 12
REMARK H PARENT 8 13
REMARK Flexibility Score: inf
ROOT
ATOM      1  C   UNL     1      11.600 -18.089   6.991  1.00  0.00     0.050 A 
ATOM      2  C   UNL     1      10.366 -18.746   7.044  1.00  0.00     0.052 A 
ATOM      3  C   UNL     1       9.246 -18.092   7.566  1.00  0.00     0.138 A 
ATOM      4  C   UNL     1       9.364 -16.766   8.040  1.00  0.00     0.021 A 
ATOM      5  C   UNL     1       8.227 -16.139   8.556  1.00  0.00     0.019 A 
ATOM      6  C   UNL     1       7.017 -16.832   8.588  1.00  0.00     0.094 A 
ATOM      7  C   UNL     1       6.974 -18.143   8.101  1.00  0.00     0.336 A 
ATOM      8  O   UNL     1       5.892 -18.786   8.122  1.00  0.00    -0.246 OA
ATOM      9  O   UNL     1       8.072 -18.718   7.615  1.00  0.00    -0.423 OA
ATOM     10  C   UNL     1      10.604 -16.112   7.984  1.00  0.00     0.058 A 
ATOM     11  C   UNL     1      11.723 -16.776   7.460  1.00  0.00     0.116 A 
ENDROOT
BRANCH  11  12
ATOM     12  O   UNL     1      12.960 -16.139   7.399  1.00  0.00    -0.508 OA
ATOM     13  H   UNL     1      13.782 -16.536   7.840  1.00  0.00     0.293 HD
ENDBRANCH  11  12
TORSDOF 1
ENDMDL
