MODEL 1
REMARK VINA RESULT:    -6.996      0.000      0.000
REMARK INTER + INTRA:          -8.611
REMARK INTER:                  -8.428
REMARK INTRA:                  -0.184
REMARK UNBOUND:                -0.184
REMARK SMILES O=c1c(O)c(-c2ccc(O)c(O)c2)oc2cc(O)cc(O)c12
REMARK SMILES IDX 5 1 3 2 2 3 1 4 22 5 20 6 19 7 17 8 16 9 15 10 14 11 6 12
REMARK SMILES IDX 7 13 8 14 9 15 13 16 11 17 10 18 12 20 4 22 21 24 18 26
REMARK H PARENT 10 19 12 21 4 23 21 25 18 27
REMARK Flexibility Score: inf
ROOT
ATOM      1  C   UNL     1       8.430  16.001 -18.914  1.00  0.00     0.180 A 
ATOM      2  C   UNL     1       8.468  15.661 -20.280  1.00  0.00     0.208 A 
ATOM      3  C   UNL     1       8.838  14.358 -20.645  1.00  0.00     0.238 A 
ATOM      4  O   UNL     1       8.885  14.046 -21.866  1.00  0.00    -0.285 OA
ATOM      5  C   UNL     1       9.143  13.413 -19.644  1.00  0.00     0.111 A 
ATOM      6  C   UNL     1       9.521  12.078 -19.928  1.00  0.00     0.134 A 
ATOM      7  C   UNL     1       9.800  11.196 -18.873  1.00  0.00     0.093 A 
ATOM      8  C   UNL     1       9.709  11.622 -17.544  1.00  0.00     0.123 A 
ATOM      9  C   UNL     1       9.337  12.937 -17.260  1.00  0.00     0.094 A 
ATOM     10  C   UNL     1       9.056  13.833 -18.296  1.00  0.00     0.146 A 
ATOM     11  O   UNL     1       8.710  15.079 -17.996  1.00  0.00    -0.452 OA
ENDROOT
BRANCH   1  12
ATOM     12  C   UNL     1       8.069  17.360 -18.450  1.00  0.00     0.025 A 
ATOM     13  C   UNL     1       6.941  17.533 -17.633  1.00  0.00     0.016 A 
ATOM     14  C   UNL     1       6.592  18.803 -17.167  1.00  0.00     0.051 A 
ATOM     15  C   UNL     1       7.376  19.916 -17.498  1.00  0.00     0.157 A 
ATOM     16  C   UNL     1       8.865  18.477 -18.763  1.00  0.00     0.062 A 
ATOM     17  C   UNL     1       8.517  19.752 -18.294  1.00  0.00     0.158 A 
BRANCH  15  18
ATOM     18  O   UNL     1       7.031  21.185 -17.036  1.00  0.00    -0.504 OA
ATOM     19  H   UNL     1       7.372  21.538 -16.151  1.00  0.00     0.293 HD
ENDBRANCH  15  18
BRANCH  17  20
ATOM     20  O   UNL     1       9.302  20.859 -18.609  1.00  0.00    -0.504 OA
ATOM     21  H   UNL     1      10.315  20.803 -18.625  1.00  0.00     0.293 HD
ENDBRANCH  17  20
ENDBRANCH   1  12
BRANCH   2  22
ATOM     22  O   UNL     1       8.113  16.603 -21.251  1.00  0.00    -0.502 OA
ATOM     23  H   UNL     1       8.768  17.291 -21.602  1.00  0.00     0.293 HD
ENDBRANCH   2  22
BRANCH   6  24
ATOM     24  O   UNL     1       9.620  11.624 -21.244  1.00  0.00    -0.507 OA
ATOM     25  H   UNL     1       8.945  11.890 -21.951  1.00  0.00     0.293 HD
ENDBRANCH   6  24
BRANCH   8  26
ATOM     26  O   UNL     1       9.985  10.745 -16.497  1.00  0.00    -0.508 OA
ATOM     27  H   UNL     1       9.275  10.483 -15.823  1.00  0.00     0.293 HD
ENDBRANCH   8  26
TORSDOF 6
ENDMDL
MODEL 2
REMARK VINA RESULT:    -6.970      3.356      6.255
REMARK INTER + INTRA:          -8.580
REMARK INTER:                  -8.255
REMARK INTRA:                  -0.325
REMARK UNBOUND:                -0.184
REMARK SMILES O=c1c(O)c(-c2ccc(O)c(O)c2)oc2cc(O)cc(O)c12
REMARK SMILES IDX 5 1 3 2 2 3 1 4 22 5 20 6 19 7 17 8 16 9 15 10 14 11 6 12
REMARK SMILES IDX 7 13 8 14 9 15 13 16 11 17 10 18 12 20 4 22 21 24 18 26
REMARK H PARENT 10 19 12 21 4 23 21 25 18 27
REMARK Flexibility Score: inf
ROOT
ATOM      1  C   UNL     1       9.694  11.574 -16.306  1.00  0.00     0.180 A 
ATOM      2  C   UNL     1      10.475  10.429 -16.555  1.00  0.00     0.208 A 
ATOM      3  C   UNL     1      10.190   9.247 -15.853  1.00  0.00     0.238 A 
ATOM      4  O   UNL     1      10.889   8.219 -16.061  1.00  0.00    -0.285 OA
ATOM      5  C   UNL     1       9.122   9.223 -14.933  1.00  0.00     0.111 A 
ATOM      6  C   UNL     1       8.767   8.073 -14.188  1.00  0.00     0.134 A 
ATOM      7  C   UNL     1       7.684   8.128 -13.298  1.00  0.00     0.093 A 
ATOM      8  C   UNL     1       6.951   9.309 -13.139  1.00  0.00     0.123 A 
ATOM      9  C   UNL     1       7.298  10.445 -13.871  1.00  0.00     0.094 A 
ATOM     10  C   UNL     1       8.375  10.412 -14.762  1.00  0.00     0.146 A 
ATOM     11  O   UNL     1       8.685  11.510 -15.441  1.00  0.00    -0.452 OA
ENDROOT
BRANCH   1  12
ATOM     12  C   UNL     1       9.945  12.863 -16.991  1.00  0.00     0.025 A 
ATOM     13  C   UNL     1      10.854  13.775 -16.433  1.00  0.00     0.016 A 
ATOM     14  C   UNL     1      11.121  14.989 -17.072  1.00  0.00     0.051 A 
ATOM     15  C   UNL     1      10.495  15.299 -18.286  1.00  0.00     0.157 A 
ATOM     16  C   UNL     1       9.335  13.169 -18.221  1.00  0.00     0.062 A 
ATOM     17  C   UNL     1       9.604  14.386 -18.864  1.00  0.00     0.158 A 
BRANCH  15  18
ATOM     18  O   UNL     1      10.758  16.509 -18.926  1.00  0.00    -0.504 OA
ATOM     19  H   UNL     1      10.119  17.292 -18.862  1.00  0.00     0.293 HD
ENDBRANCH  15  18
BRANCH  17  20
ATOM     20  O   UNL     1       8.994  14.692 -20.079  1.00  0.00    -0.504 OA
ATOM     21  H   UNL     1       8.159  15.266 -20.123  1.00  0.00     0.293 HD
ENDBRANCH  17  20
ENDBRANCH   1  12
BRANCH   2  22
ATOM     22  O   UNL     1      11.497  10.465 -17.508  1.00  0.00    -0.502 OA
ATOM     23  H   UNL     1      12.209   9.747 -17.567  1.00  0.00     0.293 HD
ENDBRANCH   2  22
BRANCH   6  24
ATOM     24  O   UNL     1       9.479   6.880 -14.326  1.00  0.00    -0.507 OA
ATOM     25  H   UNL     1      10.458   6.811 -14.071  1.00  0.00     0.293 HD
ENDBRANCH   6  24
BRANCH   8  26
ATOM     26  O   UNL     1       5.875   9.362 -12.256  1.00  0.00    -0.508 OA
ATOM     27  H   UNL     1       5.007   8.875 -12.447  1.00  0.00     0.293 HD
ENDBRANCH   8  26
TORSDOF 6
ENDMDL
MODEL 3
REMARK VINA RESULT:    -6.752      5.524     10.770
REMARK INTER + INTRA:          -8.317
REMARK INTER:                  -8.165
REMARK INTRA:                  -0.151
REMARK UNBOUND:                -0.184
REMARK SMILES O=c1c(O)c(-c2ccc(O)c(O)c2)oc2cc(O)cc(O)c12
REMARK SMILES IDX 5 1 3 2 2 3 1 4 22 5 20 6 19 7 17 8 16 9 15 10 14 11 6 12
REMARK SMILES IDX 7 13 8 14 9 15 13 16 11 17 10 18 12 20 4 22 21 24 18 26
REMARK H PARENT 10 19 12 21 4 23 21 25 18 27
REMARK Flexibility Score: inf
ROOT
ATOM      1  C   UNL     1       7.387   7.939 -15.231  1.00  0.00     0.180 A 
ATOM      2  C   UNL     1       7.093   8.273 -13.895  1.00  0.00     0.208 A 
ATOM      3  C   UNL     1       7.474   9.534 -13.412  1.00  0.00     0.238 A 
ATOM      4  O   UNL     1       7.226   9.840 -12.213  1.00  0.00    -0.285 OA
ATOM      5  C   UNL     1       8.121  10.444 -14.272  1.00  0.00     0.111 A 
ATOM      6  C   UNL     1       8.534  11.736 -13.864  1.00  0.00     0.134 A 
ATOM      7  C   UNL     1       9.164  12.587 -14.785  1.00  0.00     0.093 A 
ATOM      8  C   UNL     1       9.389  12.172 -16.102  1.00  0.00     0.123 A 
ATOM      9  C   UNL     1       8.983  10.900 -16.508  1.00  0.00     0.094 A 
ATOM     10  C   UNL     1       8.355  10.035 -15.606  1.00  0.00     0.146 A 
ATOM     11  O   UNL     1       7.985   8.829 -16.018  1.00  0.00    -0.452 OA
ENDROOT
BRANCH   1  12
ATOM     12  C   UNL     1       7.035   6.622 -15.809  1.00  0.00     0.025 A 
ATOM     13  C   UNL     1       6.205   6.564 -16.939  1.00  0.00     0.016 A 
ATOM     14  C   UNL     1       5.875   5.333 -17.513  1.00  0.00     0.051 A 
ATOM     15  C   UNL     1       6.385   4.144 -16.975  1.00  0.00     0.157 A 
ATOM     16  C   UNL     1       7.562   5.427 -15.284  1.00  0.00     0.062 A 
ATOM     17  C   UNL     1       7.233   4.192 -15.861  1.00  0.00     0.158 A 
BRANCH  15  18
ATOM     18  O   UNL     1       6.058   2.915 -17.544  1.00  0.00    -0.504 OA
ATOM     19  H   UNL     1       5.170   2.464 -17.357  1.00  0.00     0.293 HD
ENDBRANCH  15  18
BRANCH  17  20
ATOM     20  O   UNL     1       7.750   3.008 -15.337  1.00  0.00    -0.504 OA
ATOM     21  H   UNL     1       8.715   2.737 -15.493  1.00  0.00     0.293 HD
ENDBRANCH  17  20
ENDBRANCH   1  12
BRANCH   2  22
ATOM     22  O   UNL     1       6.407   7.371 -13.077  1.00  0.00    -0.502 OA
ATOM     23  H   UNL     1       6.611   7.272 -12.089  1.00  0.00     0.293 HD
ENDBRANCH   2  22
BRANCH   6  24
ATOM     24  O   UNL     1       8.324  12.178 -12.557  1.00  0.00    -0.507 OA
ATOM     25  H   UNL     1       8.568  13.118 -12.267  1.00  0.00     0.293 HD
ENDBRANCH   6  24
BRANCH   8  26
ATOM     26  O   UNL     1      10.014  13.017 -17.016  1.00  0.00    -0.508 OA
ATOM     27  H   UNL     1      10.937  13.397 -16.841  1.00  0.00     0.293 HD
ENDBRANCH   8  26
TORSDOF 6
ENDMDL
MODEL 4
REMARK VINA RESULT:    -6.597      2.956      7.623
REMARK INTER + INTRA:          -8.131
REMARK INTER:                  -7.809
REMARK INTRA:                  -0.322
REMARK UNBOUND:                -0.184
REMARK SMILES O=c1c(O)c(-c2ccc(O)c(O)c2)oc2cc(O)cc(O)c12
REMARK SMILES IDX 5 1 3 2 2 3 1 4 22 5 20 6 19 7 17 8 16 9 15 10 14 11 6 12
REMARK SMILES IDX 7 13 8 14 9 15 13 16 11 17 10 18 12 20 4 22 21 24 18 26
REMARK H PARENT 10 19 12 21 4 23 21 25 18 27
REMARK Flexibility Score: inf
ROOT
ATOM      1  C   UNL     1       9.762  12.091 -17.393  1.00  0.00     0.180 A 
ATOM      2  C   UNL     1      10.376  13.197 -16.774  1.00  0.00     0.208 A 
ATOM      3  C   UNL     1      10.409  14.424 -17.456  1.00  0.00     0.238 A 
ATOM      4  O   UNL     1      10.965  15.418 -16.915  1.00  0.00    -0.285 OA
ATOM      5  C   UNL     1       9.813  14.530 -18.729  1.00  0.00     0.111 A 
ATOM      6  C   UNL     1       9.800  15.730 -19.480  1.00  0.00     0.134 A 
ATOM      7  C   UNL     1       9.178  15.757 -20.737  1.00  0.00     0.093 A 
ATOM      8  C   UNL     1       8.571  14.608 -21.256  1.00  0.00     0.123 A 
ATOM      9  C   UNL     1       8.582  13.423 -20.520  1.00  0.00     0.094 A 
ATOM     10  C   UNL     1       9.198  13.375 -19.266  1.00  0.00     0.146 A 
ATOM     11  O   UNL     1       9.198  12.232 -18.589  1.00  0.00    -0.452 OA
ENDROOT
BRANCH   1  12
ATOM     12  C   UNL     1       9.705  10.759 -16.748  1.00  0.00     0.025 A 
ATOM     13  C   UNL     1      10.789   9.879 -16.884  1.00  0.00     0.016 A 
ATOM     14  C   UNL     1      10.765   8.625 -16.268  1.00  0.00     0.051 A 
ATOM     15  C   UNL     1       9.663   8.241 -15.493  1.00  0.00     0.157 A 
ATOM     16  C   UNL     1       8.609  10.378 -15.952  1.00  0.00     0.062 A 
ATOM     17  C   UNL     1       8.585   9.120 -15.331  1.00  0.00     0.158 A 
BRANCH  15  18
ATOM     18  O   UNL     1       9.635   6.991 -14.878  1.00  0.00    -0.504 OA
ATOM     19  H   UNL     1       8.763   6.509 -14.696  1.00  0.00     0.293 HD
ENDBRANCH  15  18
BRANCH  17  20
ATOM     20  O   UNL     1       7.497   8.740 -14.547  1.00  0.00    -0.504 OA
ATOM     21  H   UNL     1       7.596   8.069 -13.793  1.00  0.00     0.293 HD
ENDBRANCH  17  20
ENDBRANCH   1  12
BRANCH   2  22
ATOM     22  O   UNL     1      10.915  13.077 -15.490  1.00  0.00    -0.502 OA
ATOM     23  H   UNL     1      10.740  13.761 -14.763  1.00  0.00     0.293 HD
ENDBRANCH   2  22
BRANCH   6  24
ATOM     24  O   UNL     1      10.397  16.892 -18.988  1.00  0.00    -0.507 OA
ATOM     25  H   UNL     1      10.750  17.613 -19.606  1.00  0.00     0.293 HD
ENDBRANCH   6  24
BRANCH   8  26
ATOM     26  O   UNL     1       7.953  14.635 -22.505  1.00  0.00    -0.508 OA
ATOM     27  H   UNL     1       7.082  14.145 -22.676  1.00  0.00     0.293 HD
ENDBRANCH   8  26
TORSDOF 6
ENDMDL
MODEL 5
REMARK VINA RESULT:    -6.431      2.721      4.736
REMARK INTER + INTRA:          -7.931
REMARK INTER:                  -8.137
REMARK INTRA:                   0.207
REMARK UNBOUND:                -0.184
REMARK SMILES O=c1c(O)c(-c2ccc(O)c(O)c2)oc2cc(O)cc(O)c12
REMARK SMILES IDX 5 1 3 2 2 3 1 4 22 5 20 6 19 7 17 8 16 9 15 10 14 11 6 12
REMARK SMILES IDX 7 13 8 14 9 15 13 16 11 17 10 18 12 20 4 22 21 24 18 26
REMARK H PARENT 10 19 12 21 4 23 21 25 18 27
REMARK Flexibility Score: inf
ROOT
ATOM      1  C   UNL     1       9.121  12.673 -18.676  1.00  0.00     0.180 A 
ATOM      2  C   UNL     1       9.636  11.409 -19.025  1.00  0.00     0.208 A 
ATOM      3  C   UNL     1       9.707  10.411 -18.041  1.00  0.00     0.238 A 
ATOM      4  O   UNL     1      10.176   9.279 -18.340  1.00  0.00    -0.285 OA
ATOM      5  C   UNL     1       9.247  10.683 -16.737  1.00  0.00     0.111 A 
ATOM      6  C   UNL     1       9.281   9.731 -15.689  1.00  0.00     0.134 A 
ATOM      7  C   UNL     1       8.795  10.077 -14.419  1.00  0.00     0.093 A 
ATOM      8  C   UNL     1       8.276  11.354 -14.178  1.00  0.00     0.123 A 
ATOM      9  C   UNL     1       8.242  12.296 -15.208  1.00  0.00     0.094 A 
ATOM     10  C   UNL     1       8.723  11.972 -16.480  1.00  0.00     0.146 A 
ATOM     11  O   UNL     1       8.682  12.889 -17.439  1.00  0.00    -0.452 OA
ENDROOT
BRANCH   1  12
ATOM     12  C   UNL     1       9.031  13.783 -19.652  1.00  0.00     0.025 A 
ATOM     13  C   UNL     1       8.659  13.509 -20.977  1.00  0.00     0.016 A 
ATOM     14  C   UNL     1       8.549  14.543 -21.910  1.00  0.00     0.051 A 
ATOM     15  C   UNL     1       8.793  15.868 -21.527  1.00  0.00     0.157 A 
ATOM     16  C   UNL     1       9.256  15.117 -19.266  1.00  0.00     0.062 A 
ATOM     17  C   UNL     1       9.144  16.156 -20.201  1.00  0.00     0.158 A 
BRANCH  15  18
ATOM     18  O   UNL     1       8.686  16.903 -22.454  1.00  0.00    -0.504 OA
ATOM     19  H   UNL     1       8.021  16.864 -23.217  1.00  0.00     0.293 HD
ENDBRANCH  15  18
BRANCH  17  20
ATOM     20  O   UNL     1       9.373  17.477 -19.820  1.00  0.00    -0.504 OA
ATOM     21  H   UNL     1       8.691  17.997 -19.278  1.00  0.00     0.293 HD
ENDBRANCH  17  20
ENDBRANCH   1  12
BRANCH   2  22
ATOM     22  O   UNL     1      10.040  11.150 -20.338  1.00  0.00    -0.502 OA
ATOM     23  H   UNL     1       9.752  11.729 -21.117  1.00  0.00     0.293 HD
ENDBRANCH   2  22
BRANCH   6  24
ATOM     24  O   UNL     1       9.791   8.449 -15.899  1.00  0.00    -0.507 OA
ATOM     25  H   UNL     1      10.760   8.223 -15.709  1.00  0.00     0.293 HD
ENDBRANCH   6  24
BRANCH   8  26
ATOM     26  O   UNL     1       7.793  11.697 -12.918  1.00  0.00    -0.508 OA
ATOM     27  H   UNL     1       7.868  12.643 -12.559  1.00  0.00     0.293 HD
ENDBRANCH   8  26
TORSDOF 6
ENDMDL
MODEL 6
REMARK VINA RESULT:    -6.419      4.164      8.524
REMARK INTER + INTRA:          -7.916
REMARK INTER:                  -8.438
REMARK INTRA:                   0.521
REMARK UNBOUND:                -0.184
REMARK SMILES O=c1c(O)c(-c2ccc(O)c(O)c2)oc2cc(O)cc(O)c12
REMARK SMILES IDX 5 1 3 2 2 3 1 4 22 5 20 6 19 7 17 8 16 9 15 10 14 11 6 12
REMARK SMILES IDX 7 13 8 14 9 15 13 16 11 17 10 18 12 20 4 22 21 24 18 26
REMARK H PARENT 10 19 12 21 4 23 21 25 18 27
REMARK Flexibility Score: inf
ROOT
ATOM      1  C   UNL     1       8.138  10.777 -14.891  1.00  0.00     0.180 A 
ATOM      2  C   UNL     1       8.615  12.006 -14.395  1.00  0.00     0.208 A 
ATOM      3  C   UNL     1       9.160  12.935 -15.296  1.00  0.00     0.238 A 
ATOM      4  O   UNL     1       9.599  14.034 -14.861  1.00  0.00    -0.285 OA
ATOM      5  C   UNL     1       9.200  12.631 -16.671  1.00  0.00     0.111 A 
ATOM      6  C   UNL     1       9.730  13.513 -17.644  1.00  0.00     0.134 A 
ATOM      7  C   UNL     1       9.727  13.140 -18.996  1.00  0.00     0.093 A 
ATOM      8  C   UNL     1       9.204  11.904 -19.393  1.00  0.00     0.123 A 
ATOM      9  C   UNL     1       8.682  11.031 -18.438  1.00  0.00     0.094 A 
ATOM     10  C   UNL     1       8.678  11.383 -17.085  1.00  0.00     0.146 A 
ATOM     11  O   UNL     1       8.179  10.531 -16.197  1.00  0.00    -0.452 OA
ENDROOT
BRANCH   1  12
ATOM     12  C   UNL     1       7.567   9.738 -14.003  1.00  0.00     0.025 A 
ATOM     13  C   UNL     1       7.292  10.051 -12.663  1.00  0.00     0.016 A 
ATOM     14  C   UNL     1       6.736   9.093 -11.812  1.00  0.00     0.051 A 
ATOM     15  C   UNL     1       6.430   7.813 -12.294  1.00  0.00     0.157 A 
ATOM     16  C   UNL     1       7.240   8.459 -14.488  1.00  0.00     0.062 A 
ATOM     17  C   UNL     1       6.679   7.497 -13.635  1.00  0.00     0.158 A 
BRANCH  15  18
ATOM     18  O   UNL     1       5.876   6.854 -11.448  1.00  0.00    -0.504 OA
ATOM     19  H   UNL     1       5.061   7.054 -10.882  1.00  0.00     0.293 HD
ENDBRANCH  15  18
BRANCH  17  20
ATOM     20  O   UNL     1       6.361   6.228 -14.115  1.00  0.00    -0.504 OA
ATOM     21  H   UNL     1       5.984   6.093 -15.047  1.00  0.00     0.293 HD
ENDBRANCH  17  20
ENDBRANCH   1  12
BRANCH   2  22
ATOM     22  O   UNL     1       8.517  12.303 -13.033  1.00  0.00    -0.502 OA
ATOM     23  H   UNL     1       9.327  12.529 -12.468  1.00  0.00     0.293 HD
ENDBRANCH   2  22
BRANCH   6  24
ATOM     24  O   UNL     1      10.257  14.753 -17.278  1.00  0.00    -0.507 OA
ATOM     25  H   UNL     1       9.946  15.613 -17.714  1.00  0.00     0.293 HD
ENDBRANCH   6  24
BRANCH   8  26
ATOM     26  O   UNL     1       9.200  11.534 -20.737  1.00  0.00    -0.508 OA
ATOM     27  H   UNL     1       8.543  10.851 -21.097  1.00  0.00     0.293 HD
ENDBRANCH   8  26
TORSDOF 6
ENDMDL
MODEL 7
REMARK VINA RESULT:    -6.395      3.624      6.316
REMARK INTER + INTRA:          -7.888
REMARK INTER:                  -7.556
REMARK INTRA:                  -0.332
REMARK UNBOUND:                -0.184
REMARK SMILES O=c1c(O)c(-c2ccc(O)c(O)c2)oc2cc(O)cc(O)c12
REMARK SMILES IDX 5 1 3 2 2 3 1 4 22 5 20 6 19 7 17 8 16 9 15 10 14 11 6 12
REMARK SMILES IDX 7 13 8 14 9 15 13 16 11 17 10 18 12 20 4 22 21 24 18 26
REMARK H PARENT 10 19 12 21 4 23 21 25 18 27
REMARK Flexibility Score: inf
ROOT
ATOM      1  C   UNL     1       8.698  12.194 -15.781  1.00  0.00     0.180 A 
ATOM      2  C   UNL     1       7.626  12.527 -14.930  1.00  0.00     0.208 A 
ATOM      3  C   UNL     1       7.045  11.520 -14.145  1.00  0.00     0.238 A 
ATOM      4  O   UNL     1       6.078  11.805 -13.388  1.00  0.00    -0.285 OA
ATOM      5  C   UNL     1       7.555  10.207 -14.205  1.00  0.00     0.111 A 
ATOM      6  C   UNL     1       7.028   9.136 -13.444  1.00  0.00     0.134 A 
ATOM      7  C   UNL     1       7.598   7.859 -13.554  1.00  0.00     0.093 A 
ATOM      8  C   UNL     1       8.682   7.633 -14.410  1.00  0.00     0.123 A 
ATOM      9  C   UNL     1       9.203   8.685 -15.163  1.00  0.00     0.094 A 
ATOM     10  C   UNL     1       8.649   9.966 -15.069  1.00  0.00     0.146 A 
ATOM     11  O   UNL     1       9.163  10.947 -15.801  1.00  0.00    -0.452 OA
ENDROOT
BRANCH   1  12
ATOM     12  C   UNL     1       9.351  13.195 -16.655  1.00  0.00     0.025 A 
ATOM     13  C   UNL     1      10.496  13.867 -16.199  1.00  0.00     0.016 A 
ATOM     14  C   UNL     1      11.140  14.801 -17.014  1.00  0.00     0.051 A 
ATOM     15  C   UNL     1      10.658  15.065 -18.302  1.00  0.00     0.157 A 
ATOM     16  C   UNL     1       8.882  13.447 -17.957  1.00  0.00     0.062 A 
ATOM     17  C   UNL     1       9.529  14.384 -18.776  1.00  0.00     0.158 A 
BRANCH  15  18
ATOM     18  O   UNL     1      11.297  15.998 -19.118  1.00  0.00    -0.504 OA
ATOM     19  H   UNL     1      10.830  16.843 -19.423  1.00  0.00     0.293 HD
ENDBRANCH  15  18
BRANCH  17  20
ATOM     20  O   UNL     1       9.061  14.639 -20.064  1.00  0.00    -0.504 OA
ATOM     21  H   UNL     1       9.368  14.087 -20.858  1.00  0.00     0.293 HD
ENDBRANCH  17  20
ENDBRANCH   1  12
BRANCH   2  22
ATOM     22  O   UNL     1       7.172  13.847 -14.852  1.00  0.00    -0.502 OA
ATOM     23  H   UNL     1       7.571  14.591 -15.413  1.00  0.00     0.293 HD
ENDBRANCH   2  22
BRANCH   6  24
ATOM     24  O   UNL     1       5.948   9.331 -12.581  1.00  0.00    -0.507 OA
ATOM     25  H   UNL     1       4.992   9.186 -12.883  1.00  0.00     0.293 HD
ENDBRANCH   6  24
BRANCH   8  26
ATOM     26  O   UNL     1       9.247   6.364 -14.518  1.00  0.00    -0.508 OA
ATOM     27  H   UNL     1      10.164   6.158 -14.137  1.00  0.00     0.293 HD
ENDBRANCH   8  26
TORSDOF 6
ENDMDL
MODEL 8
REMARK VINA RESULT:    -6.332      2.734      7.286
REMARK INTER + INTRA:          -7.812
REMARK INTER:                  -7.497
REMARK INTRA:                  -0.315
REMARK UNBOUND:                -0.184
REMARK SMILES O=c1c(O)c(-c2ccc(O)c(O)c2)oc2cc(O)cc(O)c12
REMARK SMILES IDX 5 1 3 2 2 3 1 4 22 5 20 6 19 7 17 8 16 9 15 10 14 11 6 12
REMARK SMILES IDX 7 13 8 14 9 15 13 16 11 17 10 18 12 20 4 22 21 24 18 26
REMARK H PARENT 10 19 12 21 4 23 21 25 18 27
REMARK Flexibility Score: inf
ROOT
ATOM      1  C   UNL     1       8.797  11.535 -17.768  1.00  0.00     0.180 A 
ATOM      2  C   UNL     1       8.093  11.254 -18.955  1.00  0.00     0.208 A 
ATOM      3  C   UNL     1       7.952  12.268 -19.916  1.00  0.00     0.238 A 
ATOM      4  O   UNL     1       7.315  12.030 -20.978  1.00  0.00    -0.285 OA
ATOM      5  C   UNL     1       8.531  13.532 -19.686  1.00  0.00     0.111 A 
ATOM      6  C   UNL     1       8.437  14.606 -20.605  1.00  0.00     0.134 A 
ATOM      7  C   UNL     1       9.049  15.832 -20.306  1.00  0.00     0.093 A 
ATOM      8  C   UNL     1       9.751  16.005 -19.108  1.00  0.00     0.123 A 
ATOM      9  C   UNL     1       9.845  14.950 -18.199  1.00  0.00     0.094 A 
ATOM     10  C   UNL     1       9.241  13.720 -18.477  1.00  0.00     0.146 A 
ATOM     11  O   UNL     1       9.342  12.736 -17.592  1.00  0.00    -0.452 OA
ENDROOT
BRANCH   1  12
ATOM     12  C   UNL     1       8.972  10.526 -16.699  1.00  0.00     0.025 A 
ATOM     13  C   UNL     1       7.950  10.336 -15.756  1.00  0.00     0.016 A 
ATOM     14  C   UNL     1       8.084   9.376 -14.750  1.00  0.00     0.051 A 
ATOM     15  C   UNL     1       9.236   8.581 -14.682  1.00  0.00     0.157 A 
ATOM     16  C   UNL     1      10.117   9.712 -16.640  1.00  0.00     0.062 A 
ATOM     17  C   UNL     1      10.253   8.747 -15.631  1.00  0.00     0.158 A 
BRANCH  15  18
ATOM     18  O   UNL     1       9.375   7.624 -13.679  1.00  0.00    -0.504 OA
ATOM     19  H   UNL     1       8.969   7.755 -12.761  1.00  0.00     0.293 HD
ENDBRANCH  15  18
BRANCH  17  20
ATOM     20  O   UNL     1      11.391   7.945 -15.569  1.00  0.00    -0.504 OA
ATOM     21  H   UNL     1      11.570   7.227 -16.263  1.00  0.00     0.293 HD
ENDBRANCH  17  20
ENDBRANCH   1  12
BRANCH   2  22
ATOM     22  O   UNL     1       7.571   9.977 -19.180  1.00  0.00    -0.502 OA
ATOM     23  H   UNL     1       8.090   9.135 -18.963  1.00  0.00     0.293 HD
ENDBRANCH   2  22
BRANCH   6  24
ATOM     24  O   UNL     1       7.745  14.462 -21.808  1.00  0.00    -0.507 OA
ATOM     25  H   UNL     1       8.229  14.346 -22.691  1.00  0.00     0.293 HD
ENDBRANCH   6  24
BRANCH   8  26
ATOM     26  O   UNL     1      10.359  17.223 -18.812  1.00  0.00    -0.508 OA
ATOM     27  H   UNL     1       9.825  18.013 -18.468  1.00  0.00     0.293 HD
ENDBRANCH   8  26
TORSDOF 6
ENDMDL
MODEL 9
REMARK VINA RESULT:    -6.257      1.558      6.893
REMARK INTER + INTRA:          -7.721
REMARK INTER:                  -7.389
REMARK INTRA:                  -0.333
REMARK UNBOUND:                -0.184
REMARK SMILES O=c1c(O)c(-c2ccc(O)c(O)c2)oc2cc(O)cc(O)c12
REMARK SMILES IDX 5 1 3 2 2 3 1 4 22 5 20 6 19 7 17 8 16 9 15 10 14 11 6 12
REMARK SMILES IDX 7 13 8 14 9 15 13 16 11 17 10 18 12 20 4 22 21 24 18 26
REMARK H PARENT 10 19 12 21 4 23 21 25 18 27
REMARK Flexibility Score: inf
ROOT
ATOM      1  C   UNL     1       9.157  12.915 -18.583  1.00  0.00     0.180 A 
ATOM      2  C   UNL     1       9.176  12.828 -19.989  1.00  0.00     0.208 A 
ATOM      3  C   UNL     1       8.941  13.987 -20.744  1.00  0.00     0.238 A 
ATOM      4  O   UNL     1       8.945  13.918 -22.004  1.00  0.00    -0.285 OA
ATOM      5  C   UNL     1       8.711  15.213 -20.087  1.00  0.00     0.111 A 
ATOM      6  C   UNL     1       8.469  16.427 -20.774  1.00  0.00     0.134 A 
ATOM      7  C   UNL     1       8.259  17.607 -20.046  1.00  0.00     0.093 A 
ATOM      8  C   UNL     1       8.285  17.597 -18.647  1.00  0.00     0.123 A 
ATOM      9  C   UNL     1       8.522  16.403 -17.966  1.00  0.00     0.094 A 
ATOM     10  C   UNL     1       8.733  15.215 -18.672  1.00  0.00     0.146 A 
ATOM     11  O   UNL     1       8.952  14.092 -17.998  1.00  0.00    -0.452 OA
ENDROOT
BRANCH   1  12
ATOM     12  C   UNL     1       9.376  11.734 -17.718  1.00  0.00     0.025 A 
ATOM     13  C   UNL     1      10.658  11.485 -17.203  1.00  0.00     0.016 A 
ATOM     14  C   UNL     1      10.885  10.387 -16.368  1.00  0.00     0.051 A 
ATOM     15  C   UNL     1       9.829   9.534 -16.023  1.00  0.00     0.157 A 
ATOM     16  C   UNL     1       8.315  10.887 -17.352  1.00  0.00     0.062 A 
ATOM     17  C   UNL     1       8.541   9.786 -16.512  1.00  0.00     0.158 A 
BRANCH  15  18
ATOM     18  O   UNL     1      10.051   8.438 -15.192  1.00  0.00    -0.504 OA
ATOM     19  H   UNL     1      10.983   8.079 -15.024  1.00  0.00     0.293 HD
ENDBRANCH  15  18
BRANCH  17  20
ATOM     20  O   UNL     1       7.490   8.943 -16.154  1.00  0.00    -0.504 OA
ATOM     21  H   UNL     1       7.317   8.074 -16.648  1.00  0.00     0.293 HD
ENDBRANCH  17  20
ENDBRANCH   1  12
BRANCH   2  22
ATOM     22  O   UNL     1       9.455  11.610 -20.616  1.00  0.00    -0.502 OA
ATOM     23  H   UNL     1       9.306  11.465 -21.608  1.00  0.00     0.293 HD
ENDBRANCH   2  22
BRANCH   6  24
ATOM     24  O   UNL     1       8.438  16.469 -22.169  1.00  0.00    -0.507 OA
ATOM     25  H   UNL     1       9.285  16.548 -22.719  1.00  0.00     0.293 HD
ENDBRANCH   6  24
BRANCH   8  26
ATOM     26  O   UNL     1       8.077  18.770 -17.925  1.00  0.00    -0.508 OA
ATOM     27  H   UNL     1       8.647  19.595 -18.077  1.00  0.00     0.293 HD
ENDBRANCH   8  26
TORSDOF 6
ENDMDL
