MODEL 1
REMARK VINA RESULT:    -2.795      0.000      0.000
REMARK INTER + INTRA:          -2.689
REMARK INTER:                  -3.448
REMARK INTRA:                   0.759
REMARK UNBOUND:                 0.759
REMARK SMILES CC1=CC=CC(C)(C)CC1=O
REMARK SMILES IDX 1 1 2 2 3 3 10 4 11 5 9 6 4 8 5 9 6 10 7 11 8 12
REMARK H PARENT
REMARK Flexibility Score: 80.00
ROOT
ATOM      1  C   UNL     1      -3.953  -3.469 -15.563  1.00  0.00     0.048 C 
ATOM      2  C   UNL     1      -3.153  -4.750 -15.538  1.00  0.00    -0.008 C 
ATOM      3  C   UNL     1      -2.984  -5.359 -14.344  1.00  0.00     0.007 C 
ENDROOT
BRANCH   2   4
ATOM      4  C   UNL     1      -2.680  -5.278 -16.843  1.00  0.00     0.159 C 
ATOM      5  O   UNL     1      -3.119  -4.757 -17.904  1.00  0.00    -0.295 OA
BRANCH   4   6
ATOM      6  C   UNL     1      -1.689  -6.393 -16.972  1.00  0.00     0.091 CG0
ATOM      7  G   UNL     1      -2.158  -7.705 -16.307  1.00  0.00     0.000 G0
ENDBRANCH   4   6
ENDBRANCH   2   4
BRANCH   3   8
ATOM      8  C   UNL     1      -2.282  -6.621 -14.011  1.00  0.00    -0.003 C 
ATOM      9  C   UNL     1      -1.930  -7.630 -14.818  1.00  0.00    -0.020 C 
BRANCH   9  10
ATOM     10  C   UNL     1      -2.150  -7.704 -16.310  1.00  0.00    -0.010 CG0
ATOM     11  C   UNL     1      -3.631  -8.036 -16.609  1.00  0.00     0.016 C 
ATOM     12  C   UNL     1      -1.281  -8.852 -16.872  1.00  0.00     0.016 C 
ATOM     13  G   UNL     1      -1.691  -6.385 -16.971  1.00  0.00     0.000 G0
ENDBRANCH   9  10
ENDBRANCH   3   8
TORSDOF 0
ENDMDL
MODEL 2
REMARK VINA RESULT:    -2.744      1.624      3.413
REMARK INTER + INTRA:          -2.626
REMARK INTER:                  -3.378
REMARK INTRA:                   0.751
REMARK UNBOUND:                 0.759
REMARK SMILES CC1=CC=CC(C)(C)CC1=O
REMARK SMILES IDX 1 1 2 2 3 3 10 4 11 5 9 6 4 8 5 9 6 10 7 11 8 12
REMARK H PARENT
REMARK Flexibility Score: 80.00
ROOT
ATOM      1  C   UNL     1      -1.419  -9.251 -14.918  1.00  0.00     0.048 C 
ATOM      2  C   UNL     1      -2.156  -7.969 -15.222  1.00  0.00    -0.008 C 
ATOM      3  C   UNL     1      -2.090  -6.977 -14.306  1.00  0.00     0.007 C 
ENDROOT
BRANCH   2   4
ATOM      4  C   UNL     1      -2.833  -7.873 -16.540  1.00  0.00     0.159 C 
ATOM      5  O   UNL     1      -2.609  -8.765 -17.404  1.00  0.00    -0.295 OA
BRANCH   4   6
ATOM      6  C   UNL     1      -3.787  -6.778 -16.901  1.00  0.00     0.091 CG0
ATOM      7  G   UNL     1      -3.159  -5.369 -16.813  1.00  0.00     0.000 G0
ENDBRANCH   4   6
ENDBRANCH   2   4
BRANCH   3   8
ATOM      8  C   UNL     1      -2.678  -5.617 -14.334  1.00  0.00    -0.003 C 
ATOM      9  C   UNL     1      -3.127  -4.912 -15.380  1.00  0.00    -0.020 C 
BRANCH   9  10
ATOM     10  C   UNL     1      -3.166  -5.369 -16.819  1.00  0.00    -0.010 CG0
ATOM     11  C   UNL     1      -1.749  -5.293 -17.435  1.00  0.00     0.016 C 
ATOM     12  C   UNL     1      -4.080  -4.405 -17.609  1.00  0.00     0.016 C 
ATOM     13  G   UNL     1      -3.775  -6.786 -16.901  1.00  0.00     0.000 G0
ENDBRANCH   9  10
ENDBRANCH   3   8
TORSDOF 0
ENDMDL
MODEL 3
REMARK VINA RESULT:    -2.485      1.168      1.577
REMARK INTER + INTRA:          -2.307
REMARK INTER:                  -3.339
REMARK INTRA:                   1.032
REMARK UNBOUND:                 0.759
REMARK SMILES CC1=CC=CC(C)(C)CC1=O
REMARK SMILES IDX 1 1 2 2 3 3 10 4 11 5 9 6 4 8 5 9 6 10 7 11 8 12
REMARK H PARENT
REMARK Flexibility Score: 80.00
ROOT
ATOM      1  C   UNL     1      -3.814  -3.406 -16.121  1.00  0.00     0.048 C 
ATOM      2  C   UNL     1      -3.106  -4.642 -15.619  1.00  0.00    -0.008 C 
ATOM      3  C   UNL     1      -2.262  -4.499 -14.573  1.00  0.00     0.007 C 
ENDROOT
BRANCH   2   4
ATOM      4  C   UNL     1      -3.454  -5.931 -16.268  1.00  0.00     0.159 C 
ATOM      5  O   UNL     1      -4.041  -5.910 -17.384  1.00  0.00    -0.295 OA
BRANCH   4   6
ATOM      6  C   UNL     1      -3.131  -7.267 -15.676  1.00  0.00     0.091 CG0
ATOM      7  G   UNL     1      -1.617  -7.487 -15.458  1.00  0.00     0.000 G0
ENDBRANCH   4   6
ENDBRANCH   2   4
BRANCH   3   8
ATOM      8  C   UNL     1      -1.459  -5.515 -13.855  1.00  0.00    -0.003 C 
ATOM      9  C   UNL     1      -1.190  -6.780 -14.202  1.00  0.00    -0.020 C 
BRANCH   9  10
ATOM     10  C   UNL     1      -1.635  -7.477 -15.466  1.00  0.00    -0.010 CG0
ATOM     11  C   UNL     1      -1.266  -8.977 -15.398  1.00  0.00     0.016 C 
ATOM     12  C   UNL     1      -0.876  -6.853 -16.658  1.00  0.00     0.016 C 
ATOM     13  G   UNL     1      -3.147  -7.246 -15.684  1.00  0.00     0.000 G0
ENDBRANCH   9  10
ENDBRANCH   3   8
TORSDOF 0
ENDMDL
MODEL 4
REMARK VINA RESULT:    -2.356      1.982      3.900
REMARK INTER + INTRA:          -2.148
REMARK INTER:                  -3.193
REMARK INTRA:                   1.045
REMARK UNBOUND:                 0.759
REMARK SMILES CC1=CC=CC(C)(C)CC1=O
REMARK SMILES IDX 1 1 2 2 3 3 10 4 11 5 9 6 4 8 5 9 6 10 7 11 8 12
REMARK H PARENT
REMARK Flexibility Score: 80.00
ROOT
ATOM      1  C   UNL     1      -1.507  -8.918 -15.159  1.00  0.00     0.048 C 
ATOM      2  C   UNL     1      -2.224  -7.637 -15.511  1.00  0.00    -0.008 C 
ATOM      3  C   UNL     1      -2.941  -7.615 -16.657  1.00  0.00     0.007 C 
ENDROOT
BRANCH   2   4
ATOM      4  C   UNL     1      -2.146  -6.526 -14.530  1.00  0.00     0.159 C 
ATOM      5  O   UNL     1      -1.268  -6.575 -13.625  1.00  0.00    -0.295 OA
BRANCH   4   6
ATOM      6  C   UNL     1      -3.047  -5.331 -14.561  1.00  0.00     0.091 CG0
ATOM      7  G   UNL     1      -2.953  -4.530 -15.878  1.00  0.00     0.000 G0
ENDBRANCH   4   6
ENDBRANCH   2   4
BRANCH   3   8
ATOM      8  C   UNL     1      -3.760  -6.530 -17.245  1.00  0.00    -0.003 C 
ATOM      9  C   UNL     1      -3.794  -5.229 -16.927  1.00  0.00    -0.020 C 
BRANCH   9  10
ATOM     10  C   UNL     1      -2.954  -4.541 -15.877  1.00  0.00    -0.010 CG0
ATOM     11  C   UNL     1      -3.404  -3.069 -15.724  1.00  0.00     0.016 C 
ATOM     12  C   UNL     1      -1.484  -4.542 -16.355  1.00  0.00     0.016 C 
ATOM     13  G   UNL     1      -3.030  -5.327 -14.550  1.00  0.00     0.000 G0
ENDBRANCH   9  10
ENDBRANCH   3   8
TORSDOF 0
ENDMDL
MODEL 5
REMARK VINA RESULT:    -2.328      1.536      2.391
REMARK INTER + INTRA:          -2.113
REMARK INTER:                  -2.872
REMARK INTRA:                   0.759
REMARK UNBOUND:                 0.759
REMARK SMILES CC1=CC=CC(C)(C)CC1=O
REMARK SMILES IDX 1 1 2 2 3 3 10 4 11 5 9 6 4 8 5 9 6 10 7 11 8 12
REMARK H PARENT
REMARK Flexibility Score: 80.00
ROOT
ATOM      1  C   UNL     1      -2.914  -3.014 -15.191  1.00  0.00     0.048 C 
ATOM      2  C   UNL     1      -3.024  -4.441 -15.674  1.00  0.00    -0.008 C 
ATOM      3  C   UNL     1      -3.737  -4.668 -16.799  1.00  0.00     0.007 C 
ENDROOT
BRANCH   2   4
ATOM      4  C   UNL     1      -2.274  -5.473 -14.914  1.00  0.00     0.159 C 
ATOM      5  O   UNL     1      -1.442  -5.100 -14.041  1.00  0.00    -0.295 OA
BRANCH   4   6
ATOM      6  C   UNL     1      -2.460  -6.944 -15.114  1.00  0.00     0.091 CG0
ATOM      7  G   UNL     1      -2.157  -7.406 -16.556  1.00  0.00     0.000 G0
ENDBRANCH   4   6
ENDBRANCH   2   4
BRANCH   3   8
ATOM      8  C   UNL     1      -3.997  -5.935 -17.521  1.00  0.00    -0.003 C 
ATOM      9  C   UNL     1      -3.341  -7.100 -17.445  1.00  0.00    -0.020 C 
BRANCH   9  10
ATOM     10  C   UNL     1      -2.161  -7.409 -16.554  1.00  0.00    -0.010 CG0
ATOM     11  C   UNL     1      -0.878  -6.772 -17.138  1.00  0.00     0.016 C 
ATOM     12  C   UNL     1      -1.962  -8.942 -16.528  1.00  0.00     0.016 C 
ATOM     13  G   UNL     1      -2.457  -6.937 -15.114  1.00  0.00     0.000 G0
ENDBRANCH   9  10
ENDBRANCH   3   8
TORSDOF 0
ENDMDL
MODEL 6
REMARK VINA RESULT:    -2.135      1.752      3.324
REMARK INTER + INTRA:          -1.876
REMARK INTER:                  -2.906
REMARK INTRA:                   1.031
REMARK UNBOUND:                 0.759
REMARK SMILES CC1=CC=CC(C)(C)CC1=O
REMARK SMILES IDX 1 1 2 2 3 3 10 4 11 5 9 6 4 8 5 9 6 10 7 11 8 12
REMARK H PARENT
REMARK Flexibility Score: 80.00
ROOT
ATOM      1  C   UNL     1      -1.037  -9.162 -15.297  1.00  0.00     0.048 C 
ATOM      2  C   UNL     1      -1.322  -7.682 -15.381  1.00  0.00    -0.008 C 
ATOM      3  C   UNL     1      -1.655  -7.043 -14.237  1.00  0.00     0.007 C 
ENDROOT
BRANCH   2   4
ATOM      4  C   UNL     1      -1.139  -7.031 -16.702  1.00  0.00     0.159 C 
ATOM      5  O   UNL     1      -1.055  -7.756 -17.731  1.00  0.00    -0.295 OA
BRANCH   4   6
ATOM      6  C   UNL     1      -1.061  -5.547 -16.889  1.00  0.00     0.091 CG0
ATOM      7  G   UNL     1      -2.326  -4.805 -16.404  1.00  0.00     0.000 G0
ENDBRANCH   4   6
ENDBRANCH   2   4
BRANCH   3   8
ATOM      8  C   UNL     1      -1.960  -5.612 -14.002  1.00  0.00    -0.003 C 
ATOM      9  C   UNL     1      -2.227  -4.648 -14.891  1.00  0.00    -0.020 C 
BRANCH   9  10
ATOM     10  C   UNL     1      -2.312  -4.809 -16.391  1.00  0.00    -0.010 CG0
ATOM     11  C   UNL     1      -2.490  -3.426 -17.060  1.00  0.00     0.016 C 
ATOM     12  C   UNL     1      -3.559  -5.661 -16.717  1.00  0.00     0.016 C 
ATOM     13  G   UNL     1      -1.066  -5.563 -16.905  1.00  0.00     0.000 G0
ENDBRANCH   9  10
ENDBRANCH   3   8
TORSDOF 0
ENDMDL
MODEL 7
REMARK VINA RESULT:    -1.904     16.560     17.770
REMARK INTER + INTRA:          -1.590
REMARK INTER:                  -2.333
REMARK INTRA:                   0.743
REMARK UNBOUND:                 0.759
REMARK SMILES CC1=CC=CC(C)(C)CC1=O
REMARK SMILES IDX 1 1 2 2 3 3 10 4 11 5 9 6 4 8 5 9 6 10 7 11 8 12
REMARK H PARENT
REMARK Flexibility Score: 80.00
ROOT
ATOM      1  C   UNL     1      -2.743 -10.295   0.291  1.00  0.00     0.048 C 
ATOM      2  C   UNL     1      -2.686  -8.909   0.888  1.00  0.00    -0.008 C 
ATOM      3  C   UNL     1      -1.483  -8.296   0.934  1.00  0.00     0.007 C 
ENDROOT
BRANCH   2   4
ATOM      4  C   UNL     1      -3.973  -8.300   1.307  1.00  0.00     0.159 C 
ATOM      5  O   UNL     1      -5.050  -8.880   0.996  1.00  0.00    -0.295 OA
BRANCH   4   6
ATOM      6  C   UNL     1      -4.069  -7.033   2.098  1.00  0.00     0.091 CG0
ATOM      7  G   UNL     1      -3.392  -5.829   1.405  1.00  0.00     0.000 G0
ENDBRANCH   4   6
ENDBRANCH   2   4
BRANCH   3   8
ATOM      8  C   UNL     1      -1.121  -6.948   1.430  1.00  0.00    -0.003 C 
ATOM      9  C   UNL     1      -1.908  -5.883   1.633  1.00  0.00    -0.020 C 
BRANCH   9  10
ATOM     10  C   UNL     1      -3.403  -5.820   1.425  1.00  0.00    -0.010 CG0
ATOM     11  C   UNL     1      -3.720  -5.701  -0.084  1.00  0.00     0.016 C 
ATOM     12  C   UNL     1      -3.936  -4.550   2.124  1.00  0.00     0.016 C 
ATOM     13  G   UNL     1      -4.073  -7.048   2.079  1.00  0.00     0.000 G0
ENDBRANCH   9  10
ENDBRANCH   3   8
TORSDOF 0
ENDMDL
MODEL 8
REMARK VINA RESULT:    -1.875      1.492      2.444
REMARK INTER + INTRA:          -1.555
REMARK INTER:                  -2.573
REMARK INTRA:                   1.019
REMARK UNBOUND:                 0.759
REMARK SMILES CC1=CC=CC(C)(C)CC1=O
REMARK SMILES IDX 1 1 2 2 3 3 10 4 11 5 9 6 4 8 5 9 6 10 7 11 8 12
REMARK H PARENT
REMARK Flexibility Score: 80.00
ROOT
ATOM      1  C   UNL     1      -3.639  -3.718 -15.903  1.00  0.00     0.048 C 
ATOM      2  C   UNL     1      -2.757  -4.933 -16.069  1.00  0.00    -0.008 C 
ATOM      3  C   UNL     1      -2.105  -5.078 -17.244  1.00  0.00     0.007 C 
ENDROOT
BRANCH   2   4
ATOM      4  C   UNL     1      -2.617  -5.832 -14.896  1.00  0.00     0.159 C 
ATOM      5  O   UNL     1      -3.451  -5.737 -13.954  1.00  0.00    -0.295 OA
BRANCH   4   6
ATOM      6  C   UNL     1      -1.542  -6.867 -14.772  1.00  0.00     0.091 CG0
ATOM      7  G   UNL     1      -1.582  -7.925 -15.896  1.00  0.00     0.000 G0
ENDBRANCH   4   6
ENDBRANCH   2   4
BRANCH   3   8
ATOM      8  C   UNL     1      -1.165  -6.134 -17.685  1.00  0.00    -0.003 C 
ATOM      9  C   UNL     1      -0.913  -7.327 -17.130  1.00  0.00    -0.020 C 
BRANCH   9  10
ATOM     10  C   UNL     1      -1.574  -7.901 -15.899  1.00  0.00    -0.010 CG0
ATOM     11  C   UNL     1      -0.876  -9.221 -15.494  1.00  0.00     0.016 C 
ATOM     12  C   UNL     1      -3.044  -8.227 -16.247  1.00  0.00     0.016 C 
ATOM     13  G   UNL     1      -1.568  -6.852 -14.766  1.00  0.00     0.000 G0
ENDBRANCH   9  10
ENDBRANCH   3   8
TORSDOF 0
ENDMDL
MODEL 9
REMARK VINA RESULT:    -1.235     16.406     17.339
REMARK INTER + INTRA:          -0.764
REMARK INTER:                  -1.801
REMARK INTRA:                   1.037
REMARK UNBOUND:                 0.759
REMARK SMILES CC1=CC=CC(C)(C)CC1=O
REMARK SMILES IDX 1 1 2 2 3 3 10 4 11 5 9 6 4 8 5 9 6 10 7 11 8 12
REMARK H PARENT
REMARK Flexibility Score: 80.00
ROOT
ATOM      1  C   UNL     1      -2.159  -3.123  -0.173  1.00  0.00     0.048 C 
ATOM      2  C   UNL     1      -2.453  -4.396   0.584  1.00  0.00    -0.008 C 
ATOM      3  C   UNL     1      -1.409  -5.048   1.142  1.00  0.00     0.007 C 
ENDROOT
BRANCH   2   4
ATOM      4  C   UNL     1      -3.878  -4.789   0.721  1.00  0.00     0.159 C 
ATOM      5  O   UNL     1      -4.733  -4.243  -0.029  1.00  0.00    -0.295 OA
BRANCH   4   6
ATOM      6  C   UNL     1      -4.362  -5.818   1.694  1.00  0.00     0.091 CG0
ATOM      7  G   UNL     1      -3.724  -7.208   1.480  1.00  0.00     0.000 G0
ENDBRANCH   4   6
ENDBRANCH   2   4
BRANCH   3   8
ATOM      8  C   UNL     1      -1.386  -6.287   1.954  1.00  0.00    -0.003 C 
ATOM      9  C   UNL     1      -2.347  -7.203   2.125  1.00  0.00    -0.020 C 
BRANCH   9  10
ATOM     10  C   UNL     1      -3.714  -7.199   1.483  1.00  0.00    -0.010 CG0
ATOM     11  C   UNL     1      -4.570  -8.352   2.059  1.00  0.00     0.016 C 
ATOM     12  C   UNL     1      -3.540  -7.446  -0.032  1.00  0.00     0.016 C 
ATOM     13  G   UNL     1      -4.375  -5.816   1.673  1.00  0.00     0.000 G0
ENDBRANCH   9  10
ENDBRANCH   3   8
TORSDOF 0
ENDMDL
