MODEL 1
REMARK VINA RESULT:    -5.504      0.000      0.000
REMARK INTER + INTRA:          -6.638
REMARK INTER:                  -6.308
REMARK INTRA:                  -0.330
REMARK UNBOUND:                -0.330
REMARK SMILES COc1ccc(C(C)=O)c(O)c1
REMARK SMILES IDX 6 1 10 2 12 3 3 4 4 5 5 6 7 7 8 8 9 9 11 10 2 12 1 13
REMARK H PARENT 11 11
REMARK Flexibility Score: inf
ROOT
ATOM      1  C   UNL     1      28.396  37.760  26.604  1.00  0.00     0.059 A 
ATOM      2  C   UNL     1      29.269  38.147  25.560  1.00  0.00     0.130 A 
ATOM      3  C   UNL     1      30.519  38.706  25.866  1.00  0.00     0.093 A 
ATOM      4  C   UNL     1      30.914  38.904  27.192  1.00  0.00     0.122 A 
ATOM      5  C   UNL     1      30.040  38.536  28.228  1.00  0.00     0.047 A 
ATOM      6  C   UNL     1      28.796  37.974  27.934  1.00  0.00     0.019 A 
ENDROOT
BRANCH   1   7
ATOM      7  C   UNL     1      27.065  37.145  26.347  1.00  0.00     0.163 C 
ATOM      8  C   UNL     1      25.796  37.706  26.915  1.00  0.00     0.093 C 
ATOM      9  O   UNL     1      26.989  36.114  25.624  1.00  0.00    -0.294 OA
ENDBRANCH   1   7
BRANCH   2  10
ATOM     10  O   UNL     1      28.896  38.003  24.225  1.00  0.00    -0.507 OA
ATOM     11  H   UNL     1      28.105  37.432  23.951  1.00  0.00     0.293 HD
ENDBRANCH   2  10
BRANCH   4  12
ATOM     12  O   UNL     1      32.175  39.469  27.434  1.00  0.00    -0.497 OA
ATOM     13  C   UNL     1      32.394  40.838  27.761  1.00  0.00     0.278 C 
ENDBRANCH   4  12
TORSDOF 3
ENDMDL
MODEL 2
REMARK VINA RESULT:    -5.470      1.325      4.560
REMARK INTER + INTRA:          -6.599
REMARK INTER:                  -6.271
REMARK INTRA:                  -0.329
REMARK UNBOUND:                -0.330
REMARK SMILES COc1ccc(C(C)=O)c(O)c1
REMARK SMILES IDX 6 1 10 2 12 3 3 4 4 5 5 6 7 7 8 8 9 9 11 10 2 12 1 13
REMARK H PARENT 11 11
REMARK Flexibility Score: inf
ROOT
ATOM      1  C   UNL     1      30.254  38.687  27.472  1.00  0.00     0.059 A 
ATOM      2  C   UNL     1      29.670  37.829  26.511  1.00  0.00     0.130 A 
ATOM      3  C   UNL     1      28.334  37.426  26.653  1.00  0.00     0.093 A 
ATOM      4  C   UNL     1      27.569  37.846  27.744  1.00  0.00     0.122 A 
ATOM      5  C   UNL     1      28.152  38.683  28.708  1.00  0.00     0.047 A 
ATOM      6  C   UNL     1      29.480  39.094  28.573  1.00  0.00     0.019 A 
ENDROOT
BRANCH   1   7
ATOM      7  C   UNL     1      31.659  39.165  27.369  1.00  0.00     0.163 C 
ATOM      8  C   UNL     1      32.057  40.574  27.695  1.00  0.00     0.093 C 
ATOM      9  O   UNL     1      32.559  38.364  26.995  1.00  0.00    -0.294 OA
ENDBRANCH   1   7
BRANCH   2  10
ATOM     10  O   UNL     1      30.413  37.356  25.430  1.00  0.00    -0.507 OA
ATOM     11  H   UNL     1      30.737  36.398  25.384  1.00  0.00     0.293 HD
ENDBRANCH   2  10
BRANCH   4  12
ATOM     12  O   UNL     1      26.238  37.408  27.833  1.00  0.00    -0.497 OA
ATOM     13  C   UNL     1      25.206  37.781  26.924  1.00  0.00     0.278 C 
ENDBRANCH   4  12
TORSDOF 3
ENDMDL
MODEL 3
REMARK VINA RESULT:    -5.422      2.332      3.037
REMARK INTER + INTRA:          -6.544
REMARK INTER:                  -6.212
REMARK INTRA:                  -0.332
REMARK UNBOUND:                -0.330
REMARK SMILES COc1ccc(C(C)=O)c(O)c1
REMARK SMILES IDX 6 1 10 2 12 3 3 4 4 5 5 6 7 7 8 8 9 9 11 10 2 12 1 13
REMARK H PARENT 11 11
REMARK Flexibility Score: inf
ROOT
ATOM      1  C   UNL     1      28.336  37.847  27.130  1.00  0.00     0.059 A 
ATOM      2  C   UNL     1      29.256  38.525  27.963  1.00  0.00     0.130 A 
ATOM      3  C   UNL     1      30.495  37.938  28.259  1.00  0.00     0.093 A 
ATOM      4  C   UNL     1      30.832  36.678  27.757  1.00  0.00     0.122 A 
ATOM      5  C   UNL     1      29.912  35.996  26.945  1.00  0.00     0.047 A 
ATOM      6  C   UNL     1      28.679  36.575  26.639  1.00  0.00     0.019 A 
ENDROOT
BRANCH   1   7
ATOM      7  C   UNL     1      27.014  38.423  26.763  1.00  0.00     0.163 C 
ATOM      8  C   UNL     1      25.727  37.682  26.969  1.00  0.00     0.093 C 
ATOM      9  O   UNL     1      26.961  39.579  26.260  1.00  0.00    -0.294 OA
ENDBRANCH   1   7
BRANCH   2  10
ATOM     10  O   UNL     1      28.941  39.766  28.516  1.00  0.00    -0.507 OA
ATOM     11  H   UNL     1      29.147  40.632  28.033  1.00  0.00     0.293 HD
ENDBRANCH   2  10
BRANCH   4  12
ATOM     12  O   UNL     1      32.086  36.142  28.090  1.00  0.00    -0.497 OA
ATOM     13  C   UNL     1      32.302  35.183  29.121  1.00  0.00     0.278 C 
ENDBRANCH   4  12
TORSDOF 3
ENDMDL
MODEL 4
REMARK VINA RESULT:    -5.391      1.888      4.766
REMARK INTER + INTRA:          -6.509
REMARK INTER:                  -6.176
REMARK INTRA:                  -0.334
REMARK UNBOUND:                -0.330
REMARK SMILES COc1ccc(C(C)=O)c(O)c1
REMARK SMILES IDX 6 1 10 2 12 3 3 4 4 5 5 6 7 7 8 8 9 9 11 10 2 12 1 13
REMARK H PARENT 11 11
REMARK Flexibility Score: inf
ROOT
ATOM      1  C   UNL     1      30.259  36.882  27.337  1.00  0.00     0.059 A 
ATOM      2  C   UNL     1      29.657  38.155  27.200  1.00  0.00     0.130 A 
ATOM      3  C   UNL     1      28.315  38.254  26.803  1.00  0.00     0.093 A 
ATOM      4  C   UNL     1      27.561  37.111  26.523  1.00  0.00     0.122 A 
ATOM      5  C   UNL     1      28.163  35.848  26.641  1.00  0.00     0.047 A 
ATOM      6  C   UNL     1      29.497  35.738  27.041  1.00  0.00     0.019 A 
ENDROOT
BRANCH   1   7
ATOM      7  C   UNL     1      31.672  36.709  27.771  1.00  0.00     0.163 C 
ATOM      8  C   UNL     1      32.082  35.688  28.790  1.00  0.00     0.093 C 
ATOM      9  O   UNL     1      32.567  37.442  27.269  1.00  0.00    -0.294 OA
ENDBRANCH   1   7
BRANCH   2  10
ATOM     10  O   UNL     1      30.386  39.320  27.432  1.00  0.00    -0.507 OA
ATOM     11  H   UNL     1      29.989  40.239  27.272  1.00  0.00     0.293 HD
ENDBRANCH   2  10
BRANCH   4  12
ATOM     12  O   UNL     1      26.224  37.274  26.129  1.00  0.00    -0.497 OA
ATOM     13  C   UNL     1      25.182  37.725  26.989  1.00  0.00     0.278 C 
ENDBRANCH   4  12
TORSDOF 3
ENDMDL
MODEL 5
REMARK VINA RESULT:    -5.378      2.395      3.601
REMARK INTER + INTRA:          -6.494
REMARK INTER:                  -6.173
REMARK INTRA:                  -0.320
REMARK UNBOUND:                -0.330
REMARK SMILES COc1ccc(C(C)=O)c(O)c1
REMARK SMILES IDX 6 1 10 2 12 3 3 4 4 5 5 6 7 7 8 8 9 9 11 10 2 12 1 13
REMARK H PARENT 11 11
REMARK Flexibility Score: inf
ROOT
ATOM      1  C   UNL     1      29.648  38.507  28.016  1.00  0.00     0.059 A 
ATOM      2  C   UNL     1      28.901  38.868  26.870  1.00  0.00     0.130 A 
ATOM      3  C   UNL     1      29.384  38.551  25.592  1.00  0.00     0.093 A 
ATOM      4  C   UNL     1      30.607  37.895  25.428  1.00  0.00     0.122 A 
ATOM      5  C   UNL     1      31.358  37.552  26.564  1.00  0.00     0.047 A 
ATOM      6  C   UNL     1      30.883  37.858  27.840  1.00  0.00     0.019 A 
ENDROOT
BRANCH   1   7
ATOM      7  C   UNL     1      29.182  38.798  29.399  1.00  0.00     0.163 C 
ATOM      8  C   UNL     1      30.130  39.087  30.523  1.00  0.00     0.093 C 
ATOM      9  O   UNL     1      27.945  38.805  29.646  1.00  0.00    -0.294 OA
ENDBRANCH   1   7
BRANCH   2  10
ATOM     10  O   UNL     1      27.696  39.559  26.990  1.00  0.00    -0.507 OA
ATOM     11  H   UNL     1      27.218  39.646  27.879  1.00  0.00     0.293 HD
ENDBRANCH   2  10
BRANCH   4  12
ATOM     12  O   UNL     1      31.039  37.606  24.124  1.00  0.00    -0.497 OA
ATOM     13  C   UNL     1      32.176  36.807  23.812  1.00  0.00     0.278 C 
ENDBRANCH   4  12
TORSDOF 3
ENDMDL
MODEL 6
REMARK VINA RESULT:    -5.375      2.161      4.750
REMARK INTER + INTRA:          -6.491
REMARK INTER:                  -6.158
REMARK INTRA:                  -0.333
REMARK UNBOUND:                -0.330
REMARK SMILES COc1ccc(C(C)=O)c(O)c1
REMARK SMILES IDX 6 1 10 2 12 3 3 4 4 5 5 6 7 7 8 8 9 9 11 10 2 12 1 13
REMARK H PARENT 11 11
REMARK Flexibility Score: inf
ROOT
ATOM      1  C   UNL     1      30.167  37.743  25.899  1.00  0.00     0.059 A 
ATOM      2  C   UNL     1      29.593  37.401  27.145  1.00  0.00     0.130 A 
ATOM      3  C   UNL     1      28.250  37.713  27.405  1.00  0.00     0.093 A 
ATOM      4  C   UNL     1      27.469  38.375  26.456  1.00  0.00     0.122 A 
ATOM      5  C   UNL     1      28.043  38.732  25.225  1.00  0.00     0.047 A 
ATOM      6  C   UNL     1      29.377  38.422  24.954  1.00  0.00     0.019 A 
ENDROOT
BRANCH   1   7
ATOM      7  C   UNL     1      31.580  37.425  25.554  1.00  0.00     0.163 C 
ATOM      8  C   UNL     1      31.979  36.879  24.216  1.00  0.00     0.093 C 
ATOM      9  O   UNL     1      32.484  37.619  26.412  1.00  0.00    -0.294 OA
ENDBRANCH   1   7
BRANCH   2  10
ATOM     10  O   UNL     1      30.351  36.775  28.134  1.00  0.00    -0.507 OA
ATOM     11  H   UNL     1      29.975  36.021  28.696  1.00  0.00     0.293 HD
ENDBRANCH   2  10
BRANCH   4  12
ATOM     12  O   UNL     1      26.132  38.661  26.775  1.00  0.00    -0.497 OA
ATOM     13  C   UNL     1      25.126  37.674  26.983  1.00  0.00     0.278 C 
ENDBRANCH   4  12
TORSDOF 3
ENDMDL
MODEL 7
REMARK VINA RESULT:    -5.346      2.060      2.854
REMARK INTER + INTRA:          -6.457
REMARK INTER:                  -6.122
REMARK INTRA:                  -0.335
REMARK UNBOUND:                -0.330
REMARK SMILES COc1ccc(C(C)=O)c(O)c1
REMARK SMILES IDX 6 1 10 2 12 3 3 4 4 5 5 6 7 7 8 8 9 9 11 10 2 12 1 13
REMARK H PARENT 11 11
REMARK Flexibility Score: inf
ROOT
ATOM      1  C   UNL     1      29.429  36.262  27.029  1.00  0.00     0.059 A 
ATOM      2  C   UNL     1      28.752  37.035  28.001  1.00  0.00     0.130 A 
ATOM      3  C   UNL     1      29.295  38.255  28.427  1.00  0.00     0.093 A 
ATOM      4  C   UNL     1      30.512  38.718  27.919  1.00  0.00     0.122 A 
ATOM      5  C   UNL     1      31.195  37.943  26.968  1.00  0.00     0.047 A 
ATOM      6  C   UNL     1      30.660  36.729  26.533  1.00  0.00     0.019 A 
ENDROOT
BRANCH   1   7
ATOM      7  C   UNL     1      28.897  34.968  26.522  1.00  0.00     0.163 C 
ATOM      8  C   UNL     1      29.780  33.790  26.238  1.00  0.00     0.093 C 
ATOM      9  O   UNL     1      27.658  34.846  26.320  1.00  0.00    -0.294 OA
ENDBRANCH   1   7
BRANCH   2  10
ATOM     10  O   UNL     1      27.555  36.589  28.561  1.00  0.00    -0.507 OA
ATOM     11  H   UNL     1      27.229  36.926  29.459  1.00  0.00     0.293 HD
ENDBRANCH   2  10
BRANCH   4  12
ATOM     12  O   UNL     1      31.006  39.946  28.386  1.00  0.00    -0.497 OA
ATOM     13  C   UNL     1      32.067  40.671  27.772  1.00  0.00     0.278 C 
ENDBRANCH   4  12
TORSDOF 3
ENDMDL
MODEL 8
REMARK VINA RESULT:    -5.257      2.248      3.418
REMARK INTER + INTRA:          -6.355
REMARK INTER:                  -6.039
REMARK INTRA:                  -0.316
REMARK UNBOUND:                -0.330
REMARK SMILES COc1ccc(C(C)=O)c(O)c1
REMARK SMILES IDX 6 1 10 2 12 3 3 4 4 5 5 6 7 7 8 8 9 9 11 10 2 12 1 13
REMARK H PARENT 11 11
REMARK Flexibility Score: inf
ROOT
ATOM      1  C   UNL     1      29.509  38.331  25.388  1.00  0.00     0.059 A 
ATOM      2  C   UNL     1      28.804  37.143  25.692  1.00  0.00     0.130 A 
ATOM      3  C   UNL     1      29.352  36.214  26.589  1.00  0.00     0.093 A 
ATOM      4  C   UNL     1      30.599  36.434  27.178  1.00  0.00     0.122 A 
ATOM      5  C   UNL     1      31.309  37.604  26.863  1.00  0.00     0.047 A 
ATOM      6  C   UNL     1      30.770  38.537  25.976  1.00  0.00     0.019 A 
ENDROOT
BRANCH   1   7
ATOM      7  C   UNL     1      28.974  39.364  24.460  1.00  0.00     0.163 C 
ATOM      8  C   UNL     1      29.865  40.241  23.632  1.00  0.00     0.093 C 
ATOM      9  O   UNL     1      27.727  39.517  24.357  1.00  0.00    -0.294 OA
ENDBRANCH   1   7
BRANCH   2  10
ATOM     10  O   UNL     1      27.574  36.869  25.094  1.00  0.00    -0.507 OA
ATOM     11  H   UNL     1      26.726  37.348  25.374  1.00  0.00     0.293 HD
ENDBRANCH   2  10
BRANCH   4  12
ATOM     12  O   UNL     1      31.096  35.467  28.066  1.00  0.00    -0.497 OA
ATOM     13  C   UNL     1      32.240  35.649  28.896  1.00  0.00     0.278 C 
ENDBRANCH   4  12
TORSDOF 3
ENDMDL
MODEL 9
REMARK VINA RESULT:    -5.248      2.302      3.038
REMARK INTER + INTRA:          -6.345
REMARK INTER:                  -6.010
REMARK INTRA:                  -0.335
REMARK UNBOUND:                -0.330
REMARK SMILES COc1ccc(C(C)=O)c(O)c1
REMARK SMILES IDX 6 1 10 2 12 3 3 4 4 5 5 6 7 7 8 8 9 9 11 10 2 12 1 13
REMARK H PARENT 11 11
REMARK Flexibility Score: inf
ROOT
ATOM      1  C   UNL     1      28.429  37.400  26.897  1.00  0.00     0.059 A 
ATOM      2  C   UNL     1      29.276  36.271  26.991  1.00  0.00     0.130 A 
ATOM      3  C   UNL     1      30.495  36.252  26.298  1.00  0.00     0.093 A 
ATOM      4  C   UNL     1      30.883  37.328  25.496  1.00  0.00     0.122 A 
ATOM      5  C   UNL     1      30.034  38.442  25.386  1.00  0.00     0.047 A 
ATOM      6  C   UNL     1      28.821  38.473  26.077  1.00  0.00     0.019 A 
ENDROOT
BRANCH   1   7
ATOM      7  C   UNL     1      27.132  37.490  27.621  1.00  0.00     0.163 C 
ATOM      8  C   UNL     1      25.850  37.855  26.935  1.00  0.00     0.093 C 
ATOM      9  O   UNL     1      27.097  37.251  28.860  1.00  0.00    -0.294 OA
ENDBRANCH   1   7
BRANCH   2  10
ATOM     10  O   UNL     1      28.907  35.161  27.750  1.00  0.00    -0.507 OA
ATOM     11  H   UNL     1      29.541  34.387  27.906  1.00  0.00     0.293 HD
ENDBRANCH   2  10
BRANCH   4  12
ATOM     12  O   UNL     1      32.113  37.250  24.825  1.00  0.00    -0.497 OA
ATOM     13  C   UNL     1      32.330  36.514  23.625  1.00  0.00     0.278 C 
ENDBRANCH   4  12
TORSDOF 3
ENDMDL
