MODEL 1
REMARK VINA RESULT:    -3.914      0.000      0.000
REMARK INTER + INTRA:          -4.997
REMARK INTER:                  -4.944
REMARK INTRA:                  -0.053
REMARK UNBOUND:                -0.053
REMARK SMILES CSCC[C@H]([NH3+])C(=O)[O-]
REMARK SMILES IDX 4 1 5 2 6 3 7 7 8 8 9 9 3 10 2 11 1 12
REMARK H PARENT 6 4 6 5 6 6
REMARK Flexibility Score: inf
ROOT
ATOM      1  C   UNL     1     -31.925  -9.768   5.843  1.00  0.00     0.082 C 
ENDROOT
BRANCH   1   2
ATOM      2  C   UNL     1     -30.970 -10.542   6.781  1.00  0.00     0.228 C 
BRANCH   2   3
ATOM      3  N   UNL     1     -30.329 -11.648   6.060  1.00  0.00    -0.350 N 
ATOM      4  H   UNL     1     -29.687 -11.283   5.317  1.00  0.00     0.345 HD
ATOM      5  H   UNL     1     -31.058 -12.255   5.616  1.00  0.00     0.345 HD
ATOM      6  H   UNL     1     -29.779 -12.235   6.727  1.00  0.00     0.345 HD
ENDBRANCH   2   3
BRANCH   2   7
ATOM      7  C   UNL     1     -31.699 -11.068   7.991  1.00  0.00     0.099 C 
ATOM      8  O   UNL     1     -31.754 -10.389   9.051  1.00  0.00    -0.544 OA
ATOM      9  O   UNL     1     -32.308 -12.316   7.946  1.00  0.00    -0.544 OA
ENDBRANCH   2   7
ENDBRANCH   1   2
BRANCH   1  10
ATOM     10  C   UNL     1     -31.211  -9.085   4.667  1.00  0.00     0.076 C 
BRANCH  10  11
ATOM     11  S   UNL     1     -32.392  -8.312   3.499  1.00  0.00    -0.165 SA
ATOM     12  C   UNL     1     -33.871  -8.534   4.541  1.00  0.00     0.085 C 
ENDBRANCH  10  11
ENDBRANCH   1  10
TORSDOF 5
ENDMDL
MODEL 2
REMARK VINA RESULT:    -3.789      3.677      4.535
REMARK INTER + INTRA:          -4.839
REMARK INTER:                  -4.787
REMARK INTRA:                  -0.053
REMARK UNBOUND:                -0.053
REMARK SMILES CSCC[C@H]([NH3+])C(=O)[O-]
REMARK SMILES IDX 4 1 5 2 6 3 7 7 8 8 9 9 3 10 2 11 1 12
REMARK H PARENT 6 4 6 5 6 6
REMARK Flexibility Score: inf
ROOT
ATOM      1  C   UNL     1     -32.102  -9.701   5.993  1.00  0.00     0.082 C 
ENDROOT
BRANCH   1   2
ATOM      2  C   UNL     1     -31.595  -9.160   4.636  1.00  0.00     0.228 C 
BRANCH   2   3
ATOM      3  N   UNL     1     -30.466  -8.245   4.840  1.00  0.00    -0.350 N 
ATOM      4  H   UNL     1     -29.706  -8.433   4.145  1.00  0.00     0.345 HD
ATOM      5  H   UNL     1     -30.083  -8.360   5.807  1.00  0.00     0.345 HD
ATOM      6  H   UNL     1     -30.788  -7.255   4.733  1.00  0.00     0.345 HD
ENDBRANCH   2   3
BRANCH   2   7
ATOM      7  C   UNL     1     -32.697  -8.463   3.879  1.00  0.00     0.099 C 
ATOM      8  O   UNL     1     -32.556  -8.181   2.660  1.00  0.00    -0.544 OA
ATOM      9  O   UNL     1     -33.874  -8.117   4.531  1.00  0.00    -0.544 OA
ENDBRANCH   2   7
ENDBRANCH   1   2
BRANCH   1  10
ATOM     10  C   UNL     1     -30.977  -9.987   7.000  1.00  0.00     0.076 C 
BRANCH  10  11
ATOM     11  S   UNL     1     -30.861 -11.767   7.415  1.00  0.00    -0.165 SA
ATOM     12  C   UNL     1     -32.512 -11.901   8.174  1.00  0.00     0.085 C 
ENDBRANCH  10  11
ENDBRANCH   1  10
TORSDOF 5
ENDMDL
MODEL 3
REMARK VINA RESULT:    -3.691     14.364     15.314
REMARK INTER + INTRA:          -4.715
REMARK INTER:                  -4.660
REMARK INTRA:                  -0.055
REMARK UNBOUND:                -0.053
REMARK SMILES CSCC[C@H]([NH3+])C(=O)[O-]
REMARK SMILES IDX 4 1 5 2 6 3 7 7 8 8 9 9 3 10 2 11 1 12
REMARK H PARENT 6 4 6 5 6 6
REMARK Flexibility Score: inf
ROOT
ATOM      1  C   UNL     1     -31.825  -3.019  -5.913  1.00  0.00     0.082 C 
ENDROOT
BRANCH   1   2
ATOM      2  C   UNL     1     -30.806  -2.318  -6.840  1.00  0.00     0.228 C 
BRANCH   2   3
ATOM      3  N   UNL     1     -30.668  -0.904  -6.472  1.00  0.00    -0.350 N 
ATOM      4  H   UNL     1     -30.572  -0.799  -5.435  1.00  0.00     0.345 HD
ATOM      5  H   UNL     1     -31.507  -0.368  -6.796  1.00  0.00     0.345 HD
ATOM      6  H   UNL     1     -29.824  -0.498  -6.936  1.00  0.00     0.345 HD
ENDBRANCH   2   3
BRANCH   2   7
ATOM      7  C   UNL     1     -31.210  -2.439  -8.287  1.00  0.00     0.099 C 
ATOM      8  O   UNL     1     -30.767  -3.380  -8.998  1.00  0.00    -0.544 OA
ATOM      9  O   UNL     1     -32.068  -1.502  -8.849  1.00  0.00    -0.544 OA
ENDBRANCH   2   7
ENDBRANCH   1   2
BRANCH   1  10
ATOM     10  C   UNL     1     -31.178  -3.737  -4.719  1.00  0.00     0.076 C 
BRANCH  10  11
ATOM     11  S   UNL     1     -32.420  -4.559  -3.653  1.00  0.00    -0.165 SA
ATOM     12  C   UNL     1     -33.846  -4.261  -4.748  1.00  0.00     0.085 C 
ENDBRANCH  10  11
ENDBRANCH   1  10
TORSDOF 5
ENDMDL
MODEL 4
REMARK VINA RESULT:    -3.560     14.993     15.934
REMARK INTER + INTRA:          -4.549
REMARK INTER:                  -4.473
REMARK INTRA:                  -0.076
REMARK UNBOUND:                -0.053
REMARK SMILES CSCC[C@H]([NH3+])C(=O)[O-]
REMARK SMILES IDX 4 1 5 2 6 3 7 7 8 8 9 9 3 10 2 11 1 12
REMARK H PARENT 6 4 6 5 6 6
REMARK Flexibility Score: inf
ROOT
ATOM      1  C   UNL     1     -30.989  -2.352  -6.444  1.00  0.00     0.082 C 
ENDROOT
BRANCH   1   2
ATOM      2  C   UNL     1     -30.464  -1.048  -7.088  1.00  0.00     0.228 C 
BRANCH   2   3
ATOM      3  N   UNL     1     -29.931  -0.148  -6.059  1.00  0.00    -0.350 N 
ATOM      4  H   UNL     1     -30.174  -0.494  -5.101  1.00  0.00     0.345 HD
ATOM      5  H   UNL     1     -30.325   0.814  -6.188  1.00  0.00     0.345 HD
ATOM      6  H   UNL     1     -28.890  -0.087  -6.145  1.00  0.00     0.345 HD
ENDBRANCH   2   3
BRANCH   2   7
ATOM      7  C   UNL     1     -31.545  -0.353  -7.875  1.00  0.00     0.099 C 
ATOM      8  O   UNL     1     -31.383   0.830  -8.277  1.00  0.00    -0.544 OA
ATOM      9  O   UNL     1     -32.735  -1.013  -8.152  1.00  0.00    -0.544 OA
ENDBRANCH   2   7
ENDBRANCH   1   2
BRANCH   1  10
ATOM     10  C   UNL     1     -29.875  -3.325  -6.028  1.00  0.00     0.076 C 
BRANCH  10  11
ATOM     11  S   UNL     1     -29.886  -3.656  -4.227  1.00  0.00    -0.165 SA
ATOM     12  C   UNL     1     -31.630  -4.176  -4.133  1.00  0.00     0.085 C 
ENDBRANCH  10  11
ENDBRANCH   1  10
TORSDOF 5
ENDMDL
MODEL 5
REMARK VINA RESULT:    -3.480     12.895     13.739
REMARK INTER + INTRA:          -4.448
REMARK INTER:                  -4.393
REMARK INTRA:                  -0.055
REMARK UNBOUND:                -0.053
REMARK SMILES CSCC[C@H]([NH3+])C(=O)[O-]
REMARK SMILES IDX 4 1 5 2 6 3 7 7 8 8 9 9 3 10 2 11 1 12
REMARK H PARENT 6 4 6 5 6 6
REMARK Flexibility Score: inf
ROOT
ATOM      1  C   UNL     1     -31.703  -3.009  -5.978  1.00  0.00     0.082 C 
ENDROOT
BRANCH   1   2
ATOM      2  C   UNL     1     -31.419  -3.652  -4.601  1.00  0.00     0.228 C 
BRANCH   2   3
ATOM      3  N   UNL     1     -30.310  -4.609  -4.703  1.00  0.00    -0.350 N 
ATOM      4  H   UNL     1     -29.416  -4.177  -4.369  1.00  0.00     0.345 HD
ATOM      5  H   UNL     1     -30.193  -4.915  -5.697  1.00  0.00     0.345 HD
ATOM      6  H   UNL     1     -30.517  -5.455  -4.124  1.00  0.00     0.345 HD
ENDBRANCH   2   3
BRANCH   2   7
ATOM      7  C   UNL     1     -32.645  -4.337  -4.053  1.00  0.00     0.099 C 
ATOM      8  O   UNL     1     -32.643  -4.815  -2.888  1.00  0.00    -0.544 OA
ATOM      9  O   UNL     1     -33.783  -4.454  -4.840  1.00  0.00    -0.544 OA
ENDBRANCH   2   7
ENDBRANCH   1   2
BRANCH   1  10
ATOM     10  C   UNL     1     -30.461  -2.902  -6.875  1.00  0.00     0.076 C 
BRANCH  10  11
ATOM     11  S   UNL     1     -30.885  -3.006  -8.654  1.00  0.00    -0.165 SA
ATOM     12  C   UNL     1     -31.959  -1.534  -8.686  1.00  0.00     0.085 C 
ENDBRANCH  10  11
ENDBRANCH   1  10
TORSDOF 5
ENDMDL
MODEL 6
REMARK VINA RESULT:    -3.474     18.389     19.097
REMARK INTER + INTRA:          -4.441
REMARK INTER:                  -4.367
REMARK INTRA:                  -0.074
REMARK UNBOUND:                -0.053
REMARK SMILES CSCC[C@H]([NH3+])C(=O)[O-]
REMARK SMILES IDX 4 1 5 2 6 3 7 7 8 8 9 9 3 10 2 11 1 12
REMARK H PARENT 6 4 6 5 6 6
REMARK Flexibility Score: inf
ROOT
ATOM      1  C   UNL     1     -42.179   2.650  -1.925  1.00  0.00     0.082 C 
ENDROOT
BRANCH   1   2
ATOM      2  C   UNL     1     -42.911   3.024  -0.615  1.00  0.00     0.228 C 
BRANCH   2   3
ATOM      3  N   UNL     1     -43.853   4.125  -0.852  1.00  0.00    -0.350 N 
ATOM      4  H   UNL     1     -43.391   4.901  -1.381  1.00  0.00     0.345 HD
ATOM      5  H   UNL     1     -44.207   4.494   0.061  1.00  0.00     0.345 HD
ATOM      6  H   UNL     1     -44.672   3.778  -1.402  1.00  0.00     0.345 HD
ENDBRANCH   2   3
BRANCH   2   7
ATOM      7  C   UNL     1     -41.934   3.404   0.468  1.00  0.00     0.099 C 
ATOM      8  O   UNL     1     -40.912   4.087   0.197  1.00  0.00    -0.544 OA
ATOM      9  O   UNL     1     -42.153   2.989   1.776  1.00  0.00    -0.544 OA
ENDBRANCH   2   7
ENDBRANCH   1   2
BRANCH   1  10
ATOM     10  C   UNL     1     -43.128   2.331  -3.090  1.00  0.00     0.076 C 
BRANCH  10  11
ATOM     11  S   UNL     1     -42.924   3.501  -4.484  1.00  0.00    -0.165 SA
ATOM     12  C   UNL     1     -44.437   3.011  -5.375  1.00  0.00     0.085 C 
ENDBRANCH  10  11
ENDBRANCH   1  10
TORSDOF 5
ENDMDL
MODEL 7
REMARK VINA RESULT:    -3.459     18.332     18.926
REMARK INTER + INTRA:          -4.422
REMARK INTER:                  -4.346
REMARK INTRA:                  -0.076
REMARK UNBOUND:                -0.053
REMARK SMILES CSCC[C@H]([NH3+])C(=O)[O-]
REMARK SMILES IDX 4 1 5 2 6 3 7 7 8 8 9 9 3 10 2 11 1 12
REMARK H PARENT 6 4 6 5 6 6
REMARK Flexibility Score: inf
ROOT
ATOM      1  C   UNL     1     -41.656   3.007  -0.706  1.00  0.00     0.082 C 
ENDROOT
BRANCH   1   2
ATOM      2  C   UNL     1     -42.609   3.512  -1.813  1.00  0.00     0.228 C 
BRANCH   2   3
ATOM      3  N   UNL     1     -43.805   4.122  -1.219  1.00  0.00    -0.350 N 
ATOM      4  H   UNL     1     -44.587   3.428  -1.165  1.00  0.00     0.345 HD
ATOM      5  H   UNL     1     -44.112   4.941  -1.794  1.00  0.00     0.345 HD
ATOM      6  H   UNL     1     -43.587   4.465  -0.255  1.00  0.00     0.345 HD
ENDBRANCH   2   3
BRANCH   2   7
ATOM      7  C   UNL     1     -43.006   2.396  -2.745  1.00  0.00     0.099 C 
ATOM      8  O   UNL     1     -42.978   2.565  -3.993  1.00  0.00    -0.544 OA
ATOM      9  O   UNL     1     -43.418   1.174  -2.228  1.00  0.00    -0.544 OA
ENDBRANCH   2   7
ENDBRANCH   1   2
BRANCH   1  10
ATOM     10  C   UNL     1     -40.732   4.099  -0.144  1.00  0.00     0.076 C 
BRANCH  10  11
ATOM     11  S   UNL     1     -40.730   4.124   1.687  1.00  0.00    -0.165 SA
ATOM     12  C   UNL     1     -42.371   3.358   1.896  1.00  0.00     0.085 C 
ENDBRANCH  10  11
ENDBRANCH   1  10
TORSDOF 5
ENDMDL
MODEL 8
REMARK VINA RESULT:    -3.391      4.026      4.872
REMARK INTER + INTRA:          -4.336
REMARK INTER:                  -4.383
REMARK INTRA:                   0.047
REMARK UNBOUND:                -0.053
REMARK SMILES CSCC[C@H]([NH3+])C(=O)[O-]
REMARK SMILES IDX 4 1 5 2 6 3 7 7 8 8 9 9 3 10 2 11 1 12
REMARK H PARENT 6 4 6 5 6 6
REMARK Flexibility Score: inf
ROOT
ATOM      1  C   UNL     1     -31.664  -9.528   5.377  1.00  0.00     0.082 C 
ENDROOT
BRANCH   1   2
ATOM      2  C   UNL     1     -31.752  -8.497   4.229  1.00  0.00     0.228 C 
BRANCH   2   3
ATOM      3  N   UNL     1     -33.155  -8.173   3.940  1.00  0.00    -0.350 N 
ATOM      4  H   UNL     1     -33.565  -7.588   4.705  1.00  0.00     0.345 HD
ATOM      5  H   UNL     1     -33.712  -9.054   3.844  1.00  0.00     0.345 HD
ATOM      6  H   UNL     1     -33.218  -7.648   3.038  1.00  0.00     0.345 HD
ENDBRANCH   2   3
BRANCH   2   7
ATOM      7  C   UNL     1     -31.071  -9.005   2.984  1.00  0.00     0.099 C 
ATOM      8  O   UNL     1     -29.875  -9.396   3.024  1.00  0.00    -0.544 OA
ATOM      9  O   UNL     1     -31.761  -9.033   1.778  1.00  0.00    -0.544 OA
ENDBRANCH   2   7
ENDBRANCH   1   2
BRANCH   1  10
ATOM     10  C   UNL     1     -30.397  -9.385   6.236  1.00  0.00     0.076 C 
BRANCH  10  11
ATOM     11  S   UNL     1     -30.626 -10.068   7.920  1.00  0.00    -0.165 SA
ATOM     12  C   UNL     1     -30.746 -11.813   7.410  1.00  0.00     0.085 C 
ENDBRANCH  10  11
ENDBRANCH   1  10
TORSDOF 5
ENDMDL
MODEL 9
REMARK VINA RESULT:    -3.292     17.668     18.456
REMARK INTER + INTRA:          -4.210
REMARK INTER:                  -4.169
REMARK INTRA:                  -0.041
REMARK UNBOUND:                -0.053
REMARK SMILES CSCC[C@H]([NH3+])C(=O)[O-]
REMARK SMILES IDX 4 1 5 2 6 3 7 7 8 8 9 9 3 10 2 11 1 12
REMARK H PARENT 6 4 6 5 6 6
REMARK Flexibility Score: inf
ROOT
ATOM      1  C   UNL     1     -42.322   2.857  -0.875  1.00  0.00     0.082 C 
ENDROOT
BRANCH   1   2
ATOM      2  C   UNL     1     -41.764   3.823   0.195  1.00  0.00     0.228 C 
BRANCH   2   3
ATOM      3  N   UNL     1     -40.297   3.858   0.137  1.00  0.00    -0.350 N 
ATOM      4  H   UNL     1     -39.958   4.823  -0.084  1.00  0.00     0.345 HD
ATOM      5  H   UNL     1     -39.954   3.197  -0.598  1.00  0.00     0.345 HD
ATOM      6  H   UNL     1     -39.899   3.558   1.056  1.00  0.00     0.345 HD
ENDBRANCH   2   3
BRANCH   2   7
ATOM      7  C   UNL     1     -42.218   3.430   1.577  1.00  0.00     0.099 C 
ATOM      8  O   UNL     1     -43.069   4.125   2.192  1.00  0.00    -0.544 OA
ATOM      9  O   UNL     1     -41.688   2.299   2.186  1.00  0.00    -0.544 OA
ENDBRANCH   2   7
ENDBRANCH   1   2
BRANCH   1  10
ATOM     10  C   UNL     1     -42.639   3.539  -2.215  1.00  0.00     0.076 C 
BRANCH  10  11
ATOM     11  S   UNL     1     -42.981   2.324  -3.542  1.00  0.00    -0.165 SA
ATOM     12  C   UNL     1     -42.960   3.522  -4.915  1.00  0.00     0.085 C 
ENDBRANCH  10  11
ENDBRANCH   1  10
TORSDOF 5
ENDMDL
