MODEL 1
REMARK VINA RESULT:    -5.372      0.000      0.000
REMARK INTER + INTRA:         -11.080
REMARK INTER:                  -8.513
REMARK INTRA:                  -2.567
REMARK UNBOUND:                -2.567
REMARK SMILES C[C@@H]1O[C@@H](O[C@H]2[C@@H](Oc3cc(O)c4c(c3)O[C@@H](c3ccc(O)cc3)CC4=O)O[C@@H](CO)[C@@H](O)[C@@H]2O)[C@H](O)[C@H](O)[C@H]1O
REMARK SMILES IDX 6 1 34 2 32 3 29 4 28 5 7 6 5 7 4 8 1 9 2 10 40 11 3 12
REMARK SMILES IDX 38 13 36 14 41 15 39 17 37 19 35 21 8 23 9 24 10 25 15 26
REMARK SMILES IDX 11 27 14 28 13 29 16 30 26 31 17 32 27 33 25 34 12 35 18 37
REMARK SMILES IDX 19 38 24 39 20 40 23 41 21 42 22 43 33 45 30 47 31 48
REMARK H PARENT 41 16 39 18 37 20 35 22 12 36 22 44 33 46 31 49
REMARK Flexibility Score: inf
ROOT
ATOM      1  C   UNL     1     140.004 131.516 120.384  1.00  0.00     0.221 C 
ATOM      2  C   UNL     1     138.755 132.175 119.785  1.00  0.00     0.181 C 
ATOM      3  C   UNL     1     137.922 131.117 119.042  1.00  0.00     0.177 C 
ATOM      4  C   UNL     1     137.667 129.869 119.927  1.00  0.00     0.179 C 
ATOM      5  O   UNL     1     138.843 129.373 120.563  1.00  0.00    -0.332 OA
ATOM      6  C   UNL     1     139.572 130.350 121.296  1.00  0.00     0.339 C 
ENDROOT
BRANCH   1   7
ATOM      7  O   UNL     1     140.736 132.494 121.112  1.00  0.00    -0.337 OA
BRANCH   7   8
ATOM      8  C   UNL     1     142.131 132.207 121.134  1.00  0.00     0.282 C 
ATOM      9  C   UNL     1     142.769 132.586 124.749  1.00  0.00     0.041 C 
ATOM     10  C   UNL     1     142.345 133.011 123.342  1.00  0.00     0.150 C 
ATOM     11  C   UNL     1     143.152 134.253 122.895  1.00  0.00     0.174 C 
ATOM     12  O   UNL     1     142.557 131.916 122.458  1.00  0.00    -0.344 OA
ATOM     13  C   UNL     1     142.792 134.610 121.447  1.00  0.00     0.179 C 
ATOM     14  C   UNL     1     142.955 133.377 120.546  1.00  0.00     0.202 C 
BRANCH  11  15
ATOM     15  O   UNL     1     142.845 135.346 123.725  1.00  0.00    -0.388 OA
ATOM     16  H   UNL     1     142.927 135.037 124.665  1.00  0.00     0.211 HD
ENDBRANCH  11  15
BRANCH  13  17
ATOM     17  O   UNL     1     143.611 135.660 121.000  1.00  0.00    -0.387 OA
ATOM     18  H   UNL     1     144.350 135.245 120.484  1.00  0.00     0.211 HD
ENDBRANCH  13  17
BRANCH  14  19
ATOM     19  O   UNL     1     144.309 133.001 120.470  1.00  0.00    -0.385 OA
ATOM     20  H   UNL     1     144.641 132.913 121.402  1.00  0.00     0.211 HD
ENDBRANCH  14  19
ENDBRANCH   7   8
ENDBRANCH   1   7
BRANCH   2  21
ATOM     21  O   UNL     1     139.124 133.229 118.929  1.00  0.00    -0.387 OA
ATOM     22  H   UNL     1     138.511 133.210 118.145  1.00  0.00     0.211 HD
ENDBRANCH   2  21
BRANCH   6  23
ATOM     23  O   UNL     1     138.808 130.809 122.420  1.00  0.00    -0.462 OA
BRANCH  23  24
ATOM     24  C   UNL     1     139.069 130.526 123.772  1.00  0.00     0.130 A 
ATOM     25  C   UNL     1     139.224 131.530 124.742  1.00  0.00     0.093 A 
ATOM     26  C   UNL     1     139.197 129.189 124.150  1.00  0.00     0.094 A 
ATOM     27  C   UNL     1     139.479 131.199 126.080  1.00  0.00     0.133 A 
ATOM     28  C   UNL     1     139.444 128.844 125.481  1.00  0.00     0.138 A 
ATOM     29  C   UNL     1     139.572 129.842 126.460  1.00  0.00     0.102 A 
ATOM     30  O   UNL     1     139.551 127.493 125.821  1.00  0.00    -0.484 OA
ATOM     31  C   UNL     1     139.773 129.421 127.865  1.00  0.00     0.174 C 
ATOM     32  C   UNL     1     140.066 127.027 127.070  1.00  0.00     0.211 C 
ATOM     33  O   UNL     1     139.977 130.270 128.774  1.00  0.00    -0.294 OA
ATOM     34  C   UNL     1     139.686 127.966 128.238  1.00  0.00     0.131 C 
BRANCH  27  35
ATOM     35  O   UNL     1     139.633 132.217 127.023  1.00  0.00    -0.507 OA
ATOM     36  H   UNL     1     139.554 132.044 128.019  1.00  0.00     0.293 HD
ENDBRANCH  27  35
BRANCH  32  37
ATOM     37  C   UNL     1     141.556 126.758 126.946  1.00  0.00    -0.007 A 
ATOM     38  C   UNL     1     142.460 127.053 127.986  1.00  0.00     0.011 A 
ATOM     39  C   UNL     1     142.067 126.258 125.735  1.00  0.00     0.011 A 
ATOM     40  C   UNL     1     143.828 126.810 127.828  1.00  0.00     0.046 A 
ATOM     41  C   UNL     1     143.435 126.029 125.575  1.00  0.00     0.046 A 
ATOM     42  C   UNL     1     144.320 126.305 126.618  1.00  0.00     0.115 A 
BRANCH  42  43
ATOM     43  O   UNL     1     145.683 126.075 126.442  1.00  0.00    -0.508 OA
ATOM     44  H   UNL     1     146.173 126.387 125.611  1.00  0.00     0.293 HD
ENDBRANCH  42  43
ENDBRANCH  32  37
ENDBRANCH  23  24
ENDBRANCH   6  23
BRANCH   3  45
ATOM     45  O   UNL     1     136.700 131.670 118.611  1.00  0.00    -0.387 OA
ATOM     46  H   UNL     1     136.128 131.776 119.419  1.00  0.00     0.211 HD
ENDBRANCH   3  45
BRANCH   4  47
ATOM     47  C   UNL     1     136.484 130.004 120.906  1.00  0.00     0.191 C 
BRANCH  47  48
ATOM     48  O   UNL     1     136.449 128.909 121.783  1.00  0.00    -0.394 OA
ATOM     49  H   UNL     1     137.238 129.006 122.379  1.00  0.00     0.210 HD
ENDBRANCH  47  48
ENDBRANCH   4  47
TORSDOF 14
ENDMDL
MODEL 2
REMARK VINA RESULT:    -5.339      1.786      5.231
REMARK INTER + INTRA:         -11.027
REMARK INTER:                  -8.775
REMARK INTRA:                  -2.253
REMARK UNBOUND:                -2.567
REMARK SMILES C[C@@H]1O[C@@H](O[C@H]2[C@@H](Oc3cc(O)c4c(c3)O[C@@H](c3ccc(O)cc3)CC4=O)O[C@@H](CO)[C@@H](O)[C@@H]2O)[C@H](O)[C@H](O)[C@H]1O
REMARK SMILES IDX 6 1 34 2 32 3 29 4 28 5 7 6 5 7 4 8 1 9 2 10 40 11 3 12
REMARK SMILES IDX 38 13 36 14 41 15 39 17 37 19 35 21 8 23 9 24 10 25 15 26
REMARK SMILES IDX 11 27 14 28 13 29 16 30 26 31 17 32 27 33 25 34 12 35 18 37
REMARK SMILES IDX 19 38 24 39 20 40 23 41 21 42 22 43 33 45 30 47 31 48
REMARK H PARENT 41 16 39 18 37 20 35 22 12 36 22 44 33 46 31 49
REMARK Flexibility Score: inf
ROOT
ATOM      1  C   UNL     1     138.062 131.336 120.064  1.00  0.00     0.221 C 
ATOM      2  C   UNL     1     139.343 131.402 119.223  1.00  0.00     0.181 C 
ATOM      3  C   UNL     1     139.990 132.789 119.378  1.00  0.00     0.177 C 
ATOM      4  C   UNL     1     140.143 133.181 120.871  1.00  0.00     0.179 C 
ATOM      5  O   UNL     1     138.958 132.979 121.637  1.00  0.00    -0.332 OA
ATOM      6  C   UNL     1     138.403 131.674 121.530  1.00  0.00     0.339 C 
ENDROOT
BRANCH   1   7
ATOM      7  O   UNL     1     137.505 130.034 119.952  1.00  0.00    -0.337 OA
BRANCH   7   8
ATOM      8  C   UNL     1     136.129 130.010 120.324  1.00  0.00     0.282 C 
ATOM      9  C   UNL     1     136.242 127.354 122.884  1.00  0.00     0.041 C 
ATOM     10  C   UNL     1     136.397 127.980 121.497  1.00  0.00     0.150 C 
ATOM     11  C   UNL     1     135.578 127.180 120.457  1.00  0.00     0.174 C 
ATOM     12  O   UNL     1     135.962 129.333 121.563  1.00  0.00    -0.344 OA
ATOM     13  C   UNL     1     135.660 127.872 119.090  1.00  0.00     0.179 C 
ATOM     14  C   UNL     1     135.262 129.350 119.226  1.00  0.00     0.202 C 
BRANCH  11  15
ATOM     15  O   UNL     1     136.095 125.877 120.341  1.00  0.00    -0.388 OA
ATOM     16  H   UNL     1     135.542 125.396 119.671  1.00  0.00     0.211 HD
ENDBRANCH  11  15
BRANCH  13  17
ATOM     17  O   UNL     1     134.819 127.217 118.176  1.00  0.00    -0.387 OA
ATOM     18  H   UNL     1     134.468 127.913 117.562  1.00  0.00     0.211 HD
ENDBRANCH  13  17
BRANCH  14  19
ATOM     19  O   UNL     1     133.904 129.462 119.576  1.00  0.00    -0.385 OA
ATOM     20  H   UNL     1     133.643 128.608 120.011  1.00  0.00     0.211 HD
ENDBRANCH  14  19
ENDBRANCH   7   8
ENDBRANCH   1   7
BRANCH   2  21
ATOM     21  O   UNL     1     139.055 131.121 117.874  1.00  0.00    -0.387 OA
ATOM     22  H   UNL     1     139.329 131.912 117.335  1.00  0.00     0.211 HD
ENDBRANCH   2  21
BRANCH   6  23
ATOM     23  O   UNL     1     139.288 130.703 122.107  1.00  0.00    -0.462 OA
BRANCH  23  24
ATOM     24  C   UNL     1     139.241 130.218 123.426  1.00  0.00     0.130 A 
ATOM     25  C   UNL     1     138.969 131.045 124.530  1.00  0.00     0.093 A 
ATOM     26  C   UNL     1     139.496 128.864 123.637  1.00  0.00     0.094 A 
ATOM     27  C   UNL     1     138.927 130.515 125.826  1.00  0.00     0.133 A 
ATOM     28  C   UNL     1     139.452 128.320 124.923  1.00  0.00     0.138 A 
ATOM     29  C   UNL     1     139.153 129.135 126.026  1.00  0.00     0.102 A 
ATOM     30  O   UNL     1     139.699 126.955 125.090  1.00  0.00    -0.484 OA
ATOM     31  C   UNL     1     139.059 128.498 127.360  1.00  0.00     0.174 C 
ATOM     32  C   UNL     1     139.951 126.343 126.357  1.00  0.00     0.211 C 
ATOM     33  O   UNL     1     138.875 129.190 128.397  1.00  0.00    -0.294 OA
ATOM     34  C   UNL     1     139.131 127.001 127.490  1.00  0.00     0.131 C 
BRANCH  27  35
ATOM     35  O   UNL     1     138.659 131.359 126.906  1.00  0.00    -0.507 OA
ATOM     36  H   UNL     1     137.905 131.174 127.558  1.00  0.00     0.293 HD
ENDBRANCH  27  35
BRANCH  32  37
ATOM     37  C   UNL     1     141.447 126.294 126.617  1.00  0.00    -0.007 A 
ATOM     38  C   UNL     1     141.993 126.532 127.894  1.00  0.00     0.011 A 
ATOM     39  C   UNL     1     142.326 126.068 125.544  1.00  0.00     0.011 A 
ATOM     40  C   UNL     1     143.377 126.498 128.093  1.00  0.00     0.046 A 
ATOM     41  C   UNL     1     143.708 126.048 125.741  1.00  0.00     0.046 A 
ATOM     42  C   UNL     1     144.238 126.265 127.014  1.00  0.00     0.115 A 
BRANCH  42  43
ATOM     43  O   UNL     1     145.620 126.245 127.195  1.00  0.00    -0.508 OA
ATOM     44  H   UNL     1     146.149 127.096 127.344  1.00  0.00     0.293 HD
ENDBRANCH  42  43
ENDBRANCH  32  37
ENDBRANCH  23  24
ENDBRANCH   6  23
BRANCH   3  45
ATOM     45  O   UNL     1     141.242 132.820 118.732  1.00  0.00    -0.387 OA
ATOM     46  H   UNL     1     141.162 132.258 117.915  1.00  0.00     0.211 HD
ENDBRANCH   3  45
BRANCH   4  47
ATOM     47  C   UNL     1     141.394 132.603 121.564  1.00  0.00     0.191 C 
BRANCH  47  48
ATOM     48  O   UNL     1     141.762 131.387 120.970  1.00  0.00    -0.394 OA
ATOM     49  H   UNL     1     142.479 131.602 120.317  1.00  0.00     0.210 HD
ENDBRANCH  47  48
ENDBRANCH   4  47
TORSDOF 14
ENDMDL
MODEL 3
REMARK VINA RESULT:    -5.257      3.880      8.121
REMARK INTER + INTRA:         -10.897
REMARK INTER:                  -8.253
REMARK INTRA:                  -2.644
REMARK UNBOUND:                -2.567
REMARK SMILES C[C@@H]1O[C@@H](O[C@H]2[C@@H](Oc3cc(O)c4c(c3)O[C@@H](c3ccc(O)cc3)CC4=O)O[C@@H](CO)[C@@H](O)[C@@H]2O)[C@H](O)[C@H](O)[C@H]1O
REMARK SMILES IDX 6 1 34 2 32 3 29 4 28 5 7 6 5 7 4 8 1 9 2 10 40 11 3 12
REMARK SMILES IDX 38 13 36 14 41 15 39 17 37 19 35 21 8 23 9 24 10 25 15 26
REMARK SMILES IDX 11 27 14 28 13 29 16 30 26 31 17 32 27 33 25 34 12 35 18 37
REMARK SMILES IDX 19 38 24 39 20 40 23 41 21 42 22 43 33 45 30 47 31 48
REMARK H PARENT 41 16 39 18 37 20 35 22 12 36 22 44 33 46 31 49
REMARK Flexibility Score: inf
ROOT
ATOM      1  C   UNL     1     140.218 133.199 121.944  1.00  0.00     0.221 C 
ATOM      2  C   UNL     1     139.823 134.468 121.179  1.00  0.00     0.181 C 
ATOM      3  C   UNL     1     140.989 134.909 120.279  1.00  0.00     0.177 C 
ATOM      4  C   UNL     1     141.514 133.735 119.411  1.00  0.00     0.179 C 
ATOM      5  O   UNL     1     141.743 132.538 120.152  1.00  0.00    -0.332 OA
ATOM      6  C   UNL     1     140.635 132.110 120.934  1.00  0.00     0.339 C 
ENDROOT
BRANCH   1   7
ATOM      7  O   UNL     1     139.113 132.773 122.731  1.00  0.00    -0.337 OA
BRANCH   7   8
ATOM      8  C   UNL     1     139.530 132.062 123.893  1.00  0.00     0.282 C 
ATOM      9  C   UNL     1     137.058 129.322 123.845  1.00  0.00     0.041 C 
ATOM     10  C   UNL     1     137.558 130.767 123.908  1.00  0.00     0.150 C 
ATOM     11  C   UNL     1     137.017 131.462 125.180  1.00  0.00     0.174 C 
ATOM     12  O   UNL     1     138.980 130.751 123.897  1.00  0.00    -0.344 OA
ATOM     13  C   UNL     1     137.603 132.875 125.286  1.00  0.00     0.179 C 
ATOM     14  C   UNL     1     139.135 132.817 125.185  1.00  0.00     0.202 C 
BRANCH  11  15
ATOM     15  O   UNL     1     135.615 131.552 125.115  1.00  0.00    -0.388 OA
ATOM     16  H   UNL     1     135.387 132.051 124.288  1.00  0.00     0.211 HD
ENDBRANCH  11  15
BRANCH  13  17
ATOM     17  O   UNL     1     137.211 133.461 126.500  1.00  0.00    -0.387 OA
ATOM     18  H   UNL     1     137.964 133.334 127.135  1.00  0.00     0.211 HD
ENDBRANCH  13  17
BRANCH  14  19
ATOM     19  O   UNL     1     139.675 132.147 126.298  1.00  0.00    -0.385 OA
ATOM     20  H   UNL     1     139.192 131.284 126.382  1.00  0.00     0.211 HD
ENDBRANCH  14  19
ENDBRANCH   7   8
ENDBRANCH   1   7
BRANCH   2  21
ATOM     21  O   UNL     1     139.459 135.486 122.080  1.00  0.00    -0.387 OA
ATOM     22  H   UNL     1     140.134 136.214 122.002  1.00  0.00     0.211 HD
ENDBRANCH   2  21
BRANCH   6  23
ATOM     23  O   UNL     1     139.544 131.721 120.090  1.00  0.00    -0.462 OA
BRANCH  23  24
ATOM     24  C   UNL     1     138.755 130.566 120.233  1.00  0.00     0.130 A 
ATOM     25  C   UNL     1     139.282 129.332 120.649  1.00  0.00     0.093 A 
ATOM     26  C   UNL     1     137.397 130.657 119.928  1.00  0.00     0.094 A 
ATOM     27  C   UNL     1     138.455 128.209 120.783  1.00  0.00     0.133 A 
ATOM     28  C   UNL     1     136.558 129.548 120.062  1.00  0.00     0.138 A 
ATOM     29  C   UNL     1     137.074 128.320 120.505  1.00  0.00     0.102 A 
ATOM     30  O   UNL     1     135.201 129.685 119.760  1.00  0.00    -0.484 OA
ATOM     31  C   UNL     1     136.132 127.192 120.688  1.00  0.00     0.174 C 
ATOM     32  C   UNL     1     134.309 128.580 119.595  1.00  0.00     0.211 C 
ATOM     33  O   UNL     1     136.548 126.045 121.003  1.00  0.00    -0.294 OA
ATOM     34  C   UNL     1     134.651 127.414 120.550  1.00  0.00     0.131 C 
BRANCH  27  35
ATOM     35  O   UNL     1     139.005 126.994 121.194  1.00  0.00    -0.507 OA
ATOM     36  H   UNL     1     139.691 126.939 121.939  1.00  0.00     0.293 HD
ENDBRANCH  27  35
BRANCH  32  37
ATOM     37  C   UNL     1     134.242 128.187 118.129  1.00  0.00    -0.007 A 
ATOM     38  C   UNL     1     134.615 129.072 117.098  1.00  0.00     0.011 A 
ATOM     39  C   UNL     1     133.733 126.924 117.777  1.00  0.00     0.011 A 
ATOM     40  C   UNL     1     134.521 128.682 115.759  1.00  0.00     0.046 A 
ATOM     41  C   UNL     1     133.628 126.542 116.439  1.00  0.00     0.046 A 
ATOM     42  C   UNL     1     134.018 127.418 115.425  1.00  0.00     0.115 A 
BRANCH  42  43
ATOM     43  O   UNL     1     133.904 127.024 114.093  1.00  0.00    -0.508 OA
ATOM     44  H   UNL     1     133.819 126.048 113.833  1.00  0.00     0.293 HD
ENDBRANCH  42  43
ENDBRANCH  32  37
ENDBRANCH  23  24
ENDBRANCH   6  23
BRANCH   3  45
ATOM     45  O   UNL     1     140.595 135.986 119.459  1.00  0.00    -0.387 OA
ATOM     46  H   UNL     1     139.643 136.181 119.673  1.00  0.00     0.211 HD
ENDBRANCH   3  45
BRANCH   4  47
ATOM     47  C   UNL     1     140.712 133.480 118.119  1.00  0.00     0.191 C 
BRANCH  47  48
ATOM     48  O   UNL     1     141.061 132.239 117.566  1.00  0.00    -0.394 OA
ATOM     49  H   UNL     1     141.783 131.872 118.141  1.00  0.00     0.210 HD
ENDBRANCH  47  48
ENDBRANCH   4  47
TORSDOF 14
ENDMDL
MODEL 4
REMARK VINA RESULT:    -5.133      1.931      3.039
REMARK INTER + INTRA:         -10.701
REMARK INTER:                  -8.319
REMARK INTRA:                  -2.382
REMARK UNBOUND:                -2.567
REMARK SMILES C[C@@H]1O[C@@H](O[C@H]2[C@@H](Oc3cc(O)c4c(c3)O[C@@H](c3ccc(O)cc3)CC4=O)O[C@@H](CO)[C@@H](O)[C@@H]2O)[C@H](O)[C@H](O)[C@H]1O
REMARK SMILES IDX 6 1 34 2 32 3 29 4 28 5 7 6 5 7 4 8 1 9 2 10 40 11 3 12
REMARK SMILES IDX 38 13 36 14 41 15 39 17 37 19 35 21 8 23 9 24 10 25 15 26
REMARK SMILES IDX 11 27 14 28 13 29 16 30 26 31 17 32 27 33 25 34 12 35 18 37
REMARK SMILES IDX 19 38 24 39 20 40 23 41 21 42 22 43 33 45 30 47 31 48
REMARK H PARENT 41 16 39 18 37 20 35 22 12 36 22 44 33 46 31 49
REMARK Flexibility Score: inf
ROOT
ATOM      1  C   UNL     1     137.308 129.639 120.142  1.00  0.00     0.221 C 
ATOM      2  C   UNL     1     135.801 129.374 120.032  1.00  0.00     0.181 C 
ATOM      3  C   UNL     1     135.563 127.898 119.672  1.00  0.00     0.177 C 
ATOM      4  C   UNL     1     136.347 126.949 120.617  1.00  0.00     0.179 C 
ATOM      5  O   UNL     1     137.715 127.316 120.785  1.00  0.00    -0.332 OA
ATOM      6  C   UNL     1     137.916 128.669 121.176  1.00  0.00     0.339 C 
ENDROOT
BRANCH   1   7
ATOM      7  O   UNL     1     137.511 130.992 120.526  1.00  0.00    -0.337 OA
BRANCH   7   8
ATOM      8  C   UNL     1     138.296 131.704 119.574  1.00  0.00     0.282 C 
ATOM      9  C   UNL     1     141.548 131.660 121.319  1.00  0.00     0.041 C 
ATOM     10  C   UNL     1     140.065 131.974 121.112  1.00  0.00     0.150 C 
ATOM     11  C   UNL     1     139.818 133.495 121.249  1.00  0.00     0.174 C 
ATOM     12  O   UNL     1     139.681 131.505 119.825  1.00  0.00    -0.344 OA
ATOM     13  C   UNL     1     138.349 133.811 120.942  1.00  0.00     0.179 C 
ATOM     14  C   UNL     1     137.957 133.214 119.582  1.00  0.00     0.202 C 
BRANCH  11  15
ATOM     15  O   UNL     1     140.111 133.910 122.560  1.00  0.00    -0.388 OA
ATOM     16  H   UNL     1     140.208 134.898 122.544  1.00  0.00     0.211 HD
ENDBRANCH  11  15
BRANCH  13  17
ATOM     17  O   UNL     1     138.152 135.201 120.945  1.00  0.00    -0.387 OA
ATOM     18  H   UNL     1     138.925 135.600 120.468  1.00  0.00     0.211 HD
ENDBRANCH  13  17
BRANCH  14  19
ATOM     19  O   UNL     1     138.659 133.854 118.544  1.00  0.00    -0.385 OA
ATOM     20  H   UNL     1     138.130 134.653 118.283  1.00  0.00     0.211 HD
ENDBRANCH  14  19
ENDBRANCH   7   8
ENDBRANCH   1   7
BRANCH   2  21
ATOM     21  O   UNL     1     135.225 130.232 119.076  1.00  0.00    -0.387 OA
ATOM     22  H   UNL     1     134.559 130.804 119.545  1.00  0.00     0.211 HD
ENDBRANCH   2  21
BRANCH   6  23
ATOM     23  O   UNL     1     137.393 128.896 122.491  1.00  0.00    -0.462 OA
BRANCH  23  24
ATOM     24  C   UNL     1     138.122 129.338 123.609  1.00  0.00     0.130 A 
ATOM     25  C   UNL     1     138.611 130.649 123.727  1.00  0.00     0.093 A 
ATOM     26  C   UNL     1     138.380 128.421 124.628  1.00  0.00     0.094 A 
ATOM     27  C   UNL     1     139.329 131.045 124.864  1.00  0.00     0.133 A 
ATOM     28  C   UNL     1     139.088 128.802 125.770  1.00  0.00     0.138 A 
ATOM     29  C   UNL     1     139.556 130.120 125.906  1.00  0.00     0.102 A 
ATOM     30  O   UNL     1     139.314 127.858 126.774  1.00  0.00    -0.484 OA
ATOM     31  C   UNL     1     140.248 130.489 127.162  1.00  0.00     0.174 C 
ATOM     32  C   UNL     1     140.243 128.043 127.845  1.00  0.00     0.211 C 
ATOM     33  O   UNL     1     140.761 131.631 127.308  1.00  0.00    -0.294 OA
ATOM     34  C   UNL     1     140.304 129.516 128.309  1.00  0.00     0.131 C 
BRANCH  27  35
ATOM     35  O   UNL     1     139.808 132.354 124.954  1.00  0.00    -0.507 OA
ATOM     36  H   UNL     1     140.641 132.657 124.460  1.00  0.00     0.293 HD
ENDBRANCH  27  35
BRANCH  32  37
ATOM     37  C   UNL     1     141.590 127.453 127.465  1.00  0.00    -0.007 A 
ATOM     38  C   UNL     1     142.713 127.543 128.312  1.00  0.00     0.011 A 
ATOM     39  C   UNL     1     141.749 126.850 126.204  1.00  0.00     0.011 A 
ATOM     40  C   UNL     1     143.943 127.004 127.921  1.00  0.00     0.046 A 
ATOM     41  C   UNL     1     142.981 126.326 125.810  1.00  0.00     0.046 A 
ATOM     42  C   UNL     1     144.082 126.402 126.664  1.00  0.00     0.115 A 
BRANCH  42  43
ATOM     43  O   UNL     1     145.306 125.877 126.256  1.00  0.00    -0.508 OA
ATOM     44  H   UNL     1     145.408 125.389 125.373  1.00  0.00     0.293 HD
ENDBRANCH  42  43
ENDBRANCH  32  37
ENDBRANCH  23  24
ENDBRANCH   6  23
BRANCH   3  45
ATOM     45  O   UNL     1     134.186 127.600 119.711  1.00  0.00    -0.387 OA
ATOM     46  H   UNL     1     133.713 128.443 119.947  1.00  0.00     0.211 HD
ENDBRANCH   3  45
BRANCH   4  47
ATOM     47  C   UNL     1     135.649 126.656 121.960  1.00  0.00     0.191 C 
BRANCH  47  48
ATOM     48  O   UNL     1     136.521 125.980 122.825  1.00  0.00    -0.394 OA
ATOM     49  H   UNL     1     136.080 125.118 123.048  1.00  0.00     0.210 HD
ENDBRANCH  47  48
ENDBRANCH   4  47
TORSDOF 14
ENDMDL
MODEL 5
REMARK VINA RESULT:    -4.984     10.980     13.850
REMARK INTER + INTRA:         -10.465
REMARK INTER:                  -7.825
REMARK INTRA:                  -2.641
REMARK UNBOUND:                -2.567
REMARK SMILES C[C@@H]1O[C@@H](O[C@H]2[C@@H](Oc3cc(O)c4c(c3)O[C@@H](c3ccc(O)cc3)CC4=O)O[C@@H](CO)[C@@H](O)[C@@H]2O)[C@H](O)[C@H](O)[C@H]1O
REMARK SMILES IDX 6 1 34 2 32 3 29 4 28 5 7 6 5 7 4 8 1 9 2 10 40 11 3 12
REMARK SMILES IDX 38 13 36 14 41 15 39 17 37 19 35 21 8 23 9 24 10 25 15 26
REMARK SMILES IDX 11 27 14 28 13 29 16 30 26 31 17 32 27 33 25 34 12 35 18 37
REMARK SMILES IDX 19 38 24 39 20 40 23 41 21 42 22 43 33 45 30 47 31 48
REMARK H PARENT 41 16 39 18 37 20 35 22 12 36 22 44 33 46 31 49
REMARK Flexibility Score: inf
ROOT
ATOM      1  C   UNL     1     137.701 141.086 115.471  1.00  0.00     0.221 C 
ATOM      2  C   UNL     1     138.754 140.173 114.833  1.00  0.00     0.181 C 
ATOM      3  C   UNL     1     139.999 141.000 114.468  1.00  0.00     0.177 C 
ATOM      4  C   UNL     1     140.485 141.854 115.668  1.00  0.00     0.179 C 
ATOM      5  O   UNL     1     139.441 142.586 116.307  1.00  0.00    -0.332 OA
ATOM      6  C   UNL     1     138.321 141.798 116.691  1.00  0.00     0.339 C 
ENDROOT
BRANCH   1   7
ATOM      7  O   UNL     1     136.579 140.300 115.850  1.00  0.00    -0.337 OA
BRANCH   7   8
ATOM      8  C   UNL     1     135.505 141.103 116.333  1.00  0.00     0.282 C 
ATOM      9  C   UNL     1     134.248 138.886 119.003  1.00  0.00     0.041 C 
ATOM     10  C   UNL     1     134.615 139.307 117.578  1.00  0.00     0.150 C 
ATOM     11  C   UNL     1     133.386 139.169 116.649  1.00  0.00     0.174 C 
ATOM     12  O   UNL     1     135.084 140.650 117.614  1.00  0.00    -0.344 OA
ATOM     13  C   UNL     1     133.736 139.687 115.248  1.00  0.00     0.179 C 
ATOM     14  C   UNL     1     134.316 141.106 115.344  1.00  0.00     0.202 C 
BRANCH  11  15
ATOM     15  O   UNL     1     133.008 137.817 116.555  1.00  0.00    -0.388 OA
ATOM     16  H   UNL     1     133.814 137.300 116.294  1.00  0.00     0.211 HD
ENDBRANCH  11  15
BRANCH  13  17
ATOM     17  O   UNL     1     132.589 139.676 114.438  1.00  0.00    -0.387 OA
ATOM     18  H   UNL     1     132.233 140.603 114.435  1.00  0.00     0.211 HD
ENDBRANCH  13  17
BRANCH  14  19
ATOM     19  O   UNL     1     133.336 142.008 115.797  1.00  0.00    -0.385 OA
ATOM     20  H   UNL     1     133.763 142.902 115.849  1.00  0.00     0.211 HD
ENDBRANCH  14  19
ENDBRANCH   7   8
ENDBRANCH   1   7
BRANCH   2  21
ATOM     21  O   UNL     1     138.220 139.530 113.701  1.00  0.00    -0.387 OA
ATOM     22  H   UNL     1     138.855 138.813 113.432  1.00  0.00     0.211 HD
ENDBRANCH   2  21
BRANCH   6  23
ATOM     23  O   UNL     1     138.690 140.867 117.718  1.00  0.00    -0.462 OA
BRANCH  23  24
ATOM     24  C   UNL     1     138.478 141.028 119.099  1.00  0.00     0.130 A 
ATOM     25  C   UNL     1     139.162 140.272 120.065  1.00  0.00     0.093 A 
ATOM     26  C   UNL     1     137.533 141.966 119.513  1.00  0.00     0.094 A 
ATOM     27  C   UNL     1     138.921 140.471 121.431  1.00  0.00     0.133 A 
ATOM     28  C   UNL     1     137.286 142.180 120.871  1.00  0.00     0.138 A 
ATOM     29  C   UNL     1     137.987 141.447 121.842  1.00  0.00     0.102 A 
ATOM     30  O   UNL     1     136.341 143.139 121.244  1.00  0.00    -0.484 OA
ATOM     31  C   UNL     1     137.732 141.755 123.268  1.00  0.00     0.174 C 
ATOM     32  C   UNL     1     135.809 143.256 122.566  1.00  0.00     0.211 C 
ATOM     33  O   UNL     1     138.269 141.076 124.184  1.00  0.00    -0.294 OA
ATOM     34  C   UNL     1     136.863 142.924 123.645  1.00  0.00     0.131 C 
BRANCH  27  35
ATOM     35  O   UNL     1     139.611 139.703 122.371  1.00  0.00    -0.507 OA
ATOM     36  H   UNL     1     139.142 139.261 123.154  1.00  0.00     0.293 HD
ENDBRANCH  27  35
BRANCH  32  37
ATOM     37  C   UNL     1     134.526 142.450 122.677  1.00  0.00    -0.007 A 
ATOM     38  C   UNL     1     133.780 142.068 121.544  1.00  0.00     0.011 A 
ATOM     39  C   UNL     1     134.025 142.124 123.950  1.00  0.00     0.011 A 
ATOM     40  C   UNL     1     132.593 141.343 121.687  1.00  0.00     0.046 A 
ATOM     41  C   UNL     1     132.833 141.412 124.091  1.00  0.00     0.046 A 
ATOM     42  C   UNL     1     132.112 141.021 122.961  1.00  0.00     0.115 A 
BRANCH  42  43
ATOM     43  O   UNL     1     130.921 140.313 123.118  1.00  0.00    -0.508 OA
ATOM     44  H   UNL     1     130.359 140.396 123.957  1.00  0.00     0.293 HD
ENDBRANCH  42  43
ENDBRANCH  32  37
ENDBRANCH  23  24
ENDBRANCH   6  23
BRANCH   3  45
ATOM     45  O   UNL     1     141.033 140.156 114.017  1.00  0.00    -0.387 OA
ATOM     46  H   UNL     1     141.372 140.541 113.165  1.00  0.00     0.211 HD
ENDBRANCH   3  45
BRANCH   4  47
ATOM     47  C   UNL     1     141.375 141.100 116.678  1.00  0.00     0.191 C 
BRANCH  47  48
ATOM     48  O   UNL     1     141.579 141.881 117.825  1.00  0.00    -0.394 OA
ATOM     49  H   UNL     1     142.510 142.223 117.767  1.00  0.00     0.210 HD
ENDBRANCH  47  48
ENDBRANCH   4  47
TORSDOF 14
ENDMDL
MODEL 6
REMARK VINA RESULT:    -4.947      4.527      8.602
REMARK INTER + INTRA:         -10.406
REMARK INTER:                  -7.962
REMARK INTRA:                  -2.443
REMARK UNBOUND:                -2.567
REMARK SMILES C[C@@H]1O[C@@H](O[C@H]2[C@@H](Oc3cc(O)c4c(c3)O[C@@H](c3ccc(O)cc3)CC4=O)O[C@@H](CO)[C@@H](O)[C@@H]2O)[C@H](O)[C@H](O)[C@H]1O
REMARK SMILES IDX 6 1 34 2 32 3 29 4 28 5 7 6 5 7 4 8 1 9 2 10 40 11 3 12
REMARK SMILES IDX 38 13 36 14 41 15 39 17 37 19 35 21 8 23 9 24 10 25 15 26
REMARK SMILES IDX 11 27 14 28 13 29 16 30 26 31 17 32 27 33 25 34 12 35 18 37
REMARK SMILES IDX 19 38 24 39 20 40 23 41 21 42 22 43 33 45 30 47 31 48
REMARK H PARENT 41 16 39 18 37 20 35 22 12 36 22 44 33 46 31 49
REMARK Flexibility Score: inf
ROOT
ATOM      1  C   UNL     1     140.809 133.394 118.542  1.00  0.00     0.221 C 
ATOM      2  C   UNL     1     142.210 133.349 119.163  1.00  0.00     0.181 C 
ATOM      3  C   UNL     1     142.203 134.104 120.504  1.00  0.00     0.177 C 
ATOM      4  C   UNL     1     141.045 133.626 121.418  1.00  0.00     0.179 C 
ATOM      5  O   UNL     1     139.784 133.563 120.755  1.00  0.00    -0.332 OA
ATOM      6  C   UNL     1     139.792 132.812 119.547  1.00  0.00     0.339 C 
ENDROOT
BRANCH   1   7
ATOM      7  O   UNL     1     140.818 132.648 117.331  1.00  0.00    -0.337 OA
BRANCH   7   8
ATOM      8  C   UNL     1     140.307 133.404 116.237  1.00  0.00     0.282 C 
ATOM      9  C   UNL     1     137.253 131.455 115.532  1.00  0.00     0.041 C 
ATOM     10  C   UNL     1     138.752 131.715 115.691  1.00  0.00     0.150 C 
ATOM     11  C   UNL     1     139.499 131.340 114.389  1.00  0.00     0.174 C 
ATOM     12  O   UNL     1     138.939 133.089 116.012  1.00  0.00    -0.344 OA
ATOM     13  C   UNL     1     140.985 131.697 114.524  1.00  0.00     0.179 C 
ATOM     14  C   UNL     1     141.135 133.164 114.953  1.00  0.00     0.202 C 
BRANCH  11  15
ATOM     15  O   UNL     1     139.380 129.959 114.152  1.00  0.00    -0.388 OA
ATOM     16  H   UNL     1     140.090 129.505 114.676  1.00  0.00     0.211 HD
ENDBRANCH  11  15
BRANCH  13  17
ATOM     17  O   UNL     1     141.639 131.471 113.301  1.00  0.00    -0.387 OA
ATOM     18  H   UNL     1     142.024 132.341 113.019  1.00  0.00     0.211 HD
ENDBRANCH  13  17
BRANCH  14  19
ATOM     19  O   UNL     1     140.676 134.023 113.936  1.00  0.00    -0.385 OA
ATOM     20  H   UNL     1     140.044 133.500 113.376  1.00  0.00     0.211 HD
ENDBRANCH  14  19
ENDBRANCH   7   8
ENDBRANCH   1   7
BRANCH   2  21
ATOM     21  O   UNL     1     143.154 133.896 118.275  1.00  0.00    -0.387 OA
ATOM     22  H   UNL     1     143.853 134.351 118.818  1.00  0.00     0.211 HD
ENDBRANCH   2  21
BRANCH   6  23
ATOM     23  O   UNL     1     140.045 131.427 119.817  1.00  0.00    -0.462 OA
BRANCH  23  24
ATOM     24  C   UNL     1     139.075 130.439 120.060  1.00  0.00     0.130 A 
ATOM     25  C   UNL     1     139.379 129.209 120.669  1.00  0.00     0.093 A 
ATOM     26  C   UNL     1     137.764 130.693 119.658  1.00  0.00     0.094 A 
ATOM     27  C   UNL     1     138.376 128.257 120.896  1.00  0.00     0.133 A 
ATOM     28  C   UNL     1     136.753 129.756 119.883  1.00  0.00     0.138 A 
ATOM     29  C   UNL     1     137.045 128.537 120.517  1.00  0.00     0.102 A 
ATOM     30  O   UNL     1     135.450 130.055 119.478  1.00  0.00    -0.484 OA
ATOM     31  C   UNL     1     135.927 127.604 120.786  1.00  0.00     0.174 C 
ATOM     32  C   UNL     1     134.400 129.088 119.403  1.00  0.00     0.211 C 
ATOM     33  O   UNL     1     136.139 126.462 121.276  1.00  0.00    -0.294 OA
ATOM     34  C   UNL     1     134.508 128.029 120.523  1.00  0.00     0.131 C 
BRANCH  27  35
ATOM     35  O   UNL     1     138.706 127.041 121.499  1.00  0.00    -0.507 OA
ATOM     36  H   UNL     1     139.191 126.305 120.996  1.00  0.00     0.293 HD
ENDBRANCH  27  35
BRANCH  32  37
ATOM     37  C   UNL     1     134.334 128.507 118.000  1.00  0.00    -0.007 A 
ATOM     38  C   UNL     1     134.673 129.262 116.860  1.00  0.00     0.011 A 
ATOM     39  C   UNL     1     133.860 127.195 117.819  1.00  0.00     0.011 A 
ATOM     40  C   UNL     1     134.582 128.701 115.583  1.00  0.00     0.046 A 
ATOM     41  C   UNL     1     133.756 126.641 116.542  1.00  0.00     0.046 A 
ATOM     42  C   UNL     1     134.114 127.391 115.420  1.00  0.00     0.115 A 
BRANCH  42  43
ATOM     43  O   UNL     1     134.002 126.825 114.151  1.00  0.00    -0.508 OA
ATOM     44  H   UNL     1     133.255 127.085 113.517  1.00  0.00     0.293 HD
ENDBRANCH  42  43
ENDBRANCH  32  37
ENDBRANCH  23  24
ENDBRANCH   6  23
BRANCH   3  45
ATOM     45  O   UNL     1     143.440 133.949 121.160  1.00  0.00    -0.387 OA
ATOM     46  H   UNL     1     143.540 134.721 121.779  1.00  0.00     0.211 HD
ENDBRANCH   3  45
BRANCH   4  47
ATOM     47  C   UNL     1     141.346 132.347 122.226  1.00  0.00     0.191 C 
BRANCH  47  48
ATOM     48  O   UNL     1     142.270 131.544 121.541  1.00  0.00    -0.394 OA
ATOM     49  H   UNL     1     143.149 131.999 121.625  1.00  0.00     0.210 HD
ENDBRANCH  47  48
ENDBRANCH   4  47
TORSDOF 14
ENDMDL
MODEL 7
REMARK VINA RESULT:    -4.908      4.026      8.778
REMARK INTER + INTRA:         -10.343
REMARK INTER:                  -8.275
REMARK INTRA:                  -2.069
REMARK UNBOUND:                -2.567
REMARK SMILES C[C@@H]1O[C@@H](O[C@H]2[C@@H](Oc3cc(O)c4c(c3)O[C@@H](c3ccc(O)cc3)CC4=O)O[C@@H](CO)[C@@H](O)[C@@H]2O)[C@H](O)[C@H](O)[C@H]1O
REMARK SMILES IDX 6 1 34 2 32 3 29 4 28 5 7 6 5 7 4 8 1 9 2 10 40 11 3 12
REMARK SMILES IDX 38 13 36 14 41 15 39 17 37 19 35 21 8 23 9 24 10 25 15 26
REMARK SMILES IDX 11 27 14 28 13 29 16 30 26 31 17 32 27 33 25 34 12 35 18 37
REMARK SMILES IDX 19 38 24 39 20 40 23 41 21 42 22 43 33 45 30 47 31 48
REMARK H PARENT 41 16 39 18 37 20 35 22 12 36 22 44 33 46 31 49
REMARK Flexibility Score: inf
ROOT
ATOM      1  C   UNL     1     138.868 133.248 123.731  1.00  0.00     0.221 C 
ATOM      2  C   UNL     1     139.802 134.197 122.969  1.00  0.00     0.181 C 
ATOM      3  C   UNL     1     141.265 133.814 123.251  1.00  0.00     0.177 C 
ATOM      4  C   UNL     1     141.510 132.299 123.024  1.00  0.00     0.179 C 
ATOM      5  O   UNL     1     140.537 131.465 123.649  1.00  0.00    -0.332 OA
ATOM      6  C   UNL     1     139.190 131.793 123.332  1.00  0.00     0.339 C 
ENDROOT
BRANCH   1   7
ATOM      7  O   UNL     1     137.521 133.580 123.420  1.00  0.00    -0.337 OA
BRANCH   7   8
ATOM      8  C   UNL     1     136.600 132.648 123.980  1.00  0.00     0.282 C 
ATOM      9  C   UNL     1     133.452 134.030 122.638  1.00  0.00     0.041 C 
ATOM     10  C   UNL     1     134.758 134.018 123.435  1.00  0.00     0.150 C 
ATOM     11  C   UNL     1     134.480 134.367 124.916  1.00  0.00     0.174 C 
ATOM     12  O   UNL     1     135.347 132.728 123.314  1.00  0.00    -0.344 OA
ATOM     13  C   UNL     1     135.778 134.255 125.727  1.00  0.00     0.179 C 
ATOM     14  C   UNL     1     136.421 132.879 125.499  1.00  0.00     0.202 C 
BRANCH  11  15
ATOM     15  O   UNL     1     133.993 135.683 125.013  1.00  0.00    -0.388 OA
ATOM     16  H   UNL     1     133.649 135.940 124.118  1.00  0.00     0.211 HD
ENDBRANCH  11  15
BRANCH  13  17
ATOM     17  O   UNL     1     135.503 134.452 127.090  1.00  0.00    -0.387 OA
ATOM     18  H   UNL     1     134.658 134.970 127.139  1.00  0.00     0.211 HD
ENDBRANCH  13  17
BRANCH  14  19
ATOM     19  O   UNL     1     135.606 131.862 126.031  1.00  0.00    -0.385 OA
ATOM     20  H   UNL     1     134.890 131.684 125.366  1.00  0.00     0.211 HD
ENDBRANCH  14  19
ENDBRANCH   7   8
ENDBRANCH   1   7
BRANCH   2  21
ATOM     21  O   UNL     1     139.544 135.531 123.334  1.00  0.00    -0.387 OA
ATOM     22  H   UNL     1     138.631 135.762 123.010  1.00  0.00     0.211 HD
ENDBRANCH   2  21
BRANCH   6  23
ATOM     23  O   UNL     1     138.927 131.552 121.943  1.00  0.00    -0.462 OA
BRANCH  23  24
ATOM     24  C   UNL     1     138.328 130.402 121.400  1.00  0.00     0.130 A 
ATOM     25  C   UNL     1     138.990 129.165 121.322  1.00  0.00     0.093 A 
ATOM     26  C   UNL     1     137.029 130.511 120.904  1.00  0.00     0.094 A 
ATOM     27  C   UNL     1     138.350 128.044 120.776  1.00  0.00     0.133 A 
ATOM     28  C   UNL     1     136.376 129.401 120.363  1.00  0.00     0.138 A 
ATOM     29  C   UNL     1     137.022 128.155 120.308  1.00  0.00     0.102 A 
ATOM     30  O   UNL     1     135.069 129.548 119.889  1.00  0.00    -0.484 OA
ATOM     31  C   UNL     1     136.264 126.997 119.781  1.00  0.00     0.174 C 
ATOM     32  C   UNL     1     134.405 128.577 119.078  1.00  0.00     0.211 C 
ATOM     33  O   UNL     1     136.817 125.875 119.631  1.00  0.00    -0.294 OA
ATOM     34  C   UNL     1     134.800 127.134 119.464  1.00  0.00     0.131 C 
BRANCH  27  35
ATOM     35  O   UNL     1     139.032 126.828 120.707  1.00  0.00    -0.507 OA
ATOM     36  H   UNL     1     140.024 126.779 120.500  1.00  0.00     0.293 HD
ENDBRANCH  27  35
BRANCH  32  37
ATOM     37  C   UNL     1     134.607 128.907 117.609  1.00  0.00    -0.007 A 
ATOM     38  C   UNL     1     134.539 127.923 116.604  1.00  0.00     0.011 A 
ATOM     39  C   UNL     1     134.935 130.223 117.237  1.00  0.00     0.011 A 
ATOM     40  C   UNL     1     134.749 128.260 115.263  1.00  0.00     0.046 A 
ATOM     41  C   UNL     1     135.159 130.555 115.900  1.00  0.00     0.046 A 
ATOM     42  C   UNL     1     135.070 129.577 114.909  1.00  0.00     0.115 A 
BRANCH  42  43
ATOM     43  O   UNL     1     135.299 129.923 113.579  1.00  0.00    -0.508 OA
ATOM     44  H   UNL     1     134.545 130.216 112.968  1.00  0.00     0.293 HD
ENDBRANCH  42  43
ENDBRANCH  32  37
ENDBRANCH  23  24
ENDBRANCH   6  23
BRANCH   3  45
ATOM     45  O   UNL     1     142.135 134.577 122.447  1.00  0.00    -0.387 OA
ATOM     46  H   UNL     1     141.565 135.155 121.871  1.00  0.00     0.211 HD
ENDBRANCH   3  45
BRANCH   4  47
ATOM     47  C   UNL     1     141.768 131.901 121.556  1.00  0.00     0.191 C 
BRANCH  47  48
ATOM     48  O   UNL     1     143.145 131.877 121.292  1.00  0.00    -0.394 OA
ATOM     49  H   UNL     1     143.362 130.944 121.031  1.00  0.00     0.210 HD
ENDBRANCH  47  48
ENDBRANCH   4  47
TORSDOF 14
ENDMDL
MODEL 8
REMARK VINA RESULT:    -4.846      4.459     10.177
REMARK INTER + INTRA:         -10.247
REMARK INTER:                  -6.961
REMARK INTRA:                  -3.286
REMARK UNBOUND:                -2.567
REMARK SMILES C[C@@H]1O[C@@H](O[C@H]2[C@@H](Oc3cc(O)c4c(c3)O[C@@H](c3ccc(O)cc3)CC4=O)O[C@@H](CO)[C@@H](O)[C@@H]2O)[C@H](O)[C@H](O)[C@H]1O
REMARK SMILES IDX 6 1 34 2 32 3 29 4 28 5 7 6 5 7 4 8 1 9 2 10 40 11 3 12
REMARK SMILES IDX 38 13 36 14 41 15 39 17 37 19 35 21 8 23 9 24 10 25 15 26
REMARK SMILES IDX 11 27 14 28 13 29 16 30 26 31 17 32 27 33 25 34 12 35 18 37
REMARK SMILES IDX 19 38 24 39 20 40 23 41 21 42 22 43 33 45 30 47 31 48
REMARK H PARENT 41 16 39 18 37 20 35 22 12 36 22 44 33 46 31 49
REMARK Flexibility Score: inf
ROOT
ATOM      1  C   UNL     1     138.173 130.986 122.157  1.00  0.00     0.221 C 
ATOM      2  C   UNL     1     138.049 131.316 123.650  1.00  0.00     0.181 C 
ATOM      3  C   UNL     1     139.124 132.345 124.040  1.00  0.00     0.177 C 
ATOM      4  C   UNL     1     139.122 133.562 123.079  1.00  0.00     0.179 C 
ATOM      5  O   UNL     1     139.107 133.198 121.700  1.00  0.00    -0.332 OA
ATOM      6  C   UNL     1     138.071 132.292 121.342  1.00  0.00     0.339 C 
ENDROOT
BRANCH   1   7
ATOM      7  O   UNL     1     137.141 130.076 121.800  1.00  0.00    -0.337 OA
BRANCH   7   8
ATOM      8  C   UNL     1     137.541 129.207 120.744  1.00  0.00     0.282 C 
ATOM      9  C   UNL     1     134.614 129.568 118.525  1.00  0.00     0.041 C 
ATOM     10  C   UNL     1     135.376 129.219 119.805  1.00  0.00     0.150 C 
ATOM     11  C   UNL     1     135.111 127.747 120.198  1.00  0.00     0.174 C 
ATOM     12  O   UNL     1     136.762 129.450 119.580  1.00  0.00    -0.344 OA
ATOM     13  C   UNL     1     135.957 127.379 121.424  1.00  0.00     0.179 C 
ATOM     14  C   UNL     1     137.432 127.722 121.166  1.00  0.00     0.202 C 
BRANCH  11  15
ATOM     15  O   UNL     1     133.752 127.573 120.512  1.00  0.00    -0.388 OA
ATOM     16  H   UNL     1     133.672 126.733 121.034  1.00  0.00     0.211 HD
ENDBRANCH  11  15
BRANCH  13  17
ATOM     17  O   UNL     1     135.811 126.011 121.707  1.00  0.00    -0.387 OA
ATOM     18  H   UNL     1     136.344 125.830 122.524  1.00  0.00     0.211 HD
ENDBRANCH  13  17
BRANCH  14  19
ATOM     19  O   UNL     1     137.954 126.908 120.144  1.00  0.00    -0.385 OA
ATOM     20  H   UNL     1     138.196 127.506 119.390  1.00  0.00     0.211 HD
ENDBRANCH  14  19
ENDBRANCH   7   8
ENDBRANCH   1   7
BRANCH   2  21
ATOM     21  O   UNL     1     138.163 130.143 124.418  1.00  0.00    -0.387 OA
ATOM     22  H   UNL     1     138.707 130.359 125.223  1.00  0.00     0.211 HD
ENDBRANCH   2  21
BRANCH   6  23
ATOM     23  O   UNL     1     136.787 132.912 121.489  1.00  0.00    -0.462 OA
BRANCH  23  24
ATOM     24  C   UNL     1     135.787 132.994 120.505  1.00  0.00     0.130 A 
ATOM     25  C   UNL     1     134.418 133.049 120.815  1.00  0.00     0.093 A 
ATOM     26  C   UNL     1     136.182 133.000 119.167  1.00  0.00     0.094 A 
ATOM     27  C   UNL     1     133.457 133.135 119.799  1.00  0.00     0.133 A 
ATOM     28  C   UNL     1     135.236 133.091 118.143  1.00  0.00     0.138 A 
ATOM     29  C   UNL     1     133.868 133.175 118.449  1.00  0.00     0.102 A 
ATOM     30  O   UNL     1     135.674 133.108 116.816  1.00  0.00    -0.484 OA
ATOM     31  C   UNL     1     132.911 133.332 117.329  1.00  0.00     0.174 C 
ATOM     32  C   UNL     1     134.809 132.925 115.693  1.00  0.00     0.211 C 
ATOM     33  O   UNL     1     131.667 133.330 117.535  1.00  0.00    -0.294 OA
ATOM     34  C   UNL     1     133.415 133.548 115.928  1.00  0.00     0.131 C 
BRANCH  27  35
ATOM     35  O   UNL     1     132.103 133.185 120.135  1.00  0.00    -0.507 OA
ATOM     36  H   UNL     1     131.463 132.432 119.905  1.00  0.00     0.293 HD
ENDBRANCH  27  35
BRANCH  32  37
ATOM     37  C   UNL     1     134.778 131.457 115.302  1.00  0.00    -0.007 A 
ATOM     38  C   UNL     1     133.569 130.762 115.097  1.00  0.00     0.011 A 
ATOM     39  C   UNL     1     135.986 130.745 115.200  1.00  0.00     0.011 A 
ATOM     40  C   UNL     1     133.578 129.406 114.756  1.00  0.00     0.046 A 
ATOM     41  C   UNL     1     135.992 129.388 114.874  1.00  0.00     0.046 A 
ATOM     42  C   UNL     1     134.791 128.713 114.653  1.00  0.00     0.115 A 
BRANCH  42  43
ATOM     43  O   UNL     1     134.813 127.357 114.331  1.00  0.00    -0.508 OA
ATOM     44  H   UNL     1     134.445 127.013 113.452  1.00  0.00     0.293 HD
ENDBRANCH  42  43
ENDBRANCH  32  37
ENDBRANCH  23  24
ENDBRANCH   6  23
BRANCH   3  45
ATOM     45  O   UNL     1     138.935 132.771 125.370  1.00  0.00    -0.387 OA
ATOM     46  H   UNL     1     139.744 132.498 125.881  1.00  0.00     0.211 HD
ENDBRANCH   3  45
BRANCH   4  47
ATOM     47  C   UNL     1     138.074 134.644 123.410  1.00  0.00     0.191 C 
BRANCH  47  48
ATOM     48  O   UNL     1     137.999 135.584 122.372  1.00  0.00    -0.394 OA
ATOM     49  H   UNL     1     137.964 135.063 121.527  1.00  0.00     0.210 HD
ENDBRANCH  47  48
ENDBRANCH   4  47
TORSDOF 14
ENDMDL
