MODEL 1
REMARK VINA RESULT:    -7.508      0.000      0.000
REMARK INTER + INTRA:          -7.508
REMARK INTER:                  -7.508
REMARK INTRA:                   0.000
REMARK UNBOUND:                 0.000
REMARK SMILES C=C1CCC[C@@]2(C)C=C3OC(=O)C(C)=C3C[C@@H]12
REMARK SMILES IDX 14 1 13 2 15 3 16 4 17 5 2 6 1 7 3 8 4 9 5 10 6 11 8 12 9 13
REMARK SMILES IDX 10 14 11 15 12 16 7 17
REMARK H PARENT
REMARK Flexibility Score: inf
ROOT
ATOM      1  C   UNL     1      -4.623   2.073  12.839  1.00  0.00     0.053 C 
ATOM      2  C   UNL     1      -5.303   0.837  12.346  1.00  0.00     0.041 C 
ATOM      3  C   UNL     1      -4.712  -0.274  11.913  1.00  0.00     0.005 C 
ATOM      4  C   UNL     1      -3.256  -0.594  11.828  1.00  0.00     0.049 C 
ATOM      5  C   UNL     1      -3.044  -1.783  10.854  1.00  0.00     0.029 C 
ATOM      6  C   UNL     1      -1.600  -2.246  10.937  1.00  0.00    -0.073 C 
ATOM      7  C   UNL     1      -0.686  -1.786  10.068  1.00  0.00     0.008 C 
ATOM      8  C   UNL     1      -1.175  -3.104  12.108  1.00  0.00     0.031 C 
ATOM      9  C   UNL     1      -2.156  -4.259  12.328  1.00  0.00     0.005 C 
ATOM     10  C   UNL     1      -3.616  -3.779  12.372  1.00  0.00     0.012 C 
ATOM     11  C   UNL     1      -4.033  -2.989  11.101  1.00  0.00    -0.004 C 
ATOM     12  C   UNL     1      -5.471  -2.515  11.290  1.00  0.00     0.027 C 
ATOM     13  C   UNL     1      -5.734  -1.275  11.689  1.00  0.00     0.131 C 
ATOM     14  O   UNL     1      -6.989  -0.752  11.969  1.00  0.00    -0.423 OA
ATOM     15  C   UNL     1      -6.740   0.550  12.384  1.00  0.00     0.339 C 
ATOM     16  O   UNL     1      -7.637   1.354  12.751  1.00  0.00    -0.246 OA
ATOM     17  C   UNL     1      -4.025  -3.917   9.862  1.00  0.00     0.016 C 
ENDROOT
TORSDOF 0
ENDMDL
MODEL 2
REMARK VINA RESULT:    -7.431      2.627      4.625
REMARK INTER + INTRA:          -7.431
REMARK INTER:                  -7.431
REMARK INTRA:                   0.000
REMARK UNBOUND:                 0.000
REMARK SMILES C=C1CCC[C@@]2(C)C=C3OC(=O)C(C)=C3C[C@@H]12
REMARK SMILES IDX 14 1 13 2 15 3 16 4 17 5 2 6 1 7 3 8 4 9 5 10 6 11 8 12 9 13
REMARK SMILES IDX 10 14 11 15 12 16 7 17
REMARK H PARENT
REMARK Flexibility Score: inf
ROOT
ATOM      1  C   UNL     1      -0.489  -2.316  11.415  1.00  0.00     0.053 C 
ATOM      2  C   UNL     1      -1.566  -1.783  12.306  1.00  0.00     0.041 C 
ATOM      3  C   UNL     1      -2.832  -1.555  11.967  1.00  0.00     0.005 C 
ATOM      4  C   UNL     1      -3.514  -1.785  10.659  1.00  0.00     0.049 C 
ATOM      5  C   UNL     1      -4.826  -0.957  10.606  1.00  0.00     0.029 C 
ATOM      6  C   UNL     1      -5.621  -1.359   9.377  1.00  0.00    -0.073 C 
ATOM      7  C   UNL     1      -5.511  -0.660   8.235  1.00  0.00     0.008 C 
ATOM      8  C   UNL     1      -6.412  -2.647   9.409  1.00  0.00     0.031 C 
ATOM      9  C   UNL     1      -7.251  -2.746  10.686  1.00  0.00     0.005 C 
ATOM     10  C   UNL     1      -6.420  -2.464  11.949  1.00  0.00     0.012 C 
ATOM     11  C   UNL     1      -5.708  -1.084  11.909  1.00  0.00    -0.004 C 
ATOM     12  C   UNL     1      -4.870  -0.949  13.178  1.00  0.00     0.027 C 
ATOM     13  C   UNL     1      -3.565  -1.201  13.165  1.00  0.00     0.131 C 
ATOM     14  O   UNL     1      -2.716  -1.188  14.262  1.00  0.00    -0.423 OA
ATOM     15  C   UNL     1      -1.477  -1.553  13.750  1.00  0.00     0.339 C 
ATOM     16  O   UNL     1      -0.437  -1.677  14.449  1.00  0.00    -0.246 OA
ATOM     17  C   UNL     1      -6.748   0.061  11.934  1.00  0.00     0.016 C 
ENDROOT
TORSDOF 0
ENDMDL
MODEL 3
REMARK VINA RESULT:    -7.361      2.614      4.650
REMARK INTER + INTRA:          -7.361
REMARK INTER:                  -7.361
REMARK INTRA:                   0.000
REMARK UNBOUND:                 0.000
REMARK SMILES C=C1CCC[C@@]2(C)C=C3OC(=O)C(C)=C3C[C@@H]12
REMARK SMILES IDX 14 1 13 2 15 3 16 4 17 5 2 6 1 7 3 8 4 9 5 10 6 11 8 12 9 13
REMARK SMILES IDX 10 14 11 15 12 16 7 17
REMARK H PARENT
REMARK Flexibility Score: inf
ROOT
ATOM      1  C   UNL     1      -5.983  -2.033   8.512  1.00  0.00     0.053 C 
ATOM      2  C   UNL     1      -5.028  -2.616   9.503  1.00  0.00     0.041 C 
ATOM      3  C   UNL     1      -4.549  -2.015  10.590  1.00  0.00     0.005 C 
ATOM      4  C   UNL     1      -4.842  -0.650  11.117  1.00  0.00     0.049 C 
ATOM      5  C   UNL     1      -3.729  -0.230  12.114  1.00  0.00     0.029 C 
ATOM      6  C   UNL     1      -4.140   1.055  12.810  1.00  0.00    -0.073 C 
ATOM      7  C   UNL     1      -3.727   2.245  12.343  1.00  0.00     0.008 C 
ATOM      8  C   UNL     1      -5.147   0.985  13.935  1.00  0.00     0.031 C 
ATOM      9  C   UNL     1      -4.777  -0.112  14.938  1.00  0.00     0.005 C 
ATOM     10  C   UNL     1      -4.481  -1.453  14.247  1.00  0.00     0.012 C 
ATOM     11  C   UNL     1      -3.368  -1.348  13.169  1.00  0.00    -0.004 C 
ATOM     12  C   UNL     1      -3.213  -2.718  12.515  1.00  0.00     0.027 C 
ATOM     13  C   UNL     1      -3.793  -2.989  11.350  1.00  0.00     0.131 C 
ATOM     14  O   UNL     1      -3.789  -4.212  10.696  1.00  0.00    -0.423 OA
ATOM     15  C   UNL     1      -4.555  -4.002   9.556  1.00  0.00     0.339 C 
ATOM     16  O   UNL     1      -4.807  -4.895   8.705  1.00  0.00    -0.246 OA
ATOM     17  C   UNL     1      -2.010  -1.008  13.828  1.00  0.00     0.016 C 
ENDROOT
TORSDOF 0
ENDMDL
MODEL 4
REMARK VINA RESULT:    -7.346      3.535      5.073
REMARK INTER + INTRA:          -7.346
REMARK INTER:                  -7.346
REMARK INTRA:                   0.000
REMARK UNBOUND:                 0.000
REMARK SMILES C=C1CCC[C@@]2(C)C=C3OC(=O)C(C)=C3C[C@@H]12
REMARK SMILES IDX 14 1 13 2 15 3 16 4 17 5 2 6 1 7 3 8 4 9 5 10 6 11 8 12 9 13
REMARK SMILES IDX 10 14 11 15 12 16 7 17
REMARK H PARENT
REMARK Flexibility Score: inf
ROOT
ATOM      1  C   UNL     1      -3.164   2.190   7.659  1.00  0.00     0.053 C 
ATOM      2  C   UNL     1      -2.421   0.965   8.086  1.00  0.00     0.041 C 
ATOM      3  C   UNL     1      -2.924  -0.079   8.741  1.00  0.00     0.005 C 
ATOM      4  C   UNL     1      -4.326  -0.320   9.192  1.00  0.00     0.049 C 
ATOM      5  C   UNL     1      -4.336  -1.418  10.290  1.00  0.00     0.029 C 
ATOM      6  C   UNL     1      -5.771  -1.815  10.587  1.00  0.00    -0.073 C 
ATOM      7  C   UNL     1      -6.439  -1.244  11.603  1.00  0.00     0.008 C 
ATOM      8  C   UNL     1      -6.485  -2.741   9.629  1.00  0.00     0.031 C 
ATOM      9  C   UNL     1      -5.618  -3.956   9.288  1.00  0.00     0.005 C 
ATOM     10  C   UNL     1      -4.196  -3.552   8.862  1.00  0.00     0.012 C 
ATOM     11  C   UNL     1      -3.468  -2.685   9.926  1.00  0.00    -0.004 C 
ATOM     12  C   UNL     1      -2.103  -2.298   9.364  1.00  0.00     0.027 C 
ATOM     13  C   UNL     1      -1.907  -1.107   8.807  1.00  0.00     0.131 C 
ATOM     14  O   UNL     1      -0.740  -0.668   8.196  1.00  0.00    -0.423 OA
ATOM     15  C   UNL     1      -1.043   0.607   7.739  1.00  0.00     0.339 C 
ATOM     16  O   UNL     1      -0.236   1.335   7.103  1.00  0.00    -0.246 OA
ATOM     17  C   UNL     1      -3.208  -3.511  11.208  1.00  0.00     0.016 C 
ENDROOT
TORSDOF 0
ENDMDL
MODEL 5
REMARK VINA RESULT:    -7.262      3.355      4.868
REMARK INTER + INTRA:          -7.262
REMARK INTER:                  -7.262
REMARK INTRA:                   0.000
REMARK UNBOUND:                 0.000
REMARK SMILES C=C1CCC[C@@]2(C)C=C3OC(=O)C(C)=C3C[C@@H]12
REMARK SMILES IDX 14 1 13 2 15 3 16 4 17 5 2 6 1 7 3 8 4 9 5 10 6 11 8 12 9 13
REMARK SMILES IDX 10 14 11 15 12 16 7 17
REMARK H PARENT
REMARK Flexibility Score: inf
ROOT
ATOM      1  C   UNL     1      -1.349   2.665   9.093  1.00  0.00     0.053 C 
ATOM      2  C   UNL     1      -2.644   1.979   8.794  1.00  0.00     0.041 C 
ATOM      3  C   UNL     1      -3.438   1.369   9.670  1.00  0.00     0.005 C 
ATOM      4  C   UNL     1      -3.277   1.227  11.147  1.00  0.00     0.049 C 
ATOM      5  C   UNL     1      -4.178   0.072  11.658  1.00  0.00     0.029 C 
ATOM      6  C   UNL     1      -4.180   0.073  13.177  1.00  0.00    -0.073 C 
ATOM      7  C   UNL     1      -3.333  -0.713  13.860  1.00  0.00     0.008 C 
ATOM      8  C   UNL     1      -5.035   1.087  13.904  1.00  0.00     0.031 C 
ATOM      9  C   UNL     1      -6.456   1.119  13.333  1.00  0.00     0.005 C 
ATOM     10  C   UNL     1      -6.462   1.246  11.800  1.00  0.00     0.012 C 
ATOM     11  C   UNL     1      -5.652   0.122  11.096  1.00  0.00    -0.004 C 
ATOM     12  C   UNL     1      -5.680   0.392   9.595  1.00  0.00     0.027 C 
ATOM     13  C   UNL     1      -4.658   0.989   8.989  1.00  0.00     0.131 C 
ATOM     14  O   UNL     1      -4.596   1.355   7.652  1.00  0.00    -0.423 OA
ATOM     15  C   UNL     1      -3.361   1.975   7.516  1.00  0.00     0.339 C 
ATOM     16  O   UNL     1      -2.940   2.472   6.438  1.00  0.00    -0.246 OA
ATOM     17  C   UNL     1      -6.330  -1.251  11.319  1.00  0.00     0.016 C 
ENDROOT
TORSDOF 0
ENDMDL
MODEL 6
REMARK VINA RESULT:    -7.261      2.152      3.749
REMARK INTER + INTRA:          -7.261
REMARK INTER:                  -7.261
REMARK INTRA:                   0.000
REMARK UNBOUND:                 0.000
REMARK SMILES C=C1CCC[C@@]2(C)C=C3OC(=O)C(C)=C3C[C@@H]12
REMARK SMILES IDX 14 1 13 2 15 3 16 4 17 5 2 6 1 7 3 8 4 9 5 10 6 11 8 12 9 13
REMARK SMILES IDX 10 14 11 15 12 16 7 17
REMARK H PARENT
REMARK Flexibility Score: inf
ROOT
ATOM      1  C   UNL     1      -4.965  -2.569   7.757  1.00  0.00     0.053 C 
ATOM      2  C   UNL     1      -4.855  -1.463   8.758  1.00  0.00     0.041 C 
ATOM      3  C   UNL     1      -4.106  -1.462   9.858  1.00  0.00     0.005 C 
ATOM      4  C   UNL     1      -3.180  -2.515  10.368  1.00  0.00     0.049 C 
ATOM      5  C   UNL     1      -2.899  -2.273  11.875  1.00  0.00     0.029 C 
ATOM      6  C   UNL     1      -1.793  -3.207  12.334  1.00  0.00    -0.073 C 
ATOM      7  C   UNL     1      -2.091  -4.385  12.907  1.00  0.00     0.008 C 
ATOM      8  C   UNL     1      -0.361  -2.864  11.993  1.00  0.00     0.031 C 
ATOM      9  C   UNL     1      -0.049  -1.404  12.331  1.00  0.00     0.005 C 
ATOM     10  C   UNL     1      -1.101  -0.439  11.759  1.00  0.00     0.012 C 
ATOM     11  C   UNL     1      -2.545  -0.774  12.220  1.00  0.00    -0.004 C 
ATOM     12  C   UNL     1      -3.497   0.206  11.540  1.00  0.00     0.027 C 
ATOM     13  C   UNL     1      -4.169  -0.141  10.447  1.00  0.00     0.131 C 
ATOM     14  O   UNL     1      -5.000   0.681   9.699  1.00  0.00    -0.423 OA
ATOM     15  C   UNL     1      -5.427  -0.119   8.646  1.00  0.00     0.339 C 
ATOM     16  O   UNL     1      -6.188   0.280   7.726  1.00  0.00    -0.246 OA
ATOM     17  C   UNL     1      -2.689  -0.554  13.746  1.00  0.00     0.016 C 
ENDROOT
TORSDOF 0
ENDMDL
MODEL 7
REMARK VINA RESULT:    -7.258      2.774      3.948
REMARK INTER + INTRA:          -7.258
REMARK INTER:                  -7.258
REMARK INTRA:                   0.000
REMARK UNBOUND:                 0.000
REMARK SMILES C=C1CCC[C@@]2(C)C=C3OC(=O)C(C)=C3C[C@@H]12
REMARK SMILES IDX 14 1 13 2 15 3 16 4 17 5 2 6 1 7 3 8 4 9 5 10 6 11 8 12 9 13
REMARK SMILES IDX 10 14 11 15 12 16 7 17
REMARK H PARENT
REMARK Flexibility Score: inf
ROOT
ATOM      1  C   UNL     1      -1.922   1.960   9.443  1.00  0.00     0.053 C 
ATOM      2  C   UNL     1      -2.613   1.200  10.530  1.00  0.00     0.041 C 
ATOM      3  C   UNL     1      -3.489   0.211  10.372  1.00  0.00     0.005 C 
ATOM      4  C   UNL     1      -3.989  -0.411   9.110  1.00  0.00     0.049 C 
ATOM      5  C   UNL     1      -5.307  -1.179   9.398  1.00  0.00     0.029 C 
ATOM      6  C   UNL     1      -5.693  -1.987   8.172  1.00  0.00    -0.073 C 
ATOM      7  C   UNL     1      -6.555  -1.489   7.271  1.00  0.00     0.008 C 
ATOM      8  C   UNL     1      -4.972  -3.288   7.900  1.00  0.00     0.031 C 
ATOM      9  C   UNL     1      -4.911  -4.158   9.159  1.00  0.00     0.005 C 
ATOM     10  C   UNL     1      -4.399  -3.376  10.380  1.00  0.00     0.012 C 
ATOM     11  C   UNL     1      -5.236  -2.101  10.678  1.00  0.00    -0.004 C 
ATOM     12  C   UNL     1      -4.595  -1.383  11.862  1.00  0.00     0.027 C 
ATOM     13  C   UNL     1      -3.782  -0.349  11.675  1.00  0.00     0.131 C 
ATOM     14  O   UNL     1      -3.083   0.335  12.660  1.00  0.00    -0.423 OA
ATOM     15  C   UNL     1      -2.349   1.290  11.969  1.00  0.00     0.339 C 
ATOM     16  O   UNL     1      -1.562   2.104  12.520  1.00  0.00    -0.246 OA
ATOM     17  C   UNL     1      -6.671  -2.487  11.109  1.00  0.00     0.016 C 
ENDROOT
TORSDOF 0
ENDMDL
MODEL 8
REMARK VINA RESULT:    -7.225      3.274      4.491
REMARK INTER + INTRA:          -7.225
REMARK INTER:                  -7.225
REMARK INTRA:                   0.000
REMARK UNBOUND:                 0.000
REMARK SMILES C=C1CCC[C@@]2(C)C=C3OC(=O)C(C)=C3C[C@@H]12
REMARK SMILES IDX 14 1 13 2 15 3 16 4 17 5 2 6 1 7 3 8 4 9 5 10 6 11 8 12 9 13
REMARK SMILES IDX 10 14 11 15 12 16 7 17
REMARK H PARENT
REMARK Flexibility Score: inf
ROOT
ATOM      1  C   UNL     1      -1.131   0.962   7.501  1.00  0.00     0.053 C 
ATOM      2  C   UNL     1      -1.550   1.404   8.867  1.00  0.00     0.041 C 
ATOM      3  C   UNL     1      -1.851   0.616   9.897  1.00  0.00     0.005 C 
ATOM      4  C   UNL     1      -1.830  -0.874   9.981  1.00  0.00     0.049 C 
ATOM      5  C   UNL     1      -2.683  -1.336  11.191  1.00  0.00     0.029 C 
ATOM      6  C   UNL     1      -2.482  -2.827  11.404  1.00  0.00    -0.073 C 
ATOM      7  C   UNL     1      -3.338  -3.713  10.870  1.00  0.00     0.008 C 
ATOM      8  C   UNL     1      -1.220  -3.302  12.088  1.00  0.00     0.031 C 
ATOM      9  C   UNL     1      -0.953  -2.503  13.367  1.00  0.00     0.005 C 
ATOM     10  C   UNL     1      -1.031  -0.986  13.130  1.00  0.00     0.012 C 
ATOM     11  C   UNL     1      -2.386  -0.536  12.519  1.00  0.00    -0.004 C 
ATOM     12  C   UNL     1      -2.317   0.968  12.273  1.00  0.00     0.027 C 
ATOM     13  C   UNL     1      -2.042   1.451  11.065  1.00  0.00     0.131 C 
ATOM     14  O   UNL     1      -1.877   2.788  10.733  1.00  0.00    -0.423 OA
ATOM     15  C   UNL     1      -1.565   2.776   9.380  1.00  0.00     0.339 C 
ATOM     16  O   UNL     1      -1.318   3.812   8.707  1.00  0.00    -0.246 OA
ATOM     17  C   UNL     1      -3.537  -0.773  13.526  1.00  0.00     0.016 C 
ENDROOT
TORSDOF 0
ENDMDL
MODEL 9
REMARK VINA RESULT:    -7.181      2.218      2.709
REMARK INTER + INTRA:          -7.181
REMARK INTER:                  -7.181
REMARK INTRA:                   0.000
REMARK UNBOUND:                 0.000
REMARK SMILES C=C1CCC[C@@]2(C)C=C3OC(=O)C(C)=C3C[C@@H]12
REMARK SMILES IDX 14 1 13 2 15 3 16 4 17 5 2 6 1 7 3 8 4 9 5 10 6 11 8 12 9 13
REMARK SMILES IDX 10 14 11 15 12 16 7 17
REMARK H PARENT
REMARK Flexibility Score: inf
ROOT
ATOM      1  C   UNL     1      -3.274   1.461   8.209  1.00  0.00     0.053 C 
ATOM      2  C   UNL     1      -3.981   0.452   9.056  1.00  0.00     0.041 C 
ATOM      3  C   UNL     1      -3.417  -0.409   9.899  1.00  0.00     0.005 C 
ATOM      4  C   UNL     1      -1.975  -0.582  10.243  1.00  0.00     0.049 C 
ATOM      5  C   UNL     1      -1.762  -1.975  10.895  1.00  0.00     0.029 C 
ATOM      6  C   UNL     1      -0.347  -2.060  11.440  1.00  0.00    -0.073 C 
ATOM      7  C   UNL     1       0.634  -2.609  10.705  1.00  0.00     0.008 C 
ATOM      8  C   UNL     1      -0.028  -1.377  12.750  1.00  0.00     0.031 C 
ATOM      9  C   UNL     1      -1.071  -1.720  13.818  1.00  0.00     0.005 C 
ATOM     10  C   UNL     1      -2.508  -1.514  13.312  1.00  0.00     0.012 C 
ATOM     11  C   UNL     1      -2.816  -2.317  12.018  1.00  0.00    -0.004 C 
ATOM     12  C   UNL     1      -4.240  -1.981  11.583  1.00  0.00     0.027 C 
ATOM     13  C   UNL     1      -4.469  -1.083  10.630  1.00  0.00     0.131 C 
ATOM     14  O   UNL     1      -5.713  -0.639  10.203  1.00  0.00    -0.423 OA
ATOM     15  C   UNL     1      -5.429   0.316   9.235  1.00  0.00     0.339 C 
ATOM     16  O   UNL     1      -6.309   0.972   8.618  1.00  0.00    -0.246 OA
ATOM     17  C   UNL     1      -2.781  -3.837  12.306  1.00  0.00     0.016 C 
ENDROOT
TORSDOF 0
ENDMDL
