MODEL 1
REMARK VINA RESULT:    -6.845      0.000      0.000
REMARK INTER + INTRA:          -8.782
REMARK INTER:                  -8.446
REMARK INTRA:                  -0.337
REMARK UNBOUND:                -0.337
REMARK SMILES O=c1c(O)c(-c2cc(O)c(O)c(O)c2)oc2cc(O)cc(O)c12
REMARK SMILES IDX 5 1 3 2 2 3 1 4 23 5 21 6 20 7 18 8 17 9 16 10 15 11 6 12
REMARK SMILES IDX 7 13 8 14 14 15 10 16 12 17 9 18 11 20 13 22 4 24 22 26
REMARK SMILES IDX 19 28
REMARK H PARENT 9 19 11 21 13 23 4 25 22 27 19 29
REMARK Flexibility Score: inf
ROOT
ATOM      1  C   UNL     1       6.756  10.812  46.717  1.00  0.00     0.180 A 
ATOM      2  C   UNL     1       7.490  11.752  45.974  1.00  0.00     0.208 A 
ATOM      3  C   UNL     1       8.730  11.375  45.434  1.00  0.00     0.238 A 
ATOM      4  O   UNL     1       9.407  12.237  44.815  1.00  0.00    -0.285 OA
ATOM      5  C   UNL     1       9.212  10.058  45.629  1.00  0.00     0.111 A 
ATOM      6  C   UNL     1      10.435   9.555  45.092  1.00  0.00     0.134 A 
ATOM      7  C   UNL     1      10.877   8.278  45.458  1.00  0.00     0.093 A 
ATOM      8  C   UNL     1      10.105   7.460  46.288  1.00  0.00     0.123 A 
ATOM      9  C   UNL     1       8.881   7.919  46.768  1.00  0.00     0.094 A 
ATOM     10  C   UNL     1       8.432   9.203  46.451  1.00  0.00     0.146 A 
ATOM     11  O   UNL     1       7.265   9.606  46.938  1.00  0.00    -0.452 OA
ENDROOT
BRANCH   1  12
ATOM     12  C   UNL     1       5.430  11.127  47.297  1.00  0.00     0.029 A 
ATOM     13  C   UNL     1       4.241  10.732  46.661  1.00  0.00     0.062 A 
ATOM     14  C   UNL     1       2.997  11.018  47.234  1.00  0.00     0.162 A 
ATOM     15  C   UNL     1       5.357  11.785  48.535  1.00  0.00     0.062 A 
ATOM     16  C   UNL     1       2.929  11.696  48.463  1.00  0.00     0.200 A 
ATOM     17  C   UNL     1       4.115  12.076  49.115  1.00  0.00     0.162 A 
BRANCH  14  18
ATOM     18  O   UNL     1       1.840  10.614  46.570  1.00  0.00    -0.504 OA
ATOM     19  H   UNL     1       0.914  10.865  46.898  1.00  0.00     0.293 HD
ENDBRANCH  14  18
BRANCH  16  20
ATOM     20  O   UNL     1       1.684  11.981  49.026  1.00  0.00    -0.502 OA
ATOM     21  H   UNL     1       0.833  11.532  48.709  1.00  0.00     0.293 HD
ENDBRANCH  16  20
BRANCH  17  22
ATOM     22  O   UNL     1       4.055  12.743  50.338  1.00  0.00    -0.504 OA
ATOM     23  H   UNL     1       3.570  12.347  51.136  1.00  0.00     0.293 HD
ENDBRANCH  17  22
ENDBRANCH   1  12
BRANCH   2  24
ATOM     24  O   UNL     1       7.005  13.053  45.812  1.00  0.00    -0.502 OA
ATOM     25  H   UNL     1       6.078  13.329  46.111  1.00  0.00     0.293 HD
ENDBRANCH   2  24
BRANCH   6  26
ATOM     26  O   UNL     1      11.234  10.255  44.182  1.00  0.00    -0.507 OA
ATOM     27  H   UNL     1      11.242  11.257  44.076  1.00  0.00     0.293 HD
ENDBRANCH   6  26
BRANCH   8  28
ATOM     28  O   UNL     1      10.544   6.183  46.634  1.00  0.00    -0.508 OA
ATOM     29  H   UNL     1      10.552   5.868  47.596  1.00  0.00     0.293 HD
ENDBRANCH   8  28
TORSDOF 7
ENDMDL
MODEL 2
REMARK VINA RESULT:    -6.755      0.619      1.860
REMARK INTER + INTRA:          -8.671
REMARK INTER:                  -8.465
REMARK INTRA:                  -0.206
REMARK UNBOUND:                -0.337
REMARK SMILES O=c1c(O)c(-c2cc(O)c(O)c(O)c2)oc2cc(O)cc(O)c12
REMARK SMILES IDX 5 1 3 2 2 3 1 4 23 5 21 6 20 7 18 8 17 9 16 10 15 11 6 12
REMARK SMILES IDX 7 13 8 14 14 15 10 16 12 17 9 18 11 20 13 22 4 24 22 26
REMARK SMILES IDX 19 28
REMARK H PARENT 9 19 11 21 13 23 4 25 22 27 19 29
REMARK Flexibility Score: inf
ROOT
ATOM      1  C   UNL     1       6.494  11.106  46.727  1.00  0.00     0.180 A 
ATOM      2  C   UNL     1       7.229  12.195  46.230  1.00  0.00     0.208 A 
ATOM      3  C   UNL     1       8.483  11.960  45.643  1.00  0.00     0.238 A 
ATOM      4  O   UNL     1       9.160  12.945  45.247  1.00  0.00    -0.285 OA
ATOM      5  C   UNL     1       8.978  10.637  45.547  1.00  0.00     0.111 A 
ATOM      6  C   UNL     1      10.217  10.277  44.935  1.00  0.00     0.134 A 
ATOM      7  C   UNL     1      10.668   8.955  45.013  1.00  0.00     0.093 A 
ATOM      8  C   UNL     1       9.892   7.965  45.623  1.00  0.00     0.123 A 
ATOM      9  C   UNL     1       8.655   8.294  46.169  1.00  0.00     0.094 A 
ATOM     10  C   UNL     1       8.195   9.613  46.140  1.00  0.00     0.146 A 
ATOM     11  O   UNL     1       7.015   9.885  46.681  1.00  0.00    -0.452 OA
ENDROOT
BRANCH   1  12
ATOM     12  C   UNL     1       5.154  11.272  47.337  1.00  0.00     0.029 A 
ATOM     13  C   UNL     1       4.982  11.971  48.544  1.00  0.00     0.062 A 
ATOM     14  C   UNL     1       3.707  12.139  49.095  1.00  0.00     0.162 A 
ATOM     15  C   UNL     1       4.025  10.773  46.670  1.00  0.00     0.062 A 
ATOM     16  C   UNL     1       2.583  11.618  48.433  1.00  0.00     0.200 A 
ATOM     17  C   UNL     1       2.745  10.936  47.215  1.00  0.00     0.162 A 
BRANCH  14  18
ATOM     18  O   UNL     1       3.578  12.833  50.297  1.00  0.00    -0.504 OA
ATOM     19  H   UNL     1       4.047  12.537  51.144  1.00  0.00     0.293 HD
ENDBRANCH  14  18
BRANCH  16  20
ATOM     20  O   UNL     1       1.314  11.787  48.991  1.00  0.00    -0.502 OA
ATOM     21  H   UNL     1       0.716  11.002  49.219  1.00  0.00     0.293 HD
ENDBRANCH  16  20
BRANCH  17  22
ATOM     22  O   UNL     1       1.632  10.423  46.549  1.00  0.00    -0.504 OA
ATOM     23  H   UNL     1       1.682   9.562  46.017  1.00  0.00     0.293 HD
ENDBRANCH  17  22
ENDBRANCH   1  12
BRANCH   2  24
ATOM     24  O   UNL     1       6.731  13.496  46.355  1.00  0.00    -0.502 OA
ATOM     25  H   UNL     1       6.817  14.184  45.617  1.00  0.00     0.293 HD
ENDBRANCH   2  24
BRANCH   6  26
ATOM     26  O   UNL     1      11.023  11.170  44.222  1.00  0.00    -0.507 OA
ATOM     27  H   UNL     1      11.887  11.563  44.562  1.00  0.00     0.293 HD
ENDBRANCH   6  26
BRANCH   8  28
ATOM     28  O   UNL     1      10.341   6.646  45.682  1.00  0.00    -0.508 OA
ATOM     29  H   UNL     1      10.930   6.254  44.957  1.00  0.00     0.293 HD
ENDBRANCH   8  28
TORSDOF 7
ENDMDL
MODEL 3
REMARK VINA RESULT:    -6.715      7.164     10.652
REMARK INTER + INTRA:          -8.622
REMARK INTER:                  -8.370
REMARK INTRA:                  -0.252
REMARK UNBOUND:                -0.337
REMARK SMILES O=c1c(O)c(-c2cc(O)c(O)c(O)c2)oc2cc(O)cc(O)c12
REMARK SMILES IDX 5 1 3 2 2 3 1 4 23 5 21 6 20 7 18 8 17 9 16 10 15 11 6 12
REMARK SMILES IDX 7 13 8 14 14 15 10 16 12 17 9 18 11 20 13 22 4 24 22 26
REMARK SMILES IDX 19 28
REMARK H PARENT 9 19 11 21 13 23 4 25 22 27 19 29
REMARK Flexibility Score: inf
ROOT
ATOM      1  C   UNL     1      10.962   4.153  51.579  1.00  0.00     0.180 A 
ATOM      2  C   UNL     1      12.171   3.899  52.249  1.00  0.00     0.208 A 
ATOM      3  C   UNL     1      12.135   3.287  53.512  1.00  0.00     0.238 A 
ATOM      4  O   UNL     1      13.218   3.111  54.130  1.00  0.00    -0.285 OA
ATOM      5  C   UNL     1      10.891   2.923  54.083  1.00  0.00     0.111 A 
ATOM      6  C   UNL     1      10.739   2.262  55.339  1.00  0.00     0.134 A 
ATOM      7  C   UNL     1       9.457   2.068  55.866  1.00  0.00     0.093 A 
ATOM      8  C   UNL     1       8.319   2.452  55.151  1.00  0.00     0.123 A 
ATOM      9  C   UNL     1       8.456   3.044  53.898  1.00  0.00     0.094 A 
ATOM     10  C   UNL     1       9.723   3.284  53.362  1.00  0.00     0.146 A 
ATOM     11  O   UNL     1       9.809   3.860  52.170  1.00  0.00    -0.452 OA
ENDROOT
BRANCH   1  12
ATOM     12  C   UNL     1      10.921   4.772  50.234  1.00  0.00     0.029 A 
ATOM     13  C   UNL     1      11.408   4.096  49.104  1.00  0.00     0.062 A 
ATOM     14  C   UNL     1      11.341   4.685  47.836  1.00  0.00     0.162 A 
ATOM     15  C   UNL     1      10.332   6.036  50.074  1.00  0.00     0.062 A 
ATOM     16  C   UNL     1      10.770   5.960  47.685  1.00  0.00     0.200 A 
ATOM     17  C   UNL     1      10.261   6.634  48.808  1.00  0.00     0.162 A 
BRANCH  14  18
ATOM     18  O   UNL     1      11.841   3.985  46.740  1.00  0.00    -0.504 OA
ATOM     19  H   UNL     1      11.688   2.991  46.619  1.00  0.00     0.293 HD
ENDBRANCH  14  18
BRANCH  16  20
ATOM     20  O   UNL     1      10.711   6.542  46.418  1.00  0.00    -0.502 OA
ATOM     21  H   UNL     1       9.836   6.840  46.001  1.00  0.00     0.293 HD
ENDBRANCH  16  20
BRANCH  17  22
ATOM     22  O   UNL     1       9.687   7.896  48.663  1.00  0.00    -0.504 OA
ATOM     23  H   UNL     1       8.969   8.077  47.970  1.00  0.00     0.293 HD
ENDBRANCH  17  22
ENDBRANCH   1  12
BRANCH   2  24
ATOM     24  O   UNL     1      13.386   4.286  51.676  1.00  0.00    -0.502 OA
ATOM     25  H   UNL     1      13.437   4.832  50.825  1.00  0.00     0.293 HD
ENDBRANCH   2  24
BRANCH   6  26
ATOM     26  O   UNL     1      11.805   1.756  56.089  1.00  0.00    -0.507 OA
ATOM     27  H   UNL     1      11.725   1.381  57.022  1.00  0.00     0.293 HD
ENDBRANCH   6  26
BRANCH   8  28
ATOM     28  O   UNL     1       7.045   2.240  55.676  1.00  0.00    -0.508 OA
ATOM     29  H   UNL     1       6.211   2.407  55.126  1.00  0.00     0.293 HD
ENDBRANCH   8  28
TORSDOF 7
ENDMDL
MODEL 4
REMARK VINA RESULT:    -6.690      1.338      7.159
REMARK INTER + INTRA:          -8.590
REMARK INTER:                  -8.320
REMARK INTRA:                  -0.270
REMARK UNBOUND:                -0.337
REMARK SMILES O=c1c(O)c(-c2cc(O)c(O)c(O)c2)oc2cc(O)cc(O)c12
REMARK SMILES IDX 5 1 3 2 2 3 1 4 23 5 21 6 20 7 18 8 17 9 16 10 15 11 6 12
REMARK SMILES IDX 7 13 8 14 14 15 10 16 12 17 9 18 11 20 13 22 4 24 22 26
REMARK SMILES IDX 19 28
REMARK H PARENT 9 19 11 21 13 23 4 25 22 27 19 29
REMARK Flexibility Score: inf
ROOT
ATOM      1  C   UNL     1       5.999  10.922  47.102  1.00  0.00     0.180 A 
ATOM      2  C   UNL     1       6.026  11.814  48.188  1.00  0.00     0.208 A 
ATOM      3  C   UNL     1       4.819  12.156  48.820  1.00  0.00     0.238 A 
ATOM      4  O   UNL     1       4.844  12.996  49.757  1.00  0.00    -0.285 OA
ATOM      5  C   UNL     1       3.603  11.589  48.367  1.00  0.00     0.111 A 
ATOM      6  C   UNL     1       2.326  11.833  48.958  1.00  0.00     0.134 A 
ATOM      7  C   UNL     1       1.174  11.324  48.347  1.00  0.00     0.093 A 
ATOM      8  C   UNL     1       1.258  10.524  47.205  1.00  0.00     0.123 A 
ATOM      9  C   UNL     1       2.504  10.230  46.656  1.00  0.00     0.094 A 
ATOM     10  C   UNL     1       3.669  10.755  47.221  1.00  0.00     0.146 A 
ATOM     11  O   UNL     1       4.835  10.459  46.661  1.00  0.00    -0.452 OA
ENDROOT
BRANCH   1  12
ATOM     12  C   UNL     1       7.232  10.495  46.402  1.00  0.00     0.029 A 
ATOM     13  C   UNL     1       7.936  11.372  45.561  1.00  0.00     0.062 A 
ATOM     14  C   UNL     1       9.112  10.961  44.925  1.00  0.00     0.162 A 
ATOM     15  C   UNL     1       7.743   9.206  46.627  1.00  0.00     0.062 A 
ATOM     16  C   UNL     1       9.607   9.662  45.137  1.00  0.00     0.200 A 
ATOM     17  C   UNL     1       8.919   8.786  45.994  1.00  0.00     0.162 A 
BRANCH  14  18
ATOM     18  O   UNL     1       9.779  11.858  44.093  1.00  0.00    -0.504 OA
ATOM     19  H   UNL     1       9.331  12.287  43.292  1.00  0.00     0.293 HD
ENDBRANCH  14  18
BRANCH  16  20
ATOM     20  O   UNL     1      10.779   9.258  44.495  1.00  0.00    -0.502 OA
ATOM     21  H   UNL     1      11.004   8.282  44.347  1.00  0.00     0.293 HD
ENDBRANCH  16  20
BRANCH  17  22
ATOM     22  O   UNL     1       9.409   7.499  46.213  1.00  0.00    -0.504 OA
ATOM     23  H   UNL     1       8.787   6.715  46.375  1.00  0.00     0.293 HD
ENDBRANCH  17  22
ENDBRANCH   1  12
BRANCH   2  24
ATOM     24  O   UNL     1       7.235  12.377  48.605  1.00  0.00    -0.502 OA
ATOM     25  H   UNL     1       7.593  13.242  48.218  1.00  0.00     0.293 HD
ENDBRANCH   2  24
BRANCH   6  26
ATOM     26  O   UNL     1       2.140  12.542  50.149  1.00  0.00    -0.507 OA
ATOM     27  H   UNL     1       2.867  13.037  50.643  1.00  0.00     0.293 HD
ENDBRANCH   6  26
BRANCH   8  28
ATOM     28  O   UNL     1       0.107  10.006  46.613  1.00  0.00    -0.508 OA
ATOM     29  H   UNL     1      -0.712  10.580  46.458  1.00  0.00     0.293 HD
ENDBRANCH   8  28
TORSDOF 7
ENDMDL
MODEL 5
REMARK VINA RESULT:    -6.503      8.518     12.405
REMARK INTER + INTRA:          -8.360
REMARK INTER:                  -8.023
REMARK INTRA:                  -0.336
REMARK UNBOUND:                -0.337
REMARK SMILES O=c1c(O)c(-c2cc(O)c(O)c(O)c2)oc2cc(O)cc(O)c12
REMARK SMILES IDX 5 1 3 2 2 3 1 4 23 5 21 6 20 7 18 8 17 9 16 10 15 11 6 12
REMARK SMILES IDX 7 13 8 14 14 15 10 16 12 17 9 18 11 20 13 22 4 24 22 26
REMARK SMILES IDX 19 28
REMARK H PARENT 9 19 11 21 13 23 4 25 22 27 19 29
REMARK Flexibility Score: inf
ROOT
ATOM      1  C   UNL     1      11.115   3.901  53.753  1.00  0.00     0.180 A 
ATOM      2  C   UNL     1      10.518   2.638  53.912  1.00  0.00     0.208 A 
ATOM      3  C   UNL     1       9.120   2.534  53.848  1.00  0.00     0.238 A 
ATOM      4  O   UNL     1       8.588   1.409  54.044  1.00  0.00    -0.285 OA
ATOM      5  C   UNL     1       8.337   3.690  53.611  1.00  0.00     0.111 A 
ATOM      6  C   UNL     1       6.915   3.694  53.486  1.00  0.00     0.134 A 
ATOM      7  C   UNL     1       6.234   4.912  53.383  1.00  0.00     0.093 A 
ATOM      8  C   UNL     1       6.930   6.123  53.332  1.00  0.00     0.123 A 
ATOM      9  C   UNL     1       8.321   6.125  53.392  1.00  0.00     0.094 A 
ATOM     10  C   UNL     1       9.026   4.927  53.533  1.00  0.00     0.146 A 
ATOM     11  O   UNL     1      10.350   4.975  53.597  1.00  0.00    -0.452 OA
ENDROOT
BRANCH   1  12
ATOM     12  C   UNL     1      12.585   4.087  53.783  1.00  0.00     0.029 A 
ATOM     13  C   UNL     1      13.384   3.773  52.671  1.00  0.00     0.062 A 
ATOM     14  C   UNL     1      14.767   3.976  52.708  1.00  0.00     0.162 A 
ATOM     15  C   UNL     1      13.187   4.642  54.923  1.00  0.00     0.062 A 
ATOM     16  C   UNL     1      15.368   4.511  53.860  1.00  0.00     0.200 A 
ATOM     17  C   UNL     1      14.572   4.848  54.968  1.00  0.00     0.162 A 
BRANCH  14  18
ATOM     18  O   UNL     1      15.528   3.647  51.587  1.00  0.00    -0.504 OA
ATOM     19  H   UNL     1      15.182   3.777  50.643  1.00  0.00     0.293 HD
ENDBRANCH  14  18
BRANCH  16  20
ATOM     20  O   UNL     1      16.750   4.707  53.889  1.00  0.00    -0.502 OA
ATOM     21  H   UNL     1      17.166   5.628  53.814  1.00  0.00     0.293 HD
ENDBRANCH  16  20
BRANCH  17  22
ATOM     22  O   UNL     1      15.161   5.386  56.112  1.00  0.00    -0.504 OA
ATOM     23  H   UNL     1      15.216   6.387  56.260  1.00  0.00     0.293 HD
ENDBRANCH  17  22
ENDBRANCH   1  12
BRANCH   2  24
ATOM     24  O   UNL     1      11.309   1.514  54.167  1.00  0.00    -0.502 OA
ATOM     25  H   UNL     1      11.620   0.890  53.433  1.00  0.00     0.293 HD
ENDBRANCH   2  24
BRANCH   6  26
ATOM     26  O   UNL     1       6.133   2.535  53.432  1.00  0.00    -0.507 OA
ATOM     27  H   UNL     1       5.599   2.166  54.204  1.00  0.00     0.293 HD
ENDBRANCH   6  26
BRANCH   8  28
ATOM     28  O   UNL     1       6.245   7.331  53.211  1.00  0.00    -0.508 OA
ATOM     29  H   UNL     1       5.539   7.471  52.500  1.00  0.00     0.293 HD
ENDBRANCH   8  28
TORSDOF 7
ENDMDL
MODEL 6
REMARK VINA RESULT:    -6.342      6.477      8.937
REMARK INTER + INTRA:          -8.162
REMARK INTER:                  -7.874
REMARK INTRA:                  -0.288
REMARK UNBOUND:                -0.337
REMARK SMILES O=c1c(O)c(-c2cc(O)c(O)c(O)c2)oc2cc(O)cc(O)c12
REMARK SMILES IDX 5 1 3 2 2 3 1 4 23 5 21 6 20 7 18 8 17 9 16 10 15 11 6 12
REMARK SMILES IDX 7 13 8 14 14 15 10 16 12 17 9 18 11 20 13 22 4 24 22 26
REMARK SMILES IDX 19 28
REMARK H PARENT 9 19 11 21 13 23 4 25 22 27 19 29
REMARK Flexibility Score: inf
ROOT
ATOM      1  C   UNL     1       9.232   5.273  51.886  1.00  0.00     0.180 A 
ATOM      2  C   UNL     1       9.111   6.592  52.357  1.00  0.00     0.208 A 
ATOM      3  C   UNL     1       9.276   7.655  51.455  1.00  0.00     0.238 A 
ATOM      4  O   UNL     1       9.219   8.834  51.892  1.00  0.00    -0.285 OA
ATOM      5  C   UNL     1       9.546   7.386  50.091  1.00  0.00     0.111 A 
ATOM      6  C   UNL     1       9.692   8.385  49.081  1.00  0.00     0.134 A 
ATOM      7  C   UNL     1      10.087   8.010  47.792  1.00  0.00     0.093 A 
ATOM      8  C   UNL     1      10.276   6.666  47.458  1.00  0.00     0.123 A 
ATOM      9  C   UNL     1      10.077   5.680  48.421  1.00  0.00     0.094 A 
ATOM     10  C   UNL     1       9.719   6.025  49.727  1.00  0.00     0.146 A 
ATOM     11  O   UNL     1       9.550   5.056  50.616  1.00  0.00    -0.452 OA
ENDROOT
BRANCH   1  12
ATOM     12  C   UNL     1       9.046   4.101  52.772  1.00  0.00     0.029 A 
ATOM     13  C   UNL     1       7.775   3.742  53.252  1.00  0.00     0.062 A 
ATOM     14  C   UNL     1       7.613   2.617  54.069  1.00  0.00     0.162 A 
ATOM     15  C   UNL     1      10.150   3.297  53.094  1.00  0.00     0.062 A 
ATOM     16  C   UNL     1       8.726   1.829  54.406  1.00  0.00     0.200 A 
ATOM     17  C   UNL     1       9.997   2.170  53.913  1.00  0.00     0.162 A 
BRANCH  14  18
ATOM     18  O   UNL     1       6.337   2.297  54.530  1.00  0.00    -0.504 OA
ATOM     19  H   UNL     1       6.167   1.504  55.138  1.00  0.00     0.293 HD
ENDBRANCH  14  18
BRANCH  16  20
ATOM     20  O   UNL     1       8.556   0.711  55.225  1.00  0.00    -0.502 OA
ATOM     21  H   UNL     1       7.947   0.723  56.034  1.00  0.00     0.293 HD
ENDBRANCH  16  20
BRANCH  17  22
ATOM     22  O   UNL     1      11.104   1.387  54.237  1.00  0.00    -0.504 OA
ATOM     23  H   UNL     1      11.379   0.594  53.669  1.00  0.00     0.293 HD
ENDBRANCH  17  22
ENDBRANCH   1  12
BRANCH   2  24
ATOM     24  O   UNL     1       8.866   6.836  53.712  1.00  0.00    -0.502 OA
ATOM     25  H   UNL     1       8.858   6.097  54.404  1.00  0.00     0.293 HD
ENDBRANCH   2  24
BRANCH   6  26
ATOM     26  O   UNL     1       9.437   9.744  49.286  1.00  0.00    -0.507 OA
ATOM     27  H   UNL     1      10.057  10.380  49.763  1.00  0.00     0.293 HD
ENDBRANCH   6  26
BRANCH   8  28
ATOM     28  O   UNL     1      10.652   6.300  46.167  1.00  0.00    -0.508 OA
ATOM     29  H   UNL     1      10.500   5.363  45.817  1.00  0.00     0.293 HD
ENDBRANCH   8  28
TORSDOF 7
ENDMDL
MODEL 7
REMARK VINA RESULT:    -6.307      6.454      8.970
REMARK INTER + INTRA:          -8.118
REMARK INTER:                  -7.844
REMARK INTRA:                  -0.274
REMARK UNBOUND:                -0.337
REMARK SMILES O=c1c(O)c(-c2cc(O)c(O)c(O)c2)oc2cc(O)cc(O)c12
REMARK SMILES IDX 5 1 3 2 2 3 1 4 23 5 21 6 20 7 18 8 17 9 16 10 15 11 6 12
REMARK SMILES IDX 7 13 8 14 14 15 10 16 12 17 9 18 11 20 13 22 4 24 22 26
REMARK SMILES IDX 19 28
REMARK H PARENT 9 19 11 21 13 23 4 25 22 27 19 29
REMARK Flexibility Score: inf
ROOT
ATOM      1  C   UNL     1       9.264   5.265  51.829  1.00  0.00     0.180 A 
ATOM      2  C   UNL     1       9.179   6.574  52.335  1.00  0.00     0.208 A 
ATOM      3  C   UNL     1       9.345   7.656  51.455  1.00  0.00     0.238 A 
ATOM      4  O   UNL     1       9.321   8.825  51.923  1.00  0.00    -0.285 OA
ATOM      5  C   UNL     1       9.578   7.416  50.079  1.00  0.00     0.111 A 
ATOM      6  C   UNL     1       9.721   8.436  49.091  1.00  0.00     0.134 A 
ATOM      7  C   UNL     1      10.080   8.087  47.784  1.00  0.00     0.093 A 
ATOM      8  C   UNL     1      10.235   6.748  47.414  1.00  0.00     0.123 A 
ATOM      9  C   UNL     1      10.038   5.742  48.356  1.00  0.00     0.094 A 
ATOM     10  C   UNL     1       9.717   6.062  49.678  1.00  0.00     0.146 A 
ATOM     11  O   UNL     1       9.549   5.073  50.547  1.00  0.00    -0.452 OA
ENDROOT
BRANCH   1  12
ATOM     12  C   UNL     1       9.075   4.075  52.690  1.00  0.00     0.029 A 
ATOM     13  C   UNL     1      10.163   3.279  53.085  1.00  0.00     0.062 A 
ATOM     14  C   UNL     1       9.970   2.171  53.917  1.00  0.00     0.162 A 
ATOM     15  C   UNL     1       7.792   3.765  53.169  1.00  0.00     0.062 A 
ATOM     16  C   UNL     1       8.681   1.853  54.376  1.00  0.00     0.200 A 
ATOM     17  C   UNL     1       7.590   2.657  54.002  1.00  0.00     0.162 A 
BRANCH  14  18
ATOM     18  O   UNL     1      11.074   1.402  54.283  1.00  0.00    -0.504 OA
ATOM     19  H   UNL     1      11.161   0.426  54.025  1.00  0.00     0.293 HD
ENDBRANCH  14  18
BRANCH  16  20
ATOM     20  O   UNL     1       8.497   0.743  55.202  1.00  0.00    -0.502 OA
ATOM     21  H   UNL     1       9.136   0.519  55.955  1.00  0.00     0.293 HD
ENDBRANCH  16  20
BRANCH  17  22
ATOM     22  O   UNL     1       6.309   2.352  54.459  1.00  0.00    -0.504 OA
ATOM     23  H   UNL     1       5.555   2.131  53.819  1.00  0.00     0.293 HD
ENDBRANCH  17  22
ENDBRANCH   1  12
BRANCH   2  24
ATOM     24  O   UNL     1       8.969   6.788  53.700  1.00  0.00    -0.502 OA
ATOM     25  H   UNL     1       9.538   6.348  54.413  1.00  0.00     0.293 HD
ENDBRANCH   2  24
BRANCH   6  26
ATOM     26  O   UNL     1       9.497   9.795  49.335  1.00  0.00    -0.507 OA
ATOM     27  H   UNL     1       8.894  10.158  50.057  1.00  0.00     0.293 HD
ENDBRANCH   6  26
BRANCH   8  28
ATOM     28  O   UNL     1      10.575   6.408  46.106  1.00  0.00    -0.508 OA
ATOM     29  H   UNL     1      10.064   6.776  45.313  1.00  0.00     0.293 HD
ENDBRANCH   8  28
TORSDOF 7
ENDMDL
MODEL 8
REMARK VINA RESULT:    -6.267      6.175      8.941
REMARK INTER + INTRA:          -8.069
REMARK INTER:                  -7.717
REMARK INTRA:                  -0.352
REMARK UNBOUND:                -0.337
REMARK SMILES O=c1c(O)c(-c2cc(O)c(O)c(O)c2)oc2cc(O)cc(O)c12
REMARK SMILES IDX 5 1 3 2 2 3 1 4 23 5 21 6 20 7 18 8 17 9 16 10 15 11 6 12
REMARK SMILES IDX 7 13 8 14 14 15 10 16 12 17 9 18 11 20 13 22 4 24 22 26
REMARK SMILES IDX 19 28
REMARK H PARENT 9 19 11 21 13 23 4 25 22 27 19 29
REMARK Flexibility Score: inf
ROOT
ATOM      1  C   UNL     1       9.776   5.249  50.873  1.00  0.00     0.180 A 
ATOM      2  C   UNL     1      11.074   4.751  51.077  1.00  0.00     0.208 A 
ATOM      3  C   UNL     1      11.292   3.817  52.102  1.00  0.00     0.238 A 
ATOM      4  O   UNL     1      12.466   3.414  52.315  1.00  0.00    -0.285 OA
ATOM      5  C   UNL     1      10.206   3.381  52.900  1.00  0.00     0.111 A 
ATOM      6  C   UNL     1      10.304   2.407  53.939  1.00  0.00     0.134 A 
ATOM      7  C   UNL     1       9.192   2.149  54.750  1.00  0.00     0.093 A 
ATOM      8  C   UNL     1       7.968   2.780  54.516  1.00  0.00     0.123 A 
ATOM      9  C   UNL     1       7.847   3.687  53.466  1.00  0.00     0.094 A 
ATOM     10  C   UNL     1       8.948   3.993  52.663  1.00  0.00     0.146 A 
ATOM     11  O   UNL     1       8.792   4.870  51.680  1.00  0.00    -0.452 OA
ENDROOT
BRANCH   1  12
ATOM     12  C   UNL     1       9.464   6.217  49.796  1.00  0.00     0.029 A 
ATOM     13  C   UNL     1       8.963   5.793  48.554  1.00  0.00     0.062 A 
ATOM     14  C   UNL     1       8.651   6.722  47.556  1.00  0.00     0.162 A 
ATOM     15  C   UNL     1       9.618   7.592  50.037  1.00  0.00     0.062 A 
ATOM     16  C   UNL     1       8.827   8.095  47.795  1.00  0.00     0.200 A 
ATOM     17  C   UNL     1       9.309   8.529  49.043  1.00  0.00     0.162 A 
BRANCH  14  18
ATOM     18  O   UNL     1       8.161   6.262  46.335  1.00  0.00    -0.504 OA
ATOM     19  H   UNL     1       7.191   6.374  46.065  1.00  0.00     0.293 HD
ENDBRANCH  14  18
BRANCH  16  20
ATOM     20  O   UNL     1       8.518   9.016  46.792  1.00  0.00    -0.502 OA
ATOM     21  H   UNL     1       7.622   9.019  46.320  1.00  0.00     0.293 HD
ENDBRANCH  16  20
BRANCH  17  22
ATOM     22  O   UNL     1       9.479   9.890  49.290  1.00  0.00    -0.504 OA
ATOM     23  H   UNL     1       9.913  10.226  50.142  1.00  0.00     0.293 HD
ENDBRANCH  17  22
ENDBRANCH   1  12
BRANCH   2  24
ATOM     24  O   UNL     1      12.136   5.211  50.292  1.00  0.00    -0.502 OA
ATOM     25  H   UNL     1      12.144   5.124  49.283  1.00  0.00     0.293 HD
ENDBRANCH   2  24
BRANCH   6  26
ATOM     26  O   UNL     1      11.453   1.653  54.197  1.00  0.00    -0.507 OA
ATOM     27  H   UNL     1      11.598   0.703  53.893  1.00  0.00     0.293 HD
ENDBRANCH   6  26
BRANCH   8  28
ATOM     28  O   UNL     1       6.861   2.505  55.317  1.00  0.00    -0.508 OA
ATOM     29  H   UNL     1       6.906   2.582  56.326  1.00  0.00     0.293 HD
ENDBRANCH   8  28
TORSDOF 7
ENDMDL
MODEL 9
REMARK VINA RESULT:    -6.169      7.421     11.141
REMARK INTER + INTRA:          -7.948
REMARK INTER:                  -7.612
REMARK INTRA:                  -0.336
REMARK UNBOUND:                -0.337
REMARK SMILES O=c1c(O)c(-c2cc(O)c(O)c(O)c2)oc2cc(O)cc(O)c12
REMARK SMILES IDX 5 1 3 2 2 3 1 4 23 5 21 6 20 7 18 8 17 9 16 10 15 11 6 12
REMARK SMILES IDX 7 13 8 14 14 15 10 16 12 17 9 18 11 20 13 22 4 24 22 26
REMARK SMILES IDX 19 28
REMARK H PARENT 9 19 11 21 13 23 4 25 22 27 19 29
REMARK Flexibility Score: inf
ROOT
ATOM      1  C   UNL     1      12.502   4.278  48.916  1.00  0.00     0.180 A 
ATOM      2  C   UNL     1      11.289   4.792  48.426  1.00  0.00     0.208 A 
ATOM      3  C   UNL     1      10.205   4.937  49.307  1.00  0.00     0.238 A 
ATOM      4  O   UNL     1       9.106   5.348  48.852  1.00  0.00    -0.285 OA
ATOM      5  C   UNL     1      10.354   4.582  50.670  1.00  0.00     0.111 A 
ATOM      6  C   UNL     1       9.335   4.726  51.660  1.00  0.00     0.134 A 
ATOM      7  C   UNL     1       9.548   4.220  52.948  1.00  0.00     0.093 A 
ATOM      8  C   UNL     1      10.768   3.636  53.300  1.00  0.00     0.123 A 
ATOM      9  C   UNL     1      11.789   3.545  52.357  1.00  0.00     0.094 A 
ATOM     10  C   UNL     1      11.593   4.007  51.053  1.00  0.00     0.146 A 
ATOM     11  O   UNL     1      12.588   3.892  50.183  1.00  0.00    -0.452 OA
ENDROOT
BRANCH   1  12
ATOM     12  C   UNL     1      13.695   4.118  48.053  1.00  0.00     0.029 A 
ATOM     13  C   UNL     1      14.505   5.216  47.716  1.00  0.00     0.062 A 
ATOM     14  C   UNL     1      15.642   5.045  46.920  1.00  0.00     0.162 A 
ATOM     15  C   UNL     1      14.060   2.838  47.608  1.00  0.00     0.062 A 
ATOM     16  C   UNL     1      15.990   3.764  46.459  1.00  0.00     0.200 A 
ATOM     17  C   UNL     1      15.197   2.658  46.809  1.00  0.00     0.162 A 
BRANCH  14  18
ATOM     18  O   UNL     1      16.417   6.159  46.602  1.00  0.00    -0.504 OA
ATOM     19  H   UNL     1      16.007   7.030  46.287  1.00  0.00     0.293 HD
ENDBRANCH  14  18
BRANCH  16  20
ATOM     20  O   UNL     1      17.124   3.602  45.661  1.00  0.00    -0.502 OA
ATOM     21  H   UNL     1      17.213   4.044  44.753  1.00  0.00     0.293 HD
ENDBRANCH  16  20
BRANCH  17  22
ATOM     22  O   UNL     1      15.541   1.383  46.362  1.00  0.00    -0.504 OA
ATOM     23  H   UNL     1      16.377   1.221  45.813  1.00  0.00     0.293 HD
ENDBRANCH  17  22
ENDBRANCH   1  12
BRANCH   2  24
ATOM     24  O   UNL     1      11.158   5.116  47.072  1.00  0.00    -0.502 OA
ATOM     25  H   UNL     1      10.803   4.459  46.388  1.00  0.00     0.293 HD
ENDBRANCH   2  24
BRANCH   6  26
ATOM     26  O   UNL     1       8.117   5.376  51.438  1.00  0.00    -0.507 OA
ATOM     27  H   UNL     1       7.476   5.659  52.163  1.00  0.00     0.293 HD
ENDBRANCH   6  26
BRANCH   8  28
ATOM     28  O   UNL     1      10.977   3.150  54.589  1.00  0.00    -0.508 OA
ATOM     29  H   UNL     1      10.285   3.267  55.318  1.00  0.00     0.293 HD
ENDBRANCH   8  28
TORSDOF 7
ENDMDL
