MODEL 1
REMARK VINA RESULT:    -3.457      0.000      0.000
REMARK INTER + INTRA:          -5.720
REMARK INTER:                  -4.670
REMARK INTRA:                  -1.050
REMARK UNBOUND:                -1.050
REMARK SMILES CC(=O)CCC=C(C)CCC=C(C)C
REMARK SMILES IDX 7 1 6 2 8 3 9 4 10 5 11 6 13 7 12 8 14 9 5 10 4 11 2 12 3 13
REMARK SMILES IDX 1 14
REMARK H PARENT
REMARK Flexibility Score: inf
ROOT
ATOM      1  C   UNL     1      26.684  42.306  20.154  1.00  0.00    -0.077 C 
ATOM      2  C   UNL     1      27.258  41.752  19.061  1.00  0.00    -0.028 C 
ATOM      3  C   UNL     1      25.844  41.496  21.112  1.00  0.00     0.039 C 
ENDROOT
BRANCH   1   4
ATOM      4  C   UNL     1      26.882  43.784  20.415  1.00  0.00     0.034 C 
BRANCH   4   5
ATOM      5  C   UNL     1      28.164  44.031  21.218  1.00  0.00     0.032 C 
BRANCH   5   6
ATOM      6  C   UNL     1      27.876  44.100  22.699  1.00  0.00    -0.028 C 
ATOM      7  C   UNL     1      28.936  41.873  23.096  1.00  0.00     0.039 C 
ATOM      8  C   UNL     1      28.224  43.121  23.562  1.00  0.00    -0.080 C 
ATOM      9  C   UNL     1      27.889  43.290  25.021  1.00  0.00     0.039 C 
ENDBRANCH   5   6
ENDBRANCH   4   5
ENDBRANCH   1   4
BRANCH   2  10
ATOM     10  C   UNL     1      27.187  40.285  18.706  1.00  0.00     0.035 C 
BRANCH  10  11
ATOM     11  C   UNL     1      28.490  39.553  19.051  1.00  0.00     0.079 C 
BRANCH  11  12
ATOM     12  C   UNL     1      28.226  38.244  19.749  1.00  0.00     0.130 C 
ATOM     13  O   UNL     1      29.069  37.359  19.719  1.00  0.00    -0.300 OA
ATOM     14  C   UNL     1      26.931  38.015  20.468  1.00  0.00     0.087 C 
ENDBRANCH  11  12
ENDBRANCH  10  11
ENDBRANCH   2  10
TORSDOF 6
ENDMDL
MODEL 2
REMARK VINA RESULT:    -3.312     13.389     16.467
REMARK INTER + INTRA:          -5.524
REMARK INTER:                  -4.578
REMARK INTRA:                  -0.946
REMARK UNBOUND:                -1.050
REMARK SMILES CC(=O)CCC=C(C)CCC=C(C)C
REMARK SMILES IDX 7 1 6 2 8 3 9 4 10 5 11 6 13 7 12 8 14 9 5 10 4 11 2 12 3 13
REMARK SMILES IDX 1 14
REMARK H PARENT
REMARK Flexibility Score: inf
ROOT
ATOM      1  C   UNL     1      27.899  25.012  26.931  1.00  0.00    -0.077 C 
ATOM      2  C   UNL     1      28.010  25.039  28.279  1.00  0.00    -0.028 C 
ATOM      3  C   UNL     1      26.697  24.412  26.242  1.00  0.00     0.039 C 
ENDROOT
BRANCH   1   4
ATOM      4  C   UNL     1      29.019  25.588  26.092  1.00  0.00     0.034 C 
BRANCH   4   5
ATOM      5  C   UNL     1      29.125  27.105  26.288  1.00  0.00     0.032 C 
BRANCH   5   6
ATOM      6  C   UNL     1      28.250  27.845  25.304  1.00  0.00    -0.028 C 
ATOM      7  C   UNL     1      28.927  30.061  26.237  1.00  0.00     0.039 C 
ATOM      8  C   UNL     1      28.153  29.191  25.274  1.00  0.00    -0.080 C 
ATOM      9  C   UNL     1      27.250  29.830  24.251  1.00  0.00     0.039 C 
ENDBRANCH   5   6
ENDBRANCH   4   5
ENDBRANCH   1   4
BRANCH   2  10
ATOM     10  C   UNL     1      26.950  24.548  29.237  1.00  0.00     0.035 C 
BRANCH  10  11
ATOM     11  C   UNL     1      26.257  25.708  29.963  1.00  0.00     0.079 C 
BRANCH  11  12
ATOM     12  C   UNL     1      25.636  26.680  28.994  1.00  0.00     0.130 C 
ATOM     13  O   UNL     1      24.618  26.370  28.391  1.00  0.00    -0.300 OA
ATOM     14  C   UNL     1      26.265  28.018  28.753  1.00  0.00     0.087 C 
ENDBRANCH  11  12
ENDBRANCH  10  11
ENDBRANCH   2  10
TORSDOF 6
ENDMDL
MODEL 3
REMARK VINA RESULT:    -3.245     13.476     16.593
REMARK INTER + INTRA:          -5.433
REMARK INTER:                  -4.548
REMARK INTRA:                  -0.885
REMARK UNBOUND:                -1.050
REMARK SMILES CC(=O)CCC=C(C)CCC=C(C)C
REMARK SMILES IDX 7 1 6 2 8 3 9 4 10 5 11 6 13 7 12 8 14 9 5 10 4 11 2 12 3 13
REMARK SMILES IDX 1 14
REMARK H PARENT
REMARK Flexibility Score: inf
ROOT
ATOM      1  C   UNL     1      27.545  24.844  26.362  1.00  0.00    -0.077 C 
ATOM      2  C   UNL     1      27.567  26.056  25.761  1.00  0.00    -0.028 C 
ATOM      3  C   UNL     1      28.767  24.267  27.036  1.00  0.00     0.039 C 
ENDROOT
BRANCH   1   4
ATOM      4  C   UNL     1      26.263  24.041  26.345  1.00  0.00     0.034 C 
BRANCH   4   5
ATOM      5  C   UNL     1      25.525  24.160  27.683  1.00  0.00     0.032 C 
BRANCH   5   6
ATOM      6  C   UNL     1      25.356  25.606  28.087  1.00  0.00    -0.028 C 
ATOM      7  C   UNL     1      26.892  25.329  30.038  1.00  0.00     0.039 C 
ATOM      8  C   UNL     1      25.974  26.146  29.158  1.00  0.00    -0.080 C 
ATOM      9  C   UNL     1      25.738  27.600  29.473  1.00  0.00     0.039 C 
ENDBRANCH   5   6
ENDBRANCH   4   5
ENDBRANCH   1   4
BRANCH   2  10
ATOM     10  C   UNL     1      28.758  26.985  25.745  1.00  0.00     0.035 C 
BRANCH  10  11
ATOM     11  C   UNL     1      28.551  28.193  26.667  1.00  0.00     0.079 C 
BRANCH  11  12
ATOM     12  C   UNL     1      28.434  29.477  25.887  1.00  0.00     0.130 C 
ATOM     13  O   UNL     1      29.000  30.484  26.286  1.00  0.00    -0.300 OA
ATOM     14  C   UNL     1      27.615  29.531  24.633  1.00  0.00     0.087 C 
ENDBRANCH  11  12
ENDBRANCH  10  11
ENDBRANCH   2  10
TORSDOF 6
ENDMDL
MODEL 4
REMARK VINA RESULT:    -3.067     13.118     16.004
REMARK INTER + INTRA:          -5.193
REMARK INTER:                  -4.344
REMARK INTRA:                  -0.849
REMARK UNBOUND:                -1.050
REMARK SMILES CC(=O)CCC=C(C)CCC=C(C)C
REMARK SMILES IDX 7 1 6 2 8 3 9 4 10 5 11 6 13 7 12 8 14 9 5 10 4 11 2 12 3 13
REMARK SMILES IDX 1 14
REMARK H PARENT
REMARK Flexibility Score: inf
ROOT
ATOM      1  C   UNL     1      26.534  27.627  28.831  1.00  0.00    -0.077 C 
ATOM      2  C   UNL     1      25.250  28.020  28.658  1.00  0.00    -0.028 C 
ATOM      3  C   UNL     1      26.921  26.168  28.875  1.00  0.00     0.039 C 
ENDROOT
BRANCH   1   4
ATOM      4  C   UNL     1      27.607  28.681  28.996  1.00  0.00     0.034 C 
BRANCH   4   5
ATOM      5  C   UNL     1      28.672  28.555  27.901  1.00  0.00     0.032 C 
BRANCH   5   6
ATOM      6  C   UNL     1      28.276  29.324  26.663  1.00  0.00    -0.028 C 
ATOM      7  C   UNL     1      27.758  27.222  25.417  1.00  0.00     0.039 C 
ATOM      8  C   UNL     1      27.860  28.726  25.527  1.00  0.00    -0.080 C 
ATOM      9  C   UNL     1      27.488  29.587  24.349  1.00  0.00     0.039 C 
ENDBRANCH   5   6
ENDBRANCH   4   5
ENDBRANCH   1   4
BRANCH   2  10
ATOM     10  C   UNL     1      24.089  27.082  28.430  1.00  0.00     0.035 C 
BRANCH  10  11
ATOM     11  C   UNL     1      22.769  27.843  28.254  1.00  0.00     0.079 C 
BRANCH  11  12
ATOM     12  C   UNL     1      21.579  26.924  28.341  1.00  0.00     0.130 C 
ATOM     13  O   UNL     1      20.689  27.157  29.147  1.00  0.00    -0.300 OA
ATOM     14  C   UNL     1      21.486  25.717  27.458  1.00  0.00     0.087 C 
ENDBRANCH  11  12
ENDBRANCH  10  11
ENDBRANCH   2  10
TORSDOF 6
ENDMDL
MODEL 5
REMARK VINA RESULT:    -2.989     12.902     16.014
REMARK INTER + INTRA:          -5.088
REMARK INTER:                  -4.210
REMARK INTRA:                  -0.878
REMARK UNBOUND:                -1.050
REMARK SMILES CC(=O)CCC=C(C)CCC=C(C)C
REMARK SMILES IDX 7 1 6 2 8 3 9 4 10 5 11 6 13 7 12 8 14 9 5 10 4 11 2 12 3 13
REMARK SMILES IDX 1 14
REMARK H PARENT
REMARK Flexibility Score: inf
ROOT
ATOM      1  C   UNL     1      26.572  25.659  27.589  1.00  0.00    -0.077 C 
ATOM      2  C   UNL     1      26.730  26.722  28.412  1.00  0.00    -0.028 C 
ATOM      3  C   UNL     1      25.420  24.695  27.743  1.00  0.00     0.039 C 
ENDROOT
BRANCH   1   4
ATOM      4  C   UNL     1      27.587  25.426  26.490  1.00  0.00     0.034 C 
BRANCH   4   5
ATOM      5  C   UNL     1      28.535  26.623  26.358  1.00  0.00     0.032 C 
BRANCH   5   6
ATOM      6  C   UNL     1      28.016  27.622  25.350  1.00  0.00    -0.028 C 
ATOM      7  C   UNL     1      28.629  29.549  26.816  1.00  0.00     0.039 C 
ATOM      8  C   UNL     1      28.055  28.956  25.550  1.00  0.00    -0.080 C 
ATOM      9  C   UNL     1      27.511  29.865  24.479  1.00  0.00     0.039 C 
ENDBRANCH   5   6
ENDBRANCH   4   5
ENDBRANCH   1   4
BRANCH   2  10
ATOM     10  C   UNL     1      25.771  27.104  29.514  1.00  0.00     0.035 C 
BRANCH  10  11
ATOM     11  C   UNL     1      25.533  28.618  29.562  1.00  0.00     0.079 C 
BRANCH  11  12
ATOM     12  C   UNL     1      24.099  28.968  29.259  1.00  0.00     0.130 C 
ATOM     13  O   UNL     1      23.566  29.902  29.840  1.00  0.00    -0.300 OA
ATOM     14  C   UNL     1      23.318  28.168  28.261  1.00  0.00     0.087 C 
ENDBRANCH  11  12
ENDBRANCH  10  11
ENDBRANCH   2  10
TORSDOF 6
ENDMDL
MODEL 6
REMARK VINA RESULT:    -2.969      2.624      5.504
REMARK INTER + INTRA:          -5.061
REMARK INTER:                  -4.508
REMARK INTRA:                  -0.552
REMARK UNBOUND:                -1.050
REMARK SMILES CC(=O)CCC=C(C)CCC=C(C)C
REMARK SMILES IDX 7 1 6 2 8 3 9 4 10 5 11 6 13 7 12 8 14 9 5 10 4 11 2 12 3 13
REMARK SMILES IDX 1 14
REMARK H PARENT
REMARK Flexibility Score: inf
ROOT
ATOM      1  C   UNL     1      27.054  42.627  19.607  1.00  0.00    -0.077 C 
ATOM      2  C   UNL     1      27.169  42.769  20.948  1.00  0.00    -0.028 C 
ATOM      3  C   UNL     1      26.871  43.815  18.693  1.00  0.00     0.039 C 
ENDROOT
BRANCH   1   4
ATOM      4  C   UNL     1      27.099  41.237  19.011  1.00  0.00     0.034 C 
BRANCH   4   5
ATOM      5  C   UNL     1      27.082  40.169  20.111  1.00  0.00     0.032 C 
BRANCH   5   6
ATOM      6  C   UNL     1      25.778  39.406  20.112  1.00  0.00    -0.028 C 
ATOM      7  C   UNL     1      26.914  37.296  20.818  1.00  0.00     0.039 C 
ATOM      8  C   UNL     1      25.692  38.098  20.432  1.00  0.00    -0.080 C 
ATOM      9  C   UNL     1      24.341  37.432  20.401  1.00  0.00     0.039 C 
ENDBRANCH   5   6
ENDBRANCH   4   5
ENDBRANCH   1   4
BRANCH   2  10
ATOM     10  C   UNL     1      27.193  44.095  21.672  1.00  0.00     0.035 C 
BRANCH  10  11
ATOM     11  C   UNL     1      28.261  44.123  22.773  1.00  0.00     0.079 C 
BRANCH  11  12
ATOM     12  C   UNL     1      27.810  43.386  24.006  1.00  0.00     0.130 C 
ATOM     13  O   UNL     1      27.099  43.949  24.825  1.00  0.00    -0.300 OA
ATOM     14  C   UNL     1      28.241  41.970  24.244  1.00  0.00     0.087 C 
ENDBRANCH  11  12
ENDBRANCH  10  11
ENDBRANCH   2  10
TORSDOF 6
ENDMDL
MODEL 7
REMARK VINA RESULT:    -2.839      2.270      5.409
REMARK INTER + INTRA:          -4.884
REMARK INTER:                  -4.299
REMARK INTRA:                  -0.585
REMARK UNBOUND:                -1.050
REMARK SMILES CC(=O)CCC=C(C)CCC=C(C)C
REMARK SMILES IDX 7 1 6 2 8 3 9 4 10 5 11 6 13 7 12 8 14 9 5 10 4 11 2 12 3 13
REMARK SMILES IDX 1 14
REMARK H PARENT
REMARK Flexibility Score: inf
ROOT
ATOM      1  C   UNL     1      26.943  42.257  20.391  1.00  0.00    -0.077 C 
ATOM      2  C   UNL     1      27.647  43.338  20.800  1.00  0.00    -0.028 C 
ATOM      3  C   UNL     1      25.811  41.686  21.211  1.00  0.00     0.039 C 
ENDROOT
BRANCH   1   4
ATOM      4  C   UNL     1      27.311  41.597  19.080  1.00  0.00     0.034 C 
BRANCH   4   5
ATOM      5  C   UNL     1      26.587  40.255  18.921  1.00  0.00     0.032 C 
BRANCH   5   6
ATOM      6  C   UNL     1      27.393  39.125  19.518  1.00  0.00    -0.028 C 
ATOM      7  C   UNL     1      28.748  38.876  17.434  1.00  0.00     0.039 C 
ATOM      8  C   UNL     1      28.379  38.491  18.848  1.00  0.00    -0.080 C 
ATOM      9  C   UNL     1      29.121  37.376  19.537  1.00  0.00     0.039 C 
ENDBRANCH   5   6
ENDBRANCH   4   5
ENDBRANCH   1   4
BRANCH   2  10
ATOM     10  C   UNL     1      27.358  44.125  22.057  1.00  0.00     0.035 C 
BRANCH  10  11
ATOM     11  C   UNL     1      28.510  44.032  23.064  1.00  0.00     0.079 C 
BRANCH  11  12
ATOM     12  C   UNL     1      28.360  42.842  23.976  1.00  0.00     0.130 C 
ATOM     13  O   UNL     1      27.807  42.972  25.058  1.00  0.00    -0.300 OA
ATOM     14  C   UNL     1      28.899  41.503  23.571  1.00  0.00     0.087 C 
ENDBRANCH  11  12
ENDBRANCH  10  11
ENDBRANCH   2  10
TORSDOF 6
ENDMDL
MODEL 8
REMARK VINA RESULT:    -2.808     13.450     16.499
REMARK INTER + INTRA:          -4.843
REMARK INTER:                  -3.939
REMARK INTRA:                  -0.905
REMARK UNBOUND:                -1.050
REMARK SMILES CC(=O)CCC=C(C)CCC=C(C)C
REMARK SMILES IDX 7 1 6 2 8 3 9 4 10 5 11 6 13 7 12 8 14 9 5 10 4 11 2 12 3 13
REMARK SMILES IDX 1 14
REMARK H PARENT
REMARK Flexibility Score: inf
ROOT
ATOM      1  C   UNL     1      28.555  28.733  26.630  1.00  0.00    -0.077 C 
ATOM      2  C   UNL     1      27.851  28.106  27.600  1.00  0.00    -0.028 C 
ATOM      3  C   UNL     1      29.079  30.138  26.807  1.00  0.00     0.039 C 
ENDROOT
BRANCH   1   4
ATOM      4  C   UNL     1      28.810  28.010  25.325  1.00  0.00     0.034 C 
BRANCH   4   5
ATOM      5  C   UNL     1      29.125  26.530  25.573  1.00  0.00     0.032 C 
BRANCH   5   6
ATOM      6  C   UNL     1      27.910  25.665  25.335  1.00  0.00    -0.028 C 
ATOM      7  C   UNL     1      28.297  24.389  27.447  1.00  0.00     0.039 C 
ATOM      8  C   UNL     1      27.526  24.687  26.182  1.00  0.00    -0.080 C 
ATOM      9  C   UNL     1      26.296  23.882  25.850  1.00  0.00     0.039 C 
ENDBRANCH   5   6
ENDBRANCH   4   5
ENDBRANCH   1   4
BRANCH   2  10
ATOM     10  C   UNL     1      27.567  28.686  28.966  1.00  0.00     0.035 C 
BRANCH  10  11
ATOM     11  C   UNL     1      26.136  28.379  29.427  1.00  0.00     0.079 C 
BRANCH  11  12
ATOM     12  C   UNL     1      25.833  26.905  29.363  1.00  0.00     0.130 C 
ATOM     13  O   UNL     1      26.411  26.133  30.114  1.00  0.00    -0.300 OA
ATOM     14  C   UNL     1      24.840  26.377  28.374  1.00  0.00     0.087 C 
ENDBRANCH  11  12
ENDBRANCH  10  11
ENDBRANCH   2  10
TORSDOF 6
ENDMDL
MODEL 9
REMARK VINA RESULT:    -2.760      2.121      2.705
REMARK INTER + INTRA:          -4.779
REMARK INTER:                  -3.954
REMARK INTRA:                  -0.825
REMARK UNBOUND:                -1.050
REMARK SMILES CC(=O)CCC=C(C)CCC=C(C)C
REMARK SMILES IDX 7 1 6 2 8 3 9 4 10 5 11 6 13 7 12 8 14 9 5 10 4 11 2 12 3 13
REMARK SMILES IDX 1 14
REMARK H PARENT
REMARK Flexibility Score: inf
ROOT
ATOM      1  C   UNL     1      27.141  40.928  19.847  1.00  0.00    -0.077 C 
ATOM      2  C   UNL     1      26.114  40.047  19.815  1.00  0.00    -0.028 C 
ATOM      3  C   UNL     1      28.579  40.481  19.732  1.00  0.00     0.039 C 
ENDROOT
BRANCH   1   4
ATOM      4  C   UNL     1      26.837  42.401  20.016  1.00  0.00     0.034 C 
BRANCH   4   5
ATOM      5  C   UNL     1      27.913  43.088  20.866  1.00  0.00     0.032 C 
BRANCH   5   6
ATOM      6  C   UNL     1      27.365  43.502  22.211  1.00  0.00    -0.028 C 
ATOM      7  C   UNL     1      28.407  41.532  23.339  1.00  0.00     0.039 C 
ATOM      8  C   UNL     1      27.584  42.800  23.343  1.00  0.00    -0.080 C 
ATOM      9  C   UNL     1      26.991  43.302  24.633  1.00  0.00     0.039 C 
ENDBRANCH   5   6
ENDBRANCH   4   5
ENDBRANCH   1   4
BRANCH   2  10
ATOM     10  C   UNL     1      26.267  38.560  19.602  1.00  0.00     0.035 C 
BRANCH  10  11
ATOM     11  C   UNL     1      25.579  37.752  20.711  1.00  0.00     0.079 C 
BRANCH  11  12
ATOM     12  C   UNL     1      24.169  37.380  20.337  1.00  0.00     0.130 C 
ATOM     13  O   UNL     1      23.970  36.468  19.548  1.00  0.00    -0.300 OA
ATOM     14  C   UNL     1      23.007  38.131  20.914  1.00  0.00     0.087 C 
ENDBRANCH  11  12
ENDBRANCH  10  11
ENDBRANCH   2  10
TORSDOF 6
ENDMDL
