MODEL 1
REMARK VINA RESULT:    -4.356      0.000      0.000
REMARK INTER + INTRA:          -9.525
REMARK INTER:                  -7.412
REMARK INTRA:                  -2.113
REMARK UNBOUND:                -2.113
REMARK SMILES CCCCCCCCCCCCCC(=O)[O-]
REMARK SMILES IDX 8 1 9 2 10 3 11 4 12 5 13 6 14 7 15 8 16 9 7 10 6 11 5 12
REMARK SMILES IDX 4 13 3 14 2 15 1 16
REMARK H PARENT
REMARK Flexibility Score: inf
ROOT
ATOM      1  C   UNL     1      62.620  16.878  40.595  1.00  0.00     0.000 C 
ENDROOT
BRANCH   1   2
ATOM      2  C   UNL     1      63.203  15.694  39.808  1.00  0.00     0.000 C 
BRANCH   2   3
ATOM      3  C   UNL     1      62.445  15.420  38.500  1.00  0.00     0.000 C 
BRANCH   3   4
ATOM      4  C   UNL     1      63.071  16.135  37.292  1.00  0.00     0.000 C 
BRANCH   4   5
ATOM      5  C   UNL     1      64.602  16.154  37.399  1.00  0.00     0.006 C 
BRANCH   5   6
ATOM      6  C   UNL     1      65.184  17.554  37.164  1.00  0.00     0.053 C 
BRANCH   6   7
ATOM      7  C   UNL     1      65.814  17.675  35.810  1.00  0.00     0.041 C 
ATOM      8  O   UNL     1      65.297  17.100  34.817  1.00  0.00    -0.550 OA
ATOM      9  O   UNL     1      66.953  18.451  35.640  1.00  0.00    -0.550 OA
ENDBRANCH   6   7
ENDBRANCH   5   6
ENDBRANCH   4   5
ENDBRANCH   3   4
ENDBRANCH   2   3
ENDBRANCH   1   2
BRANCH   1  10
ATOM     10  C   UNL     1      63.525  18.111  40.482  1.00  0.00     0.000 C 
BRANCH  10  11
ATOM     11  C   UNL     1      62.855  19.209  39.641  1.00  0.00    -0.000 C 
BRANCH  11  12
ATOM     12  C   UNL     1      61.335  19.013  39.515  1.00  0.00    -0.000 C 
BRANCH  12  13
ATOM     13  C   UNL     1      60.871  18.901  38.055  1.00  0.00    -0.000 C 
BRANCH  13  14
ATOM     14  C   UNL     1      59.727  17.886  37.920  1.00  0.00    -0.000 C 
BRANCH  14  15
ATOM     15  C   UNL     1      58.959  17.683  39.236  1.00  0.00    -0.003 C 
ATOM     16  C   UNL     1      59.053  16.251  39.762  1.00  0.00     0.004 C 
ENDBRANCH  14  15
ENDBRANCH  13  14
ENDBRANCH  12  13
ENDBRANCH  11  12
ENDBRANCH  10  11
ENDBRANCH   1  10
TORSDOF 12
ENDMDL
MODEL 2
REMARK VINA RESULT:    -4.274      2.864      5.335
REMARK INTER + INTRA:          -9.385
REMARK INTER:                  -7.306
REMARK INTRA:                  -2.078
REMARK UNBOUND:                -2.113
REMARK SMILES CCCCCCCCCCCCCC(=O)[O-]
REMARK SMILES IDX 8 1 9 2 10 3 11 4 12 5 13 6 14 7 15 8 16 9 7 10 6 11 5 12
REMARK SMILES IDX 4 13 3 14 2 15 1 16
REMARK H PARENT
REMARK Flexibility Score: inf
ROOT
ATOM      1  C   UNL     1      63.194  15.755  39.978  1.00  0.00     0.000 C 
ENDROOT
BRANCH   1   2
ATOM      2  C   UNL     1      62.661  17.008  40.690  1.00  0.00     0.000 C 
BRANCH   2   3
ATOM      3  C   UNL     1      63.488  18.265  40.379  1.00  0.00     0.000 C 
BRANCH   3   4
ATOM      4  C   UNL     1      62.761  19.234  39.435  1.00  0.00     0.000 C 
BRANCH   4   5
ATOM      5  C   UNL     1      61.240  19.038  39.513  1.00  0.00     0.006 C 
BRANCH   5   6
ATOM      6  C   UNL     1      60.610  18.819  38.131  1.00  0.00     0.053 C 
BRANCH   6   7
ATOM      7  C   UNL     1      59.467  17.852  38.187  1.00  0.00     0.041 C 
ATOM      8  O   UNL     1      58.769  17.636  37.162  1.00  0.00    -0.550 OA
ATOM      9  O   UNL     1      59.195  17.164  39.362  1.00  0.00    -0.550 OA
ENDBRANCH   6   7
ENDBRANCH   5   6
ENDBRANCH   4   5
ENDBRANCH   3   4
ENDBRANCH   2   3
ENDBRANCH   1   2
BRANCH   1  10
ATOM     10  C   UNL     1      62.095  15.091  39.140  1.00  0.00     0.000 C 
BRANCH  10  11
ATOM     11  C   UNL     1      62.200  15.509  37.666  1.00  0.00    -0.000 C 
BRANCH  11  12
ATOM     12  C   UNL     1      63.220  14.667  36.882  1.00  0.00    -0.000 C 
BRANCH  12  13
ATOM     13  C   UNL     1      64.377  15.507  36.320  1.00  0.00    -0.000 C 
BRANCH  13  14
ATOM     14  C   UNL     1      63.971  16.983  36.195  1.00  0.00    -0.000 C 
BRANCH  14  15
ATOM     15  C   UNL     1      64.942  17.927  36.920  1.00  0.00    -0.003 C 
ATOM     16  C   UNL     1      66.126  17.191  37.549  1.00  0.00     0.004 C 
ENDBRANCH  14  15
ENDBRANCH  13  14
ENDBRANCH  12  13
ENDBRANCH  11  12
ENDBRANCH  10  11
ENDBRANCH   1  10
TORSDOF 12
ENDMDL
MODEL 3
REMARK VINA RESULT:    -4.227      1.850      2.858
REMARK INTER + INTRA:          -9.306
REMARK INTER:                  -7.196
REMARK INTRA:                  -2.110
REMARK UNBOUND:                -2.113
REMARK SMILES CCCCCCCCCCCCCC(=O)[O-]
REMARK SMILES IDX 8 1 9 2 10 3 11 4 12 5 13 6 14 7 15 8 16 9 7 10 6 11 5 12
REMARK SMILES IDX 4 13 3 14 2 15 1 16
REMARK H PARENT
REMARK Flexibility Score: inf
ROOT
ATOM      1  C   UNL     1      62.809  17.005  40.692  1.00  0.00     0.000 C 
ENDROOT
BRANCH   1   2
ATOM      2  C   UNL     1      63.627  18.177  40.128  1.00  0.00     0.000 C 
BRANCH   2   3
ATOM      3  C   UNL     1      64.423  17.793  38.870  1.00  0.00     0.000 C 
BRANCH   3   4
ATOM      4  C   UNL     1      63.950  18.547  37.618  1.00  0.00     0.000 C 
BRANCH   4   5
ATOM      5  C   UNL     1      63.692  17.574  36.457  1.00  0.00     0.006 C 
BRANCH   5   6
ATOM      6  C   UNL     1      64.824  16.550  36.294  1.00  0.00     0.053 C 
BRANCH   6   7
ATOM      7  C   UNL     1      64.341  15.148  36.509  1.00  0.00     0.041 C 
ATOM      8  O   UNL     1      63.286  14.749  35.949  1.00  0.00    -0.550 OA
ATOM      9  O   UNL     1      65.074  14.274  37.300  1.00  0.00    -0.550 OA
ENDBRANCH   6   7
ENDBRANCH   5   6
ENDBRANCH   4   5
ENDBRANCH   3   4
ENDBRANCH   2   3
ENDBRANCH   1   2
BRANCH   1  10
ATOM     10  C   UNL     1      63.177  15.691  39.992  1.00  0.00     0.000 C 
BRANCH  10  11
ATOM     11  C   UNL     1      61.917  14.906  39.598  1.00  0.00    -0.000 C 
BRANCH  11  12
ATOM     12  C   UNL     1      60.690  15.813  39.407  1.00  0.00    -0.000 C 
BRANCH  12  13
ATOM     13  C   UNL     1      60.513  16.272  37.952  1.00  0.00    -0.000 C 
BRANCH  13  14
ATOM     14  C   UNL     1      59.679  17.560  37.881  1.00  0.00    -0.000 C 
BRANCH  14  15
ATOM     15  C   UNL     1      60.482  18.806  38.284  1.00  0.00    -0.003 C 
ATOM     16  C   UNL     1      60.096  19.339  39.664  1.00  0.00     0.004 C 
ENDBRANCH  14  15
ENDBRANCH  13  14
ENDBRANCH  12  13
ENDBRANCH  11  12
ENDBRANCH  10  11
ENDBRANCH   1  10
TORSDOF 12
ENDMDL
MODEL 4
REMARK VINA RESULT:    -4.198      1.324      3.515
REMARK INTER + INTRA:          -9.255
REMARK INTER:                  -7.245
REMARK INTRA:                  -2.011
REMARK UNBOUND:                -2.113
REMARK SMILES CCCCCCCCCCCCCC(=O)[O-]
REMARK SMILES IDX 8 1 9 2 10 3 11 4 12 5 13 6 14 7 15 8 16 9 7 10 6 11 5 12
REMARK SMILES IDX 4 13 3 14 2 15 1 16
REMARK H PARENT
REMARK Flexibility Score: inf
ROOT
ATOM      1  C   UNL     1      60.941  19.105  39.410  1.00  0.00     0.000 C 
ENDROOT
BRANCH   1   2
ATOM      2  C   UNL     1      62.442  19.361  39.621  1.00  0.00     0.000 C 
BRANCH   2   3
ATOM      3  C   UNL     1      63.130  18.235  40.408  1.00  0.00     0.000 C 
BRANCH   3   4
ATOM      4  C   UNL     1      64.325  17.631  39.655  1.00  0.00     0.000 C 
BRANCH   4   5
ATOM      5  C   UNL     1      64.249  17.953  38.156  1.00  0.00     0.006 C 
BRANCH   5   6
ATOM      6  C   UNL     1      65.246  17.128  37.332  1.00  0.00     0.053 C 
BRANCH   6   7
ATOM      7  C   UNL     1      64.642  16.644  36.049  1.00  0.00     0.041 C 
ATOM      8  O   UNL     1      65.037  17.109  34.948  1.00  0.00    -0.550 OA
ATOM      9  O   UNL     1      63.667  15.656  36.068  1.00  0.00    -0.550 OA
ENDBRANCH   6   7
ENDBRANCH   5   6
ENDBRANCH   4   5
ENDBRANCH   3   4
ENDBRANCH   2   3
ENDBRANCH   1   2
BRANCH   1  10
ATOM     10  C   UNL     1      60.669  18.572  37.998  1.00  0.00     0.000 C 
BRANCH  10  11
ATOM     11  C   UNL     1      60.587  17.038  37.995  1.00  0.00    -0.000 C 
BRANCH  11  12
ATOM     12  C   UNL     1      59.913  16.479  39.259  1.00  0.00    -0.000 C 
BRANCH  12  13
ATOM     13  C   UNL     1      60.742  15.376  39.934  1.00  0.00    -0.000 C 
BRANCH  13  14
ATOM     14  C   UNL     1      61.813  14.832  38.977  1.00  0.00    -0.000 C 
BRANCH  14  15
ATOM     15  C   UNL     1      63.067  14.338  39.713  1.00  0.00    -0.003 C 
ATOM     16  C   UNL     1      64.005  13.533  38.813  1.00  0.00     0.004 C 
ENDBRANCH  14  15
ENDBRANCH  13  14
ENDBRANCH  12  13
ENDBRANCH  11  12
ENDBRANCH  10  11
ENDBRANCH   1  10
TORSDOF 12
ENDMDL
MODEL 5
REMARK VINA RESULT:    -4.197     11.909     14.630
REMARK INTER + INTRA:          -9.255
REMARK INTER:                  -7.911
REMARK INTRA:                  -1.344
REMARK UNBOUND:                -2.113
REMARK SMILES CCCCCCCCCCCCCC(=O)[O-]
REMARK SMILES IDX 8 1 9 2 10 3 11 4 12 5 13 6 14 7 15 8 16 9 7 10 6 11 5 12
REMARK SMILES IDX 4 13 3 14 2 15 1 16
REMARK H PARENT
REMARK Flexibility Score: inf
ROOT
ATOM      1  C   UNL     1      74.608   6.934  31.223  1.00  0.00     0.000 C 
ENDROOT
BRANCH   1   2
ATOM      2  C   UNL     1      74.802   6.708  32.731  1.00  0.00     0.000 C 
BRANCH   2   3
ATOM      3  C   UNL     1      73.829   5.666  33.304  1.00  0.00     0.000 C 
BRANCH   3   4
ATOM      4  C   UNL     1      72.806   6.280  34.271  1.00  0.00     0.000 C 
BRANCH   4   5
ATOM      5  C   UNL     1      71.421   5.647  34.079  1.00  0.00     0.006 C 
BRANCH   5   6
ATOM      6  C   UNL     1      70.486   6.535  33.247  1.00  0.00     0.053 C 
BRANCH   6   7
ATOM      7  C   UNL     1      69.063   6.428  33.703  1.00  0.00     0.041 C 
ATOM      8  O   UNL     1      68.780   5.782  34.746  1.00  0.00    -0.550 OA
ATOM      9  O   UNL     1      68.056   7.069  32.995  1.00  0.00    -0.550 OA
ENDBRANCH   6   7
ENDBRANCH   5   6
ENDBRANCH   4   5
ENDBRANCH   3   4
ENDBRANCH   2   3
ENDBRANCH   1   2
BRANCH   1  10
ATOM     10  C   UNL     1      74.306   8.408  30.924  1.00  0.00     0.000 C 
BRANCH  10  11
ATOM     11  C   UNL     1      72.804   8.698  31.055  1.00  0.00    -0.000 C 
BRANCH  11  12
ATOM     12  C   UNL     1      72.465   9.510  32.316  1.00  0.00    -0.000 C 
BRANCH  12  13
ATOM     13  C   UNL     1      71.195  10.358  32.153  1.00  0.00    -0.000 C 
BRANCH  13  14
ATOM     14  C   UNL     1      70.224  10.120  33.318  1.00  0.00    -0.000 C 
BRANCH  14  15
ATOM     15  C   UNL     1      68.837  10.731  33.065  1.00  0.00    -0.003 C 
ATOM     16  C   UNL     1      68.702  11.340  31.670  1.00  0.00     0.004 C 
ENDBRANCH  14  15
ENDBRANCH  13  14
ENDBRANCH  12  13
ENDBRANCH  11  12
ENDBRANCH  10  11
ENDBRANCH   1  10
TORSDOF 12
ENDMDL
MODEL 6
REMARK VINA RESULT:    -4.196      2.397      5.052
REMARK INTER + INTRA:          -9.253
REMARK INTER:                  -7.854
REMARK INTRA:                  -1.399
REMARK UNBOUND:                -2.113
REMARK SMILES CCCCCCCCCCCCCC(=O)[O-]
REMARK SMILES IDX 8 1 9 2 10 3 11 4 12 5 13 6 14 7 15 8 16 9 7 10 6 11 5 12
REMARK SMILES IDX 4 13 3 14 2 15 1 16
REMARK H PARENT
REMARK Flexibility Score: inf
ROOT
ATOM      1  C   UNL     1      62.376  19.005  39.363  1.00  0.00     0.000 C 
ENDROOT
BRANCH   1   2
ATOM      2  C   UNL     1      61.119  18.122  39.348  1.00  0.00     0.000 C 
BRANCH   2   3
ATOM      3  C   UNL     1      61.184  16.980  40.375  1.00  0.00     0.000 C 
BRANCH   3   4
ATOM      4  C   UNL     1      60.770  15.625  39.781  1.00  0.00     0.000 C 
BRANCH   4   5
ATOM      5  C   UNL     1      61.898  15.033  38.925  1.00  0.00     0.006 C 
BRANCH   5   6
ATOM      6  C   UNL     1      63.074  14.536  39.777  1.00  0.00     0.053 C 
BRANCH   6   7
ATOM      7  C   UNL     1      63.924  13.552  39.033  1.00  0.00     0.041 C 
ATOM      8  O   UNL     1      63.747  12.315  39.190  1.00  0.00    -0.550 OA
ATOM      9  O   UNL     1      64.887  14.001  38.140  1.00  0.00    -0.550 OA
ENDBRANCH   6   7
ENDBRANCH   5   6
ENDBRANCH   4   5
ENDBRANCH   3   4
ENDBRANCH   2   3
ENDBRANCH   1   2
BRANCH   1  10
ATOM     10  C   UNL     1      63.556  18.269  40.010  1.00  0.00     0.000 C 
BRANCH  10  11
ATOM     11  C   UNL     1      64.488  17.679  38.941  1.00  0.00    -0.000 C 
BRANCH  11  12
ATOM     12  C   UNL     1      64.100  18.106  37.516  1.00  0.00    -0.000 C 
BRANCH  12  13
ATOM     13  C   UNL     1      64.140  16.940  36.517  1.00  0.00    -0.000 C 
BRANCH  13  14
ATOM     14  C   UNL     1      65.054  17.269  35.327  1.00  0.00    -0.000 C 
BRANCH  14  15
ATOM     15  C   UNL     1      66.336  18.001  35.753  1.00  0.00    -0.003 C 
ATOM     16  C   UNL     1      67.231  18.366  34.568  1.00  0.00     0.004 C 
ENDBRANCH  14  15
ENDBRANCH  13  14
ENDBRANCH  12  13
ENDBRANCH  11  12
ENDBRANCH  10  11
ENDBRANCH   1  10
TORSDOF 12
ENDMDL
MODEL 7
REMARK VINA RESULT:    -4.169      3.231      4.975
REMARK INTER + INTRA:          -9.206
REMARK INTER:                  -7.081
REMARK INTRA:                  -2.125
REMARK UNBOUND:                -2.113
REMARK SMILES CCCCCCCCCCCCCC(=O)[O-]
REMARK SMILES IDX 8 1 9 2 10 3 11 4 12 5 13 6 14 7 15 8 16 9 7 10 6 11 5 12
REMARK SMILES IDX 4 13 3 14 2 15 1 16
REMARK H PARENT
REMARK Flexibility Score: inf
ROOT
ATOM      1  C   UNL     1      60.720  17.274  39.715  1.00  0.00     0.000 C 
ENDROOT
BRANCH   1   2
ATOM      2  C   UNL     1      60.748  16.639  38.316  1.00  0.00     0.000 C 
BRANCH   2   3
ATOM      3  C   UNL     1      61.515  15.308  38.284  1.00  0.00     0.000 C 
BRANCH   3   4
ATOM      4  C   UNL     1      61.824  14.769  39.689  1.00  0.00     0.000 C 
BRANCH   4   5
ATOM      5  C   UNL     1      63.309  14.401  39.821  1.00  0.00     0.006 C 
BRANCH   5   6
ATOM      6  C   UNL     1      63.663  13.128  39.041  1.00  0.00     0.053 C 
BRANCH   6   7
ATOM      7  C   UNL     1      62.791  11.974  39.432  1.00  0.00     0.041 C 
ATOM      8  O   UNL     1      62.019  11.450  38.587  1.00  0.00    -0.550 OA
ATOM      9  O   UNL     1      62.857  11.457  40.718  1.00  0.00    -0.550 OA
ENDBRANCH   6   7
ENDBRANCH   5   6
ENDBRANCH   4   5
ENDBRANCH   3   4
ENDBRANCH   2   3
ENDBRANCH   1   2
BRANCH   1  10
ATOM     10  C   UNL     1      60.850  18.800  39.629  1.00  0.00     0.000 C 
BRANCH  10  11
ATOM     11  C   UNL     1      62.318  19.216  39.453  1.00  0.00    -0.000 C 
BRANCH  11  12
ATOM     12  C   UNL     1      63.264  18.471  40.410  1.00  0.00    -0.000 C 
BRANCH  12  13
ATOM     13  C   UNL     1      64.424  17.780  39.678  1.00  0.00    -0.000 C 
BRANCH  13  14
ATOM     14  C   UNL     1      64.242  17.868  38.156  1.00  0.00    -0.000 C 
BRANCH  14  15
ATOM     15  C   UNL     1      65.061  16.810  37.401  1.00  0.00    -0.003 C 
ATOM     16  C   UNL     1      64.356  16.301  36.144  1.00  0.00     0.004 C 
ENDBRANCH  14  15
ENDBRANCH  13  14
ENDBRANCH  12  13
ENDBRANCH  11  12
ENDBRANCH  10  11
ENDBRANCH   1  10
TORSDOF 12
ENDMDL
MODEL 8
REMARK VINA RESULT:    -4.139      2.815      5.038
REMARK INTER + INTRA:          -9.155
REMARK INTER:                  -7.428
REMARK INTRA:                  -1.727
REMARK UNBOUND:                -2.113
REMARK SMILES CCCCCCCCCCCCCC(=O)[O-]
REMARK SMILES IDX 8 1 9 2 10 3 11 4 12 5 13 6 14 7 15 8 16 9 7 10 6 11 5 12
REMARK SMILES IDX 4 13 3 14 2 15 1 16
REMARK H PARENT
REMARK Flexibility Score: inf
ROOT
ATOM      1  C   UNL     1      64.594  16.592  35.892  1.00  0.00     0.000 C 
ENDROOT
BRANCH   1   2
ATOM      2  C   UNL     1      65.166  17.560  36.939  1.00  0.00     0.000 C 
BRANCH   2   3
ATOM      3  C   UNL     1      64.073  18.232  37.784  1.00  0.00     0.000 C 
BRANCH   3   4
ATOM      4  C   UNL     1      64.204  17.918  39.282  1.00  0.00     0.000 C 
BRANCH   4   5
ATOM      5  C   UNL     1      62.846  18.034  39.988  1.00  0.00     0.006 C 
BRANCH   5   6
ATOM      6  C   UNL     1      62.101  19.320  39.608  1.00  0.00     0.053 C 
BRANCH   6   7
ATOM      7  C   UNL     1      60.731  19.034  39.074  1.00  0.00     0.041 C 
ATOM      8  O   UNL     1      59.753  18.934  39.861  1.00  0.00    -0.550 OA
ATOM      9  O   UNL     1      60.529  18.910  37.706  1.00  0.00    -0.550 OA
ENDBRANCH   6   7
ENDBRANCH   5   6
ENDBRANCH   4   5
ENDBRANCH   3   4
ENDBRANCH   2   3
ENDBRANCH   1   2
BRANCH   1  10
ATOM     10  C   UNL     1      63.940  15.379  36.565  1.00  0.00     0.000 C 
BRANCH  10  11
ATOM     11  C   UNL     1      64.960  14.607  37.417  1.00  0.00    -0.000 C 
BRANCH  11  12
ATOM     12  C   UNL     1      64.292  13.648  38.416  1.00  0.00    -0.000 C 
BRANCH  12  13
ATOM     13  C   UNL     1      63.569  14.386  39.553  1.00  0.00    -0.000 C 
BRANCH  13  14
ATOM     14  C   UNL     1      62.233  13.706  39.885  1.00  0.00    -0.000 C 
BRANCH  14  15
ATOM     15  C   UNL     1      61.045  14.678  39.828  1.00  0.00    -0.003 C 
ATOM     16  C   UNL     1      60.851  15.297  38.444  1.00  0.00     0.004 C 
ENDBRANCH  14  15
ENDBRANCH  13  14
ENDBRANCH  12  13
ENDBRANCH  11  12
ENDBRANCH  10  11
ENDBRANCH   1  10
TORSDOF 12
ENDMDL
MODEL 9
REMARK VINA RESULT:    -4.129      1.039      1.866
REMARK INTER + INTRA:          -9.138
REMARK INTER:                  -6.992
REMARK INTRA:                  -2.145
REMARK UNBOUND:                -2.113
REMARK SMILES CCCCCCCCCCCCCC(=O)[O-]
REMARK SMILES IDX 8 1 9 2 10 3 11 4 12 5 13 6 14 7 15 8 16 9 7 10 6 11 5 12
REMARK SMILES IDX 4 13 3 14 2 15 1 16
REMARK H PARENT
REMARK Flexibility Score: inf
ROOT
ATOM      1  C   UNL     1      63.610  18.154  40.252  1.00  0.00     0.000 C 
ENDROOT
BRANCH   1   2
ATOM      2  C   UNL     1      62.711  16.955  40.593  1.00  0.00     0.000 C 
BRANCH   2   3
ATOM      3  C   UNL     1      63.152  15.664  39.885  1.00  0.00     0.000 C 
BRANCH   3   4
ATOM      4  C   UNL     1      62.131  15.181  38.845  1.00  0.00     0.000 C 
BRANCH   4   5
ATOM      5  C   UNL     1      62.407  15.809  37.471  1.00  0.00     0.006 C 
BRANCH   5   6
ATOM      6  C   UNL     1      63.793  15.434  36.929  1.00  0.00     0.053 C 
BRANCH   6   7
ATOM      7  C   UNL     1      64.576  16.643  36.517  1.00  0.00     0.041 C 
ATOM      8  O   UNL     1      64.339  17.206  35.416  1.00  0.00    -0.550 OA
ATOM      9  O   UNL     1      65.543  17.166  37.364  1.00  0.00    -0.550 OA
ENDBRANCH   6   7
ENDBRANCH   5   6
ENDBRANCH   4   5
ENDBRANCH   3   4
ENDBRANCH   2   3
ENDBRANCH   1   2
BRANCH   1  10
ATOM     10  C   UNL     1      62.915  19.096  39.260  1.00  0.00     0.000 C 
BRANCH  10  11
ATOM     11  C   UNL     1      61.418  19.226  39.583  1.00  0.00    -0.000 C 
BRANCH  11  12
ATOM     12  C   UNL     1      60.521  18.863  38.388  1.00  0.00    -0.000 C 
BRANCH  12  13
ATOM     13  C   UNL     1      59.447  17.825  38.748  1.00  0.00    -0.000 C 
BRANCH  13  14
ATOM     14  C   UNL     1      58.998  17.984  40.207  1.00  0.00    -0.000 C 
BRANCH  14  15
ATOM     15  C   UNL     1      59.110  16.677  41.006  1.00  0.00    -0.003 C 
ATOM     16  C   UNL     1      58.675  15.452  40.203  1.00  0.00     0.004 C 
ENDBRANCH  14  15
ENDBRANCH  13  14
ENDBRANCH  12  13
ENDBRANCH  11  12
ENDBRANCH  10  11
ENDBRANCH   1  10
TORSDOF 12
ENDMDL
