MODEL 1
REMARK VINA RESULT:    15.788      0.000      0.000
REMARK INTER + INTRA:          16.547
REMARK INTER:                  16.711
REMARK INTRA:                  -0.164
REMARK UNBOUND:                -0.164
REMARK SMILES CC1=CC[C@H]2[C@@H]3[C@@H](C(C)C)CC[C@@]2(C)[C@H]13
REMARK SMILES IDX 1 1 2 2 3 3 4 4 5 5 6 6 15 7 13 8 12 9 11 10 7 11 14 12 8 13
REMARK SMILES IDX 9 14 10 15
REMARK H PARENT
REMARK Flexibility Score: inf
ROOT
ATOM      1  C   UNL     1      -1.044   7.380  -8.014  1.00  0.00     0.039 C 
ATOM      2  C   UNL     1      -0.429   6.353  -8.917  1.00  0.00    -0.073 C 
ATOM      3  C   UNL     1       0.385   5.381  -8.427  1.00  0.00    -0.027 C 
ATOM      4  C   UNL     1       0.998   4.369  -9.401  1.00  0.00     0.031 C 
ATOM      5  C   UNL     1       0.503   4.646 -10.859  1.00  0.00     0.003 C 
ATOM      6  C   UNL     1      -1.028   4.873 -10.796  1.00  0.00     0.004 C 
ATOM      7  C   UNL     1      -0.706   6.337 -10.423  1.00  0.00     0.024 C 
ATOM      8  C   UNL     1       0.609   6.152 -11.212  1.00  0.00    -0.022 C 
ATOM      9  C   UNL     1       0.326   6.379 -12.724  1.00  0.00     0.008 C 
ATOM     10  C   UNL     1      -0.731   5.396 -13.295  1.00  0.00     0.005 C 
ATOM     11  C   UNL     1      -1.678   4.777 -12.210  1.00  0.00    -0.005 C 
ATOM     12  C   UNL     1       1.858   6.945 -10.761  1.00  0.00     0.012 C 
ENDROOT
BRANCH  11  13
ATOM     13  C   UNL     1      -3.119   5.386 -12.282  1.00  0.00    -0.014 C 
ATOM     14  C   UNL     1      -4.125   4.466 -13.000  1.00  0.00     0.007 C 
ATOM     15  C   UNL     1      -3.105   6.749 -13.000  1.00  0.00     0.007 C 
ENDBRANCH  11  13
TORSDOF 1
ENDMDL
MODEL 2
REMARK VINA RESULT:    16.519      1.169      2.833
REMARK INTER + INTRA:          17.321
REMARK INTER:                  17.604
REMARK INTRA:                  -0.283
REMARK UNBOUND:                -0.164
REMARK SMILES CC1=CC[C@H]2[C@@H]3[C@@H](C(C)C)CC[C@@]2(C)[C@H]13
REMARK SMILES IDX 1 1 2 2 3 3 4 4 5 5 6 6 15 7 13 8 12 9 11 10 7 11 14 12 8 13
REMARK SMILES IDX 9 14 10 15
REMARK H PARENT
REMARK Flexibility Score: inf
ROOT
ATOM      1  C   UNL     1       1.400   2.497  -9.390  1.00  0.00     0.039 C 
ATOM      2  C   UNL     1       1.266   3.961  -9.685  1.00  0.00    -0.073 C 
ATOM      3  C   UNL     1       2.306   4.815  -9.498  1.00  0.00    -0.027 C 
ATOM      4  C   UNL     1       2.105   6.304  -9.800  1.00  0.00     0.031 C 
ATOM      5  C   UNL     1       0.658   6.560 -10.338  1.00  0.00     0.003 C 
ATOM      6  C   UNL     1       0.359   5.478 -11.404  1.00  0.00     0.004 C 
ATOM      7  C   UNL     1      -0.036   4.556 -10.229  1.00  0.00     0.024 C 
ATOM      8  C   UNL     1      -0.402   5.846  -9.462  1.00  0.00    -0.022 C 
ATOM      9  C   UNL     1      -1.835   6.287  -9.872  1.00  0.00     0.008 C 
ATOM     10  C   UNL     1      -1.969   6.567 -11.393  1.00  0.00     0.005 C 
ATOM     11  C   UNL     1      -0.882   5.857 -12.270  1.00  0.00    -0.005 C 
ATOM     12  C   UNL     1      -0.241   5.860  -7.924  1.00  0.00     0.012 C 
ENDROOT
BRANCH  11  13
ATOM     13  C   UNL     1      -1.479   4.653 -13.073  1.00  0.00    -0.014 C 
ATOM     14  C   UNL     1      -1.120   4.693 -14.571  1.00  0.00     0.007 C 
ATOM     15  C   UNL     1      -3.013   4.609 -12.940  1.00  0.00     0.007 C 
ENDBRANCH  11  13
TORSDOF 1
ENDMDL
MODEL 3
REMARK VINA RESULT:    16.878      1.202      4.285
REMARK INTER + INTRA:          17.701
REMARK INTER:                  17.355
REMARK INTRA:                   0.347
REMARK UNBOUND:                -0.164
REMARK SMILES CC1=CC[C@H]2[C@@H]3[C@@H](C(C)C)CC[C@@]2(C)[C@H]13
REMARK SMILES IDX 1 1 2 2 3 3 4 4 5 5 6 6 15 7 13 8 12 9 11 10 7 11 14 12 8 13
REMARK SMILES IDX 9 14 10 15
REMARK H PARENT
REMARK Flexibility Score: inf
ROOT
ATOM      1  C   UNL     1      -2.342   5.074 -11.831  1.00  0.00     0.039 C 
ATOM      2  C   UNL     1      -1.012   5.570 -11.349  1.00  0.00    -0.073 C 
ATOM      3  C   UNL     1      -0.094   6.078 -12.212  1.00  0.00    -0.027 C 
ATOM      4  C   UNL     1       1.256   6.553 -11.663  1.00  0.00     0.031 C 
ATOM      5  C   UNL     1       1.300   6.386 -10.108  1.00  0.00     0.003 C 
ATOM      6  C   UNL     1      -0.033   6.933  -9.542  1.00  0.00     0.004 C 
ATOM      7  C   UNL     1      -0.635   5.547  -9.865  1.00  0.00     0.024 C 
ATOM      8  C   UNL     1       0.791   4.987  -9.677  1.00  0.00    -0.022 C 
ATOM      9  C   UNL     1       1.048   4.756  -8.161  1.00  0.00     0.008 C 
ATOM     10  C   UNL     1       0.918   6.055  -7.322  1.00  0.00     0.005 C 
ATOM     11  C   UNL     1       0.054   7.171  -8.003  1.00  0.00    -0.005 C 
ATOM     12  C   UNL     1       1.211   3.747 -10.502  1.00  0.00     0.012 C 
ENDROOT
BRANCH  11  13
ATOM     13  C   UNL     1      -1.342   7.327  -7.311  1.00  0.00    -0.014 C 
ATOM     14  C   UNL     1      -2.507   6.836  -8.192  1.00  0.00     0.007 C 
ATOM     15  C   UNL     1      -1.606   8.794  -6.926  1.00  0.00     0.007 C 
ENDBRANCH  11  13
TORSDOF 1
ENDMDL
MODEL 4
REMARK VINA RESULT:    18.437      0.987      4.616
REMARK INTER + INTRA:          19.352
REMARK INTER:                  19.615
REMARK INTRA:                  -0.263
REMARK UNBOUND:                -0.164
REMARK SMILES CC1=CC[C@H]2[C@@H]3[C@@H](C(C)C)CC[C@@]2(C)[C@H]13
REMARK SMILES IDX 1 1 2 2 3 3 4 4 5 5 6 6 15 7 13 8 12 9 11 10 7 11 14 12 8 13
REMARK SMILES IDX 9 14 10 15
REMARK H PARENT
REMARK Flexibility Score: inf
ROOT
ATOM      1  C   UNL     1      -3.999   3.086 -12.318  1.00  0.00     0.039 C 
ATOM      2  C   UNL     1      -3.393   4.433 -12.580  1.00  0.00    -0.073 C 
ATOM      3  C   UNL     1      -4.121   5.436 -13.136  1.00  0.00    -0.027 C 
ATOM      4  C   UNL     1      -3.442   6.786 -13.395  1.00  0.00     0.031 C 
ATOM      5  C   UNL     1      -1.958   6.754 -12.901  1.00  0.00     0.003 C 
ATOM      6  C   UNL     1      -1.950   6.111 -11.492  1.00  0.00     0.004 C 
ATOM      7  C   UNL     1      -1.939   4.745 -12.214  1.00  0.00     0.024 C 
ATOM      8  C   UNL     1      -1.233   5.471 -13.380  1.00  0.00    -0.022 C 
ATOM      9  C   UNL     1       0.289   5.558 -13.073  1.00  0.00     0.008 C 
ATOM     10  C   UNL     1       0.597   6.325 -11.759  1.00  0.00     0.005 C 
ATOM     11  C   UNL     1      -0.603   6.373 -10.752  1.00  0.00    -0.005 C 
ATOM     12  C   UNL     1      -1.476   4.963 -14.821  1.00  0.00     0.012 C 
ENDROOT
BRANCH  11  13
ATOM     13  C   UNL     1      -0.367   5.431  -9.523  1.00  0.00    -0.014 C 
ATOM     14  C   UNL     1      -0.351   6.188  -8.181  1.00  0.00     0.007 C 
ATOM     15  C   UNL     1       0.959   4.662  -9.666  1.00  0.00     0.007 C 
ENDBRANCH  11  13
TORSDOF 1
ENDMDL
