MODEL 1
REMARK VINA RESULT:    -5.881      0.000      0.000
REMARK INTER + INTRA:          -9.659
REMARK INTER:                  -9.147
REMARK INTRA:                  -0.511
REMARK UNBOUND:                -0.511
REMARK SMILES COc1cc(CNC(=O)CCCCC=CC(C)C)ccc1O
REMARK SMILES IDX 11 1 12 2 13 3 14 4 15 5 16 6 17 7 18 8 10 9 8 10 9 11 7 12
REMARK SMILES IDX 6 14 5 15 4 16 19 17 3 18 20 19 21 20 2 21 1 22 22 23
REMARK H PARENT 7 13 22 24
REMARK Flexibility Score: inf
ROOT
ATOM      1  C   UNL     1     116.866 261.583 351.452  1.00  0.00     0.010 C 
ENDROOT
BRANCH   1   2
ATOM      2  C   UNL     1     116.860 263.077 351.826  1.00  0.00     0.005 C 
BRANCH   2   3
ATOM      3  C   UNL     1     118.166 263.501 352.515  1.00  0.00     0.027 C 
BRANCH   3   4
ATOM      4  C   UNL     1     117.945 263.874 353.956  1.00  0.00    -0.031 C 
ATOM      5  C   UNL     1     117.988 262.954 354.934  1.00  0.00    -0.028 C 
BRANCH   5   6
ATOM      6  C   UNL     1     117.728 263.291 356.385  1.00  0.00     0.005 C 
ATOM      7  C   UNL     1     119.026 263.686 357.099  1.00  0.00     0.012 C 
ATOM      8  C   UNL     1     117.017 262.144 357.116  1.00  0.00     0.012 C 
ENDBRANCH   5   6
ENDBRANCH   3   4
ENDBRANCH   2   3
ENDBRANCH   1   2
BRANCH   1   9
ATOM      9  C   UNL     1     115.562 261.145 350.775  1.00  0.00     0.100 C 
BRANCH   9  10
ATOM     10  C   UNL     1     115.796 260.055 349.772  1.00  0.00     0.220 C 
ATOM     11  O   UNL     1     115.438 258.877 350.040  1.00  0.00    -0.275 OA
ATOM     12  N   UNL     1     116.381 260.362 348.500  1.00  0.00    -0.352 N 
ATOM     13  H   UNL     1     116.684 261.344 348.312  1.00  0.00     0.163 HD
BRANCH  12  14
ATOM     14  C   UNL     1     116.498 259.350 347.450  1.00  0.00     0.151 C 
BRANCH  14  15
ATOM     15  C   UNL     1     117.575 259.728 346.469  1.00  0.00    -0.025 A 
ATOM     16  C   UNL     1     117.247 260.438 345.304  1.00  0.00     0.056 A 
ATOM     17  C   UNL     1     118.918 259.427 346.738  1.00  0.00     0.009 A 
ATOM     18  C   UNL     1     118.253 260.835 344.399  1.00  0.00     0.160 A 
ATOM     19  C   UNL     1     119.918 259.810 345.842  1.00  0.00     0.050 A 
ATOM     20  C   UNL     1     119.589 260.511 344.674  1.00  0.00     0.157 A 
BRANCH  18  21
ATOM     21  O   UNL     1     117.964 261.555 343.229  1.00  0.00    -0.493 OA
ATOM     22  C   UNL     1     116.652 261.931 342.821  1.00  0.00     0.278 C 
ENDBRANCH  18  21
BRANCH  20  23
ATOM     23  O   UNL     1     120.590 260.893 343.781  1.00  0.00    -0.504 OA
ATOM     24  H   UNL     1     121.478 260.405 343.740  1.00  0.00     0.293 HD
ENDBRANCH  20  23
ENDBRANCH  14  15
ENDBRANCH  12  14
ENDBRANCH   9  10
ENDBRANCH   1   9
TORSDOF 10
ENDMDL
MODEL 2
REMARK VINA RESULT:    -5.755      2.818     10.624
REMARK INTER + INTRA:          -9.463
REMARK INTER:                  -8.959
REMARK INTRA:                  -0.504
REMARK UNBOUND:                -0.511
REMARK SMILES COc1cc(CNC(=O)CCCCC=CC(C)C)ccc1O
REMARK SMILES IDX 11 1 12 2 13 3 14 4 15 5 16 6 17 7 18 8 10 9 8 10 9 11 7 12
REMARK SMILES IDX 6 14 5 15 4 16 19 17 3 18 20 19 21 20 2 21 1 22 22 23
REMARK H PARENT 7 13 22 24
REMARK Flexibility Score: inf
ROOT
ATOM      1  C   UNL     1     116.505 261.424 342.836  1.00  0.00     0.010 C 
ENDROOT
BRANCH   1   2
ATOM      2  C   UNL     1     115.754 262.726 342.504  1.00  0.00     0.005 C 
BRANCH   2   3
ATOM      3  C   UNL     1     114.437 262.455 341.761  1.00  0.00     0.027 C 
BRANCH   3   4
ATOM      4  C   UNL     1     114.513 262.862 340.314  1.00  0.00    -0.031 C 
ATOM      5  C   UNL     1     114.727 261.960 339.342  1.00  0.00    -0.028 C 
BRANCH   5   6
ATOM      6  C   UNL     1     114.852 262.344 337.884  1.00  0.00     0.005 C 
ATOM      7  C   UNL     1     113.498 262.241 337.171  1.00  0.00     0.012 C 
ATOM      8  C   UNL     1     115.924 261.513 337.168  1.00  0.00     0.012 C 
ENDBRANCH   5   6
ENDBRANCH   3   4
ENDBRANCH   2   3
ENDBRANCH   1   2
BRANCH   1   9
ATOM      9  C   UNL     1     117.793 261.679 343.629  1.00  0.00     0.100 C 
BRANCH   9  10
ATOM     10  C   UNL     1     118.055 260.591 344.627  1.00  0.00     0.220 C 
ATOM     11  O   UNL     1     118.973 259.755 344.409  1.00  0.00    -0.275 OA
ATOM     12  N   UNL     1     117.295 260.530 345.841  1.00  0.00    -0.352 N 
ATOM     13  H   UNL     1     116.528 261.225 345.988  1.00  0.00     0.163 HD
BRANCH  12  14
ATOM     14  C   UNL     1     117.616 259.567 346.894  1.00  0.00     0.151 C 
BRANCH  14  15
ATOM     15  C   UNL     1     116.491 259.480 347.891  1.00  0.00    -0.025 A 
ATOM     16  C   UNL     1     116.531 260.250 349.064  1.00  0.00     0.056 A 
ATOM     17  C   UNL     1     115.371 258.678 347.630  1.00  0.00     0.009 A 
ATOM     18  C   UNL     1     115.463 260.209 349.984  1.00  0.00     0.160 A 
ATOM     19  C   UNL     1     114.314 258.627 348.541  1.00  0.00     0.050 A 
ATOM     20  C   UNL     1     114.358 259.389 349.717  1.00  0.00     0.157 A 
BRANCH  18  21
ATOM     21  O   UNL     1     115.463 260.973 351.163  1.00  0.00    -0.493 OA
ATOM     22  C   UNL     1     116.478 261.908 351.514  1.00  0.00     0.278 C 
ENDBRANCH  18  21
BRANCH  20  23
ATOM     23  O   UNL     1     113.301 259.336 350.625  1.00  0.00    -0.504 OA
ATOM     24  H   UNL     1     113.449 259.469 351.618  1.00  0.00     0.293 HD
ENDBRANCH  20  23
ENDBRANCH  14  15
ENDBRANCH  12  14
ENDBRANCH   9  10
ENDBRANCH   1   9
TORSDOF 10
ENDMDL
MODEL 3
REMARK VINA RESULT:    -5.419      2.903      9.114
REMARK INTER + INTRA:          -8.940
REMARK INTER:                  -8.335
REMARK INTRA:                  -0.605
REMARK UNBOUND:                -0.511
REMARK SMILES COc1cc(CNC(=O)CCCCC=CC(C)C)ccc1O
REMARK SMILES IDX 11 1 12 2 13 3 14 4 15 5 16 6 17 7 18 8 10 9 8 10 9 11 7 12
REMARK SMILES IDX 6 14 5 15 4 16 19 17 3 18 20 19 21 20 2 21 1 22 22 23
REMARK H PARENT 7 13 22 24
REMARK Flexibility Score: inf
ROOT
ATOM      1  C   UNL     1     115.293 258.867 348.760  1.00  0.00     0.010 C 
ENDROOT
BRANCH   1   2
ATOM      2  C   UNL     1     115.938 259.788 347.709  1.00  0.00     0.005 C 
BRANCH   2   3
ATOM      3  C   UNL     1     117.399 259.404 347.428  1.00  0.00     0.027 C 
BRANCH   3   4
ATOM      4  C   UNL     1     117.942 260.107 346.213  1.00  0.00    -0.031 C 
ATOM      5  C   UNL     1     119.238 260.018 345.873  1.00  0.00    -0.028 C 
BRANCH   5   6
ATOM      6  C   UNL     1     119.822 260.748 344.683  1.00  0.00     0.005 C 
ATOM      7  C   UNL     1     120.611 261.984 345.130  1.00  0.00     0.012 C 
ATOM      8  C   UNL     1     118.743 261.117 343.658  1.00  0.00     0.012 C 
ENDBRANCH   5   6
ENDBRANCH   3   4
ENDBRANCH   2   3
ENDBRANCH   1   2
BRANCH   1   9
ATOM      9  C   UNL     1     115.754 259.195 350.186  1.00  0.00     0.100 C 
BRANCH   9  10
ATOM     10  C   UNL     1     115.569 260.647 350.510  1.00  0.00     0.220 C 
ATOM     11  O   UNL     1     114.433 261.175 350.369  1.00  0.00    -0.275 OA
ATOM     12  N   UNL     1     116.666 261.417 351.018  1.00  0.00    -0.352 N 
ATOM     13  H   UNL     1     117.601 260.958 351.107  1.00  0.00     0.163 HD
BRANCH  12  14
ATOM     14  C   UNL     1     116.486 262.796 351.470  1.00  0.00     0.151 C 
BRANCH  14  15
ATOM     15  C   UNL     1     117.282 263.050 352.722  1.00  0.00    -0.025 A 
ATOM     16  C   UNL     1     116.637 263.493 353.887  1.00  0.00     0.056 A 
ATOM     17  C   UNL     1     118.660 262.791 352.751  1.00  0.00     0.009 A 
ATOM     18  C   UNL     1     117.367 263.693 355.077  1.00  0.00     0.160 A 
ATOM     19  C   UNL     1     119.389 262.996 353.924  1.00  0.00     0.050 A 
ATOM     20  C   UNL     1     118.747 263.446 355.086  1.00  0.00     0.157 A 
BRANCH  18  21
ATOM     21  O   UNL     1     116.755 264.125 356.265  1.00  0.00    -0.493 OA
ATOM     22  C   UNL     1     115.781 263.375 356.985  1.00  0.00     0.278 C 
ENDBRANCH  18  21
BRANCH  20  23
ATOM     23  O   UNL     1     119.478 263.649 356.256  1.00  0.00    -0.504 OA
ATOM     24  H   UNL     1     120.489 263.581 356.268  1.00  0.00     0.293 HD
ENDBRANCH  20  23
ENDBRANCH  14  15
ENDBRANCH  12  14
ENDBRANCH   9  10
ENDBRANCH   1   9
TORSDOF 10
ENDMDL
MODEL 4
REMARK VINA RESULT:    -5.300      4.130      7.371
REMARK INTER + INTRA:          -8.754
REMARK INTER:                  -8.340
REMARK INTRA:                  -0.415
REMARK UNBOUND:                -0.511
REMARK SMILES COc1cc(CNC(=O)CCCCC=CC(C)C)ccc1O
REMARK SMILES IDX 11 1 12 2 13 3 14 4 15 5 16 6 17 7 18 8 10 9 8 10 9 11 7 12
REMARK SMILES IDX 6 14 5 15 4 16 19 17 3 18 20 19 21 20 2 21 1 22 22 23
REMARK H PARENT 7 13 22 24
REMARK Flexibility Score: inf
ROOT
ATOM      1  C   UNL     1     119.282 259.995 345.246  1.00  0.00     0.010 C 
ENDROOT
BRANCH   1   2
ATOM      2  C   UNL     1     118.608 259.621 346.579  1.00  0.00     0.005 C 
BRANCH   2   3
ATOM      3  C   UNL     1     117.111 259.962 346.580  1.00  0.00     0.027 C 
BRANCH   3   4
ATOM      4  C   UNL     1     116.527 259.924 347.967  1.00  0.00    -0.031 C 
ATOM      5  C   UNL     1     115.415 259.221 348.240  1.00  0.00    -0.028 C 
BRANCH   5   6
ATOM      6  C   UNL     1     114.780 259.199 349.614  1.00  0.00     0.005 C 
ATOM      7  C   UNL     1     113.256 259.333 349.516  1.00  0.00     0.012 C 
ATOM      8  C   UNL     1     115.376 260.273 350.532  1.00  0.00     0.012 C 
ENDBRANCH   5   6
ENDBRANCH   3   4
ENDBRANCH   2   3
ENDBRANCH   1   2
BRANCH   1   9
ATOM      9  C   UNL     1     118.304 259.958 344.066  1.00  0.00     0.100 C 
BRANCH   9  10
ATOM     10  C   UNL     1     117.813 261.329 343.708  1.00  0.00     0.220 C 
ATOM     11  O   UNL     1     118.604 262.309 343.776  1.00  0.00    -0.275 OA
ATOM     12  N   UNL     1     116.468 261.515 343.249  1.00  0.00    -0.352 N 
ATOM     13  H   UNL     1     115.830 260.688 343.220  1.00  0.00     0.163 HD
BRANCH  12  14
ATOM     14  C   UNL     1     116.000 262.813 342.765  1.00  0.00     0.151 C 
BRANCH  14  15
ATOM     15  C   UNL     1     115.214 262.650 341.491  1.00  0.00    -0.025 A 
ATOM     16  C   UNL     1     115.570 263.381 340.347  1.00  0.00     0.056 A 
ATOM     17  C   UNL     1     114.161 261.728 341.421  1.00  0.00     0.009 A 
ATOM     18  C   UNL     1     114.868 263.204 339.137  1.00  0.00     0.160 A 
ATOM     19  C   UNL     1     113.456 261.554 340.228  1.00  0.00     0.050 A 
ATOM     20  C   UNL     1     113.806 262.290 339.087  1.00  0.00     0.157 A 
BRANCH  18  21
ATOM     21  O   UNL     1     115.202 263.909 337.969  1.00  0.00    -0.493 OA
ATOM     22  C   UNL     1     116.468 263.834 337.321  1.00  0.00     0.278 C 
ENDBRANCH  18  21
BRANCH  20  23
ATOM     23  O   UNL     1     113.100 262.114 337.897  1.00  0.00    -0.504 OA
ATOM     24  H   UNL     1     113.476 261.563 337.135  1.00  0.00     0.293 HD
ENDBRANCH  20  23
ENDBRANCH  14  15
ENDBRANCH  12  14
ENDBRANCH   9  10
ENDBRANCH   1   9
TORSDOF 10
ENDMDL
MODEL 5
REMARK VINA RESULT:    -4.392      2.886      9.378
REMARK INTER + INTRA:          -7.343
REMARK INTER:                  -6.837
REMARK INTRA:                  -0.507
REMARK UNBOUND:                -0.511
REMARK SMILES COc1cc(CNC(=O)CCCCC=CC(C)C)ccc1O
REMARK SMILES IDX 11 1 12 2 13 3 14 4 15 5 16 6 17 7 18 8 10 9 8 10 9 11 7 12
REMARK SMILES IDX 6 14 5 15 4 16 19 17 3 18 20 19 21 20 2 21 1 22 22 23
REMARK H PARENT 7 13 22 24
REMARK Flexibility Score: inf
ROOT
ATOM      1  C   UNL     1     119.524 261.571 344.252  1.00  0.00     0.010 C 
ENDROOT
BRANCH   1   2
ATOM      2  C   UNL     1     118.230 261.044 343.607  1.00  0.00     0.005 C 
BRANCH   2   3
ATOM      3  C   UNL     1     117.134 262.119 343.559  1.00  0.00     0.027 C 
BRANCH   3   4
ATOM      4  C   UNL     1     116.130 261.851 342.471  1.00  0.00    -0.031 C 
ATOM      5  C   UNL     1     115.343 262.826 341.987  1.00  0.00    -0.028 C 
BRANCH   5   6
ATOM      6  C   UNL     1     114.295 262.578 340.924  1.00  0.00     0.005 C 
ATOM      7  C   UNL     1     113.320 261.478 341.360  1.00  0.00     0.012 C 
ATOM      8  C   UNL     1     114.930 262.255 339.566  1.00  0.00     0.012 C 
ENDBRANCH   5   6
ENDBRANCH   3   4
ENDBRANCH   2   3
ENDBRANCH   1   2
BRANCH   1   9
ATOM      9  C   UNL     1     119.597 261.265 345.753  1.00  0.00     0.100 C 
BRANCH   9  10
ATOM     10  C   UNL     1     118.890 259.987 346.094  1.00  0.00     0.220 C 
ATOM     11  O   UNL     1     119.491 258.889 345.954  1.00  0.00    -0.275 OA
ATOM     12  N   UNL     1     117.556 260.020 346.618  1.00  0.00    -0.352 N 
ATOM     13  H   UNL     1     117.075 260.945 346.707  1.00  0.00     0.163 HD
BRANCH  12  14
ATOM     14  C   UNL     1     116.890 258.806 347.087  1.00  0.00     0.151 C 
BRANCH  14  15
ATOM     15  C   UNL     1     115.881 259.134 348.154  1.00  0.00    -0.025 A 
ATOM     16  C   UNL     1     116.208 260.040 349.175  1.00  0.00     0.056 A 
ATOM     17  C   UNL     1     114.592 258.584 348.106  1.00  0.00     0.009 A 
ATOM     18  C   UNL     1     115.256 260.387 350.156  1.00  0.00     0.160 A 
ATOM     19  C   UNL     1     113.648 258.917 349.079  1.00  0.00     0.050 A 
ATOM     20  C   UNL     1     113.976 259.816 350.103  1.00  0.00     0.157 A 
BRANCH  18  21
ATOM     21  O   UNL     1     115.542 261.298 351.186  1.00  0.00    -0.493 OA
ATOM     22  C   UNL     1     116.846 261.786 351.486  1.00  0.00     0.278 C 
ENDBRANCH  18  21
BRANCH  20  23
ATOM     23  O   UNL     1     113.031 260.147 351.073  1.00  0.00    -0.504 OA
ATOM     24  H   UNL     1     113.306 260.432 352.006  1.00  0.00     0.293 HD
ENDBRANCH  20  23
ENDBRANCH  14  15
ENDBRANCH  12  14
ENDBRANCH   9  10
ENDBRANCH   1   9
TORSDOF 10
ENDMDL
MODEL 6
REMARK VINA RESULT:    -3.910      4.770      6.823
REMARK INTER + INTRA:          -6.594
REMARK INTER:                  -6.071
REMARK INTRA:                  -0.522
REMARK UNBOUND:                -0.511
REMARK SMILES COc1cc(CNC(=O)CCCCC=CC(C)C)ccc1O
REMARK SMILES IDX 11 1 12 2 13 3 14 4 15 5 16 6 17 7 18 8 10 9 8 10 9 11 7 12
REMARK SMILES IDX 6 14 5 15 4 16 19 17 3 18 20 19 21 20 2 21 1 22 22 23
REMARK H PARENT 7 13 22 24
REMARK Flexibility Score: inf
ROOT
ATOM      1  C   UNL     1     118.050 260.141 346.979  1.00  0.00     0.010 C 
ENDROOT
BRANCH   1   2
ATOM      2  C   UNL     1     116.633 259.545 347.066  1.00  0.00     0.005 C 
BRANCH   2   3
ATOM      3  C   UNL     1     116.193 259.320 348.520  1.00  0.00     0.027 C 
BRANCH   3   4
ATOM      4  C   UNL     1     114.698 259.385 348.673  1.00  0.00    -0.031 C 
ATOM      5  C   UNL     1     114.127 259.862 349.791  1.00  0.00    -0.028 C 
BRANCH   5   6
ATOM      6  C   UNL     1     112.627 259.900 349.991  1.00  0.00     0.005 C 
ATOM      7  C   UNL     1     112.049 258.483 350.082  1.00  0.00     0.012 C 
ATOM      8  C   UNL     1     111.930 260.717 348.897  1.00  0.00     0.012 C 
ENDBRANCH   5   6
ENDBRANCH   3   4
ENDBRANCH   2   3
ENDBRANCH   1   2
BRANCH   1   9
ATOM      9  C   UNL     1     118.884 259.504 345.862  1.00  0.00     0.100 C 
BRANCH   9  10
ATOM     10  C   UNL     1     118.923 260.367 344.636  1.00  0.00     0.220 C 
ATOM     11  O   UNL     1     120.035 260.713 344.155  1.00  0.00    -0.275 OA
ATOM     12  N   UNL     1     117.703 260.757 343.991  1.00  0.00    -0.352 N 
ATOM     13  H   UNL     1     116.795 260.470 344.422  1.00  0.00     0.163 HD
BRANCH  12  14
ATOM     14  C   UNL     1     117.710 261.483 342.722  1.00  0.00     0.151 C 
BRANCH  14  15
ATOM     15  C   UNL     1     116.367 262.113 342.467  1.00  0.00    -0.025 A 
ATOM     16  C   UNL     1     115.522 261.590 341.475  1.00  0.00     0.056 A 
ATOM     17  C   UNL     1     115.926 263.187 343.253  1.00  0.00     0.009 A 
ATOM     18  C   UNL     1     114.245 262.146 341.257  1.00  0.00     0.160 A 
ATOM     19  C   UNL     1     114.665 263.747 343.036  1.00  0.00     0.050 A 
ATOM     20  C   UNL     1     113.825 263.230 342.041  1.00  0.00     0.157 A 
BRANCH  18  21
ATOM     21  O   UNL     1     113.368 261.643 340.282  1.00  0.00    -0.493 OA
ATOM     22  C   UNL     1     113.389 262.025 338.910  1.00  0.00     0.278 C 
ENDBRANCH  18  21
BRANCH  20  23
ATOM     23  O   UNL     1     112.566 263.791 341.826  1.00  0.00    -0.504 OA
ATOM     24  H   UNL     1     112.149 263.819 340.903  1.00  0.00     0.293 HD
ENDBRANCH  20  23
ENDBRANCH  14  15
ENDBRANCH  12  14
ENDBRANCH   9  10
ENDBRANCH   1   9
TORSDOF 10
ENDMDL
MODEL 7
REMARK VINA RESULT:    -3.627      4.965     10.859
REMARK INTER + INTRA:          -6.153
REMARK INTER:                  -5.434
REMARK INTRA:                  -0.719
REMARK UNBOUND:                -0.511
REMARK SMILES COc1cc(CNC(=O)CCCCC=CC(C)C)ccc1O
REMARK SMILES IDX 11 1 12 2 13 3 14 4 15 5 16 6 17 7 18 8 10 9 8 10 9 11 7 12
REMARK SMILES IDX 6 14 5 15 4 16 19 17 3 18 20 19 21 20 2 21 1 22 22 23
REMARK H PARENT 7 13 22 24
REMARK Flexibility Score: inf
ROOT
ATOM      1  C   UNL     1     113.623 261.478 341.310  1.00  0.00     0.010 C 
ENDROOT
BRANCH   1   2
ATOM      2  C   UNL     1     113.130 261.913 339.917  1.00  0.00     0.005 C 
BRANCH   2   3
ATOM      3  C   UNL     1     113.535 263.358 339.591  1.00  0.00     0.027 C 
BRANCH   3   4
ATOM      4  C   UNL     1     114.777 263.417 338.745  1.00  0.00    -0.031 C 
ATOM      5  C   UNL     1     114.967 262.573 337.717  1.00  0.00    -0.028 C 
BRANCH   5   6
ATOM      6  C   UNL     1     116.225 262.580 336.875  1.00  0.00     0.005 C 
ATOM      7  C   UNL     1     116.977 261.250 337.002  1.00  0.00     0.012 C 
ATOM      8  C   UNL     1     117.131 263.768 337.219  1.00  0.00     0.012 C 
ENDBRANCH   5   6
ENDBRANCH   3   4
ENDBRANCH   2   3
ENDBRANCH   1   2
BRANCH   1   9
ATOM      9  C   UNL     1     113.936 262.672 342.219  1.00  0.00     0.100 C 
BRANCH   9  10
ATOM     10  C   UNL     1     115.412 262.910 342.335  1.00  0.00     0.220 C 
ATOM     11  O   UNL     1     115.872 264.066 342.135  1.00  0.00    -0.275 OA
ATOM     12  N   UNL     1     116.285 261.839 342.716  1.00  0.00    -0.352 N 
ATOM     13  H   UNL     1     115.878 260.887 342.858  1.00  0.00     0.163 HD
BRANCH  12  14
ATOM     14  C   UNL     1     117.707 262.069 342.970  1.00  0.00     0.151 C 
BRANCH  14  15
ATOM     15  C   UNL     1     118.170 261.262 344.153  1.00  0.00    -0.025 A 
ATOM     16  C   UNL     1     117.231 260.722 345.047  1.00  0.00     0.056 A 
ATOM     17  C   UNL     1     119.533 260.994 344.340  1.00  0.00     0.009 A 
ATOM     18  C   UNL     1     117.651 259.929 346.134  1.00  0.00     0.160 A 
ATOM     19  C   UNL     1     119.956 260.216 345.421  1.00  0.00     0.050 A 
ATOM     20  C   UNL     1     119.019 259.684 346.317  1.00  0.00     0.157 A 
BRANCH  18  21
ATOM     21  O   UNL     1     116.741 259.364 347.042  1.00  0.00    -0.493 OA
ATOM     22  C   UNL     1     116.148 260.069 348.129  1.00  0.00     0.278 C 
ENDBRANCH  18  21
BRANCH  20  23
ATOM     23  O   UNL     1     119.444 258.908 347.395  1.00  0.00    -0.504 OA
ATOM     24  H   UNL     1     120.428 258.762 347.588  1.00  0.00     0.293 HD
ENDBRANCH  20  23
ENDBRANCH  14  15
ENDBRANCH  12  14
ENDBRANCH   9  10
ENDBRANCH   1   9
TORSDOF 10
ENDMDL
MODEL 8
REMARK VINA RESULT:    -3.454      2.587      5.013
REMARK INTER + INTRA:          -5.884
REMARK INTER:                  -5.274
REMARK INTRA:                  -0.610
REMARK UNBOUND:                -0.511
REMARK SMILES COc1cc(CNC(=O)CCCCC=CC(C)C)ccc1O
REMARK SMILES IDX 11 1 12 2 13 3 14 4 15 5 16 6 17 7 18 8 10 9 8 10 9 11 7 12
REMARK SMILES IDX 6 14 5 15 4 16 19 17 3 18 20 19 21 20 2 21 1 22 22 23
REMARK H PARENT 7 13 22 24
REMARK Flexibility Score: inf
ROOT
ATOM      1  C   UNL     1     116.645 260.065 348.345  1.00  0.00     0.010 C 
ENDROOT
BRANCH   1   2
ATOM      2  C   UNL     1     115.754 259.235 349.287  1.00  0.00     0.005 C 
BRANCH   2   3
ATOM      3  C   UNL     1     115.051 260.113 350.333  1.00  0.00     0.027 C 
BRANCH   3   4
ATOM      4  C   UNL     1     115.790 261.401 350.575  1.00  0.00    -0.031 C 
ATOM      5  C   UNL     1     116.677 261.523 351.577  1.00  0.00    -0.028 C 
BRANCH   5   6
ATOM      6  C   UNL     1     117.402 262.818 351.872  1.00  0.00     0.005 C 
ATOM      7  C   UNL     1     118.470 262.615 352.953  1.00  0.00     0.012 C 
ATOM      8  C   UNL     1     116.428 263.940 352.254  1.00  0.00     0.012 C 
ENDBRANCH   5   6
ENDBRANCH   3   4
ENDBRANCH   2   3
ENDBRANCH   1   2
BRANCH   1   9
ATOM      9  C   UNL     1     116.806 259.413 346.966  1.00  0.00     0.100 C 
BRANCH   9  10
ATOM     10  C   UNL     1     117.255 260.402 345.933  1.00  0.00     0.220 C 
ATOM     11  O   UNL     1     117.743 261.505 346.299  1.00  0.00    -0.275 OA
ATOM     12  N   UNL     1     117.171 260.076 344.539  1.00  0.00    -0.352 N 
ATOM     13  H   UNL     1     116.745 259.162 344.264  1.00  0.00     0.163 HD
BRANCH  12  14
ATOM     14  C   UNL     1     117.724 260.960 343.514  1.00  0.00     0.151 C 
BRANCH  14  15
ATOM     15  C   UNL     1     116.625 261.721 342.823  1.00  0.00    -0.025 A 
ATOM     16  C   UNL     1     116.079 261.235 341.625  1.00  0.00     0.056 A 
ATOM     17  C   UNL     1     116.098 262.886 343.399  1.00  0.00     0.009 A 
ATOM     18  C   UNL     1     115.020 261.917 340.992  1.00  0.00     0.160 A 
ATOM     19  C   UNL     1     115.055 263.571 342.772  1.00  0.00     0.050 A 
ATOM     20  C   UNL     1     114.515 263.090 341.571  1.00  0.00     0.157 A 
BRANCH  18  21
ATOM     21  O   UNL     1     114.441 261.455 339.799  1.00  0.00    -0.493 OA
ATOM     22  C   UNL     1     114.857 261.857 338.497  1.00  0.00     0.278 C 
ENDBRANCH  18  21
BRANCH  20  23
ATOM     23  O   UNL     1     113.473 263.776 340.948  1.00  0.00    -0.504 OA
ATOM     24  H   UNL     1     113.649 264.469 340.231  1.00  0.00     0.293 HD
ENDBRANCH  20  23
ENDBRANCH  14  15
ENDBRANCH  12  14
ENDBRANCH   9  10
ENDBRANCH   1   9
TORSDOF 10
ENDMDL
