MODEL 1
REMARK VINA RESULT:    -6.112      0.000      0.000
REMARK INTER + INTRA:          -6.112
REMARK INTER:                  -6.112
REMARK INTRA:                   0.000
REMARK UNBOUND:                 0.000
REMARK SMILES O=c1ccc2ccccc2o1
REMARK SMILES IDX 7 1 8 2 9 3 10 4 5 5 6 6 4 7 3 8 2 9 1 10 11 11
REMARK H PARENT
REMARK Flexibility Score: inf
ROOT
ATOM      1  C   UNL     1      32.430  20.275  11.080  1.00  0.00     0.001 A 
ATOM      2  C   UNL     1      33.596  19.571  11.401  1.00  0.00     0.004 A 
ATOM      3  C   UNL     1      33.606  18.683  12.482  1.00  0.00     0.048 A 
ATOM      4  C   UNL     1      32.450  18.495  13.246  1.00  0.00     0.138 A 
ATOM      5  C   UNL     1      31.271  19.206  12.921  1.00  0.00     0.018 A 
ATOM      6  C   UNL     1      31.268  20.095  11.836  1.00  0.00     0.012 A 
ATOM      7  C   UNL     1      30.130  18.998  13.703  1.00  0.00     0.019 A 
ATOM      8  C   UNL     1      30.188  18.103  14.771  1.00  0.00     0.094 A 
ATOM      9  C   UNL     1      31.388  17.434  15.033  1.00  0.00     0.336 A 
ATOM     10  O   UNL     1      31.458  16.622  15.993  1.00  0.00    -0.246 OA
ATOM     11  O   UNL     1      32.460  17.650  14.275  1.00  0.00    -0.423 OA
ENDROOT
TORSDOF 0
ENDMDL
MODEL 2
REMARK VINA RESULT:    -5.757      1.590      3.813
REMARK INTER + INTRA:          -5.757
REMARK INTER:                  -5.757
REMARK INTRA:                   0.000
REMARK UNBOUND:                 0.000
REMARK SMILES O=c1ccc2ccccc2o1
REMARK SMILES IDX 7 1 8 2 9 3 10 4 5 5 6 6 4 7 3 8 2 9 1 10 11 11
REMARK H PARENT
REMARK Flexibility Score: inf
ROOT
ATOM      1  C   UNL     1      30.108  18.538  14.828  1.00  0.00     0.001 A 
ATOM      2  C   UNL     1      31.214  17.758  15.183  1.00  0.00     0.004 A 
ATOM      3  C   UNL     1      32.356  17.749  14.376  1.00  0.00     0.048 A 
ATOM      4  C   UNL     1      32.398  18.521  13.211  1.00  0.00     0.138 A 
ATOM      5  C   UNL     1      31.281  19.310  12.852  1.00  0.00     0.018 A 
ATOM      6  C   UNL     1      30.138  19.314  13.665  1.00  0.00     0.012 A 
ATOM      7  C   UNL     1      31.351  20.071  11.681  1.00  0.00     0.019 A 
ATOM      8  C   UNL     1      32.511  20.031  10.908  1.00  0.00     0.094 A 
ATOM      9  C   UNL     1      33.577  19.228  11.325  1.00  0.00     0.336 A 
ATOM     10  O   UNL     1      34.633  19.179  10.640  1.00  0.00    -0.246 OA
ATOM     11  O   UNL     1      33.486  18.512  12.443  1.00  0.00    -0.423 OA
ENDROOT
TORSDOF 0
ENDMDL
MODEL 3
REMARK VINA RESULT:    -5.661      2.148      4.175
REMARK INTER + INTRA:          -5.661
REMARK INTER:                  -5.661
REMARK INTRA:                   0.000
REMARK UNBOUND:                 0.000
REMARK SMILES O=c1ccc2ccccc2o1
REMARK SMILES IDX 7 1 8 2 9 3 10 4 5 5 6 6 4 7 3 8 2 9 1 10 11 11
REMARK H PARENT
REMARK Flexibility Score: inf
ROOT
ATOM      1  C   UNL     1      30.690  18.873  13.782  1.00  0.00     0.001 A 
ATOM      2  C   UNL     1      31.776  18.097  14.202  1.00  0.00     0.004 A 
ATOM      3  C   UNL     1      32.968  18.101  13.470  1.00  0.00     0.048 A 
ATOM      4  C   UNL     1      33.079  18.882  12.316  1.00  0.00     0.138 A 
ATOM      5  C   UNL     1      31.983  19.667  11.891  1.00  0.00     0.018 A 
ATOM      6  C   UNL     1      30.790  19.658  12.629  1.00  0.00     0.012 A 
ATOM      7  C   UNL     1      32.123  20.437  10.733  1.00  0.00     0.019 A 
ATOM      8  C   UNL     1      33.331  20.410  10.036  1.00  0.00     0.094 A 
ATOM      9  C   UNL     1      34.373  19.610  10.515  1.00  0.00     0.336 A 
ATOM     10  O   UNL     1      35.471  19.573   9.899  1.00  0.00    -0.246 OA
ATOM     11  O   UNL     1      34.214  18.886  11.620  1.00  0.00    -0.423 OA
ENDROOT
TORSDOF 0
ENDMDL
MODEL 4
REMARK VINA RESULT:    -5.312      0.878      1.064
REMARK INTER + INTRA:          -5.312
REMARK INTER:                  -5.312
REMARK INTRA:                   0.000
REMARK UNBOUND:                 0.000
REMARK SMILES O=c1ccc2ccccc2o1
REMARK SMILES IDX 7 1 8 2 9 3 10 4 5 5 6 6 4 7 3 8 2 9 1 10 11 11
REMARK H PARENT
REMARK Flexibility Score: inf
ROOT
ATOM      1  C   UNL     1      31.158  21.076  11.365  1.00  0.00     0.001 A 
ATOM      2  C   UNL     1      32.213  20.200  11.089  1.00  0.00     0.004 A 
ATOM      3  C   UNL     1      32.492  19.139  11.957  1.00  0.00     0.048 A 
ATOM      4  C   UNL     1      31.717  18.951  13.106  1.00  0.00     0.138 A 
ATOM      5  C   UNL     1      30.651  19.836  13.386  1.00  0.00     0.018 A 
ATOM      6  C   UNL     1      30.376  20.898  12.511  1.00  0.00     0.012 A 
ATOM      7  C   UNL     1      29.894  19.623  14.542  1.00  0.00     0.019 A 
ATOM      8  C   UNL     1      30.209  18.553  15.378  1.00  0.00     0.094 A 
ATOM      9  C   UNL     1      31.278  17.718  15.039  1.00  0.00     0.336 A 
ATOM     10  O   UNL     1      31.578  16.746  15.781  1.00  0.00    -0.246 OA
ATOM     11  O   UNL     1      31.984  17.942  13.933  1.00  0.00    -0.423 OA
ENDROOT
TORSDOF 0
ENDMDL
MODEL 5
REMARK VINA RESULT:    -5.233      2.227      4.509
REMARK INTER + INTRA:          -5.233
REMARK INTER:                  -5.233
REMARK INTRA:                   0.000
REMARK UNBOUND:                 0.000
REMARK SMILES O=c1ccc2ccccc2o1
REMARK SMILES IDX 7 1 8 2 9 3 10 4 5 5 6 6 4 7 3 8 2 9 1 10 11 11
REMARK H PARENT
REMARK Flexibility Score: inf
ROOT
ATOM      1  C   UNL     1      31.593  17.748  14.667  1.00  0.00     0.001 A 
ATOM      2  C   UNL     1      30.359  18.226  14.213  1.00  0.00     0.004 A 
ATOM      3  C   UNL     1      30.285  18.984  13.040  1.00  0.00     0.048 A 
ATOM      4  C   UNL     1      31.447  19.268  12.315  1.00  0.00     0.138 A 
ATOM      5  C   UNL     1      32.695  18.785  12.773  1.00  0.00     0.018 A 
ATOM      6  C   UNL     1      32.762  18.026  13.950  1.00  0.00     0.012 A 
ATOM      7  C   UNL     1      33.840  19.085  12.027  1.00  0.00     0.019 A 
ATOM      8  C   UNL     1      33.718  19.844  10.864  1.00  0.00     0.094 A 
ATOM      9  C   UNL     1      32.451  20.287  10.471  1.00  0.00     0.336 A 
ATOM     10  O   UNL     1      32.322  20.973   9.423  1.00  0.00    -0.246 OA
ATOM     11  O   UNL     1      31.377  19.989  11.198  1.00  0.00    -0.423 OA
ENDROOT
TORSDOF 0
ENDMDL
MODEL 6
REMARK VINA RESULT:    -5.170      1.185      2.366
REMARK INTER + INTRA:          -5.170
REMARK INTER:                  -5.170
REMARK INTRA:                   0.000
REMARK UNBOUND:                 0.000
REMARK SMILES O=c1ccc2ccccc2o1
REMARK SMILES IDX 7 1 8 2 9 3 10 4 5 5 6 6 4 7 3 8 2 9 1 10 11 11
REMARK H PARENT
REMARK Flexibility Score: inf
ROOT
ATOM      1  C   UNL     1      31.179  20.697  10.584  1.00  0.00     0.001 A 
ATOM      2  C   UNL     1      29.888  20.494  11.080  1.00  0.00     0.004 A 
ATOM      3  C   UNL     1      29.680  19.658  12.183  1.00  0.00     0.048 A 
ATOM      4  C   UNL     1      30.765  19.021  12.793  1.00  0.00     0.138 A 
ATOM      5  C   UNL     1      32.072  19.226  12.292  1.00  0.00     0.018 A 
ATOM      6  C   UNL     1      32.272  20.065  11.186  1.00  0.00     0.012 A 
ATOM      7  C   UNL     1      33.137  18.575  12.922  1.00  0.00     0.019 A 
ATOM      8  C   UNL     1      32.883  17.751  14.018  1.00  0.00     0.094 A 
ATOM      9  C   UNL     1      31.565  17.596  14.460  1.00  0.00     0.336 A 
ATOM     10  O   UNL     1      31.316  16.856  15.448  1.00  0.00    -0.246 OA
ATOM     11  O   UNL     1      30.568  18.225  13.842  1.00  0.00    -0.423 OA
ENDROOT
TORSDOF 0
ENDMDL
MODEL 7
REMARK VINA RESULT:    -5.139      2.303      3.859
REMARK INTER + INTRA:          -5.139
REMARK INTER:                  -5.139
REMARK INTRA:                   0.000
REMARK UNBOUND:                 0.000
REMARK SMILES O=c1ccc2ccccc2o1
REMARK SMILES IDX 7 1 8 2 9 3 10 4 5 5 6 6 4 7 3 8 2 9 1 10 11 11
REMARK H PARENT
REMARK Flexibility Score: inf
ROOT
ATOM      1  C   UNL     1      28.948  20.026  13.352  1.00  0.00     0.001 A 
ATOM      2  C   UNL     1      29.042  20.685  12.122  1.00  0.00     0.004 A 
ATOM      3  C   UNL     1      30.216  20.603  11.367  1.00  0.00     0.048 A 
ATOM      4  C   UNL     1      31.303  19.861  11.840  1.00  0.00     0.138 A 
ATOM      5  C   UNL     1      31.209  19.194  13.083  1.00  0.00     0.018 A 
ATOM      6  C   UNL     1      30.028  19.280  13.835  1.00  0.00     0.012 A 
ATOM      7  C   UNL     1      32.312  18.459  13.530  1.00  0.00     0.019 A 
ATOM      8  C   UNL     1      33.462  18.406  12.743  1.00  0.00     0.094 A 
ATOM      9  C   UNL     1      33.483  19.090  11.524  1.00  0.00     0.336 A 
ATOM     10  O   UNL     1      34.513  19.053  10.800  1.00  0.00    -0.246 OA
ATOM     11  O   UNL     1      32.421  19.782  11.121  1.00  0.00    -0.423 OA
ENDROOT
TORSDOF 0
ENDMDL
MODEL 8
REMARK VINA RESULT:    -4.984      1.385      2.316
REMARK INTER + INTRA:          -4.984
REMARK INTER:                  -4.984
REMARK INTRA:                   0.000
REMARK UNBOUND:                 0.000
REMARK SMILES O=c1ccc2ccccc2o1
REMARK SMILES IDX 7 1 8 2 9 3 10 4 5 5 6 6 4 7 3 8 2 9 1 10 11 11
REMARK H PARENT
REMARK Flexibility Score: inf
ROOT
ATOM      1  C   UNL     1      33.944  20.089  10.589  1.00  0.00     0.001 A 
ATOM      2  C   UNL     1      32.694  20.648  10.300  1.00  0.00     0.004 A 
ATOM      3  C   UNL     1      31.590  20.359  11.108  1.00  0.00     0.048 A 
ATOM      4  C   UNL     1      31.731  19.509  12.210  1.00  0.00     0.138 A 
ATOM      5  C   UNL     1      32.993  18.944  12.503  1.00  0.00     0.018 A 
ATOM      6  C   UNL     1      34.097  19.238  11.688  1.00  0.00     0.012 A 
ATOM      7  C   UNL     1      33.104  18.098  13.611  1.00  0.00     0.019 A 
ATOM      8  C   UNL     1      31.976  17.838  14.388  1.00  0.00     0.094 A 
ATOM      9  C   UNL     1      30.759  18.433  14.039  1.00  0.00     0.336 A 
ATOM     10  O   UNL     1      29.729  18.210  14.729  1.00  0.00    -0.246 OA
ATOM     11  O   UNL     1      30.680  19.234  12.979  1.00  0.00    -0.423 OA
ENDROOT
TORSDOF 0
ENDMDL
