MODEL 1
REMARK VINA RESULT:    -4.364      0.000      0.000
REMARK INTER + INTRA:          -6.048
REMARK INTER:                  -5.385
REMARK INTRA:                  -0.663
REMARK UNBOUND:                -0.663
REMARK SMILES C=CC(=C)CCC=C(C)C
REMARK SMILES IDX 5 1 6 2 7 3 9 4 8 5 10 6 3 7 4 8 2 9 1 10
REMARK H PARENT
REMARK Flexibility Score: inf
ROOT
ATOM      1  C   UNL     1      -1.322   0.236  12.104  1.00  0.00     0.039 C 
ENDROOT
BRANCH   1   2
ATOM      2  C   UNL     1      -0.593   1.552  11.817  1.00  0.00     0.032 C 
BRANCH   2   3
ATOM      3  C   UNL     1      -1.473   2.490  11.029  1.00  0.00    -0.028 C 
ATOM      4  C   UNL     1      -2.719   4.552  10.544  1.00  0.00     0.039 C 
ATOM      5  C   UNL     1      -1.794   3.744  11.416  1.00  0.00    -0.080 C 
ATOM      6  C   UNL     1      -1.239   4.357  12.681  1.00  0.00     0.039 C 
ENDBRANCH   2   3
ENDBRANCH   1   2
BRANCH   1   7
ATOM      7  C   UNL     1      -1.505   0.037  13.593  1.00  0.00    -0.055 C 
ATOM      8  C   UNL     1      -1.599  -1.206  14.075  1.00  0.00     0.012 C 
BRANCH   7   9
ATOM      9  C   UNL     1      -1.632   1.179  14.536  1.00  0.00    -0.005 C 
ATOM     10  C   UNL     1      -2.790   1.758  14.856  1.00  0.00     0.009 C 
ENDBRANCH   7   9
ENDBRANCH   1   7
TORSDOF 4
ENDMDL
MODEL 2
REMARK VINA RESULT:    -4.332      1.138      2.410
REMARK INTER + INTRA:          -6.008
REMARK INTER:                  -5.255
REMARK INTRA:                  -0.754
REMARK UNBOUND:                -0.663
REMARK SMILES C=CC(=C)CCC=C(C)C
REMARK SMILES IDX 5 1 6 2 7 3 9 4 8 5 10 6 3 7 4 8 2 9 1 10
REMARK H PARENT
REMARK Flexibility Score: inf
ROOT
ATOM      1  C   UNL     1      -0.501   2.540  14.795  1.00  0.00     0.039 C 
ENDROOT
BRANCH   1   2
ATOM      2  C   UNL     1       0.093   2.657  13.387  1.00  0.00     0.032 C 
BRANCH   2   3
ATOM      3  C   UNL     1      -0.770   3.532  12.514  1.00  0.00    -0.028 C 
ATOM      4  C   UNL     1      -2.193   4.114  10.596  1.00  0.00     0.039 C 
ATOM      5  C   UNL     1      -1.395   3.113  11.391  1.00  0.00    -0.080 C 
ATOM      6  C   UNL     1      -1.329   1.677  10.927  1.00  0.00     0.039 C 
ENDBRANCH   2   3
ENDBRANCH   1   2
BRANCH   1   7
ATOM      7  C   UNL     1      -1.734   1.664  14.787  1.00  0.00    -0.055 C 
ATOM      8  C   UNL     1      -2.925   2.219  15.034  1.00  0.00     0.012 C 
BRANCH   7   9
ATOM      9  C   UNL     1      -1.664   0.197  14.560  1.00  0.00    -0.005 C 
ATOM     10  C   UNL     1      -2.554  -0.492  13.845  1.00  0.00     0.009 C 
ENDBRANCH   7   9
ENDBRANCH   1   7
TORSDOF 4
ENDMDL
MODEL 3
REMARK VINA RESULT:    -4.070      1.814      3.136
REMARK INTER + INTRA:          -5.685
REMARK INTER:                  -5.194
REMARK INTRA:                  -0.491
REMARK UNBOUND:                -0.663
REMARK SMILES C=CC(=C)CCC=C(C)C
REMARK SMILES IDX 5 1 6 2 7 3 9 4 8 5 10 6 3 7 4 8 2 9 1 10
REMARK H PARENT
REMARK Flexibility Score: inf
ROOT
ATOM      1  C   UNL     1      -2.257   1.004  14.522  1.00  0.00     0.039 C 
ENDROOT
BRANCH   1   2
ATOM      2  C   UNL     1      -1.057   1.707  15.166  1.00  0.00     0.032 C 
BRANCH   2   3
ATOM      3  C   UNL     1      -1.316   3.186  15.305  1.00  0.00    -0.028 C 
ATOM      4  C   UNL     1      -0.979   5.588  14.911  1.00  0.00     0.039 C 
ATOM      5  C   UNL     1      -0.637   4.147  14.639  1.00  0.00    -0.080 C 
ATOM      6  C   UNL     1       0.434   3.814  13.626  1.00  0.00     0.039 C 
ENDBRANCH   2   3
ENDBRANCH   1   2
BRANCH   1   7
ATOM      7  C   UNL     1      -1.799  -0.103  13.598  1.00  0.00    -0.055 C 
ATOM      8  C   UNL     1      -1.481  -1.293  14.118  1.00  0.00     0.012 C 
BRANCH   7   9
ATOM      9  C   UNL     1      -1.643   0.100  12.134  1.00  0.00    -0.005 C 
ATOM     10  C   UNL     1      -0.919   1.078  11.588  1.00  0.00     0.009 C 
ENDBRANCH   7   9
ENDBRANCH   1   7
TORSDOF 4
ENDMDL
MODEL 4
REMARK VINA RESULT:    -4.051      0.601      4.250
REMARK INTER + INTRA:          -5.662
REMARK INTER:                  -5.048
REMARK INTRA:                  -0.615
REMARK UNBOUND:                -0.663
REMARK SMILES C=CC(=C)CCC=C(C)C
REMARK SMILES IDX 5 1 6 2 7 3 9 4 8 5 10 6 3 7 4 8 2 9 1 10
REMARK H PARENT
REMARK Flexibility Score: inf
ROOT
ATOM      1  C   UNL     1      -1.473   2.499  10.731  1.00  0.00     0.039 C 
ENDROOT
BRANCH   1   2
ATOM      2  C   UNL     1      -0.517   1.916  11.777  1.00  0.00     0.032 C 
BRANCH   2   3
ATOM      3  C   UNL     1      -1.063   0.628  12.339  1.00  0.00    -0.028 C 
ATOM      4  C   UNL     1      -1.926  -0.906  14.054  1.00  0.00     0.039 C 
ATOM      5  C   UNL     1      -1.438   0.453  13.626  1.00  0.00    -0.080 C 
ATOM      6  C   UNL     1      -1.396   1.580  14.631  1.00  0.00     0.039 C 
ENDBRANCH   2   3
ENDBRANCH   1   2
BRANCH   1   7
ATOM      7  C   UNL     1      -1.969   3.864  11.157  1.00  0.00    -0.055 C 
ATOM      8  C   UNL     1      -2.994   4.416  10.501  1.00  0.00     0.012 C 
BRANCH   7   9
ATOM      9  C   UNL     1      -1.325   4.635  12.253  1.00  0.00    -0.005 C 
ATOM     10  C   UNL     1      -1.956   5.029  13.359  1.00  0.00     0.009 C 
ENDBRANCH   7   9
ENDBRANCH   1   7
TORSDOF 4
ENDMDL
MODEL 5
REMARK VINA RESULT:    -4.012      1.211      4.477
REMARK INTER + INTRA:          -5.613
REMARK INTER:                  -4.761
REMARK INTRA:                  -0.852
REMARK UNBOUND:                -0.663
REMARK SMILES C=CC(=C)CCC=C(C)C
REMARK SMILES IDX 5 1 6 2 7 3 9 4 8 5 10 6 3 7 4 8 2 9 1 10
REMARK H PARENT
REMARK Flexibility Score: inf
ROOT
ATOM      1  C   UNL     1       0.213   3.902  13.002  1.00  0.00     0.039 C 
ENDROOT
BRANCH   1   2
ATOM      2  C   UNL     1      -0.171   3.280  14.349  1.00  0.00     0.032 C 
BRANCH   2   3
ATOM      3  C   UNL     1      -0.632   1.855  14.167  1.00  0.00    -0.028 C 
ATOM      4  C   UNL     1      -2.185  -0.048  14.246  1.00  0.00     0.039 C 
ATOM      5  C   UNL     1      -1.881   1.415  14.437  1.00  0.00    -0.080 C 
ATOM      6  C   UNL     1      -2.974   2.347  14.904  1.00  0.00     0.039 C 
ENDBRANCH   2   3
ENDBRANCH   1   2
BRANCH   1   7
ATOM      7  C   UNL     1      -1.021   4.281  12.213  1.00  0.00    -0.055 C 
ATOM      8  C   UNL     1      -1.862   5.188  12.721  1.00  0.00     0.012 C 
BRANCH   7   9
ATOM      9  C   UNL     1      -1.357   3.646  10.912  1.00  0.00    -0.005 C 
ATOM     10  C   UNL     1      -1.410   2.328  10.717  1.00  0.00     0.009 C 
ENDBRANCH   7   9
ENDBRANCH   1   7
TORSDOF 4
ENDMDL
MODEL 6
REMARK VINA RESULT:    -3.996      1.339      1.778
REMARK INTER + INTRA:          -5.593
REMARK INTER:                  -4.841
REMARK INTRA:                  -0.752
REMARK UNBOUND:                -0.663
REMARK SMILES C=CC(=C)CCC=C(C)C
REMARK SMILES IDX 5 1 6 2 7 3 9 4 8 5 10 6 3 7 4 8 2 9 1 10
REMARK H PARENT
REMARK Flexibility Score: inf
ROOT
ATOM      1  C   UNL     1      -0.565   1.576  12.395  1.00  0.00     0.039 C 
ENDROOT
BRANCH   1   2
ATOM      2  C   UNL     1      -0.296   2.792  11.501  1.00  0.00     0.032 C 
BRANCH   2   3
ATOM      3  C   UNL     1      -1.550   3.212  10.778  1.00  0.00    -0.028 C 
ATOM      4  C   UNL     1      -3.573   4.536  10.339  1.00  0.00     0.039 C 
ATOM      5  C   UNL     1      -2.323   4.261  11.134  1.00  0.00    -0.080 C 
ATOM      6  C   UNL     1      -1.961   5.167  12.288  1.00  0.00     0.039 C 
ENDBRANCH   2   3
ENDBRANCH   1   2
BRANCH   1   7
ATOM      7  C   UNL     1      -0.769   2.001  13.832  1.00  0.00    -0.055 C 
ATOM      8  C   UNL     1       0.141   2.790  14.412  1.00  0.00     0.012 C 
BRANCH   7   9
ATOM      9  C   UNL     1      -1.926   1.533  14.640  1.00  0.00    -0.005 C 
ATOM     10  C   UNL     1      -2.964   2.302  14.974  1.00  0.00     0.009 C 
ENDBRANCH   7   9
ENDBRANCH   1   7
TORSDOF 4
ENDMDL
MODEL 7
REMARK VINA RESULT:    -3.987      1.299      4.714
REMARK INTER + INTRA:          -5.583
REMARK INTER:                  -5.006
REMARK INTRA:                  -0.577
REMARK UNBOUND:                -0.663
REMARK SMILES C=CC(=C)CCC=C(C)C
REMARK SMILES IDX 5 1 6 2 7 3 9 4 8 5 10 6 3 7 4 8 2 9 1 10
REMARK H PARENT
REMARK Flexibility Score: inf
ROOT
ATOM      1  C   UNL     1      -1.513   2.841  15.305  1.00  0.00     0.039 C 
ENDROOT
BRANCH   1   2
ATOM      2  C   UNL     1      -2.577   2.004  14.587  1.00  0.00     0.032 C 
BRANCH   2   3
ATOM      3  C   UNL     1      -2.231   0.538  14.641  1.00  0.00    -0.028 C 
ATOM      4  C   UNL     1      -1.389  -1.620  13.820  1.00  0.00     0.039 C 
ATOM      5  C   UNL     1      -1.636  -0.145  13.638  1.00  0.00    -0.080 C 
ATOM      6  C   UNL     1      -1.201   0.530  12.358  1.00  0.00     0.039 C 
ENDBRANCH   2   3
ENDBRANCH   1   2
BRANCH   1   7
ATOM      7  C   UNL     1      -1.279   4.149  14.582  1.00  0.00    -0.055 C 
ATOM      8  C   UNL     1      -0.778   5.185  15.261  1.00  0.00     0.012 C 
BRANCH   7   9
ATOM      9  C   UNL     1      -1.631   4.337  13.150  1.00  0.00    -0.005 C 
ATOM     10  C   UNL     1      -0.752   4.262  12.149  1.00  0.00     0.009 C 
ENDBRANCH   7   9
ENDBRANCH   1   7
TORSDOF 4
ENDMDL
MODEL 8
REMARK VINA RESULT:    -3.910      1.531      4.190
REMARK INTER + INTRA:          -5.488
REMARK INTER:                  -4.848
REMARK INTRA:                  -0.640
REMARK UNBOUND:                -0.663
REMARK SMILES C=CC(=C)CCC=C(C)C
REMARK SMILES IDX 5 1 6 2 7 3 9 4 8 5 10 6 3 7 4 8 2 9 1 10
REMARK H PARENT
REMARK Flexibility Score: inf
ROOT
ATOM      1  C   UNL     1       0.047   2.579  11.980  1.00  0.00     0.039 C 
ENDROOT
BRANCH   1   2
ATOM      2  C   UNL     1      -1.293   1.835  11.986  1.00  0.00     0.032 C 
BRANCH   2   3
ATOM      3  C   UNL     1      -1.109   0.404  12.423  1.00  0.00    -0.028 C 
ATOM      4  C   UNL     1      -1.373  -1.578  13.851  1.00  0.00     0.039 C 
ATOM      5  C   UNL     1      -1.684  -0.142  13.517  1.00  0.00    -0.080 C 
ATOM      6  C   UNL     1      -2.634   0.638  14.395  1.00  0.00     0.039 C 
ENDBRANCH   2   3
ENDBRANCH   1   2
BRANCH   1   7
ATOM      7  C   UNL     1       0.089   3.620  13.077  1.00  0.00    -0.055 C 
ATOM      8  C   UNL     1       0.251   4.905  12.746  1.00  0.00     0.012 C 
BRANCH   7   9
ATOM      9  C   UNL     1       0.003   3.259  14.516  1.00  0.00    -0.005 C 
ATOM     10  C   UNL     1      -0.942   3.707  15.344  1.00  0.00     0.009 C 
ENDBRANCH   7   9
ENDBRANCH   1   7
TORSDOF 4
ENDMDL
MODEL 9
REMARK VINA RESULT:    -3.833      1.155      2.413
REMARK INTER + INTRA:          -5.392
REMARK INTER:                  -4.750
REMARK INTRA:                  -0.642
REMARK UNBOUND:                -0.663
REMARK SMILES C=CC(=C)CCC=C(C)C
REMARK SMILES IDX 5 1 6 2 7 3 9 4 8 5 10 6 3 7 4 8 2 9 1 10
REMARK H PARENT
REMARK Flexibility Score: inf
ROOT
ATOM      1  C   UNL     1      -2.271   2.686  14.314  1.00  0.00     0.039 C 
ENDROOT
BRANCH   1   2
ATOM      2  C   UNL     1      -1.660   3.878  13.568  1.00  0.00     0.032 C 
BRANCH   2   3
ATOM      3  C   UNL     1      -2.610   4.396  12.519  1.00  0.00    -0.028 C 
ATOM      4  C   UNL     1      -3.313   5.230  10.317  1.00  0.00     0.039 C 
ATOM      5  C   UNL     1      -2.262   4.677  11.244  1.00  0.00    -0.080 C 
ATOM      6  C   UNL     1      -0.864   4.438  10.725  1.00  0.00     0.039 C 
ENDBRANCH   2   3
ENDBRANCH   1   2
BRANCH   1   7
ATOM      7  C   UNL     1      -1.644   1.387  13.856  1.00  0.00    -0.055 C 
ATOM      8  C   UNL     1      -1.868   0.275  14.563  1.00  0.00     0.012 C 
BRANCH   7   9
ATOM      9  C   UNL     1      -0.748   1.313  12.673  1.00  0.00    -0.005 C 
ATOM     10  C   UNL     1      -1.107   0.801  11.495  1.00  0.00     0.009 C 
ENDBRANCH   7   9
ENDBRANCH   1   7
TORSDOF 4
ENDMDL
