MODEL 1
REMARK VINA RESULT:    -6.995      0.000      0.000
REMARK INTER + INTRA:          -9.413
REMARK INTER:                  -8.835
REMARK INTRA:                  -0.578
REMARK UNBOUND:                -0.578
REMARK SMILES O=C(C=Cc1ccc(O)cc1)c1ccc(O)cc1O
REMARK SMILES IDX 4 1 3 2 5 3 6 4 7 5 8 6 11 7 10 8 9 9 2 11 1 12 12 13 18 14
REMARK SMILES IDX 13 15 17 16 14 17 15 18 19 19 16 21
REMARK H PARENT 9 10 19 20 16 22
REMARK Flexibility Score: inf
ROOT
ATOM      1  C   UNL     1      41.879   7.389  33.125  1.00  0.00     0.012 C 
ATOM      2  C   UNL     1      42.629   8.373  33.642  1.00  0.00     0.053 C 
ENDROOT
BRANCH   1   3
ATOM      3  C   UNL     1      41.671   6.078  33.788  1.00  0.00    -0.025 A 
ATOM      4  C   UNL     1      41.991   4.854  33.167  1.00  0.00     0.012 A 
ATOM      5  C   UNL     1      41.766   3.644  33.831  1.00  0.00     0.047 A 
ATOM      6  C   UNL     1      41.211   3.634  35.113  1.00  0.00     0.115 A 
ATOM      7  C   UNL     1      41.099   6.058  35.072  1.00  0.00     0.012 A 
ATOM      8  C   UNL     1      40.875   4.846  35.731  1.00  0.00     0.047 A 
BRANCH   6   9
ATOM      9  O   UNL     1      40.993   2.421  35.761  1.00  0.00    -0.508 OA
ATOM     10  H   UNL     1      41.673   2.034  36.405  1.00  0.00     0.293 HD
ENDBRANCH   6   9
ENDBRANCH   1   3
BRANCH   2  11
ATOM     11  C   UNL     1      42.802   9.673  32.957  1.00  0.00     0.189 C 
ATOM     12  O   UNL     1      42.764   9.737  31.698  1.00  0.00    -0.289 OA
BRANCH  11  13
ATOM     13  C   UNL     1      43.054  10.903  33.741  1.00  0.00     0.064 A 
ATOM     14  C   UNL     1      44.318  11.542  33.747  1.00  0.00     0.130 A 
ATOM     15  C   UNL     1      42.019  11.430  34.536  1.00  0.00     0.020 A 
ATOM     16  C   UNL     1      44.526  12.661  34.563  1.00  0.00     0.093 A 
ATOM     17  C   UNL     1      42.237  12.555  35.333  1.00  0.00     0.047 A 
ATOM     18  C   UNL     1      43.490  13.170  35.354  1.00  0.00     0.119 A 
BRANCH  14  19
ATOM     19  O   UNL     1      45.373  11.115  32.938  1.00  0.00    -0.507 OA
ATOM     20  H   UNL     1      45.870  11.728  32.305  1.00  0.00     0.293 HD
ENDBRANCH  14  19
BRANCH  18  21
ATOM     21  O   UNL     1      43.694  14.287  36.161  1.00  0.00    -0.508 OA
ATOM     22  H   UNL     1      44.627  14.598  36.409  1.00  0.00     0.293 HD
ENDBRANCH  18  21
ENDBRANCH  11  13
ENDBRANCH   2  11
TORSDOF 6
ENDMDL
MODEL 2
REMARK VINA RESULT:    -5.434      4.795      7.342
REMARK INTER + INTRA:          -7.442
REMARK INTER:                  -6.814
REMARK INTRA:                  -0.628
REMARK UNBOUND:                -0.578
REMARK SMILES O=C(C=Cc1ccc(O)cc1)c1ccc(O)cc1O
REMARK SMILES IDX 4 1 3 2 5 3 6 4 7 5 8 6 11 7 10 8 9 9 2 11 1 12 12 13 18 14
REMARK SMILES IDX 13 15 17 16 14 17 15 18 19 19 16 21
REMARK H PARENT 9 10 19 20 16 22
REMARK Flexibility Score: inf
ROOT
ATOM      1  C   UNL     1      42.656  10.828  38.730  1.00  0.00     0.012 C 
ATOM      2  C   UNL     1      42.315   9.808  37.929  1.00  0.00     0.053 C 
ENDROOT
BRANCH   1   3
ATOM      3  C   UNL     1      42.876  10.688  40.191  1.00  0.00    -0.025 A 
ATOM      4  C   UNL     1      43.543  11.666  40.955  1.00  0.00     0.012 A 
ATOM      5  C   UNL     1      43.736  11.483  42.328  1.00  0.00     0.047 A 
ATOM      6  C   UNL     1      43.278  10.321  42.956  1.00  0.00     0.115 A 
ATOM      7  C   UNL     1      42.433   9.516  40.829  1.00  0.00     0.012 A 
ATOM      8  C   UNL     1      42.628   9.336  42.201  1.00  0.00     0.047 A 
BRANCH   6   9
ATOM      9  O   UNL     1      43.477  10.153  44.324  1.00  0.00    -0.508 OA
ATOM     10  H   UNL     1      43.494   9.233  44.748  1.00  0.00     0.293 HD
ENDBRANCH   6   9
ENDBRANCH   1   3
BRANCH   2  11
ATOM     11  C   UNL     1      42.117   9.983  36.473  1.00  0.00     0.189 C 
ATOM     12  O   UNL     1      42.061  11.140  35.975  1.00  0.00    -0.289 OA
BRANCH  11  13
ATOM     13  C   UNL     1      41.950   8.803  35.595  1.00  0.00     0.064 A 
ATOM     14  C   UNL     1      42.588   8.713  34.334  1.00  0.00     0.130 A 
ATOM     15  C   UNL     1      41.101   7.760  36.007  1.00  0.00     0.020 A 
ATOM     16  C   UNL     1      42.340   7.610  33.508  1.00  0.00     0.093 A 
ATOM     17  C   UNL     1      40.875   6.658  35.179  1.00  0.00     0.047 A 
ATOM     18  C   UNL     1      41.487   6.582  33.927  1.00  0.00     0.119 A 
BRANCH  14  19
ATOM     19  O   UNL     1      43.491   9.678  33.884  1.00  0.00    -0.507 OA
ATOM     20  H   UNL     1      44.249  10.037  34.451  1.00  0.00     0.293 HD
ENDBRANCH  14  19
BRANCH  18  21
ATOM     21  O   UNL     1      41.245   5.481  33.109  1.00  0.00    -0.508 OA
ATOM     22  H   UNL     1      41.884   4.695  33.075  1.00  0.00     0.293 HD
ENDBRANCH  18  21
ENDBRANCH  11  13
ENDBRANCH   2  11
TORSDOF 6
ENDMDL
MODEL 3
REMARK VINA RESULT:    -5.392      4.282      6.184
REMARK INTER + INTRA:          -7.389
REMARK INTER:                  -6.758
REMARK INTRA:                  -0.631
REMARK UNBOUND:                -0.578
REMARK SMILES O=C(C=Cc1ccc(O)cc1)c1ccc(O)cc1O
REMARK SMILES IDX 4 1 3 2 5 3 6 4 7 5 8 6 11 7 10 8 9 9 2 11 1 12 12 13 18 14
REMARK SMILES IDX 13 15 17 16 14 17 15 18 19 19 16 21
REMARK H PARENT 9 10 19 20 16 22
REMARK Flexibility Score: inf
ROOT
ATOM      1  C   UNL     1      42.597  11.032  38.154  1.00  0.00     0.012 C 
ATOM      2  C   UNL     1      41.713  11.964  37.767  1.00  0.00     0.053 C 
ENDROOT
BRANCH   1   3
ATOM      3  C   UNL     1      42.625  10.440  39.514  1.00  0.00    -0.025 A 
ATOM      4  C   UNL     1      43.326  11.031  40.585  1.00  0.00     0.012 A 
ATOM      5  C   UNL     1      43.331  10.427  41.846  1.00  0.00     0.047 A 
ATOM      6  C   UNL     1      42.649   9.225  42.056  1.00  0.00     0.115 A 
ATOM      7  C   UNL     1      41.955   9.223  39.731  1.00  0.00     0.012 A 
ATOM      8  C   UNL     1      41.963   8.623  40.994  1.00  0.00     0.047 A 
BRANCH   6   9
ATOM      9  O   UNL     1      42.663   8.636  43.318  1.00  0.00    -0.508 OA
ATOM     10  H   UNL     1      41.806   8.452  43.826  1.00  0.00     0.293 HD
ENDBRANCH   6   9
ENDBRANCH   1   3
BRANCH   2  11
ATOM     11  C   UNL     1      41.707  12.523  36.397  1.00  0.00     0.189 C 
ATOM     12  O   UNL     1      41.174  13.643  36.171  1.00  0.00    -0.289 OA
BRANCH  11  13
ATOM     13  C   UNL     1      42.298  11.758  35.276  1.00  0.00     0.064 A 
ATOM     14  C   UNL     1      43.532  12.128  34.686  1.00  0.00     0.130 A 
ATOM     15  C   UNL     1      41.595  10.657  34.754  1.00  0.00     0.020 A 
ATOM     16  C   UNL     1      44.012  11.416  33.580  1.00  0.00     0.093 A 
ATOM     17  C   UNL     1      42.094   9.947  33.661  1.00  0.00     0.047 A 
ATOM     18  C   UNL     1      43.299  10.327  33.067  1.00  0.00     0.119 A 
BRANCH  14  19
ATOM     19  O   UNL     1      44.316  13.169  35.186  1.00  0.00    -0.507 OA
ATOM     20  H   UNL     1      44.342  13.422  36.166  1.00  0.00     0.293 HD
ENDBRANCH  14  19
BRANCH  18  21
ATOM     21  O   UNL     1      43.779   9.615  31.970  1.00  0.00    -0.508 OA
ATOM     22  H   UNL     1      44.699   9.189  31.977  1.00  0.00     0.293 HD
ENDBRANCH  18  21
ENDBRANCH  11  13
ENDBRANCH   2  11
TORSDOF 6
ENDMDL
MODEL 4
REMARK VINA RESULT:    -5.298      4.777      6.751
REMARK INTER + INTRA:          -7.270
REMARK INTER:                  -6.611
REMARK INTRA:                  -0.659
REMARK UNBOUND:                -0.578
REMARK SMILES O=C(C=Cc1ccc(O)cc1)c1ccc(O)cc1O
REMARK SMILES IDX 4 1 3 2 5 3 6 4 7 5 8 6 11 7 10 8 9 9 2 11 1 12 12 13 18 14
REMARK SMILES IDX 13 15 17 16 14 17 15 18 19 19 16 21
REMARK H PARENT 9 10 19 20 16 22
REMARK Flexibility Score: inf
ROOT
ATOM      1  C   UNL     1      41.701   9.268  38.918  1.00  0.00     0.012 C 
ATOM      2  C   UNL     1      42.377   8.674  37.924  1.00  0.00     0.053 C 
ENDROOT
BRANCH   1   3
ATOM      3  C   UNL     1      42.324   9.699  40.194  1.00  0.00    -0.025 A 
ATOM      4  C   UNL     1      42.177   8.974  41.393  1.00  0.00     0.012 A 
ATOM      5  C   UNL     1      42.775   9.428  42.573  1.00  0.00     0.047 A 
ATOM      6  C   UNL     1      43.517  10.612  42.578  1.00  0.00     0.115 A 
ATOM      7  C   UNL     1      43.059  10.898  40.212  1.00  0.00     0.012 A 
ATOM      8  C   UNL     1      43.655  11.348  41.394  1.00  0.00     0.047 A 
BRANCH   6   9
ATOM      9  O   UNL     1      44.107  11.051  43.760  1.00  0.00    -0.508 OA
ATOM     10  H   UNL     1      43.754  11.858  44.261  1.00  0.00     0.293 HD
ENDBRANCH   6   9
ENDBRANCH   1   3
BRANCH   2  11
ATOM     11  C   UNL     1      41.724   8.270  36.660  1.00  0.00     0.189 C 
ATOM     12  O   UNL     1      40.980   7.252  36.627  1.00  0.00    -0.289 OA
BRANCH  11  13
ATOM     13  C   UNL     1      41.964   9.037  35.417  1.00  0.00     0.064 A 
ATOM     14  C   UNL     1      42.094   8.400  34.158  1.00  0.00     0.130 A 
ATOM     15  C   UNL     1      42.108  10.434  35.493  1.00  0.00     0.020 A 
ATOM     16  C   UNL     1      42.394   9.163  33.022  1.00  0.00     0.093 A 
ATOM     17  C   UNL     1      42.392  11.183  34.350  1.00  0.00     0.047 A 
ATOM     18  C   UNL     1      42.542  10.552  33.114  1.00  0.00     0.119 A 
BRANCH  14  19
ATOM     19  O   UNL     1      41.904   7.027  33.993  1.00  0.00    -0.507 OA
ATOM     20  H   UNL     1      41.787   6.588  33.089  1.00  0.00     0.293 HD
ENDBRANCH  14  19
BRANCH  18  21
ATOM     21  O   UNL     1      42.835  11.312  31.984  1.00  0.00    -0.508 OA
ATOM     22  H   UNL     1      43.667  11.888  31.934  1.00  0.00     0.293 HD
ENDBRANCH  18  21
ENDBRANCH  11  13
ENDBRANCH   2  11
TORSDOF 6
ENDMDL
MODEL 5
REMARK VINA RESULT:    -5.281      3.860      9.320
REMARK INTER + INTRA:          -7.249
REMARK INTER:                  -6.818
REMARK INTRA:                  -0.430
REMARK UNBOUND:                -0.578
REMARK SMILES O=C(C=Cc1ccc(O)cc1)c1ccc(O)cc1O
REMARK SMILES IDX 4 1 3 2 5 3 6 4 7 5 8 6 11 7 10 8 9 9 2 11 1 12 12 13 18 14
REMARK SMILES IDX 13 15 17 16 14 17 15 18 19 19 16 21
REMARK H PARENT 9 10 19 20 16 22
REMARK Flexibility Score: inf
ROOT
ATOM      1  C   UNL     1      43.422  15.792  37.052  1.00  0.00     0.012 C 
ATOM      2  C   UNL     1      43.283  14.497  36.733  1.00  0.00     0.053 C 
ENDROOT
BRANCH   1   3
ATOM      3  C   UNL     1      44.040  16.267  38.315  1.00  0.00    -0.025 A 
ATOM      4  C   UNL     1      44.251  15.419  39.421  1.00  0.00     0.012 A 
ATOM      5  C   UNL     1      44.827  15.918  40.594  1.00  0.00     0.047 A 
ATOM      6  C   UNL     1      45.191  17.264  40.686  1.00  0.00     0.115 A 
ATOM      7  C   UNL     1      44.394  17.623  38.422  1.00  0.00     0.012 A 
ATOM      8  C   UNL     1      44.970  18.116  39.597  1.00  0.00     0.047 A 
BRANCH   6   9
ATOM      9  O   UNL     1      45.764  17.745  41.860  1.00  0.00    -0.508 OA
ATOM     10  H   UNL     1      46.388  18.544  41.857  1.00  0.00     0.293 HD
ENDBRANCH   6   9
ENDBRANCH   1   3
BRANCH   2  11
ATOM     11  C   UNL     1      42.674  14.061  35.458  1.00  0.00     0.189 C 
ATOM     12  O   UNL     1      41.946  14.853  34.799  1.00  0.00    -0.289 OA
BRANCH  11  13
ATOM     13  C   UNL     1      42.886  12.683  34.960  1.00  0.00     0.064 A 
ATOM     14  C   UNL     1      43.995  12.344  34.147  1.00  0.00     0.130 A 
ATOM     15  C   UNL     1      41.938  11.691  35.271  1.00  0.00     0.020 A 
ATOM     16  C   UNL     1      44.112  11.043  33.641  1.00  0.00     0.093 A 
ATOM     17  C   UNL     1      42.076  10.395  34.772  1.00  0.00     0.047 A 
ATOM     18  C   UNL     1      43.157  10.068  33.952  1.00  0.00     0.119 A 
BRANCH  14  19
ATOM     19  O   UNL     1      45.008  13.257  33.847  1.00  0.00    -0.507 OA
ATOM     20  H   UNL     1      45.284  13.489  32.902  1.00  0.00     0.293 HD
ENDBRANCH  14  19
BRANCH  18  21
ATOM     21  O   UNL     1      43.276   8.773  33.454  1.00  0.00    -0.508 OA
ATOM     22  H   UNL     1      44.121   8.459  32.989  1.00  0.00     0.293 HD
ENDBRANCH  18  21
ENDBRANCH  11  13
ENDBRANCH   2  11
TORSDOF 6
ENDMDL
MODEL 6
REMARK VINA RESULT:    -5.169      4.869      5.949
REMARK INTER + INTRA:          -7.106
REMARK INTER:                  -6.522
REMARK INTRA:                  -0.584
REMARK UNBOUND:                -0.578
REMARK SMILES O=C(C=Cc1ccc(O)cc1)c1ccc(O)cc1O
REMARK SMILES IDX 4 1 3 2 5 3 6 4 7 5 8 6 11 7 10 8 9 9 2 11 1 12 12 13 18 14
REMARK SMILES IDX 13 15 17 16 14 17 15 18 19 19 16 21
REMARK H PARENT 9 10 19 20 16 22
REMARK Flexibility Score: inf
ROOT
ATOM      1  C   UNL     1      41.927   9.751  36.564  1.00  0.00     0.012 C 
ATOM      2  C   UNL     1      42.163   9.631  37.878  1.00  0.00     0.053 C 
ENDROOT
BRANCH   1   3
ATOM      3  C   UNL     1      41.734   8.596  35.653  1.00  0.00    -0.025 A 
ATOM      4  C   UNL     1      41.021   7.441  36.034  1.00  0.00     0.012 A 
ATOM      5  C   UNL     1      40.876   6.373  35.144  1.00  0.00     0.047 A 
ATOM      6  C   UNL     1      41.445   6.434  33.869  1.00  0.00     0.115 A 
ATOM      7  C   UNL     1      42.316   8.642  34.375  1.00  0.00     0.012 A 
ATOM      8  C   UNL     1      42.169   7.571  33.488  1.00  0.00     0.047 A 
BRANCH   6   9
ATOM      9  O   UNL     1      41.292   5.363  32.993  1.00  0.00    -0.508 OA
ATOM     10  H   UNL     1      40.679   5.420  32.188  1.00  0.00     0.293 HD
ENDBRANCH   6   9
ENDBRANCH   1   3
BRANCH   2  11
ATOM     11  C   UNL     1      42.337  10.807  38.758  1.00  0.00     0.189 C 
ATOM     12  O   UNL     1      42.221  11.973  38.289  1.00  0.00    -0.289 OA
BRANCH  11  13
ATOM     13  C   UNL     1      42.681  10.628  40.186  1.00  0.00     0.064 A 
ATOM     14  C   UNL     1      43.392  11.613  40.915  1.00  0.00     0.130 A 
ATOM     15  C   UNL     1      42.326   9.428  40.829  1.00  0.00     0.020 A 
ATOM     16  C   UNL     1      43.757  11.364  42.244  1.00  0.00     0.093 A 
ATOM     17  C   UNL     1      42.683   9.200  42.159  1.00  0.00     0.047 A 
ATOM     18  C   UNL     1      43.403  10.162  42.868  1.00  0.00     0.119 A 
BRANCH  14  19
ATOM     19  O   UNL     1      43.724  12.852  40.365  1.00  0.00    -0.507 OA
ATOM     20  H   UNL     1      44.422  13.467  40.764  1.00  0.00     0.293 HD
ENDBRANCH  14  19
BRANCH  18  21
ATOM     21  O   UNL     1      43.761   9.917  44.192  1.00  0.00    -0.508 OA
ATOM     22  H   UNL     1      43.319  10.409  44.960  1.00  0.00     0.293 HD
ENDBRANCH  18  21
ENDBRANCH  11  13
ENDBRANCH   2  11
TORSDOF 6
ENDMDL
MODEL 7
REMARK VINA RESULT:    -5.153      5.170      6.777
REMARK INTER + INTRA:          -7.087
REMARK INTER:                  -6.499
REMARK INTRA:                  -0.588
REMARK UNBOUND:                -0.578
REMARK SMILES O=C(C=Cc1ccc(O)cc1)c1ccc(O)cc1O
REMARK SMILES IDX 4 1 3 2 5 3 6 4 7 5 8 6 11 7 10 8 9 9 2 11 1 12 12 13 18 14
REMARK SMILES IDX 13 15 17 16 14 17 15 18 19 19 16 21
REMARK H PARENT 9 10 19 20 16 22
REMARK Flexibility Score: inf
ROOT
ATOM      1  C   UNL     1      41.620   9.217  37.007  1.00  0.00     0.012 C 
ATOM      2  C   UNL     1      42.354   8.742  38.024  1.00  0.00     0.053 C 
ENDROOT
BRANCH   1   3
ATOM      3  C   UNL     1      42.102   9.282  35.605  1.00  0.00    -0.025 A 
ATOM      4  C   UNL     1      42.045   8.178  34.731  1.00  0.00     0.012 A 
ATOM      5  C   UNL     1      42.523   8.287  33.421  1.00  0.00     0.047 A 
ATOM      6  C   UNL     1      43.073   9.490  32.968  1.00  0.00     0.115 A 
ATOM      7  C   UNL     1      42.671  10.483  35.145  1.00  0.00     0.012 A 
ATOM      8  C   UNL     1      43.148  10.587  33.835  1.00  0.00     0.047 A 
BRANCH   6   9
ATOM      9  O   UNL     1      43.544   9.583  31.661  1.00  0.00    -0.508 OA
ATOM     10  H   UNL     1      44.380  10.108  31.435  1.00  0.00     0.293 HD
ENDBRANCH   6   9
ENDBRANCH   1   3
BRANCH   2  11
ATOM     11  C   UNL     1      41.834   8.679  39.407  1.00  0.00     0.189 C 
ATOM     12  O   UNL     1      40.875   7.910  39.691  1.00  0.00    -0.289 OA
BRANCH  11  13
ATOM     13  C   UNL     1      42.413   9.541  40.463  1.00  0.00     0.064 A 
ATOM     14  C   UNL     1      42.108   9.353  41.833  1.00  0.00     0.130 A 
ATOM     15  C   UNL     1      43.260  10.601  40.091  1.00  0.00     0.020 A 
ATOM     16  C   UNL     1      42.623  10.241  42.786  1.00  0.00     0.093 A 
ATOM     17  C   UNL     1      43.778  11.469  41.054  1.00  0.00     0.047 A 
ATOM     18  C   UNL     1      43.458  11.296  42.402  1.00  0.00     0.119 A 
BRANCH  14  19
ATOM     19  O   UNL     1      41.327   8.288  42.285  1.00  0.00    -0.507 OA
ATOM     20  H   UNL     1      40.378   8.124  41.972  1.00  0.00     0.293 HD
ENDBRANCH  14  19
BRANCH  18  21
ATOM     21  O   UNL     1      43.975  12.175  43.350  1.00  0.00    -0.508 OA
ATOM     22  H   UNL     1      43.389  12.586  44.067  1.00  0.00     0.293 HD
ENDBRANCH  18  21
ENDBRANCH  11  13
ENDBRANCH   2  11
TORSDOF 6
ENDMDL
MODEL 8
REMARK VINA RESULT:    -5.130      4.009      7.044
REMARK INTER + INTRA:          -7.058
REMARK INTER:                  -6.563
REMARK INTRA:                  -0.494
REMARK UNBOUND:                -0.578
REMARK SMILES O=C(C=Cc1ccc(O)cc1)c1ccc(O)cc1O
REMARK SMILES IDX 4 1 3 2 5 3 6 4 7 5 8 6 11 7 10 8 9 9 2 11 1 12 12 13 18 14
REMARK SMILES IDX 13 15 17 16 14 17 15 18 19 19 16 21
REMARK H PARENT 9 10 19 20 16 22
REMARK Flexibility Score: inf
ROOT
ATOM      1  C   UNL     1      42.218  13.043  36.310  1.00  0.00     0.012 C 
ATOM      2  C   UNL     1      42.755  14.256  36.504  1.00  0.00     0.053 C 
ENDROOT
BRANCH   1   3
ATOM      3  C   UNL     1      42.599  12.143  35.194  1.00  0.00    -0.025 A 
ATOM      4  C   UNL     1      41.741  11.140  34.700  1.00  0.00     0.012 A 
ATOM      5  C   UNL     1      42.152  10.310  33.652  1.00  0.00     0.047 A 
ATOM      6  C   UNL     1      43.423  10.459  33.090  1.00  0.00     0.115 A 
ATOM      7  C   UNL     1      43.882  12.275  34.632  1.00  0.00     0.012 A 
ATOM      8  C   UNL     1      44.288  11.443  33.585  1.00  0.00     0.047 A 
BRANCH   6   9
ATOM      9  O   UNL     1      43.817   9.625  32.047  1.00  0.00    -0.508 OA
ATOM     10  H   UNL     1      43.208   8.896  31.692  1.00  0.00     0.293 HD
ENDBRANCH   6   9
ENDBRANCH   1   3
BRANCH   2  11
ATOM     11  C   UNL     1      42.359  15.120  37.638  1.00  0.00     0.189 C 
ATOM     12  O   UNL     1      41.166  15.515  37.748  1.00  0.00    -0.289 OA
BRANCH  11  13
ATOM     13  C   UNL     1      43.364  15.554  38.633  1.00  0.00     0.064 A 
ATOM     14  C   UNL     1      43.738  14.735  39.726  1.00  0.00     0.130 A 
ATOM     15  C   UNL     1      43.935  16.835  38.514  1.00  0.00     0.020 A 
ATOM     16  C   UNL     1      44.639  15.221  40.682  1.00  0.00     0.093 A 
ATOM     17  C   UNL     1      44.844  17.300  39.466  1.00  0.00     0.047 A 
ATOM     18  C   UNL     1      45.194  16.499  40.554  1.00  0.00     0.119 A 
BRANCH  14  19
ATOM     19  O   UNL     1      43.262  13.431  39.878  1.00  0.00    -0.507 OA
ATOM     20  H   UNL     1      43.863  12.617  39.877  1.00  0.00     0.293 HD
ENDBRANCH  14  19
BRANCH  18  21
ATOM     21  O   UNL     1      46.095  16.981  41.501  1.00  0.00    -0.508 OA
ATOM     22  H   UNL     1      46.388  16.416  42.290  1.00  0.00     0.293 HD
ENDBRANCH  18  21
ENDBRANCH  11  13
ENDBRANCH   2  11
TORSDOF 6
ENDMDL
MODEL 9
REMARK VINA RESULT:    -5.024      2.687      7.935
REMARK INTER + INTRA:          -6.924
REMARK INTER:                  -6.265
REMARK INTRA:                  -0.658
REMARK UNBOUND:                -0.578
REMARK SMILES O=C(C=Cc1ccc(O)cc1)c1ccc(O)cc1O
REMARK SMILES IDX 4 1 3 2 5 3 6 4 7 5 8 6 11 7 10 8 9 9 2 11 1 12 12 13 18 14
REMARK SMILES IDX 13 15 17 16 14 17 15 18 19 19 16 21
REMARK H PARENT 9 10 19 20 16 22
REMARK Flexibility Score: inf
ROOT
ATOM      1  C   UNL     1      42.194  13.383  35.649  1.00  0.00     0.012 C 
ATOM      2  C   UNL     1      42.918  12.301  35.328  1.00  0.00     0.053 C 
ENDROOT
BRANCH   1   3
ATOM      3  C   UNL     1      42.428  14.197  36.867  1.00  0.00    -0.025 A 
ATOM      4  C   UNL     1      43.113  15.429  36.836  1.00  0.00     0.012 A 
ATOM      5  C   UNL     1      43.319  16.154  38.014  1.00  0.00     0.047 A 
ATOM      6  C   UNL     1      42.855  15.661  39.237  1.00  0.00     0.115 A 
ATOM      7  C   UNL     1      41.980  13.702  38.104  1.00  0.00     0.012 A 
ATOM      8  C   UNL     1      42.188  14.430  39.279  1.00  0.00     0.047 A 
BRANCH   6   9
ATOM      9  O   UNL     1      43.067  16.395  40.401  1.00  0.00    -0.508 OA
ATOM     10  H   UNL     1      43.991  16.489  40.808  1.00  0.00     0.293 HD
ENDBRANCH   6   9
ENDBRANCH   1   3
BRANCH   2  11
ATOM     11  C   UNL     1      42.665  11.521  34.097  1.00  0.00     0.189 C 
ATOM     12  O   UNL     1      42.663  12.093  32.972  1.00  0.00    -0.289 OA
BRANCH  11  13
ATOM     13  C   UNL     1      42.380  10.071  34.177  1.00  0.00     0.064 A 
ATOM     14  C   UNL     1      42.787   9.171  33.162  1.00  0.00     0.130 A 
ATOM     15  C   UNL     1      41.647   9.578  35.272  1.00  0.00     0.020 A 
ATOM     16  C   UNL     1      42.430   7.820  33.248  1.00  0.00     0.093 A 
ATOM     17  C   UNL     1      41.311   8.225  35.352  1.00  0.00     0.047 A 
ATOM     18  C   UNL     1      41.694   7.344  34.340  1.00  0.00     0.119 A 
BRANCH  14  19
ATOM     19  O   UNL     1      43.569   9.574  32.077  1.00  0.00    -0.507 OA
ATOM     20  H   UNL     1      44.542   9.317  31.968  1.00  0.00     0.293 HD
ENDBRANCH  14  19
BRANCH  18  21
ATOM     21  O   UNL     1      41.343   5.999  34.429  1.00  0.00    -0.508 OA
ATOM     22  H   UNL     1      40.638   5.678  35.082  1.00  0.00     0.293 HD
ENDBRANCH  18  21
ENDBRANCH  11  13
ENDBRANCH   2  11
TORSDOF 6
ENDMDL
