MODEL 1
REMARK VINA RESULT:    -7.276      0.000      0.000
REMARK INTER + INTRA:         -14.771
REMARK INTER:                 -12.593
REMARK INTRA:                  -2.179
REMARK UNBOUND:                -2.179
REMARK SMILES OC[C@@H]1O[C@H](O[C@H]2[C@H](O)[C@H](O)[C@@H](O)O[C@@H]2CO)[C@H](O)[C@@H](O)[C@H]1O[C@@H]1O[C@H](CO)[C@H](O)[C@@H](O)[C@H]1O
REMARK SMILES IDX 22 1 3 2 4 3 5 4 18 5 20 6 23 7 24 8 26 9 29 10 25 11 31 12
REMARK SMILES IDX 33 13 27 14 28 15 30 17 32 19 34 21 2 23 1 24 21 26 19 28
REMARK SMILES IDX 6 30 7 31 15 32 8 33 14 34 10 35 12 36 16 37 17 38 9 40
REMARK SMILES IDX 11 42 13 44
REMARK H PARENT 28 16 30 18 32 20 34 22 1 25 21 27 19 29 17 39 9 41 11 43
REMARK H PARENT 13 45
REMARK Flexibility Score: inf
ROOT
ATOM      1  C   UNL     1      -1.911  13.523  28.137  1.00  0.00     0.184 C 
ATOM      2  C   UNL     1      -1.040  12.256  27.870  1.00  0.00     0.178 C 
ATOM      3  O   UNL     1      -0.350  11.740  29.007  1.00  0.00    -0.341 OA
ATOM      4  C   UNL     1      -1.120  11.622  30.200  1.00  0.00     0.282 C 
ATOM      5  C   UNL     1      -1.773  12.948  30.624  1.00  0.00     0.202 C 
ATOM      6  C   UNL     1      -2.631  13.533  29.504  1.00  0.00     0.180 C 
ENDROOT
BRANCH   1   7
ATOM      7  O   UNL     1      -1.325  14.779  27.783  1.00  0.00    -0.341 OA
BRANCH   7   8
ATOM      8  C   UNL     1      -1.062  15.084  26.415  1.00  0.00     0.282 C 
ATOM      9  C   UNL     1       0.473  15.721  24.786  1.00  0.00     0.178 C 
ATOM     10  C   UNL     1      -0.231  17.051  24.372  1.00  0.00     0.177 C 
ATOM     11  O   UNL     1       0.278  15.475  26.164  1.00  0.00    -0.341 OA
ATOM     12  C   UNL     1      -1.373  17.419  25.361  1.00  0.00     0.179 C 
ATOM     13  C   UNL     1      -2.080  16.166  25.932  1.00  0.00     0.202 C 
BRANCH   9  14
ATOM     14  C   UNL     1       1.989  15.706  24.506  1.00  0.00     0.191 C 
BRANCH  14  15
ATOM     15  O   UNL     1       2.684  16.513  25.422  1.00  0.00    -0.394 OA
ATOM     16  H   UNL     1       3.601  16.139  25.502  1.00  0.00     0.210 HD
ENDBRANCH  14  15
ENDBRANCH   9  14
BRANCH  10  17
ATOM     17  O   UNL     1       0.697  18.106  24.327  1.00  0.00    -0.387 OA
ATOM     18  H   UNL     1       1.485  17.772  23.825  1.00  0.00     0.211 HD
ENDBRANCH  10  17
BRANCH  12  19
ATOM     19  O   UNL     1      -2.320  18.256  24.745  1.00  0.00    -0.387 OA
ATOM     20  H   UNL     1      -2.738  18.795  25.467  1.00  0.00     0.211 HD
ENDBRANCH  12  19
BRANCH  13  21
ATOM     21  O   UNL     1      -2.988  15.622  25.001  1.00  0.00    -0.385 OA
ATOM     22  H   UNL     1      -3.888  15.998  25.201  1.00  0.00     0.211 HD
ENDBRANCH  13  21
ENDBRANCH   7   8
ENDBRANCH   1   7
BRANCH   2  23
ATOM     23  C   UNL     1      -1.774  11.136  27.095  1.00  0.00     0.191 C 
BRANCH  23  24
ATOM     24  O   UNL     1      -2.923  11.619  26.454  1.00  0.00    -0.394 OA
ATOM     25  H   UNL     1      -3.681  11.479  27.084  1.00  0.00     0.210 HD
ENDBRANCH  23  24
ENDBRANCH   2  23
BRANCH   6  26
ATOM     26  O   UNL     1      -3.041  14.832  29.852  1.00  0.00    -0.387 OA
ATOM     27  H   UNL     1      -3.746  15.082  29.199  1.00  0.00     0.211 HD
ENDBRANCH   6  26
BRANCH   5  28
ATOM     28  O   UNL     1      -2.579  12.747  31.756  1.00  0.00    -0.385 OA
ATOM     29  H   UNL     1      -3.519  12.743  31.447  1.00  0.00     0.211 HD
ENDBRANCH   5  28
BRANCH   4  30
ATOM     30  O   UNL     1      -2.101  10.608  30.094  1.00  0.00    -0.341 OA
BRANCH  30  31
ATOM     31  C   UNL     1      -1.761   9.299  30.575  1.00  0.00     0.184 C 
ATOM     32  C   UNL     1      -1.816   9.384  32.134  1.00  0.00     0.178 C 
ATOM     33  C   UNL     1      -0.396   8.666  30.157  1.00  0.00     0.180 C 
ATOM     34  O   UNL     1      -0.976   8.463  32.821  1.00  0.00    -0.342 OA
ATOM     35  C   UNL     1      -0.197   7.289  30.847  1.00  0.00     0.201 C 
ATOM     36  C   UNL     1      -0.955   7.199  32.188  1.00  0.00     0.279 C 
BRANCH  32  37
ATOM     37  C   UNL     1      -3.250   9.308  32.668  1.00  0.00     0.191 C 
BRANCH  37  38
ATOM     38  O   UNL     1      -4.014  10.341  32.114  1.00  0.00    -0.394 OA
ATOM     39  H   UNL     1      -3.693  10.452  31.186  1.00  0.00     0.210 HD
ENDBRANCH  37  38
ENDBRANCH  32  37
BRANCH  33  40
ATOM     40  O   UNL     1      -0.327   8.485  28.765  1.00  0.00    -0.387 OA
ATOM     41  H   UNL     1       0.105   9.298  28.387  1.00  0.00     0.211 HD
ENDBRANCH  33  40
BRANCH  35  42
ATOM     42  O   UNL     1      -0.635   6.254  30.006  1.00  0.00    -0.385 OA
ATOM     43  H   UNL     1      -1.585   6.076  30.225  1.00  0.00     0.211 HD
ENDBRANCH  35  42
BRANCH  36  44
ATOM     44  O   UNL     1      -0.302   6.294  33.034  1.00  0.00    -0.366 OA
ATOM     45  H   UNL     1      -0.713   5.400  32.864  1.00  0.00     0.213 HD
ENDBRANCH  36  44
ENDBRANCH  30  31
ENDBRANCH   4  30
TORSDOF 18
ENDMDL
MODEL 2
REMARK VINA RESULT:    -7.053      3.743      6.519
REMARK INTER + INTRA:         -14.385
REMARK INTER:                 -12.263
REMARK INTRA:                  -2.122
REMARK UNBOUND:                -2.179
REMARK SMILES OC[C@@H]1O[C@H](O[C@H]2[C@H](O)[C@H](O)[C@@H](O)O[C@@H]2CO)[C@H](O)[C@@H](O)[C@H]1O[C@@H]1O[C@H](CO)[C@H](O)[C@@H](O)[C@H]1O
REMARK SMILES IDX 22 1 3 2 4 3 5 4 18 5 20 6 23 7 24 8 26 9 29 10 25 11 31 12
REMARK SMILES IDX 33 13 27 14 28 15 30 17 32 19 34 21 2 23 1 24 21 26 19 28
REMARK SMILES IDX 6 30 7 31 15 32 8 33 14 34 10 35 12 36 16 37 17 38 9 40
REMARK SMILES IDX 11 42 13 44
REMARK H PARENT 28 16 30 18 32 20 34 22 1 25 21 27 19 29 17 39 9 41 11 43
REMARK H PARENT 13 45
REMARK Flexibility Score: inf
ROOT
ATOM      1  C   UNL     1      -2.583   9.485  27.350  1.00  0.00     0.184 C 
ATOM      2  C   UNL     1      -1.988   8.779  28.609  1.00  0.00     0.178 C 
ATOM      3  O   UNL     1      -1.074   9.566  29.372  1.00  0.00    -0.341 OA
ATOM      4  C   UNL     1      -1.485  10.902  29.648  1.00  0.00     0.282 C 
ATOM      5  C   UNL     1      -1.821  11.698  28.376  1.00  0.00     0.202 C 
ATOM      6  C   UNL     1      -2.881  10.990  27.535  1.00  0.00     0.180 C 
ENDROOT
BRANCH   1   7
ATOM      7  O   UNL     1      -1.969   9.167  26.098  1.00  0.00    -0.341 OA
BRANCH   7   8
ATOM      8  C   UNL     1      -2.611   8.267  25.195  1.00  0.00     0.282 C 
ATOM      9  C   UNL     1      -2.607   7.192  23.131  1.00  0.00     0.178 C 
ATOM     10  C   UNL     1      -3.939   7.804  22.597  1.00  0.00     0.177 C 
ATOM     11  O   UNL     1      -1.938   8.126  23.955  1.00  0.00    -0.341 OA
ATOM     12  C   UNL     1      -4.441   8.957  23.512  1.00  0.00     0.179 C 
ATOM     13  C   UNL     1      -4.094   8.716  25.001  1.00  0.00     0.202 C 
BRANCH   9  14
ATOM     14  C   UNL     1      -1.635   6.750  22.019  1.00  0.00     0.191 C 
BRANCH  14  15
ATOM     15  O   UNL     1      -0.654   5.878  22.518  1.00  0.00    -0.394 OA
ATOM     16  H   UNL     1       0.166   6.417  22.670  1.00  0.00     0.210 HD
ENDBRANCH  14  15
ENDBRANCH   9  14
BRANCH  10  17
ATOM     17  O   UNL     1      -3.767   8.294  21.291  1.00  0.00    -0.387 OA
ATOM     18  H   UNL     1      -4.354   7.751  20.703  1.00  0.00     0.211 HD
ENDBRANCH  10  17
BRANCH  12  19
ATOM     19  O   UNL     1      -5.827   9.140  23.373  1.00  0.00    -0.387 OA
ATOM     20  H   UNL     1      -6.163   8.383  22.825  1.00  0.00     0.211 HD
ENDBRANCH  12  19
BRANCH  13  21
ATOM     21  O   UNL     1      -4.981   7.791  25.590  1.00  0.00    -0.385 OA
ATOM     22  H   UNL     1      -5.774   7.711  24.993  1.00  0.00     0.211 HD
ENDBRANCH  13  21
ENDBRANCH   7   8
ENDBRANCH   1   7
BRANCH   2  23
ATOM     23  C   UNL     1      -3.043   8.099  29.511  1.00  0.00     0.191 C 
BRANCH  23  24
ATOM     24  O   UNL     1      -2.466   7.124  30.337  1.00  0.00    -0.394 OA
ATOM     25  H   UNL     1      -2.738   6.241  29.966  1.00  0.00     0.210 HD
ENDBRANCH  23  24
ENDBRANCH   2  23
BRANCH   6  26
ATOM     26  O   UNL     1      -3.011  11.637  26.294  1.00  0.00    -0.387 OA
ATOM     27  H   UNL     1      -3.089  10.917  25.616  1.00  0.00     0.211 HD
ENDBRANCH   6  26
BRANCH   5  28
ATOM     28  O   UNL     1      -2.292  12.976  28.719  1.00  0.00    -0.385 OA
ATOM     29  H   UNL     1      -3.096  13.147  28.168  1.00  0.00     0.211 HD
ENDBRANCH   5  28
BRANCH   4  30
ATOM     30  O   UNL     1      -2.574  10.942  30.550  1.00  0.00    -0.341 OA
BRANCH  30  31
ATOM     31  C   UNL     1      -2.325  11.445  31.871  1.00  0.00     0.184 C 
ATOM     32  C   UNL     1      -3.099  10.502  32.845  1.00  0.00     0.178 C 
ATOM     33  C   UNL     1      -2.698  12.925  32.206  1.00  0.00     0.180 C 
ATOM     34  O   UNL     1      -3.503  11.098  34.073  1.00  0.00    -0.342 OA
ATOM     35  C   UNL     1      -2.418  13.235  33.701  1.00  0.00     0.201 C 
ATOM     36  C   UNL     1      -2.514  11.971  34.582  1.00  0.00     0.279 C 
BRANCH  32  37
ATOM     37  C   UNL     1      -2.348   9.192  33.102  1.00  0.00     0.191 C 
BRANCH  37  38
ATOM     38  O   UNL     1      -1.159   9.178  32.363  1.00  0.00    -0.394 OA
ATOM     39  H   UNL     1      -1.294   9.811  31.616  1.00  0.00     0.210 HD
ENDBRANCH  37  38
ENDBRANCH  32  37
BRANCH  33  40
ATOM     40  O   UNL     1      -1.962  13.824  31.415  1.00  0.00    -0.387 OA
ATOM     41  H   UNL     1      -2.076  14.726  31.818  1.00  0.00     0.211 HD
ENDBRANCH  33  40
BRANCH  35  42
ATOM     42  O   UNL     1      -1.142  13.800  33.852  1.00  0.00    -0.385 OA
ATOM     43  H   UNL     1      -0.997  14.410  33.086  1.00  0.00     0.211 HD
ENDBRANCH  35  42
BRANCH  36  44
ATOM     44  O   UNL     1      -2.878  12.336  35.885  1.00  0.00    -0.366 OA
ATOM     45  H   UNL     1      -3.824  12.043  36.008  1.00  0.00     0.213 HD
ENDBRANCH  36  44
ENDBRANCH  30  31
ENDBRANCH   4  30
TORSDOF 18
ENDMDL
MODEL 3
REMARK VINA RESULT:    -6.958      0.943      2.005
REMARK INTER + INTRA:         -14.221
REMARK INTER:                 -11.893
REMARK INTRA:                  -2.328
REMARK UNBOUND:                -2.179
REMARK SMILES OC[C@@H]1O[C@H](O[C@H]2[C@H](O)[C@H](O)[C@@H](O)O[C@@H]2CO)[C@H](O)[C@@H](O)[C@H]1O[C@@H]1O[C@H](CO)[C@H](O)[C@@H](O)[C@H]1O
REMARK SMILES IDX 22 1 3 2 4 3 5 4 18 5 20 6 23 7 24 8 26 9 29 10 25 11 31 12
REMARK SMILES IDX 33 13 27 14 28 15 30 17 32 19 34 21 2 23 1 24 21 26 19 28
REMARK SMILES IDX 6 30 7 31 15 32 8 33 14 34 10 35 12 36 16 37 17 38 9 40
REMARK SMILES IDX 11 42 13 44
REMARK H PARENT 28 16 30 18 32 20 34 22 1 25 21 27 19 29 17 39 9 41 11 43
REMARK H PARENT 13 45
REMARK Flexibility Score: inf
ROOT
ATOM      1  C   UNL     1      -2.258  13.943  28.106  1.00  0.00     0.184 C 
ATOM      2  C   UNL     1      -1.306  12.745  27.800  1.00  0.00     0.178 C 
ATOM      3  O   UNL     1      -0.493  12.320  28.894  1.00  0.00    -0.341 OA
ATOM      4  C   UNL     1      -1.162  12.171  30.143  1.00  0.00     0.282 C 
ATOM      5  C   UNL     1      -1.891  13.450  30.586  1.00  0.00     0.202 C 
ATOM      6  C   UNL     1      -2.875  13.931  29.523  1.00  0.00     0.180 C 
ENDROOT
BRANCH   1   7
ATOM      7  O   UNL     1      -1.807  15.233  27.682  1.00  0.00    -0.341 OA
BRANCH   7   8
ATOM      8  C   UNL     1      -1.282  15.410  26.368  1.00  0.00     0.282 C 
ATOM      9  C   UNL     1       0.567  15.795  25.008  1.00  0.00     0.178 C 
ATOM     10  C   UNL     1       0.072  17.141  24.392  1.00  0.00     0.177 C 
ATOM     11  O   UNL     1       0.112  15.672  26.340  1.00  0.00    -0.341 OA
ATOM     12  C   UNL     1      -1.187  17.673  25.132  1.00  0.00     0.179 C 
ATOM     13  C   UNL     1      -2.095  16.528  25.642  1.00  0.00     0.202 C 
BRANCH   9  14
ATOM     14  C   UNL     1       2.101  15.638  25.008  1.00  0.00     0.191 C 
BRANCH  14  15
ATOM     15  O   UNL     1       2.593  15.437  23.708  1.00  0.00    -0.394 OA
ATOM     16  H   UNL     1       1.957  15.878  23.085  1.00  0.00     0.210 HD
ENDBRANCH  14  15
ENDBRANCH   9  14
BRANCH  10  17
ATOM     17  O   UNL     1       1.086  18.112  24.450  1.00  0.00    -0.387 OA
ATOM     18  H   UNL     1       1.242  18.418  23.519  1.00  0.00     0.211 HD
ENDBRANCH  10  17
BRANCH  12  19
ATOM     19  O   UNL     1      -1.930  18.533  24.304  1.00  0.00    -0.387 OA
ATOM     20  H   UNL     1      -2.751  18.777  24.808  1.00  0.00     0.211 HD
ENDBRANCH  12  19
BRANCH  13  21
ATOM     21  O   UNL     1      -2.873  15.988  24.598  1.00  0.00    -0.385 OA
ATOM     22  H   UNL     1      -2.590  15.042  24.470  1.00  0.00     0.211 HD
ENDBRANCH  13  21
ENDBRANCH   7   8
ENDBRANCH   1   7
BRANCH   2  23
ATOM     23  C   UNL     1      -1.997  11.549  27.107  1.00  0.00     0.191 C 
BRANCH  23  24
ATOM     24  O   UNL     1      -3.360  11.482  27.428  1.00  0.00    -0.394 OA
ATOM     25  H   UNL     1      -3.430  11.643  28.408  1.00  0.00     0.210 HD
ENDBRANCH  23  24
ENDBRANCH   2  23
BRANCH   6  26
ATOM     26  O   UNL     1      -3.366  15.201  29.872  1.00  0.00    -0.387 OA
ATOM     27  H   UNL     1      -2.724  15.858  29.495  1.00  0.00     0.211 HD
ENDBRANCH   6  26
BRANCH   5  28
ATOM     28  O   UNL     1      -2.592  13.214  31.781  1.00  0.00    -0.385 OA
ATOM     29  H   UNL     1      -1.922  13.183  32.508  1.00  0.00     0.211 HD
ENDBRANCH   5  28
BRANCH   4  30
ATOM     30  O   UNL     1      -2.059  11.077  30.133  1.00  0.00    -0.341 OA
BRANCH  30  31
ATOM     31  C   UNL     1      -1.651   9.875  30.802  1.00  0.00     0.184 C 
ATOM     32  C   UNL     1      -1.887   8.714  29.785  1.00  0.00     0.178 C 
ATOM     33  C   UNL     1      -2.320   9.494  32.160  1.00  0.00     0.180 C 
ATOM     34  O   UNL     1      -2.133   7.438  30.368  1.00  0.00    -0.342 OA
ATOM     35  C   UNL     1      -1.789   8.126  32.668  1.00  0.00     0.201 C 
ATOM     36  C   UNL     1      -1.327   7.218  31.508  1.00  0.00     0.279 C 
BRANCH  32  37
ATOM     37  C   UNL     1      -0.770   8.622  28.740  1.00  0.00     0.191 C 
BRANCH  37  38
ATOM     38  O   UNL     1       0.262   9.506  29.076  1.00  0.00    -0.394 OA
ATOM     39  H   UNL     1       0.247   9.583  30.061  1.00  0.00     0.210 HD
ENDBRANCH  37  38
ENDBRANCH  32  37
BRANCH  33  40
ATOM     40  O   UNL     1      -2.065  10.467  33.142  1.00  0.00    -0.387 OA
ATOM     41  H   UNL     1      -2.947  10.784  33.474  1.00  0.00     0.211 HD
ENDBRANCH  33  40
BRANCH  35  42
ATOM     42  O   UNL     1      -0.716   8.317  33.552  1.00  0.00    -0.385 OA
ATOM     43  H   UNL     1      -0.898   7.772  34.360  1.00  0.00     0.211 HD
ENDBRANCH  35  42
BRANCH  36  44
ATOM     44  O   UNL     1      -1.457   5.875  31.886  1.00  0.00    -0.366 OA
ATOM     45  H   UNL     1      -0.559   5.585  32.213  1.00  0.00     0.213 HD
ENDBRANCH  36  44
ENDBRANCH  30  31
ENDBRANCH   4  30
TORSDOF 18
ENDMDL
MODEL 4
REMARK VINA RESULT:    -6.834      3.175     10.856
REMARK INTER + INTRA:         -14.007
REMARK INTER:                 -12.352
REMARK INTRA:                  -1.654
REMARK UNBOUND:                -2.179
REMARK SMILES OC[C@@H]1O[C@H](O[C@H]2[C@H](O)[C@H](O)[C@@H](O)O[C@@H]2CO)[C@H](O)[C@@H](O)[C@H]1O[C@@H]1O[C@H](CO)[C@H](O)[C@@H](O)[C@H]1O
REMARK SMILES IDX 22 1 3 2 4 3 5 4 18 5 20 6 23 7 24 8 26 9 29 10 25 11 31 12
REMARK SMILES IDX 33 13 27 14 28 15 30 17 32 19 34 21 2 23 1 24 21 26 19 28
REMARK SMILES IDX 6 30 7 31 15 32 8 33 14 34 10 35 12 36 16 37 17 38 9 40
REMARK SMILES IDX 11 42 13 44
REMARK H PARENT 28 16 30 18 32 20 34 22 1 25 21 27 19 29 17 39 9 41 11 43
REMARK H PARENT 13 45
REMARK Flexibility Score: inf
ROOT
ATOM      1  C   UNL     1      -1.540  15.815  25.469  1.00  0.00     0.184 C 
ATOM      2  C   UNL     1      -2.471  17.050  25.259  1.00  0.00     0.178 C 
ATOM      3  O   UNL     1      -1.822  18.229  24.786  1.00  0.00    -0.341 OA
ATOM      4  C   UNL     1      -0.918  18.047  23.700  1.00  0.00     0.282 C 
ATOM      5  C   UNL     1       0.178  17.011  24.003  1.00  0.00     0.202 C 
ATOM      6  C   UNL     1      -0.419  15.668  24.416  1.00  0.00     0.180 C 
ENDROOT
BRANCH   1   7
ATOM      7  O   UNL     1      -1.109  15.569  26.811  1.00  0.00    -0.341 OA
BRANCH   7   8
ATOM      8  C   UNL     1      -1.599  14.434  27.521  1.00  0.00     0.282 C 
ATOM      9  C   UNL     1      -2.704  13.589  29.387  1.00  0.00     0.178 C 
ATOM     10  C   UNL     1      -1.523  12.727  29.932  1.00  0.00     0.177 C 
ATOM     11  O   UNL     1      -2.208  14.755  28.761  1.00  0.00    -0.341 OA
ATOM     12  C   UNL     1      -0.198  13.042  29.182  1.00  0.00     0.179 C 
ATOM     13  C   UNL     1      -0.438  13.404  27.696  1.00  0.00     0.202 C 
BRANCH   9  14
ATOM     14  C   UNL     1      -3.713  14.018  30.471  1.00  0.00     0.191 C 
BRANCH  14  15
ATOM     15  O   UNL     1      -4.431  12.917  30.963  1.00  0.00    -0.394 OA
ATOM     16  H   UNL     1      -4.535  12.277  30.210  1.00  0.00     0.210 HD
ENDBRANCH  14  15
ENDBRANCH   9  14
BRANCH  10  17
ATOM     17  O   UNL     1      -1.340  12.955  31.306  1.00  0.00    -0.387 OA
ATOM     18  H   UNL     1      -1.342  12.065  31.747  1.00  0.00     0.211 HD
ENDBRANCH  10  17
BRANCH  12  19
ATOM     19  O   UNL     1       0.696  11.960  29.266  1.00  0.00    -0.387 OA
ATOM     20  H   UNL     1       1.316  12.041  28.494  1.00  0.00     0.211 HD
ENDBRANCH  12  19
BRANCH  13  21
ATOM     21  O   UNL     1      -0.666  12.251  26.919  1.00  0.00    -0.385 OA
ATOM     22  H   UNL     1      -0.986  11.533  27.530  1.00  0.00     0.211 HD
ENDBRANCH  13  21
ENDBRANCH   7   8
ENDBRANCH   1   7
BRANCH   2  23
ATOM     23  C   UNL     1      -3.754  16.745  24.451  1.00  0.00     0.191 C 
BRANCH  23  24
ATOM     24  O   UNL     1      -3.483  15.939  23.337  1.00  0.00    -0.394 OA
ATOM     25  H   UNL     1      -2.632  16.273  22.943  1.00  0.00     0.210 HD
ENDBRANCH  23  24
ENDBRANCH   2  23
BRANCH   6  26
ATOM     26  O   UNL     1       0.601  14.818  24.877  1.00  0.00    -0.387 OA
ATOM     27  H   UNL     1       0.219  13.903  24.876  1.00  0.00     0.211 HD
ENDBRANCH   6  26
BRANCH   5  28
ATOM     28  O   UNL     1       0.986  16.821  22.870  1.00  0.00    -0.385 OA
ATOM     29  H   UNL     1       0.440  16.333  22.203  1.00  0.00     0.211 HD
ENDBRANCH   5  28
BRANCH   4  30
ATOM     30  O   UNL     1      -1.593  17.706  22.505  1.00  0.00    -0.341 OA
BRANCH  30  31
ATOM     31  C   UNL     1      -1.850  18.758  21.563  1.00  0.00     0.184 C 
ATOM     32  C   UNL     1      -1.508  18.172  20.157  1.00  0.00     0.178 C 
ATOM     33  C   UNL     1      -1.114  20.126  21.728  1.00  0.00     0.180 C 
ATOM     34  O   UNL     1      -1.109  19.130  19.182  1.00  0.00    -0.342 OA
ATOM     35  C   UNL     1      -1.478  21.088  20.565  1.00  0.00     0.201 C 
ATOM     36  C   UNL     1      -1.860  20.323  19.280  1.00  0.00     0.279 C 
BRANCH  32  37
ATOM     37  C   UNL     1      -2.630  17.283  19.611  1.00  0.00     0.191 C 
BRANCH  37  38
ATOM     38  O   UNL     1      -3.643  17.162  20.569  1.00  0.00    -0.394 OA
ATOM     39  H   UNL     1      -4.395  17.715  20.245  1.00  0.00     0.210 HD
ENDBRANCH  37  38
ENDBRANCH  32  37
BRANCH  33  40
ATOM     40  O   UNL     1      -1.455  20.742  22.945  1.00  0.00    -0.387 OA
ATOM     41  H   UNL     1      -2.079  21.485  22.729  1.00  0.00     0.211 HD
ENDBRANCH  33  40
BRANCH  35  42
ATOM     42  O   UNL     1      -2.547  21.919  20.936  1.00  0.00    -0.385 OA
ATOM     43  H   UNL     1      -2.804  22.445  20.136  1.00  0.00     0.211 HD
ENDBRANCH  35  42
BRANCH  36  44
ATOM     44  O   UNL     1      -1.574  21.117  18.162  1.00  0.00    -0.366 OA
ATOM     45  H   UNL     1      -2.381  21.081  17.574  1.00  0.00     0.213 HD
ENDBRANCH  36  44
ENDBRANCH  30  31
ENDBRANCH   4  30
TORSDOF 18
ENDMDL
MODEL 5
REMARK VINA RESULT:    -6.812      3.921      6.969
REMARK INTER + INTRA:         -13.969
REMARK INTER:                 -11.588
REMARK INTRA:                  -2.381
REMARK UNBOUND:                -2.179
REMARK SMILES OC[C@@H]1O[C@H](O[C@H]2[C@H](O)[C@H](O)[C@@H](O)O[C@@H]2CO)[C@H](O)[C@@H](O)[C@H]1O[C@@H]1O[C@H](CO)[C@H](O)[C@@H](O)[C@H]1O
REMARK SMILES IDX 22 1 3 2 4 3 5 4 18 5 20 6 23 7 24 8 26 9 29 10 25 11 31 12
REMARK SMILES IDX 33 13 27 14 28 15 30 17 32 19 34 21 2 23 1 24 21 26 19 28
REMARK SMILES IDX 6 30 7 31 15 32 8 33 14 34 10 35 12 36 16 37 17 38 9 40
REMARK SMILES IDX 11 42 13 44
REMARK H PARENT 28 16 30 18 32 20 34 22 1 25 21 27 19 29 17 39 9 41 11 43
REMARK H PARENT 13 45
REMARK Flexibility Score: inf
ROOT
ATOM      1  C   UNL     1      -1.845   8.738  27.226  1.00  0.00     0.184 C 
ATOM      2  C   UNL     1      -2.642  10.056  27.480  1.00  0.00     0.178 C 
ATOM      3  O   UNL     1      -3.495  10.039  28.625  1.00  0.00    -0.341 OA
ATOM      4  C   UNL     1      -2.920   9.519  29.820  1.00  0.00     0.282 C 
ATOM      5  C   UNL     1      -2.363   8.096  29.645  1.00  0.00     0.202 C 
ATOM      6  C   UNL     1      -1.349   8.028  28.506  1.00  0.00     0.180 C 
ENDROOT
BRANCH   1   7
ATOM      7  O   UNL     1      -2.388   7.850  26.245  1.00  0.00    -0.341 OA
BRANCH   7   8
ATOM      8  C   UNL     1      -2.641   8.317  24.921  1.00  0.00     0.282 C 
ATOM      9  C   UNL     1      -4.182   9.052  23.339  1.00  0.00     0.178 C 
ATOM     10  C   UNL     1      -3.942   7.915  22.298  1.00  0.00     0.177 C 
ATOM     11  O   UNL     1      -4.013   8.555  24.652  1.00  0.00    -0.341 OA
ATOM     12  C   UNL     1      -3.064   6.778  22.893  1.00  0.00     0.179 C 
ATOM     13  C   UNL     1      -2.017   7.312  23.901  1.00  0.00     0.202 C 
BRANCH   9  14
ATOM     14  C   UNL     1      -5.580   9.695  23.247  1.00  0.00     0.191 C 
BRANCH  14  15
ATOM     15  O   UNL     1      -5.712  10.460  22.076  1.00  0.00    -0.394 OA
ATOM     16  H   UNL     1      -6.577  10.945  22.141  1.00  0.00     0.210 HD
ENDBRANCH  14  15
ENDBRANCH   9  14
BRANCH  10  17
ATOM     17  O   UNL     1      -5.165   7.374  21.868  1.00  0.00    -0.387 OA
ATOM     18  H   UNL     1      -5.376   6.622  22.479  1.00  0.00     0.211 HD
ENDBRANCH  10  17
BRANCH  12  19
ATOM     19  O   UNL     1      -2.414   6.060  21.874  1.00  0.00    -0.387 OA
ATOM     20  H   UNL     1      -2.790   5.140  21.887  1.00  0.00     0.211 HD
ENDBRANCH  12  19
BRANCH  13  21
ATOM     21  O   UNL     1      -0.915   7.889  23.237  1.00  0.00    -0.385 OA
ATOM     22  H   UNL     1      -0.144   7.879  23.867  1.00  0.00     0.211 HD
ENDBRANCH  13  21
ENDBRANCH   7   8
ENDBRANCH   1   7
BRANCH   2  23
ATOM     23  C   UNL     1      -1.779  11.337  27.434  1.00  0.00     0.191 C 
BRANCH  23  24
ATOM     24  O   UNL     1      -0.474  11.098  27.888  1.00  0.00    -0.394 OA
ATOM     25  H   UNL     1       0.137  11.337  27.139  1.00  0.00     0.210 HD
ENDBRANCH  23  24
ENDBRANCH   2  23
BRANCH   6  26
ATOM     26  O   UNL     1      -1.020   6.687  28.245  1.00  0.00    -0.387 OA
ATOM     27  H   UNL     1      -1.874   6.183  28.271  1.00  0.00     0.211 HD
ENDBRANCH   6  26
BRANCH   5  28
ATOM     28  O   UNL     1      -1.743   7.674  30.832  1.00  0.00    -0.385 OA
ATOM     29  H   UNL     1      -1.731   6.684  30.817  1.00  0.00     0.211 HD
ENDBRANCH   5  28
BRANCH   4  30
ATOM     30  O   UNL     1      -1.919  10.374  30.338  1.00  0.00    -0.341 OA
BRANCH  30  31
ATOM     31  C   UNL     1      -2.229  11.120  31.524  1.00  0.00     0.184 C 
ATOM     32  C   UNL     1      -1.654  12.554  31.294  1.00  0.00     0.178 C 
ATOM     33  C   UNL     1      -1.728  10.596  32.907  1.00  0.00     0.180 C 
ATOM     34  O   UNL     1      -1.301  13.262  32.478  1.00  0.00    -0.342 OA
ATOM     35  C   UNL     1      -2.106  11.590  34.039  1.00  0.00     0.201 C 
ATOM     36  C   UNL     1      -2.229  13.038  33.520  1.00  0.00     0.279 C 
BRANCH  32  37
ATOM     37  C   UNL     1      -2.565  13.408  30.407  1.00  0.00     0.191 C 
BRANCH  37  38
ATOM     38  O   UNL     1      -3.761  12.724  30.162  1.00  0.00    -0.394 OA
ATOM     39  H   UNL     1      -3.619  12.213  29.328  1.00  0.00     0.210 HD
ENDBRANCH  37  38
ENDBRANCH  32  37
BRANCH  33  40
ATOM     40  O   UNL     1      -2.286   9.341  33.206  1.00  0.00    -0.387 OA
ATOM     41  H   UNL     1      -3.258   9.399  33.002  1.00  0.00     0.211 HD
ENDBRANCH  33  40
BRANCH  35  42
ATOM     42  O   UNL     1      -3.321  11.213  34.633  1.00  0.00    -0.385 OA
ATOM     43  H   UNL     1      -4.022  11.275  33.936  1.00  0.00     0.211 HD
ENDBRANCH  35  42
BRANCH  36  44
ATOM     44  O   UNL     1      -1.947  13.933  34.560  1.00  0.00    -0.366 OA
ATOM     45  H   UNL     1      -2.818  14.346  34.822  1.00  0.00     0.213 HD
ENDBRANCH  36  44
ENDBRANCH  30  31
ENDBRANCH   4  30
TORSDOF 18
ENDMDL
MODEL 6
REMARK VINA RESULT:    -6.605      1.488      3.140
REMARK INTER + INTRA:         -13.610
REMARK INTER:                 -11.306
REMARK INTRA:                  -2.304
REMARK UNBOUND:                -2.179
REMARK SMILES OC[C@@H]1O[C@H](O[C@H]2[C@H](O)[C@H](O)[C@@H](O)O[C@@H]2CO)[C@H](O)[C@@H](O)[C@H]1O[C@@H]1O[C@H](CO)[C@H](O)[C@@H](O)[C@H]1O
REMARK SMILES IDX 22 1 3 2 4 3 5 4 18 5 20 6 23 7 24 8 26 9 29 10 25 11 31 12
REMARK SMILES IDX 33 13 27 14 28 15 30 17 32 19 34 21 2 23 1 24 21 26 19 28
REMARK SMILES IDX 6 30 7 31 15 32 8 33 14 34 10 35 12 36 16 37 17 38 9 40
REMARK SMILES IDX 11 42 13 44
REMARK H PARENT 28 16 30 18 32 20 34 22 1 25 21 27 19 29 17 39 9 41 11 43
REMARK H PARENT 13 45
REMARK Flexibility Score: inf
ROOT
ATOM      1  C   UNL     1      -1.319  13.532  28.142  1.00  0.00     0.184 C 
ATOM      2  C   UNL     1      -2.640  13.154  28.884  1.00  0.00     0.178 C 
ATOM      3  O   UNL     1      -2.961  11.763  28.884  1.00  0.00    -0.341 OA
ATOM      4  C   UNL     1      -1.891  10.879  29.206  1.00  0.00     0.282 C 
ATOM      5  C   UNL     1      -0.667  11.065  28.293  1.00  0.00     0.202 C 
ATOM      6  C   UNL     1      -0.173  12.509  28.307  1.00  0.00     0.180 C 
ENDROOT
BRANCH   1   7
ATOM      7  O   UNL     1      -1.464  14.029  26.809  1.00  0.00    -0.341 OA
BRANCH   7   8
ATOM      8  C   UNL     1      -1.556  15.433  26.576  1.00  0.00     0.282 C 
ATOM      9  C   UNL     1      -2.747  17.218  25.675  1.00  0.00     0.178 C 
ATOM     10  C   UNL     1      -1.654  17.683  24.663  1.00  0.00     0.177 C 
ATOM     11  O   UNL     1      -2.702  15.814  25.831  1.00  0.00    -0.341 OA
ATOM     12  C   UNL     1      -0.503  16.644  24.555  1.00  0.00     0.179 C 
ATOM     13  C   UNL     1      -0.237  15.923  25.899  1.00  0.00     0.202 C 
BRANCH   9  14
ATOM     14  C   UNL     1      -4.181  17.610  25.267  1.00  0.00     0.191 C 
BRANCH  14  15
ATOM     15  O   UNL     1      -4.599  16.896  24.132  1.00  0.00    -0.394 OA
ATOM     16  H   UNL     1      -5.170  16.149  24.452  1.00  0.00     0.210 HD
ENDBRANCH  14  15
ENDBRANCH   9  14
BRANCH  10  17
ATOM     17  O   UNL     1      -2.215  17.882  23.390  1.00  0.00    -0.387 OA
ATOM     18  H   UNL     1      -2.143  18.852  23.194  1.00  0.00     0.211 HD
ENDBRANCH  10  17
BRANCH  12  19
ATOM     19  O   UNL     1       0.681  17.252  24.103  1.00  0.00    -0.387 OA
ATOM     20  H   UNL     1       1.081  16.637  23.432  1.00  0.00     0.211 HD
ENDBRANCH  12  19
BRANCH  13  21
ATOM     21  O   UNL     1       0.507  16.737  26.777  1.00  0.00    -0.385 OA
ATOM     22  H   UNL     1       0.617  17.627  26.345  1.00  0.00     0.211 HD
ENDBRANCH  13  21
ENDBRANCH   7   8
ENDBRANCH   1   7
BRANCH   2  23
ATOM     23  C   UNL     1      -2.769  13.767  30.297  1.00  0.00     0.191 C 
BRANCH  23  24
ATOM     24  O   UNL     1      -1.542  13.765  30.976  1.00  0.00    -0.394 OA
ATOM     25  H   UNL     1      -0.895  13.285  30.391  1.00  0.00     0.210 HD
ENDBRANCH  23  24
ENDBRANCH   2  23
BRANCH   6  26
ATOM     26  O   UNL     1       0.808  12.683  27.315  1.00  0.00    -0.387 OA
ATOM     27  H   UNL     1       0.380  12.428  26.457  1.00  0.00     0.211 HD
ENDBRANCH   6  26
BRANCH   5  28
ATOM     28  O   UNL     1       0.376  10.222  28.711  1.00  0.00    -0.385 OA
ATOM     29  H   UNL     1       0.413   9.468  28.071  1.00  0.00     0.211 HD
ENDBRANCH   5  28
BRANCH   4  30
ATOM     30  O   UNL     1      -1.508  10.988  30.563  1.00  0.00    -0.341 OA
BRANCH  30  31
ATOM     31  C   UNL     1      -1.819   9.890  31.433  1.00  0.00     0.184 C 
ATOM     32  C   UNL     1      -2.186  10.523  32.813  1.00  0.00     0.178 C 
ATOM     33  C   UNL     1      -0.752   8.773  31.663  1.00  0.00     0.180 C 
ATOM     34  O   UNL     1      -1.947   9.691  33.944  1.00  0.00    -0.342 OA
ATOM     35  C   UNL     1      -1.264   7.730  32.692  1.00  0.00     0.201 C 
ATOM     36  C   UNL     1      -2.277   8.342  33.682  1.00  0.00     0.279 C 
BRANCH  32  37
ATOM     37  C   UNL     1      -3.617  11.069  32.838  1.00  0.00     0.191 C 
BRANCH  37  38
ATOM     38  O   UNL     1      -4.248  10.791  31.621  1.00  0.00    -0.394 OA
ATOM     39  H   UNL     1      -5.001  11.428  31.550  1.00  0.00     0.210 HD
ENDBRANCH  37  38
ENDBRANCH  32  37
BRANCH  33  40
ATOM     40  O   UNL     1      -0.447   8.109  30.462  1.00  0.00    -0.387 OA
ATOM     41  H   UNL     1      -0.971   8.553  29.742  1.00  0.00     0.211 HD
ENDBRANCH  33  40
BRANCH  35  42
ATOM     42  O   UNL     1      -1.868   6.648  32.031  1.00  0.00    -0.385 OA
ATOM     43  H   UNL     1      -1.143   6.048  31.723  1.00  0.00     0.211 HD
ENDBRANCH  35  42
BRANCH  36  44
ATOM     44  O   UNL     1      -2.235   7.636  34.891  1.00  0.00    -0.366 OA
ATOM     45  H   UNL     1      -2.732   6.784  34.739  1.00  0.00     0.213 HD
ENDBRANCH  36  44
ENDBRANCH  30  31
ENDBRANCH   4  30
TORSDOF 18
ENDMDL
MODEL 7
REMARK VINA RESULT:    -6.573      1.466      2.247
REMARK INTER + INTRA:         -13.556
REMARK INTER:                 -11.848
REMARK INTRA:                  -1.708
REMARK UNBOUND:                -2.179
REMARK SMILES OC[C@@H]1O[C@H](O[C@H]2[C@H](O)[C@H](O)[C@@H](O)O[C@@H]2CO)[C@H](O)[C@@H](O)[C@H]1O[C@@H]1O[C@H](CO)[C@H](O)[C@@H](O)[C@H]1O
REMARK SMILES IDX 22 1 3 2 4 3 5 4 18 5 20 6 23 7 24 8 26 9 29 10 25 11 31 12
REMARK SMILES IDX 33 13 27 14 28 15 30 17 32 19 34 21 2 23 1 24 21 26 19 28
REMARK SMILES IDX 6 30 7 31 15 32 8 33 14 34 10 35 12 36 16 37 17 38 9 40
REMARK SMILES IDX 11 42 13 44
REMARK H PARENT 28 16 30 18 32 20 34 22 1 25 21 27 19 29 17 39 9 41 11 43
REMARK H PARENT 13 45
REMARK Flexibility Score: inf
ROOT
ATOM      1  C   UNL     1      -1.523  13.284  28.221  1.00  0.00     0.184 C 
ATOM      2  C   UNL     1      -1.374  13.168  29.771  1.00  0.00     0.178 C 
ATOM      3  O   UNL     1      -2.493  12.599  30.449  1.00  0.00    -0.341 OA
ATOM      4  C   UNL     1      -3.033  11.415  29.871  1.00  0.00     0.282 C 
ATOM      5  C   UNL     1      -3.437  11.600  28.398  1.00  0.00     0.202 C 
ATOM      6  C   UNL     1      -2.268  12.105  27.556  1.00  0.00     0.180 C 
ENDROOT
BRANCH   1   7
ATOM      7  O   UNL     1      -1.905  14.568  27.718  1.00  0.00    -0.341 OA
BRANCH   7   8
ATOM      8  C   UNL     1      -1.377  15.034  26.478  1.00  0.00     0.282 C 
ATOM      9  C   UNL     1       0.474  15.720  25.244  1.00  0.00     0.178 C 
ATOM     10  C   UNL     1      -0.026  17.166  24.941  1.00  0.00     0.177 C 
ATOM     11  O   UNL     1       0.016  15.302  26.514  1.00  0.00    -0.341 OA
ATOM     12  C   UNL     1      -1.290  17.516  25.776  1.00  0.00     0.179 C 
ATOM     13  C   UNL     1      -2.194  16.282  26.015  1.00  0.00     0.202 C 
BRANCH   9  14
ATOM     14  C   UNL     1       2.008  15.573  25.216  1.00  0.00     0.191 C 
BRANCH  14  15
ATOM     15  O   UNL     1       2.494  15.559  23.898  1.00  0.00    -0.394 OA
ATOM     16  H   UNL     1       1.834  16.048  23.339  1.00  0.00     0.210 HD
ENDBRANCH  14  15
ENDBRANCH   9  14
BRANCH  10  17
ATOM     17  O   UNL     1       0.983  18.104  25.217  1.00  0.00    -0.387 OA
ATOM     18  H   UNL     1       1.832  17.596  25.294  1.00  0.00     0.211 HD
ENDBRANCH  10  17
BRANCH  12  19
ATOM     19  O   UNL     1      -2.035  18.534  25.157  1.00  0.00    -0.387 OA
ATOM     20  H   UNL     1      -1.892  19.360  25.691  1.00  0.00     0.211 HD
ENDBRANCH  12  19
BRANCH  13  21
ATOM     21  O   UNL     1      -2.966  15.984  24.874  1.00  0.00    -0.385 OA
ATOM     22  H   UNL     1      -2.563  16.468  24.102  1.00  0.00     0.211 HD
ENDBRANCH  13  21
ENDBRANCH   7   8
ENDBRANCH   1   7
BRANCH   2  23
ATOM     23  C   UNL     1      -0.044  12.527  30.232  1.00  0.00     0.191 C 
BRANCH  23  24
ATOM     24  O   UNL     1       0.424  11.585  29.305  1.00  0.00    -0.394 OA
ATOM     25  H   UNL     1       0.295  10.689  29.719  1.00  0.00     0.210 HD
ENDBRANCH  23  24
ENDBRANCH   2  23
BRANCH   6  26
ATOM     26  O   UNL     1      -2.725  12.454  26.273  1.00  0.00    -0.387 OA
ATOM     27  H   UNL     1      -2.168  13.222  25.982  1.00  0.00     0.211 HD
ENDBRANCH   6  26
BRANCH   5  28
ATOM     28  O   UNL     1      -3.887  10.380  27.867  1.00  0.00    -0.385 OA
ATOM     29  H   UNL     1      -3.481   9.659  28.409  1.00  0.00     0.211 HD
ENDBRANCH   5  28
BRANCH   4  30
ATOM     30  O   UNL     1      -2.152  10.316  29.999  1.00  0.00    -0.341 OA
BRANCH  30  31
ATOM     31  C   UNL     1      -2.537   9.253  30.883  1.00  0.00     0.184 C 
ATOM     32  C   UNL     1      -1.455   9.215  32.009  1.00  0.00     0.178 C 
ATOM     33  C   UNL     1      -2.714   7.811  30.310  1.00  0.00     0.180 C 
ATOM     34  O   UNL     1      -1.268   7.945  32.626  1.00  0.00    -0.342 OA
ATOM     35  C   UNL     1      -3.055   6.809  31.445  1.00  0.00     0.201 C 
ATOM     36  C   UNL     1      -2.494   7.265  32.808  1.00  0.00     0.279 C 
BRANCH  32  37
ATOM     37  C   UNL     1      -1.681  10.300  33.067  1.00  0.00     0.191 C 
BRANCH  37  38
ATOM     38  O   UNL     1      -2.987  10.791  32.966  1.00  0.00    -0.394 OA
ATOM     39  H   UNL     1      -3.531  10.255  33.594  1.00  0.00     0.210 HD
ENDBRANCH  37  38
ENDBRANCH  32  37
BRANCH  33  40
ATOM     40  O   UNL     1      -3.740   7.770  29.350  1.00  0.00    -0.387 OA
ATOM     41  H   UNL     1      -4.075   8.700  29.243  1.00  0.00     0.211 HD
ENDBRANCH  33  40
BRANCH  35  42
ATOM     42  O   UNL     1      -4.446   6.651  31.555  1.00  0.00    -0.385 OA
ATOM     43  H   UNL     1      -4.689   6.822  32.500  1.00  0.00     0.211 HD
ENDBRANCH  35  42
BRANCH  36  44
ATOM     44  O   UNL     1      -2.259   6.144  33.616  1.00  0.00    -0.366 OA
ATOM     45  H   UNL     1      -1.845   6.483  34.458  1.00  0.00     0.213 HD
ENDBRANCH  36  44
ENDBRANCH  30  31
ENDBRANCH   4  30
TORSDOF 18
ENDMDL
MODEL 8
REMARK VINA RESULT:    -6.560      1.672      3.901
REMARK INTER + INTRA:         -13.532
REMARK INTER:                 -11.465
REMARK INTRA:                  -2.068
REMARK UNBOUND:                -2.179
REMARK SMILES OC[C@@H]1O[C@H](O[C@H]2[C@H](O)[C@H](O)[C@@H](O)O[C@@H]2CO)[C@H](O)[C@@H](O)[C@H]1O[C@@H]1O[C@H](CO)[C@H](O)[C@@H](O)[C@H]1O
REMARK SMILES IDX 22 1 3 2 4 3 5 4 18 5 20 6 23 7 24 8 26 9 29 10 25 11 31 12
REMARK SMILES IDX 33 13 27 14 28 15 30 17 32 19 34 21 2 23 1 24 21 26 19 28
REMARK SMILES IDX 6 30 7 31 15 32 8 33 14 34 10 35 12 36 16 37 17 38 9 40
REMARK SMILES IDX 11 42 13 44
REMARK H PARENT 28 16 30 18 32 20 34 22 1 25 21 27 19 29 17 39 9 41 11 43
REMARK H PARENT 13 45
REMARK Flexibility Score: inf
ROOT
ATOM      1  C   UNL     1      -1.051  13.697  27.989  1.00  0.00     0.184 C 
ATOM      2  C   UNL     1      -2.527  13.516  28.466  1.00  0.00     0.178 C 
ATOM      3  O   UNL     1      -3.058  12.200  28.316  1.00  0.00    -0.341 OA
ATOM      4  C   UNL     1      -2.217  11.137  28.754  1.00  0.00     0.282 C 
ATOM      5  C   UNL     1      -0.835  11.152  28.079  1.00  0.00     0.202 C 
ATOM      6  C   UNL     1      -0.129  12.491  28.277  1.00  0.00     0.180 C 
ENDROOT
BRANCH   1   7
ATOM      7  O   UNL     1      -0.874  14.263  26.687  1.00  0.00    -0.341 OA
BRANCH   7   8
ATOM      8  C   UNL     1      -1.116  15.652  26.473  1.00  0.00     0.282 C 
ATOM      9  C   UNL     1      -2.519  17.315  25.646  1.00  0.00     0.178 C 
ATOM     10  C   UNL     1      -1.525  17.893  24.591  1.00  0.00     0.177 C 
ATOM     11  O   UNL     1      -2.327  15.921  25.784  1.00  0.00    -0.341 OA
ATOM     12  C   UNL     1      -0.281  16.975  24.421  1.00  0.00     0.179 C 
ATOM     13  C   UNL     1       0.116  16.277  25.744  1.00  0.00     0.202 C 
BRANCH   9  14
ATOM     14  C   UNL     1      -4.002  17.562  25.305  1.00  0.00     0.191 C 
BRANCH  14  15
ATOM     15  O   UNL     1      -4.378  16.874  24.140  1.00  0.00    -0.394 OA
ATOM     16  H   UNL     1      -3.603  16.906  23.520  1.00  0.00     0.210 HD
ENDBRANCH  14  15
ENDBRANCH   9  14
BRANCH  10  17
ATOM     17  O   UNL     1      -2.160  18.042  23.346  1.00  0.00    -0.387 OA
ATOM     18  H   UNL     1      -3.042  17.592  23.419  1.00  0.00     0.211 HD
ENDBRANCH  10  17
BRANCH  12  19
ATOM     19  O   UNL     1       0.814  17.702  23.924  1.00  0.00    -0.387 OA
ATOM     20  H   UNL     1       1.621  17.362  24.394  1.00  0.00     0.211 HD
ENDBRANCH  12  19
BRANCH  13  21
ATOM     21  O   UNL     1       0.813  17.156  26.598  1.00  0.00    -0.385 OA
ATOM     22  H   UNL     1       1.442  17.686  26.037  1.00  0.00     0.211 HD
ENDBRANCH  13  21
ENDBRANCH   7   8
ENDBRANCH   1   7
BRANCH   2  23
ATOM     23  C   UNL     1      -2.809  14.086  29.875  1.00  0.00     0.191 C 
BRANCH  23  24
ATOM     24  O   UNL     1      -1.725  13.886  30.741  1.00  0.00    -0.394 OA
ATOM     25  H   UNL     1      -1.518  14.771  31.147  1.00  0.00     0.210 HD
ENDBRANCH  23  24
ENDBRANCH   2  23
BRANCH   6  26
ATOM     26  O   UNL     1       1.029  12.537  27.481  1.00  0.00    -0.387 OA
ATOM     27  H   UNL     1       1.282  11.594  27.308  1.00  0.00     0.211 HD
ENDBRANCH   6  26
BRANCH   5  28
ATOM     28  O   UNL     1      -0.030  10.130  28.610  1.00  0.00    -0.385 OA
ATOM     29  H   UNL     1      -0.570   9.301  28.599  1.00  0.00     0.211 HD
ENDBRANCH   5  28
BRANCH   4  30
ATOM     30  O   UNL     1      -2.071  11.127  30.162  1.00  0.00    -0.341 OA
BRANCH  30  31
ATOM     31  C   UNL     1      -2.982  10.317  30.919  1.00  0.00     0.184 C 
ATOM     32  C   UNL     1      -2.800   8.857  30.395  1.00  0.00     0.178 C 
ATOM     33  C   UNL     1      -4.504  10.667  30.906  1.00  0.00     0.180 C 
ATOM     34  O   UNL     1      -3.943   8.018  30.529  1.00  0.00    -0.342 OA
ATOM     35  C   UNL     1      -5.313   9.624  31.724  1.00  0.00     0.201 C 
ATOM     36  C   UNL     1      -4.619   8.245  31.750  1.00  0.00     0.279 C 
BRANCH  32  37
ATOM     37  C   UNL     1      -1.561   8.179  30.986  1.00  0.00     0.191 C 
BRANCH  37  38
ATOM     38  O   UNL     1      -0.616   9.149  31.339  1.00  0.00    -0.394 OA
ATOM     39  H   UNL     1      -1.118   9.995  31.441  1.00  0.00     0.210 HD
ENDBRANCH  37  38
ENDBRANCH  32  37
BRANCH  33  40
ATOM     40  O   UNL     1      -4.735  11.942  31.451  1.00  0.00    -0.387 OA
ATOM     41  H   UNL     1      -3.856  12.408  31.485  1.00  0.00     0.211 HD
ENDBRANCH  33  40
BRANCH  35  42
ATOM     42  O   UNL     1      -5.491  10.070  33.044  1.00  0.00    -0.385 OA
ATOM     43  H   UNL     1      -6.437  10.346  33.137  1.00  0.00     0.211 HD
ENDBRANCH  35  42
BRANCH  36  44
ATOM     44  O   UNL     1      -5.582   7.241  31.913  1.00  0.00    -0.366 OA
ATOM     45  H   UNL     1      -6.230   7.344  31.161  1.00  0.00     0.213 HD
ENDBRANCH  36  44
ENDBRANCH  30  31
ENDBRANCH   4  30
TORSDOF 18
ENDMDL
MODEL 9
REMARK VINA RESULT:    -6.436      3.961      6.892
REMARK INTER + INTRA:         -13.318
REMARK INTER:                 -11.349
REMARK INTRA:                  -1.969
REMARK UNBOUND:                -2.179
REMARK SMILES OC[C@@H]1O[C@H](O[C@H]2[C@H](O)[C@H](O)[C@@H](O)O[C@@H]2CO)[C@H](O)[C@@H](O)[C@H]1O[C@@H]1O[C@H](CO)[C@H](O)[C@@H](O)[C@H]1O
REMARK SMILES IDX 22 1 3 2 4 3 5 4 18 5 20 6 23 7 24 8 26 9 29 10 25 11 31 12
REMARK SMILES IDX 33 13 27 14 28 15 30 17 32 19 34 21 2 23 1 24 21 26 19 28
REMARK SMILES IDX 6 30 7 31 15 32 8 33 14 34 10 35 12 36 16 37 17 38 9 40
REMARK SMILES IDX 11 42 13 44
REMARK H PARENT 28 16 30 18 32 20 34 22 1 25 21 27 19 29 17 39 9 41 11 43
REMARK H PARENT 13 45
REMARK Flexibility Score: inf
ROOT
ATOM      1  C   UNL     1      -2.046   8.748  27.280  1.00  0.00     0.184 C 
ATOM      2  C   UNL     1      -2.714  10.045  27.837  1.00  0.00     0.178 C 
ATOM      3  O   UNL     1      -3.331   9.911  29.116  1.00  0.00    -0.341 OA
ATOM      4  C   UNL     1      -2.563   9.232  30.107  1.00  0.00     0.282 C 
ATOM      5  C   UNL     1      -2.122   7.828  29.662  1.00  0.00     0.202 C 
ATOM      6  C   UNL     1      -1.350   7.873  28.346  1.00  0.00     0.180 C 
ENDROOT
BRANCH   1   7
ATOM      7  O   UNL     1      -2.812   8.002  26.329  1.00  0.00    -0.341 OA
BRANCH   7   8
ATOM      8  C   UNL     1      -2.927   8.465  24.984  1.00  0.00     0.282 C 
ATOM      9  C   UNL     1      -4.293   9.223  23.260  1.00  0.00     0.178 C 
ATOM     10  C   UNL     1      -3.982   8.073  22.252  1.00  0.00     0.177 C 
ATOM     11  O   UNL     1      -4.262   8.732  24.585  1.00  0.00    -0.341 OA
ATOM     12  C   UNL     1      -3.191   6.921  22.934  1.00  0.00     0.179 C 
ATOM     13  C   UNL     1      -2.233   7.439  24.033  1.00  0.00     0.202 C 
BRANCH   9  14
ATOM     14  C   UNL     1      -5.661   9.898  23.031  1.00  0.00     0.191 C 
BRANCH  14  15
ATOM     15  O   UNL     1      -5.647  10.698  21.877  1.00  0.00    -0.394 OA
ATOM     16  H   UNL     1      -5.296  10.136  21.137  1.00  0.00     0.210 HD
ENDBRANCH  14  15
ENDBRANCH   9  14
BRANCH  10  17
ATOM     17  O   UNL     1      -5.171   7.558  21.710  1.00  0.00    -0.387 OA
ATOM     18  H   UNL     1      -5.743   7.293  22.477  1.00  0.00     0.211 HD
ENDBRANCH  10  17
BRANCH  12  19
ATOM     19  O   UNL     1      -2.465   6.181  21.984  1.00  0.00    -0.387 OA
ATOM     20  H   UNL     1      -3.115   5.580  21.532  1.00  0.00     0.211 HD
ENDBRANCH  12  19
BRANCH  13  21
ATOM     21  O   UNL     1      -1.060   7.985  23.474  1.00  0.00    -0.385 OA
ATOM     22  H   UNL     1      -0.641   8.570  24.163  1.00  0.00     0.211 HD
ENDBRANCH  13  21
ENDBRANCH   7   8
ENDBRANCH   1   7
BRANCH   2  23
ATOM     23  C   UNL     1      -1.812  11.299  27.769  1.00  0.00     0.191 C 
BRANCH  23  24
ATOM     24  O   UNL     1      -0.482  10.998  28.095  1.00  0.00    -0.394 OA
ATOM     25  H   UNL     1      -0.510  10.449  28.925  1.00  0.00     0.210 HD
ENDBRANCH  23  24
ENDBRANCH   2  23
BRANCH   6  26
ATOM     26  O   UNL     1      -1.144   6.566  27.873  1.00  0.00    -0.387 OA
ATOM     27  H   UNL     1      -1.347   5.962  28.634  1.00  0.00     0.211 HD
ENDBRANCH   6  26
BRANCH   5  28
ATOM     28  O   UNL     1      -1.308   7.246  30.648  1.00  0.00    -0.385 OA
ATOM     29  H   UNL     1      -1.255   7.889  31.398  1.00  0.00     0.211 HD
ENDBRANCH   5  28
BRANCH   4  30
ATOM     30  O   UNL     1      -1.440   9.990  30.513  1.00  0.00    -0.341 OA
BRANCH  30  31
ATOM     31  C   UNL     1      -1.608  10.889  31.619  1.00  0.00     0.184 C 
ATOM     32  C   UNL     1      -2.503  10.137  32.655  1.00  0.00     0.178 C 
ATOM     33  C   UNL     1      -2.220  12.304  31.364  1.00  0.00     0.180 C 
ATOM     34  O   UNL     1      -3.281  10.975  33.504  1.00  0.00    -0.342 OA
ATOM     35  C   UNL     1      -2.383  13.079  32.699  1.00  0.00     0.201 C 
ATOM     36  C   UNL     1      -2.567  12.128  33.901  1.00  0.00     0.279 C 
BRANCH  32  37
ATOM     37  C   UNL     1      -1.705   9.125  33.482  1.00  0.00     0.191 C 
BRANCH  37  38
ATOM     38  O   UNL     1      -2.261   7.849  33.329  1.00  0.00    -0.394 OA
ATOM     39  H   UNL     1      -1.664   7.230  33.816  1.00  0.00     0.210 HD
ENDBRANCH  37  38
ENDBRANCH  32  37
BRANCH  33  40
ATOM     40  O   UNL     1      -1.406  13.060  30.502  1.00  0.00    -0.387 OA
ATOM     41  H   UNL     1      -0.537  12.582  30.429  1.00  0.00     0.211 HD
ENDBRANCH  33  40
BRANCH  35  42
ATOM     42  O   UNL     1      -1.264  13.895  32.930  1.00  0.00    -0.385 OA
ATOM     43  H   UNL     1      -0.491  13.469  32.481  1.00  0.00     0.211 HD
ENDBRANCH  35  42
BRANCH  36  44
ATOM     44  O   UNL     1      -3.301  12.778  34.902  1.00  0.00    -0.366 OA
ATOM     45  H   UNL     1      -3.707  13.585  34.478  1.00  0.00     0.213 HD
ENDBRANCH  36  44
ENDBRANCH  30  31
ENDBRANCH   4  30
TORSDOF 18
ENDMDL
