MODEL 1
REMARK VINA RESULT:    -4.361      0.000      0.000
REMARK INTER + INTRA:          -4.361
REMARK INTER:                  -4.361
REMARK INTRA:                   0.000
REMARK UNBOUND:                 0.000
REMARK SMILES CC(C)=C1CC[C@H](C)CC1=O
REMARK SMILES IDX 8 1 7 2 6 3 5 4 4 5 2 6 1 7 3 8 10 9 11 10 9 11
REMARK H PARENT
REMARK Flexibility Score: inf
ROOT
ATOM      1  C   UNL     1       3.539  11.740  16.502  1.00  0.00     0.008 C 
ATOM      2  C   UNL     1       2.122  11.535  15.942  1.00  0.00    -0.006 C 
ATOM      3  C   UNL     1       1.761  10.046  15.800  1.00  0.00     0.008 C 
ATOM      4  C   UNL     1       1.639   9.325  17.152  1.00  0.00     0.039 C 
ATOM      5  C   UNL     1       0.763  10.074  18.148  1.00  0.00    -0.006 C 
ATOM      6  C   UNL     1       0.049   9.406  19.102  1.00  0.00    -0.070 C 
ATOM      7  C   UNL     1      -0.868  10.129  20.061  1.00  0.00     0.039 C 
ATOM      8  C   UNL     1       0.115   7.901  19.218  1.00  0.00     0.039 C 
ATOM      9  C   UNL     1       0.826  11.564  18.094  1.00  0.00     0.159 C 
ATOM     10  O   UNL     1       0.694  12.262  19.136  1.00  0.00    -0.295 OA
ATOM     11  C   UNL     1       1.065  12.261  16.787  1.00  0.00     0.084 C 
ENDROOT
TORSDOF 0
ENDMDL
MODEL 2
REMARK VINA RESULT:    -4.261      1.141      3.784
REMARK INTER + INTRA:          -4.261
REMARK INTER:                  -4.261
REMARK INTRA:                   0.000
REMARK UNBOUND:                 0.000
REMARK SMILES CC(C)=C1CC[C@H](C)CC1=O
REMARK SMILES IDX 8 1 7 2 6 3 5 4 4 5 2 6 1 7 3 8 10 9 11 10 9 11
REMARK H PARENT
REMARK Flexibility Score: inf
ROOT
ATOM      1  C   UNL     1      -0.294   8.158  18.897  1.00  0.00     0.008 C 
ATOM      2  C   UNL     1       1.032   8.820  19.307  1.00  0.00    -0.006 C 
ATOM      3  C   UNL     1       2.124   8.649  18.236  1.00  0.00     0.008 C 
ATOM      4  C   UNL     1       1.816   9.409  16.936  1.00  0.00     0.039 C 
ATOM      5  C   UNL     1       1.418  10.859  17.175  1.00  0.00    -0.006 C 
ATOM      6  C   UNL     1       1.684  11.826  16.247  1.00  0.00    -0.070 C 
ATOM      7  C   UNL     1       1.345  13.279  16.494  1.00  0.00     0.039 C 
ATOM      8  C   UNL     1       2.367  11.493  14.942  1.00  0.00     0.039 C 
ATOM      9  C   UNL     1       0.625  11.131  18.410  1.00  0.00     0.159 C 
ATOM     10  O   UNL     1      -0.246  12.043  18.439  1.00  0.00    -0.295 OA
ATOM     11  C   UNL     1       0.846  10.307  19.644  1.00  0.00     0.084 C 
ENDROOT
TORSDOF 0
ENDMDL
MODEL 3
REMARK VINA RESULT:    -4.196      5.469      6.567
REMARK INTER + INTRA:          -4.196
REMARK INTER:                  -4.196
REMARK INTRA:                   0.000
REMARK UNBOUND:                 0.000
REMARK SMILES CC(C)=C1CC[C@H](C)CC1=O
REMARK SMILES IDX 8 1 7 2 6 3 5 4 4 5 2 6 1 7 3 8 10 9 11 10 9 11
REMARK H PARENT
REMARK Flexibility Score: inf
ROOT
ATOM      1  C   UNL     1       0.182  17.081  22.044  1.00  0.00     0.008 C 
ATOM      2  C   UNL     1       1.149  16.391  21.069  1.00  0.00    -0.006 C 
ATOM      3  C   UNL     1       2.583  16.319  21.624  1.00  0.00     0.008 C 
ATOM      4  C   UNL     1       2.709  15.399  22.849  1.00  0.00     0.039 C 
ATOM      5  C   UNL     1       2.068  14.034  22.635  1.00  0.00    -0.006 C 
ATOM      6  C   UNL     1       2.546  12.923  23.269  1.00  0.00    -0.070 C 
ATOM      7  C   UNL     1       1.957  11.552  23.024  1.00  0.00     0.039 C 
ATOM      8  C   UNL     1       3.718  13.006  24.219  1.00  0.00     0.039 C 
ATOM      9  C   UNL     1       0.831  14.008  21.800  1.00  0.00     0.159 C 
ATOM     10  O   UNL     1      -0.092  13.179  22.025  1.00  0.00    -0.295 OA
ATOM     11  C   UNL     1       0.660  14.989  20.677  1.00  0.00     0.084 C 
ENDROOT
TORSDOF 0
ENDMDL
MODEL 4
REMARK VINA RESULT:    -4.137      5.571      6.475
REMARK INTER + INTRA:          -4.137
REMARK INTER:                  -4.137
REMARK INTRA:                   0.000
REMARK UNBOUND:                 0.000
REMARK SMILES CC(C)=C1CC[C@H](C)CC1=O
REMARK SMILES IDX 8 1 7 2 6 3 5 4 4 5 2 6 1 7 3 8 10 9 11 10 9 11
REMARK H PARENT
REMARK Flexibility Score: inf
ROOT
ATOM      1  C   UNL     1       2.848  16.019  20.314  1.00  0.00     0.008 C 
ATOM      2  C   UNL     1       1.935  16.279  21.523  1.00  0.00    -0.006 C 
ATOM      3  C   UNL     1       0.686  15.379  21.513  1.00  0.00     0.008 C 
ATOM      4  C   UNL     1       1.014  13.891  21.718  1.00  0.00     0.039 C 
ATOM      5  C   UNL     1       1.935  13.645  22.906  1.00  0.00    -0.006 C 
ATOM      6  C   UNL     1       1.874  12.479  23.617  1.00  0.00    -0.070 C 
ATOM      7  C   UNL     1       2.741  12.243  24.832  1.00  0.00     0.039 C 
ATOM      8  C   UNL     1       0.903  11.384  23.242  1.00  0.00     0.039 C 
ATOM      9  C   UNL     1       2.973  14.686  23.166  1.00  0.00     0.159 C 
ATOM     10  O   UNL     1       4.101  14.380  23.638  1.00  0.00    -0.295 OA
ATOM     11  C   UNL     1       2.690  16.126  22.852  1.00  0.00     0.084 C 
ENDROOT
TORSDOF 0
ENDMDL
MODEL 5
REMARK VINA RESULT:    -4.116      5.779      6.915
REMARK INTER + INTRA:          -4.116
REMARK INTER:                  -4.116
REMARK INTRA:                   0.000
REMARK UNBOUND:                 0.000
REMARK SMILES CC(C)=C1CC[C@H](C)CC1=O
REMARK SMILES IDX 8 1 7 2 6 3 5 4 4 5 2 6 1 7 3 8 10 9 11 10 9 11
REMARK H PARENT
REMARK Flexibility Score: inf
ROOT
ATOM      1  C   UNL     1       0.590  15.688  21.623  1.00  0.00     0.008 C 
ATOM      2  C   UNL     1       1.964  16.375  21.699  1.00  0.00    -0.006 C 
ATOM      3  C   UNL     1       2.670  16.119  23.043  1.00  0.00     0.008 C 
ATOM      4  C   UNL     1       3.074  14.649  23.240  1.00  0.00     0.039 C 
ATOM      5  C   UNL     1       3.815  14.071  22.041  1.00  0.00    -0.006 C 
ATOM      6  C   UNL     1       4.746  13.083  22.196  1.00  0.00    -0.070 C 
ATOM      7  C   UNL     1       5.530  12.538  21.024  1.00  0.00     0.039 C 
ATOM      8  C   UNL     1       5.065  12.514  23.559  1.00  0.00     0.039 C 
ATOM      9  C   UNL     1       3.381  14.557  20.698  1.00  0.00     0.159 C 
ATOM     10  O   UNL     1       3.420  13.805  19.687  1.00  0.00    -0.295 OA
ATOM     11  C   UNL     1       2.873  15.960  20.533  1.00  0.00     0.084 C 
ENDROOT
TORSDOF 0
ENDMDL
MODEL 6
REMARK VINA RESULT:    -4.098      1.695      4.431
REMARK INTER + INTRA:          -4.098
REMARK INTER:                  -4.098
REMARK INTRA:                   0.000
REMARK UNBOUND:                 0.000
REMARK SMILES CC(C)=C1CC[C@H](C)CC1=O
REMARK SMILES IDX 8 1 7 2 6 3 5 4 4 5 2 6 1 7 3 8 10 9 11 10 9 11
REMARK H PARENT
REMARK Flexibility Score: inf
ROOT
ATOM      1  C   UNL     1       0.876   8.972  21.341  1.00  0.00     0.008 C 
ATOM      2  C   UNL     1      -0.188   8.833  20.240  1.00  0.00    -0.006 C 
ATOM      3  C   UNL     1      -0.803  10.190  19.850  1.00  0.00     0.008 C 
ATOM      4  C   UNL     1       0.200  11.128  19.161  1.00  0.00     0.039 C 
ATOM      5  C   UNL     1       0.962  10.455  18.027  1.00  0.00    -0.006 C 
ATOM      6  C   UNL     1       1.405  11.171  16.951  1.00  0.00    -0.070 C 
ATOM      7  C   UNL     1       2.114  10.508  15.792  1.00  0.00     0.039 C 
ATOM      8  C   UNL     1       1.173  12.661  16.853  1.00  0.00     0.039 C 
ATOM      9  C   UNL     1       1.293   9.013  18.219  1.00  0.00     0.159 C 
ATOM     10  O   UNL     1       2.353   8.517  17.747  1.00  0.00    -0.295 OA
ATOM     11  C   UNL     1       0.367   8.124  18.996  1.00  0.00     0.084 C 
ENDROOT
TORSDOF 0
ENDMDL
MODEL 7
REMARK VINA RESULT:    -3.988      1.546      4.249
REMARK INTER + INTRA:          -3.988
REMARK INTER:                  -3.988
REMARK INTRA:                   0.000
REMARK UNBOUND:                 0.000
REMARK SMILES CC(C)=C1CC[C@H](C)CC1=O
REMARK SMILES IDX 8 1 7 2 6 3 5 4 4 5 2 6 1 7 3 8 10 9 11 10 9 11
REMARK H PARENT
REMARK Flexibility Score: inf
ROOT
ATOM      1  C   UNL     1      -1.028   9.596  20.923  1.00  0.00     0.008 C 
ATOM      2  C   UNL     1       0.134   8.602  20.767  1.00  0.00    -0.006 C 
ATOM      3  C   UNL     1       0.157   7.944  19.376  1.00  0.00     0.008 C 
ATOM      4  C   UNL     1       0.478   8.937  18.247  1.00  0.00     0.039 C 
ATOM      5  C   UNL     1       1.704   9.792  18.538  1.00  0.00    -0.006 C 
ATOM      6  C   UNL     1       2.495  10.259  17.527  1.00  0.00    -0.070 C 
ATOM      7  C   UNL     1       3.746  11.062  17.802  1.00  0.00     0.039 C 
ATOM      8  C   UNL     1       2.175   9.961  16.081  1.00  0.00     0.039 C 
ATOM      9  C   UNL     1       1.914  10.182  19.963  1.00  0.00     0.159 C 
ATOM     10  O   UNL     1       2.437  11.289  20.268  1.00  0.00    -0.295 OA
ATOM     11  C   UNL     1       1.490   9.259  21.068  1.00  0.00     0.084 C 
ENDROOT
TORSDOF 0
ENDMDL
MODEL 8
REMARK VINA RESULT:    -3.963      5.416      6.797
REMARK INTER + INTRA:          -3.963
REMARK INTER:                  -3.963
REMARK INTRA:                   0.000
REMARK UNBOUND:                 0.000
REMARK SMILES CC(C)=C1CC[C@H](C)CC1=O
REMARK SMILES IDX 8 1 7 2 6 3 5 4 4 5 2 6 1 7 3 8 10 9 11 10 9 11
REMARK H PARENT
REMARK Flexibility Score: inf
ROOT
ATOM      1  C   UNL     1       2.841  13.859  23.617  1.00  0.00     0.008 C 
ATOM      2  C   UNL     1       3.577  14.963  22.840  1.00  0.00    -0.006 C 
ATOM      3  C   UNL     1       3.948  14.522  21.413  1.00  0.00     0.008 C 
ATOM      4  C   UNL     1       2.721  14.308  20.512  1.00  0.00     0.039 C 
ATOM      5  C   UNL     1       1.741  15.473  20.556  1.00  0.00    -0.006 C 
ATOM      6  C   UNL     1       0.965  15.784  19.475  1.00  0.00    -0.070 C 
ATOM      7  C   UNL     1       0.029  16.971  19.483  1.00  0.00     0.039 C 
ATOM      8  C   UNL     1       1.036  14.975  18.201  1.00  0.00     0.039 C 
ATOM      9  C   UNL     1       1.596  16.165  21.870  1.00  0.00     0.159 C 
ATOM     10  O   UNL     1       0.494  16.664  22.228  1.00  0.00    -0.295 OA
ATOM     11  C   UNL     1       2.769  16.268  22.800  1.00  0.00     0.084 C 
ENDROOT
TORSDOF 0
ENDMDL
MODEL 9
REMARK VINA RESULT:    -3.941      1.799      3.001
REMARK INTER + INTRA:          -3.941
REMARK INTER:                  -3.941
REMARK INTRA:                   0.000
REMARK UNBOUND:                 0.000
REMARK SMILES CC(C)=C1CC[C@H](C)CC1=O
REMARK SMILES IDX 8 1 7 2 6 3 5 4 4 5 2 6 1 7 3 8 10 9 11 10 9 11
REMARK H PARENT
REMARK Flexibility Score: inf
ROOT
ATOM      1  C   UNL     1       1.783   9.533  16.117  1.00  0.00     0.008 C 
ATOM      2  C   UNL     1       2.397   9.658  17.520  1.00  0.00    -0.006 C 
ATOM      3  C   UNL     1       2.273  11.085  18.085  1.00  0.00     0.008 C 
ATOM      4  C   UNL     1       0.820  11.495  18.372  1.00  0.00     0.039 C 
ATOM      5  C   UNL     1       0.055  10.452  19.176  1.00  0.00    -0.006 C 
ATOM      6  C   UNL     1      -0.955  10.814  20.022  1.00  0.00    -0.070 C 
ATOM      7  C   UNL     1      -1.685   9.796  20.869  1.00  0.00     0.039 C 
ATOM      8  C   UNL     1      -1.365  12.259  20.179  1.00  0.00     0.039 C 
ATOM      9  C   UNL     1       0.392   9.025  18.897  1.00  0.00     0.159 C 
ATOM     10  O   UNL     1      -0.482   8.120  18.975  1.00  0.00    -0.295 OA
ATOM     11  C   UNL     1       1.789   8.644  18.501  1.00  0.00     0.084 C 
ENDROOT
TORSDOF 0
ENDMDL
