MODEL 1
REMARK VINA RESULT:    -5.410      0.000      0.000
REMARK INTER + INTRA:          -6.343
REMARK INTER:                  -6.517
REMARK INTRA:                   0.175
REMARK UNBOUND:                 0.175
REMARK SMILES Oc1cc(O)c2c(c1)O[C@H](c1ccc(O)c(O)c1)[C@@H](O)C2
REMARK SMILES IDX 21 1 19 2 10 3 9 4 7 5 8 6 2 7 3 8 4 9 6 10 20 11 11 13
REMARK SMILES IDX 18 14 12 15 16 16 13 17 14 18 17 19 15 21 5 23 1 25
REMARK H PARENT 20 12 17 20 15 22 5 24 1 26
REMARK Flexibility Score: inf
ROOT
ATOM      1  C   UNL     1      23.139  -5.907 -18.727  1.00  0.00     0.079 C 
ATOM      2  C   UNL     1      23.518  -4.443 -18.433  1.00  0.00     0.164 C 
ATOM      3  C   UNL     1      24.970  -4.181 -18.868  1.00  0.00     0.232 C 
ATOM      4  O   UNL     1      25.845  -5.097 -18.210  1.00  0.00    -0.482 OA
ATOM      5  C   UNL     1      25.500  -6.435 -17.995  1.00  0.00     0.131 A 
ATOM      6  C   UNL     1      26.473  -7.318 -17.519  1.00  0.00     0.093 A 
ATOM      7  C   UNL     1      26.161  -8.665 -17.309  1.00  0.00     0.122 A 
ATOM      8  C   UNL     1      24.874  -9.130 -17.587  1.00  0.00     0.092 A 
ATOM      9  C   UNL     1      23.886  -8.260 -18.064  1.00  0.00     0.126 A 
ATOM     10  C   UNL     1      24.185  -6.888 -18.236  1.00  0.00     0.039 A 
ENDROOT
BRANCH   2  11
ATOM     11  O   UNL     1      22.652  -3.581 -19.125  1.00  0.00    -0.389 OA
ATOM     12  H   UNL     1      21.761  -4.020 -19.138  1.00  0.00     0.211 HD
ENDBRANCH   2  11
BRANCH   3  13
ATOM     13  C   UNL     1      25.387  -2.763 -18.549  1.00  0.00    -0.001 A 
ATOM     14  C   UNL     1      24.531  -1.912 -17.829  1.00  0.00     0.057 A 
ATOM     15  C   UNL     1      26.616  -2.267 -19.011  1.00  0.00     0.012 A 
ATOM     16  C   UNL     1      24.906  -0.589 -17.557  1.00  0.00     0.157 A 
ATOM     17  C   UNL     1      26.992  -0.950 -18.740  1.00  0.00     0.050 A 
ATOM     18  C   UNL     1      26.146  -0.107 -18.014  1.00  0.00     0.157 A 
BRANCH  16  19
ATOM     19  O   UNL     1      24.055   0.247 -16.837  1.00  0.00    -0.504 OA
ATOM     20  H   UNL     1      23.877   0.102 -15.851  1.00  0.00     0.293 HD
ENDBRANCH  16  19
BRANCH  18  21
ATOM     21  O   UNL     1      26.549   1.204 -17.758  1.00  0.00    -0.504 OA
ATOM     22  H   UNL     1      26.676   1.553 -16.816  1.00  0.00     0.293 HD
ENDBRANCH  18  21
ENDBRANCH   3  13
BRANCH   9  23
ATOM     23  O   UNL     1      22.632  -8.794 -18.366  1.00  0.00    -0.507 OA
ATOM     24  H   UNL     1      22.392  -9.766 -18.221  1.00  0.00     0.293 HD
ENDBRANCH   9  23
BRANCH   7  25
ATOM     25  O   UNL     1      27.125  -9.551 -16.833  1.00  0.00    -0.508 OA
ATOM     26  H   UNL     1      26.963 -10.117 -16.009  1.00  0.00     0.293 HD
ENDBRANCH   7  25
TORSDOF 6
ENDMDL
MODEL 2
REMARK VINA RESULT:    -2.478      1.805      3.527
REMARK INTER + INTRA:          -2.810
REMARK INTER:                  -2.983
REMARK INTRA:                   0.173
REMARK UNBOUND:                 0.175
REMARK SMILES Oc1cc(O)c2c(c1)O[C@H](c1ccc(O)c(O)c1)[C@@H](O)C2
REMARK SMILES IDX 21 1 19 2 10 3 9 4 7 5 8 6 2 7 3 8 4 9 6 10 20 11 11 13
REMARK SMILES IDX 18 14 12 15 16 16 13 17 14 18 17 19 15 21 5 23 1 25
REMARK H PARENT 20 12 17 20 15 22 5 24 1 26
REMARK Flexibility Score: inf
ROOT
ATOM      1  C   UNL     1      25.918  -8.264 -18.203  1.00  0.00     0.079 C 
ATOM      2  C   UNL     1      25.910  -6.728 -18.334  1.00  0.00     0.164 C 
ATOM      3  C   UNL     1      24.741  -6.141 -17.525  1.00  0.00     0.232 C 
ATOM      4  O   UNL     1      23.511  -6.717 -17.965  1.00  0.00    -0.482 OA
ATOM      5  C   UNL     1      23.401  -8.067 -18.312  1.00  0.00     0.131 A 
ATOM      6  C   UNL     1      22.133  -8.605 -18.551  1.00  0.00     0.093 A 
ATOM      7  C   UNL     1      21.991  -9.956 -18.885  1.00  0.00     0.122 A 
ATOM      8  C   UNL     1      23.121 -10.771 -18.970  1.00  0.00     0.092 A 
ATOM      9  C   UNL     1      24.400 -10.250 -18.736  1.00  0.00     0.126 A 
ATOM     10  C   UNL     1      24.552  -8.874 -18.440  1.00  0.00     0.039 A 
ENDROOT
BRANCH   2  11
ATOM     11  O   UNL     1      27.125  -6.206 -17.861  1.00  0.00    -0.389 OA
ATOM     12  H   UNL     1      27.601  -5.832 -18.648  1.00  0.00     0.211 HD
ENDBRANCH   2  11
BRANCH   3  13
ATOM     13  C   UNL     1      24.678  -4.638 -17.671  1.00  0.00    -0.001 A 
ATOM     14  C   UNL     1      25.743  -3.833 -17.232  1.00  0.00     0.057 A 
ATOM     15  C   UNL     1      23.532  -4.027 -18.205  1.00  0.00     0.012 A 
ATOM     16  C   UNL     1      25.674  -2.437 -17.343  1.00  0.00     0.157 A 
ATOM     17  C   UNL     1      23.462  -2.636 -18.316  1.00  0.00     0.050 A 
ATOM     18  C   UNL     1      24.526  -1.837 -17.890  1.00  0.00     0.157 A 
BRANCH  16  19
ATOM     19  O   UNL     1      26.737  -1.646 -16.911  1.00  0.00    -0.504 OA
ATOM     20  H   UNL     1      27.137  -0.926 -17.500  1.00  0.00     0.293 HD
ENDBRANCH  16  19
BRANCH  18  21
ATOM     21  O   UNL     1      24.427  -0.451 -18.015  1.00  0.00    -0.504 OA
ATOM     22  H   UNL     1      24.956   0.181 -17.427  1.00  0.00     0.293 HD
ENDBRANCH  18  21
ENDBRANCH   3  13
BRANCH   9  23
ATOM     23  O   UNL     1      25.486 -11.125 -18.793  1.00  0.00    -0.507 OA
ATOM     24  H   UNL     1      25.942 -11.499 -17.971  1.00  0.00     0.293 HD
ENDBRANCH   9  23
BRANCH   7  25
ATOM     25  O   UNL     1      20.731 -10.499 -19.125  1.00  0.00    -0.508 OA
ATOM     26  H   UNL     1      20.042 -10.011 -19.685  1.00  0.00     0.293 HD
ENDBRANCH   7  25
TORSDOF 6
ENDMDL
