MODEL 1
REMARK VINA RESULT:    -7.269      0.000      0.000
REMARK INTER + INTRA:         -12.289
REMARK INTER:                 -10.031
REMARK INTRA:                  -2.258
REMARK UNBOUND:                -2.258
REMARK SMILES CC[C@@H](CC[C@@H](C)[C@H]1CC[C@@H]2[C@H]3CC=C4C[C@H](O)CC[C@]4(C)[C@H]3CC[C@@]21C)C(C)C
REMARK SMILES IDX 5 1 4 2 3 3 2 4 1 5 28 6 29 7 30 8 6 9 7 10 8 11 9 12 26 13
REMARK SMILES IDX 10 14 11 15 25 16 27 17 12 18 24 19 23 20 13 21 21 22 14 23
REMARK SMILES IDX 15 24 20 25 22 26 16 27 19 28 17 29 18 30
REMARK H PARENT 18 31
REMARK Flexibility Score: inf
ROOT
ATOM      1  C   UNL     1      14.295  -8.946  25.354  1.00  0.00     0.004 C 
ENDROOT
BRANCH   1   2
ATOM      2  C   UNL     1      15.158  -9.650  24.273  1.00  0.00     0.004 C 
BRANCH   2   3
ATOM      3  C   UNL     1      16.451 -10.400  24.725  1.00  0.00    -0.009 C 
BRANCH   3   4
ATOM      4  C   UNL     1      17.689  -9.760  24.019  1.00  0.00     0.000 C 
ATOM      5  C   UNL     1      17.396  -8.388  23.404  1.00  0.00     0.004 C 
ENDBRANCH   3   4
BRANCH   3   6
ATOM      6  C   UNL     1      16.371 -11.959  24.564  1.00  0.00    -0.014 C 
ATOM      7  C   UNL     1      14.957 -12.503  24.806  1.00  0.00     0.007 C 
ATOM      8  C   UNL     1      17.385 -12.733  25.423  1.00  0.00     0.007 C 
ENDBRANCH   3   6
ENDBRANCH   2   3
ENDBRANCH   1   2
BRANCH   1   9
ATOM      9  C   UNL     1      14.780  -8.915  26.846  1.00  0.00    -0.011 C 
ATOM     10  C   UNL     1      15.023  -7.503  27.421  1.00  0.00     0.008 C 
BRANCH   9  11
ATOM     11  C   UNL     1      13.902  -9.768  27.839  1.00  0.00    -0.002 C 
ATOM     12  C   UNL     1      12.588 -10.234  27.185  1.00  0.00     0.005 C 
ATOM     13  C   UNL     1      14.535 -11.039  28.540  1.00  0.00    -0.026 C 
ATOM     14  C   UNL     1      12.428 -11.717  27.483  1.00  0.00     0.005 C 
ATOM     15  C   UNL     1      13.816 -12.238  27.853  1.00  0.00    -0.001 C 
ATOM     16  C   UNL     1      14.182 -10.998  30.061  1.00  0.00     0.007 C 
ATOM     17  C   UNL     1      16.081 -11.107  28.402  1.00  0.00     0.012 C 
ATOM     18  C   UNL     1      13.731 -13.581  28.648  1.00  0.00     0.000 C 
ATOM     19  C   UNL     1      14.305 -12.351  30.780  1.00  0.00     0.005 C 
ATOM     20  C   UNL     1      13.360 -13.397  30.141  1.00  0.00     0.003 C 
ATOM     21  C   UNL     1      15.020 -14.408  28.498  1.00  0.00     0.031 C 
ATOM     22  C   UNL     1      13.240 -14.792  30.899  1.00  0.00    -0.008 C 
ATOM     23  C   UNL     1      14.960 -15.686  29.267  1.00  0.00    -0.027 C 
ATOM     24  C   UNL     1      14.231 -15.849  30.389  1.00  0.00    -0.065 C 
ATOM     25  C   UNL     1      11.808 -15.373  30.653  1.00  0.00     0.014 C 
ATOM     26  C   UNL     1      13.434 -14.597  32.429  1.00  0.00     0.016 C 
ATOM     27  C   UNL     1      14.101 -17.248  30.954  1.00  0.00     0.063 C 
ATOM     28  C   UNL     1      11.610 -16.814  31.172  1.00  0.00     0.033 C 
ATOM     29  C   UNL     1      12.690 -17.783  30.658  1.00  0.00     0.118 C 
BRANCH  29  30
ATOM     30  O   UNL     1      12.522 -17.977  29.277  1.00  0.00    -0.393 OA
ATOM     31  H   UNL     1      12.052 -18.843  29.166  1.00  0.00     0.210 HD
ENDBRANCH  29  30
ENDBRANCH   9  11
ENDBRANCH   1   9
TORSDOF 7
ENDMDL
MODEL 2
REMARK VINA RESULT:    -7.092      4.031      7.850
REMARK INTER + INTRA:         -12.045
REMARK INTER:                  -9.407
REMARK INTRA:                  -2.638
REMARK UNBOUND:                -2.258
REMARK SMILES CC[C@@H](CC[C@@H](C)[C@H]1CC[C@@H]2[C@H]3CC=C4C[C@H](O)CC[C@]4(C)[C@H]3CC[C@@]21C)C(C)C
REMARK SMILES IDX 5 1 4 2 3 3 2 4 1 5 28 6 29 7 30 8 6 9 7 10 8 11 9 12 26 13
REMARK SMILES IDX 10 14 11 15 25 16 27 17 12 18 24 19 23 20 13 21 21 22 14 23
REMARK SMILES IDX 15 24 20 25 22 26 16 27 19 28 17 29 18 30
REMARK H PARENT 18 31
REMARK Flexibility Score: inf
ROOT
ATOM      1  C   UNL     1      16.730 -11.580  27.118  1.00  0.00     0.004 C 
ENDROOT
BRANCH   1   2
ATOM      2  C   UNL     1      17.081 -10.941  28.489  1.00  0.00     0.004 C 
BRANCH   2   3
ATOM      3  C   UNL     1      16.469  -9.548  28.839  1.00  0.00    -0.009 C 
BRANCH   3   4
ATOM      4  C   UNL     1      17.624  -8.513  29.026  1.00  0.00     0.000 C 
ATOM      5  C   UNL     1      17.433  -7.234  28.206  1.00  0.00     0.004 C 
ENDBRANCH   3   4
BRANCH   3   6
ATOM      6  C   UNL     1      15.454  -9.582  30.035  1.00  0.00    -0.014 C 
ATOM      7  C   UNL     1      14.746 -10.937  30.168  1.00  0.00     0.007 C 
ATOM      8  C   UNL     1      14.415  -8.449  30.011  1.00  0.00     0.007 C 
ENDBRANCH   3   6
ENDBRANCH   2   3
ENDBRANCH   1   2
BRANCH   1   9
ATOM      9  C   UNL     1      16.416 -10.663  25.883  1.00  0.00    -0.011 C 
ATOM     10  C   UNL     1      17.238 -10.978  24.615  1.00  0.00     0.008 C 
BRANCH   9  11
ATOM     11  C   UNL     1      14.885 -10.542  25.529  1.00  0.00    -0.002 C 
ATOM     12  C   UNL     1      14.009 -11.371  26.486  1.00  0.00     0.005 C 
ATOM     13  C   UNL     1      14.221  -9.108  25.435  1.00  0.00    -0.026 C 
ATOM     14  C   UNL     1      12.861 -10.483  26.944  1.00  0.00     0.005 C 
ATOM     15  C   UNL     1      13.301  -9.041  26.690  1.00  0.00    -0.001 C 
ATOM     16  C   UNL     1      13.362  -9.040  24.132  1.00  0.00     0.007 C 
ATOM     17  C   UNL     1      15.261  -7.954  25.390  1.00  0.00     0.012 C 
ATOM     18  C   UNL     1      12.077  -8.070  26.639  1.00  0.00     0.000 C 
ATOM     19  C   UNL     1      12.302  -7.927  24.125  1.00  0.00     0.005 C 
ATOM     20  C   UNL     1      11.306  -8.113  25.296  1.00  0.00     0.003 C 
ATOM     21  C   UNL     1      12.485  -6.630  26.995  1.00  0.00     0.031 C 
ATOM     22  C   UNL     1      10.043  -7.143  25.304  1.00  0.00    -0.008 C 
ATOM     23  C   UNL     1      11.329  -5.687  26.932  1.00  0.00    -0.027 C 
ATOM     24  C   UNL     1      10.266  -5.862  26.121  1.00  0.00    -0.065 C 
ATOM     25  C   UNL     1       8.844  -7.892  25.974  1.00  0.00     0.014 C 
ATOM     26  C   UNL     1       9.636  -6.767  23.852  1.00  0.00     0.016 C 
ATOM     27  C   UNL     1       9.077  -4.942  26.302  1.00  0.00     0.063 C 
ATOM     28  C   UNL     1       7.603  -7.006  26.225  1.00  0.00     0.033 C 
ATOM     29  C   UNL     1       7.941  -5.716  26.991  1.00  0.00     0.118 C 
BRANCH  29  30
ATOM     30  O   UNL     1       8.301  -6.039  28.311  1.00  0.00    -0.393 OA
ATOM     31  H   UNL     1       8.280  -5.192  28.827  1.00  0.00     0.210 HD
ENDBRANCH  29  30
ENDBRANCH   9  11
ENDBRANCH   1   9
TORSDOF 7
ENDMDL
MODEL 3
REMARK VINA RESULT:    -7.046      4.601      7.253
REMARK INTER + INTRA:         -11.981
REMARK INTER:                 -10.619
REMARK INTRA:                  -1.362
REMARK UNBOUND:                -2.258
REMARK SMILES CC[C@@H](CC[C@@H](C)[C@H]1CC[C@@H]2[C@H]3CC=C4C[C@H](O)CC[C@]4(C)[C@H]3CC[C@@]21C)C(C)C
REMARK SMILES IDX 5 1 4 2 3 3 2 4 1 5 28 6 29 7 30 8 6 9 7 10 8 11 9 12 26 13
REMARK SMILES IDX 10 14 11 15 25 16 27 17 12 18 24 19 23 20 13 21 21 22 14 23
REMARK SMILES IDX 15 24 20 25 22 26 16 27 19 28 17 29 18 30
REMARK H PARENT 18 31
REMARK Flexibility Score: inf
ROOT
ATOM      1  C   UNL     1      17.655 -10.470  23.999  1.00  0.00     0.004 C 
ENDROOT
BRANCH   1   2
ATOM      2  C   UNL     1      18.125 -11.463  25.096  1.00  0.00     0.004 C 
BRANCH   2   3
ATOM      3  C   UNL     1      17.094 -11.922  26.175  1.00  0.00    -0.009 C 
BRANCH   3   4
ATOM      4  C   UNL     1      17.782 -11.915  27.578  1.00  0.00     0.000 C 
ATOM      5  C   UNL     1      17.336 -10.752  28.468  1.00  0.00     0.004 C 
ENDBRANCH   3   4
BRANCH   3   6
ATOM      6  C   UNL     1      16.375 -13.274  25.834  1.00  0.00    -0.014 C 
ATOM      7  C   UNL     1      17.086 -14.054  24.720  1.00  0.00     0.007 C 
ATOM      8  C   UNL     1      14.882 -13.124  25.496  1.00  0.00     0.007 C 
ENDBRANCH   3   6
ENDBRANCH   2   3
ENDBRANCH   1   2
BRANCH   1   9
ATOM      9  C   UNL     1      17.544  -8.939  24.323  1.00  0.00    -0.011 C 
ATOM     10  C   UNL     1      17.380  -8.024  23.091  1.00  0.00     0.008 C 
BRANCH   9  11
ATOM     11  C   UNL     1      16.472  -8.578  25.421  1.00  0.00    -0.002 C 
ATOM     12  C   UNL     1      16.528  -7.088  25.807  1.00  0.00     0.005 C 
ATOM     13  C   UNL     1      14.948  -8.922  25.162  1.00  0.00    -0.026 C 
ATOM     14  C   UNL     1      15.103  -6.556  25.791  1.00  0.00     0.005 C 
ATOM     15  C   UNL     1      14.285  -7.530  24.942  1.00  0.00    -0.001 C 
ATOM     16  C   UNL     1      14.366  -9.601  26.442  1.00  0.00     0.007 C 
ATOM     17  C   UNL     1      14.735  -9.885  23.962  1.00  0.00     0.012 C 
ATOM     18  C   UNL     1      12.756  -7.402  25.238  1.00  0.00     0.000 C 
ATOM     19  C   UNL     1      12.832  -9.569  26.537  1.00  0.00     0.005 C 
ATOM     20  C   UNL     1      12.314  -8.110  26.543  1.00  0.00     0.003 C 
ATOM     21  C   UNL     1      11.910  -7.874  24.042  1.00  0.00     0.031 C 
ATOM     22  C   UNL     1      10.760  -7.917  26.828  1.00  0.00    -0.008 C 
ATOM     23  C   UNL     1      10.445  -7.775  24.317  1.00  0.00    -0.027 C 
ATOM     24  C   UNL     1       9.909  -7.874  25.550  1.00  0.00    -0.065 C 
ATOM     25  C   UNL     1      10.551  -6.542  27.546  1.00  0.00     0.014 C 
ATOM     26  C   UNL     1      10.234  -9.042  27.762  1.00  0.00     0.016 C 
ATOM     27  C   UNL     1       8.437  -7.556  25.711  1.00  0.00     0.063 C 
ATOM     28  C   UNL     1       9.071  -6.133  27.714  1.00  0.00     0.033 C 
ATOM     29  C   UNL     1       8.287  -6.185  26.390  1.00  0.00     0.118 C 
BRANCH  29  30
ATOM     30  O   UNL     1       8.746  -5.166  25.538  1.00  0.00    -0.393 OA
ATOM     31  H   UNL     1       9.024  -4.412  26.120  1.00  0.00     0.210 HD
ENDBRANCH  29  30
ENDBRANCH   9  11
ENDBRANCH   1   9
TORSDOF 7
ENDMDL
MODEL 4
REMARK VINA RESULT:    -6.946      3.489      6.622
REMARK INTER + INTRA:         -11.844
REMARK INTER:                  -9.127
REMARK INTRA:                  -2.717
REMARK UNBOUND:                -2.258
REMARK SMILES CC[C@@H](CC[C@@H](C)[C@H]1CC[C@@H]2[C@H]3CC=C4C[C@H](O)CC[C@]4(C)[C@H]3CC[C@@]21C)C(C)C
REMARK SMILES IDX 5 1 4 2 3 3 2 4 1 5 28 6 29 7 30 8 6 9 7 10 8 11 9 12 26 13
REMARK SMILES IDX 10 14 11 15 25 16 27 17 12 18 24 19 23 20 13 21 21 22 14 23
REMARK SMILES IDX 15 24 20 25 22 26 16 27 19 28 17 29 18 30
REMARK H PARENT 18 31
REMARK Flexibility Score: inf
ROOT
ATOM      1  C   UNL     1      17.594 -12.498  27.815  1.00  0.00     0.004 C 
ENDROOT
BRANCH   1   2
ATOM      2  C   UNL     1      18.124 -11.762  26.555  1.00  0.00     0.004 C 
BRANCH   2   3
ATOM      3  C   UNL     1      17.206 -11.691  25.294  1.00  0.00    -0.009 C 
BRANCH   3   4
ATOM      4  C   UNL     1      17.732 -12.695  24.219  1.00  0.00     0.000 C 
ATOM      5  C   UNL     1      17.276 -14.137  24.459  1.00  0.00     0.004 C 
ENDBRANCH   3   4
BRANCH   3   6
ATOM      6  C   UNL     1      16.990 -10.237  24.746  1.00  0.00    -0.014 C 
ATOM      7  C   UNL     1      17.170  -9.166  25.830  1.00  0.00     0.007 C 
ATOM      8  C   UNL     1      15.648 -10.030  24.023  1.00  0.00     0.007 C 
ENDBRANCH   3   6
ENDBRANCH   2   3
ENDBRANCH   1   2
BRANCH   1   9
ATOM      9  C   UNL     1      16.177 -13.171  27.793  1.00  0.00    -0.011 C 
ATOM     10  C   UNL     1      16.145 -14.634  28.280  1.00  0.00     0.008 C 
BRANCH   9  11
ATOM     11  C   UNL     1      15.043 -12.333  28.497  1.00  0.00    -0.002 C 
ATOM     12  C   UNL     1      15.616 -11.134  29.275  1.00  0.00     0.005 C 
ATOM     13  C   UNL     1      13.837 -11.777  27.633  1.00  0.00    -0.026 C 
ATOM     14  C   UNL     1      14.791  -9.910  28.907  1.00  0.00     0.005 C 
ATOM     15  C   UNL     1      14.088 -10.240  27.590  1.00  0.00    -0.001 C 
ATOM     16  C   UNL     1      12.502 -12.085  28.383  1.00  0.00     0.007 C 
ATOM     17  C   UNL     1      13.756 -12.412  26.218  1.00  0.00     0.012 C 
ATOM     18  C   UNL     1      12.854  -9.312  27.351  1.00  0.00     0.000 C 
ATOM     19  C   UNL     1      11.309 -11.225  27.937  1.00  0.00     0.005 C 
ATOM     20  C   UNL     1      11.602  -9.722  28.165  1.00  0.00     0.003 C 
ATOM     21  C   UNL     1      12.522  -9.191  25.853  1.00  0.00     0.031 C 
ATOM     22  C   UNL     1      10.384  -8.725  27.926  1.00  0.00    -0.008 C 
ATOM     23  C   UNL     1      11.332  -8.321  25.611  1.00  0.00    -0.027 C 
ATOM     24  C   UNL     1      10.328  -8.166  26.497  1.00  0.00    -0.065 C 
ATOM     25  C   UNL     1      10.554  -7.493  28.876  1.00  0.00     0.014 C 
ATOM     26  C   UNL     1       9.036  -9.421  28.263  1.00  0.00     0.016 C 
ATOM     27  C   UNL     1       9.287  -7.104  26.210  1.00  0.00     0.063 C 
ATOM     28  C   UNL     1       9.547  -6.350  28.619  1.00  0.00     0.033 C 
ATOM     29  C   UNL     1       9.517  -5.906  27.145  1.00  0.00     0.118 C 
BRANCH  29  30
ATOM     30  O   UNL     1      10.727  -5.265  26.828  1.00  0.00    -0.393 OA
ATOM     31  H   UNL     1      11.052  -4.841  27.664  1.00  0.00     0.210 HD
ENDBRANCH  29  30
ENDBRANCH   9  11
ENDBRANCH   1   9
TORSDOF 7
ENDMDL
MODEL 5
REMARK VINA RESULT:    -6.934      2.934      8.580
REMARK INTER + INTRA:         -11.828
REMARK INTER:                 -10.658
REMARK INTRA:                  -1.169
REMARK UNBOUND:                -2.258
REMARK SMILES CC[C@@H](CC[C@@H](C)[C@H]1CC[C@@H]2[C@H]3CC=C4C[C@H](O)CC[C@]4(C)[C@H]3CC[C@@]21C)C(C)C
REMARK SMILES IDX 5 1 4 2 3 3 2 4 1 5 28 6 29 7 30 8 6 9 7 10 8 11 9 12 26 13
REMARK SMILES IDX 10 14 11 15 25 16 27 17 12 18 24 19 23 20 13 21 21 22 14 23
REMARK SMILES IDX 15 24 20 25 22 26 16 27 19 28 17 29 18 30
REMARK H PARENT 18 31
REMARK Flexibility Score: inf
ROOT
ATOM      1  C   UNL     1      13.276 -14.246  31.286  1.00  0.00     0.004 C 
ENDROOT
BRANCH   1   2
ATOM      2  C   UNL     1      14.012 -13.381  32.344  1.00  0.00     0.004 C 
BRANCH   2   3
ATOM      3  C   UNL     1      14.049 -13.885  33.822  1.00  0.00    -0.009 C 
BRANCH   3   4
ATOM      4  C   UNL     1      12.935 -14.960  34.025  1.00  0.00     0.000 C 
ATOM      5  C   UNL     1      13.415 -16.196  34.792  1.00  0.00     0.004 C 
ENDBRANCH   3   4
BRANCH   3   6
ATOM      6  C   UNL     1      14.015 -12.734  34.887  1.00  0.00    -0.014 C 
ATOM      7  C   UNL     1      12.668 -12.649  35.617  1.00  0.00     0.007 C 
ATOM      8  C   UNL     1      14.398 -11.352  34.332  1.00  0.00     0.007 C 
ENDBRANCH   3   6
ENDBRANCH   2   3
ENDBRANCH   1   2
BRANCH   1   9
ATOM      9  C   UNL     1      13.994 -14.620  29.941  1.00  0.00    -0.011 C 
ATOM     10  C   UNL     1      14.097 -16.134  29.660  1.00  0.00     0.008 C 
BRANCH   9  11
ATOM     11  C   UNL     1      13.445 -13.862  28.673  1.00  0.00    -0.002 C 
ATOM     12  C   UNL     1      12.093 -13.181  28.953  1.00  0.00     0.005 C 
ATOM     13  C   UNL     1      14.357 -12.782  27.959  1.00  0.00    -0.026 C 
ATOM     14  C   UNL     1      12.178 -11.757  28.426  1.00  0.00     0.005 C 
ATOM     15  C   UNL     1      13.665 -11.428  28.300  1.00  0.00    -0.001 C 
ATOM     16  C   UNL     1      14.317 -13.035  26.418  1.00  0.00     0.007 C 
ATOM     17  C   UNL     1      15.839 -12.832  28.421  1.00  0.00     0.012 C 
ATOM     18  C   UNL     1      13.907 -10.228  27.329  1.00  0.00     0.000 C 
ATOM     19  C   UNL     1      14.746 -11.831  25.565  1.00  0.00     0.005 C 
ATOM     20  C   UNL     1      13.827 -10.615  25.831  1.00  0.00     0.003 C 
ATOM     21  C   UNL     1      15.230  -9.507  27.642  1.00  0.00     0.031 C 
ATOM     22  C   UNL     1      14.034  -9.355  24.880  1.00  0.00    -0.008 C 
ATOM     23  C   UNL     1      15.483  -8.369  26.710  1.00  0.00    -0.027 C 
ATOM     24  C   UNL     1      15.021  -8.323  25.444  1.00  0.00    -0.065 C 
ATOM     25  C   UNL     1      12.663  -8.616  24.725  1.00  0.00     0.014 C 
ATOM     26  C   UNL     1      14.508  -9.809  23.471  1.00  0.00     0.016 C 
ATOM     27  C   UNL     1      15.180  -7.027  24.677  1.00  0.00     0.063 C 
ATOM     28  C   UNL     1      12.751  -7.264  23.982  1.00  0.00     0.033 C 
ATOM     29  C   UNL     1      13.815  -6.327  24.581  1.00  0.00     0.118 C 
BRANCH  29  30
ATOM     30  O   UNL     1      13.395  -5.900  25.852  1.00  0.00    -0.393 OA
ATOM     31  H   UNL     1      13.564  -4.923  25.894  1.00  0.00     0.210 HD
ENDBRANCH  29  30
ENDBRANCH   9  11
ENDBRANCH   1   9
TORSDOF 7
ENDMDL
MODEL 6
REMARK VINA RESULT:    -6.848      3.705      7.677
REMARK INTER + INTRA:         -11.708
REMARK INTER:                  -9.680
REMARK INTRA:                  -2.028
REMARK UNBOUND:                -2.258
REMARK SMILES CC[C@@H](CC[C@@H](C)[C@H]1CC[C@@H]2[C@H]3CC=C4C[C@H](O)CC[C@]4(C)[C@H]3CC[C@@]21C)C(C)C
REMARK SMILES IDX 5 1 4 2 3 3 2 4 1 5 28 6 29 7 30 8 6 9 7 10 8 11 9 12 26 13
REMARK SMILES IDX 10 14 11 15 25 16 27 17 12 18 24 19 23 20 13 21 21 22 14 23
REMARK SMILES IDX 15 24 20 25 22 26 16 27 19 28 17 29 18 30
REMARK H PARENT 18 31
REMARK Flexibility Score: inf
ROOT
ATOM      1  C   UNL     1      18.007 -10.461  26.324  1.00  0.00     0.004 C 
ENDROOT
BRANCH   1   2
ATOM      2  C   UNL     1      17.999 -11.612  27.367  1.00  0.00     0.004 C 
BRANCH   2   3
ATOM      3  C   UNL     1      16.877 -11.624  28.453  1.00  0.00    -0.009 C 
BRANCH   3   4
ATOM      4  C   UNL     1      15.739 -12.595  28.003  1.00  0.00     0.000 C 
ATOM      5  C   UNL     1      16.256 -13.856  27.306  1.00  0.00     0.004 C 
ENDBRANCH   3   4
BRANCH   3   6
ATOM      6  C   UNL     1      16.365 -10.197  28.854  1.00  0.00    -0.014 C 
ATOM      7  C   UNL     1      17.288  -9.504  29.866  1.00  0.00     0.007 C 
ATOM      8  C   UNL     1      14.915 -10.169  29.365  1.00  0.00     0.007 C 
ENDBRANCH   3   6
ENDBRANCH   2   3
ENDBRANCH   1   2
BRANCH   1   9
ATOM      9  C   UNL     1      17.768 -10.777  24.806  1.00  0.00    -0.011 C 
ATOM     10  C   UNL     1      18.119 -12.218  24.379  1.00  0.00     0.008 C 
BRANCH   9  11
ATOM     11  C   UNL     1      16.339 -10.380  24.272  1.00  0.00    -0.002 C 
ATOM     12  C   UNL     1      15.320 -11.519  24.458  1.00  0.00     0.005 C 
ATOM     13  C   UNL     1      15.647  -9.061  24.811  1.00  0.00    -0.026 C 
ATOM     14  C   UNL     1      14.066 -10.918  25.074  1.00  0.00     0.005 C 
ATOM     15  C   UNL     1      14.486  -9.589  25.704  1.00  0.00    -0.001 C 
ATOM     16  C   UNL     1      15.074  -8.265  23.595  1.00  0.00     0.007 C 
ATOM     17  C   UNL     1      16.623  -8.131  25.583  1.00  0.00     0.012 C 
ATOM     18  C   UNL     1      13.258  -8.648  25.926  1.00  0.00     0.000 C 
ATOM     19  C   UNL     1      13.991  -7.237  23.961  1.00  0.00     0.005 C 
ATOM     20  C   UNL     1      12.784  -7.931  24.637  1.00  0.00     0.003 C 
ATOM     21  C   UNL     1      13.521  -7.635  27.055  1.00  0.00     0.031 C 
ATOM     22  C   UNL     1      11.506  -7.019  24.900  1.00  0.00    -0.008 C 
ATOM     23  C   UNL     1      12.363  -6.717  27.266  1.00  0.00    -0.027 C 
ATOM     24  C   UNL     1      11.500  -6.368  26.291  1.00  0.00    -0.065 C 
ATOM     25  C   UNL     1      10.227  -7.918  24.827  1.00  0.00     0.014 C 
ATOM     26  C   UNL     1      11.392  -5.915  23.812  1.00  0.00     0.016 C 
ATOM     27  C   UNL     1      10.260  -5.593  26.686  1.00  0.00     0.063 C 
ATOM     28  C   UNL     1       8.924  -7.204  25.250  1.00  0.00     0.033 C 
ATOM     29  C   UNL     1       9.041  -6.527  26.628  1.00  0.00     0.118 C 
BRANCH  29  30
ATOM     30  O   UNL     1       9.134  -7.514  27.624  1.00  0.00    -0.393 OA
ATOM     31  H   UNL     1      10.102  -7.677  27.772  1.00  0.00     0.210 HD
ENDBRANCH  29  30
ENDBRANCH   9  11
ENDBRANCH   1   9
TORSDOF 7
ENDMDL
MODEL 7
REMARK VINA RESULT:    -6.769      4.020      8.740
REMARK INTER + INTRA:         -11.600
REMARK INTER:                  -9.165
REMARK INTRA:                  -2.435
REMARK UNBOUND:                -2.258
REMARK SMILES CC[C@@H](CC[C@@H](C)[C@H]1CC[C@@H]2[C@H]3CC=C4C[C@H](O)CC[C@]4(C)[C@H]3CC[C@@]21C)C(C)C
REMARK SMILES IDX 5 1 4 2 3 3 2 4 1 5 28 6 29 7 30 8 6 9 7 10 8 11 9 12 26 13
REMARK SMILES IDX 10 14 11 15 25 16 27 17 12 18 24 19 23 20 13 21 21 22 14 23
REMARK SMILES IDX 15 24 20 25 22 26 16 27 19 28 17 29 18 30
REMARK H PARENT 18 31
REMARK Flexibility Score: inf
ROOT
ATOM      1  C   UNL     1      16.378 -12.869  26.864  1.00  0.00     0.004 C 
ENDROOT
BRANCH   1   2
ATOM      2  C   UNL     1      16.929 -12.134  28.116  1.00  0.00     0.004 C 
BRANCH   2   3
ATOM      3  C   UNL     1      16.150 -10.890  28.651  1.00  0.00    -0.009 C 
BRANCH   3   4
ATOM      4  C   UNL     1      17.114 -10.013  29.512  1.00  0.00     0.000 C 
ATOM      5  C   UNL     1      17.211  -8.563  29.029  1.00  0.00     0.004 C 
ENDBRANCH   3   4
BRANCH   3   6
ATOM      6  C   UNL     1      14.806 -11.246  29.377  1.00  0.00    -0.014 C 
ATOM      7  C   UNL     1      13.575 -10.717  28.628  1.00  0.00     0.007 C 
ATOM      8  C   UNL     1      14.751 -10.807  30.850  1.00  0.00     0.007 C 
ENDBRANCH   3   6
ENDBRANCH   2   3
ENDBRANCH   1   2
BRANCH   1   9
ATOM      9  C   UNL     1      16.991 -12.574  25.450  1.00  0.00    -0.011 C 
ATOM     10  C   UNL     1      17.384 -13.826  24.638  1.00  0.00     0.008 C 
BRANCH   9  11
ATOM     11  C   UNL     1      16.142 -11.588  24.561  1.00  0.00    -0.002 C 
ATOM     12  C   UNL     1      14.629 -11.804  24.750  1.00  0.00     0.005 C 
ATOM     13  C   UNL     1      16.394 -10.028  24.673  1.00  0.00    -0.026 C 
ATOM     14  C   UNL     1      13.992 -10.438  24.959  1.00  0.00     0.005 C 
ATOM     15  C   UNL     1      15.117  -9.496  25.389  1.00  0.00    -0.001 C 
ATOM     16  C   UNL     1      16.492  -9.433  23.232  1.00  0.00     0.007 C 
ATOM     17  C   UNL     1      17.701  -9.674  25.434  1.00  0.00     0.012 C 
ATOM     18  C   UNL     1      14.730  -8.000  25.159  1.00  0.00     0.000 C 
ATOM     19  C   UNL     1      16.265  -7.915  23.153  1.00  0.00     0.005 C 
ATOM     20  C   UNL     1      14.859  -7.544  23.684  1.00  0.00     0.003 C 
ATOM     21  C   UNL     1      15.514  -7.064  26.096  1.00  0.00     0.031 C 
ATOM     22  C   UNL     1      14.412  -6.028  23.489  1.00  0.00    -0.008 C 
ATOM     23  C   UNL     1      15.167  -5.629  25.875  1.00  0.00    -0.027 C 
ATOM     24  C   UNL     1      14.750  -5.135  24.692  1.00  0.00    -0.065 C 
ATOM     25  C   UNL     1      12.856  -5.984  23.328  1.00  0.00     0.014 C 
ATOM     26  C   UNL     1      15.055  -5.432  22.206  1.00  0.00     0.016 C 
ATOM     27  C   UNL     1      14.242  -3.709  24.658  1.00  0.00     0.063 C 
ATOM     28  C   UNL     1      12.260  -4.559  23.320  1.00  0.00     0.033 C 
ATOM     29  C   UNL     1      12.709  -3.722  24.531  1.00  0.00     0.118 C 
BRANCH  29  30
ATOM     30  O   UNL     1      12.128  -4.243  25.699  1.00  0.00    -0.393 OA
ATOM     31  H   UNL     1      12.074  -5.226  25.576  1.00  0.00     0.210 HD
ENDBRANCH  29  30
ENDBRANCH   9  11
ENDBRANCH   1   9
TORSDOF 7
ENDMDL
MODEL 8
REMARK VINA RESULT:    -6.748      3.077      8.834
REMARK INTER + INTRA:         -11.571
REMARK INTER:                 -10.773
REMARK INTRA:                  -0.798
REMARK UNBOUND:                -2.258
REMARK SMILES CC[C@@H](CC[C@@H](C)[C@H]1CC[C@@H]2[C@H]3CC=C4C[C@H](O)CC[C@]4(C)[C@H]3CC[C@@]21C)C(C)C
REMARK SMILES IDX 5 1 4 2 3 3 2 4 1 5 28 6 29 7 30 8 6 9 7 10 8 11 9 12 26 13
REMARK SMILES IDX 10 14 11 15 25 16 27 17 12 18 24 19 23 20 13 21 21 22 14 23
REMARK SMILES IDX 15 24 20 25 22 26 16 27 19 28 17 29 18 30
REMARK H PARENT 18 31
REMARK Flexibility Score: inf
ROOT
ATOM      1  C   UNL     1      14.005 -13.462  32.182  1.00  0.00     0.004 C 
ENDROOT
BRANCH   1   2
ATOM      2  C   UNL     1      13.649 -14.346  33.407  1.00  0.00     0.004 C 
BRANCH   2   3
ATOM      3  C   UNL     1      14.183 -13.921  34.812  1.00  0.00    -0.009 C 
BRANCH   3   4
ATOM      4  C   UNL     1      14.088 -15.139  35.786  1.00  0.00     0.000 C 
ATOM      5  C   UNL     1      15.233 -15.196  36.802  1.00  0.00     0.004 C 
ENDBRANCH   3   4
BRANCH   3   6
ATOM      6  C   UNL     1      13.524 -12.613  35.373  1.00  0.00    -0.014 C 
ATOM      7  C   UNL     1      14.468 -11.828  36.295  1.00  0.00     0.007 C 
ATOM      8  C   UNL     1      12.175 -12.840  36.077  1.00  0.00     0.007 C 
ENDBRANCH   3   6
ENDBRANCH   2   3
ENDBRANCH   1   2
BRANCH   1   9
ATOM      9  C   UNL     1      13.768 -14.004  30.729  1.00  0.00    -0.011 C 
ATOM     10  C   UNL     1      12.719 -15.130  30.619  1.00  0.00     0.008 C 
BRANCH   9  11
ATOM     11  C   UNL     1      13.490 -12.888  29.651  1.00  0.00    -0.002 C 
ATOM     12  C   UNL     1      13.465 -11.481  30.276  1.00  0.00     0.005 C 
ATOM     13  C   UNL     1      14.417 -12.798  28.370  1.00  0.00    -0.026 C 
ATOM     14  C   UNL     1      14.329 -10.578  29.409  1.00  0.00     0.005 C 
ATOM     15  C   UNL     1      15.244 -11.498  28.600  1.00  0.00    -0.001 C 
ATOM     16  C   UNL     1      13.511 -12.644  27.107  1.00  0.00     0.007 C 
ATOM     17  C   UNL     1      15.313 -14.052  28.174  1.00  0.00     0.012 C 
ATOM     18  C   UNL     1      15.817 -10.772  27.341  1.00  0.00     0.000 C 
ATOM     19  C   UNL     1      14.231 -12.082  25.871  1.00  0.00     0.005 C 
ATOM     20  C   UNL     1      14.810 -10.677  26.167  1.00  0.00     0.003 C 
ATOM     21  C   UNL     1      17.142 -11.404  26.880  1.00  0.00     0.031 C 
ATOM     22  C   UNL     1      15.419  -9.892  24.923  1.00  0.00    -0.008 C 
ATOM     23  C   UNL     1      17.692 -10.732  25.665  1.00  0.00    -0.027 C 
ATOM     24  C   UNL     1      16.926 -10.121  24.739  1.00  0.00    -0.065 C 
ATOM     25  C   UNL     1      15.231  -8.357  25.161  1.00  0.00     0.014 C 
ATOM     26  C   UNL     1      14.674 -10.280  23.616  1.00  0.00     0.016 C 
ATOM     27  C   UNL     1      17.623  -9.309  23.667  1.00  0.00     0.063 C 
ATOM     28  C   UNL     1      15.945  -7.461  24.124  1.00  0.00     0.033 C 
ATOM     29  C   UNL     1      17.434  -7.812  23.964  1.00  0.00     0.118 C 
BRANCH  29  30
ATOM     30  O   UNL     1      18.125  -7.457  25.135  1.00  0.00    -0.393 OA
ATOM     31  H   UNL     1      19.092  -7.534  24.930  1.00  0.00     0.210 HD
ENDBRANCH  29  30
ENDBRANCH   9  11
ENDBRANCH   1   9
TORSDOF 7
ENDMDL
MODEL 9
REMARK VINA RESULT:    -6.742      3.381      7.651
REMARK INTER + INTRA:         -11.563
REMARK INTER:                  -9.395
REMARK INTRA:                  -2.167
REMARK UNBOUND:                -2.258
REMARK SMILES CC[C@@H](CC[C@@H](C)[C@H]1CC[C@@H]2[C@H]3CC=C4C[C@H](O)CC[C@]4(C)[C@H]3CC[C@@]21C)C(C)C
REMARK SMILES IDX 5 1 4 2 3 3 2 4 1 5 28 6 29 7 30 8 6 9 7 10 8 11 9 12 26 13
REMARK SMILES IDX 10 14 11 15 25 16 27 17 12 18 24 19 23 20 13 21 21 22 14 23
REMARK SMILES IDX 15 24 20 25 22 26 16 27 19 28 17 29 18 30
REMARK H PARENT 18 31
REMARK Flexibility Score: inf
ROOT
ATOM      1  C   UNL     1      16.925 -12.583  26.619  1.00  0.00     0.004 C 
ENDROOT
BRANCH   1   2
ATOM      2  C   UNL     1      16.795 -12.106  28.091  1.00  0.00     0.004 C 
BRANCH   2   3
ATOM      3  C   UNL     1      15.448 -11.460  28.547  1.00  0.00    -0.009 C 
BRANCH   3   4
ATOM      4  C   UNL     1      15.751 -10.284  29.529  1.00  0.00     0.000 C 
ATOM      5  C   UNL     1      17.245  -9.970  29.659  1.00  0.00     0.004 C 
ENDBRANCH   3   4
BRANCH   3   6
ATOM      6  C   UNL     1      14.404 -12.490  29.103  1.00  0.00    -0.014 C 
ATOM      7  C   UNL     1      14.142 -12.311  30.604  1.00  0.00     0.007 C 
ATOM      8  C   UNL     1      14.750 -13.959  28.803  1.00  0.00     0.007 C 
ENDBRANCH   3   6
ENDBRANCH   2   3
ENDBRANCH   1   2
BRANCH   1   9
ATOM      9  C   UNL     1      17.114 -11.532  25.469  1.00  0.00    -0.011 C 
ATOM     10  C   UNL     1      18.125 -11.940  24.376  1.00  0.00     0.008 C 
BRANCH   9  11
ATOM     11  C   UNL     1      15.772 -11.029  24.814  1.00  0.00    -0.002 C 
ATOM     12  C   UNL     1      14.621 -12.030  25.025  1.00  0.00     0.005 C 
ATOM     13  C   UNL     1      15.206  -9.601  25.200  1.00  0.00    -0.026 C 
ATOM     14  C   UNL     1      13.411 -11.244  25.509  1.00  0.00     0.005 C 
ATOM     15  C   UNL     1      13.945  -9.920  26.056  1.00  0.00    -0.001 C 
ATOM     16  C   UNL     1      14.795  -8.856  23.890  1.00  0.00     0.007 C 
ATOM     17  C   UNL     1      16.238  -8.720  25.956  1.00  0.00     0.012 C 
ATOM     18  C   UNL     1      12.822  -8.834  26.123  1.00  0.00     0.000 C 
ATOM     19  C   UNL     1      13.818  -7.688  24.103  1.00  0.00     0.005 C 
ATOM     20  C   UNL     1      12.505  -8.185  24.753  1.00  0.00     0.003 C 
ATOM     21  C   UNL     1      13.137  -7.763  27.182  1.00  0.00     0.031 C 
ATOM     22  C   UNL     1      11.326  -7.119  24.859  1.00  0.00    -0.008 C 
ATOM     23  C   UNL     1      12.082  -6.708  27.244  1.00  0.00    -0.027 C 
ATOM     24  C   UNL     1      11.318  -6.353  26.191  1.00  0.00    -0.065 C 
ATOM     25  C   UNL     1       9.959  -7.876  24.777  1.00  0.00     0.014 C 
ATOM     26  C   UNL     1      11.399  -6.108  23.682  1.00  0.00     0.016 C 
ATOM     27  C   UNL     1      10.155  -5.416  26.442  1.00  0.00     0.063 C 
ATOM     28  C   UNL     1       8.725  -6.990  25.058  1.00  0.00     0.033 C 
ATOM     29  C   UNL     1       8.842  -6.214  26.381  1.00  0.00     0.118 C 
BRANCH  29  30
ATOM     30  O   UNL     1       8.768  -7.114  27.457  1.00  0.00    -0.393 OA
ATOM     31  H   UNL     1       9.640  -7.586  27.494  1.00  0.00     0.210 HD
ENDBRANCH  29  30
ENDBRANCH   9  11
ENDBRANCH   1   9
TORSDOF 7
ENDMDL
