MODEL 1
REMARK VINA RESULT:    -3.725      0.000      0.000
REMARK INTER + INTRA:          -4.954
REMARK INTER:                  -4.813
REMARK INTRA:                  -0.141
REMARK UNBOUND:                -0.141
REMARK SMILES CCCCCCC(=O)[O-]
REMARK SMILES IDX 5 1 6 2 7 3 8 4 9 5 4 6 3 7 2 8 1 9
REMARK H PARENT
REMARK Flexibility Score: inf
ROOT
ATOM      1  C   UNL     1     -16.117   0.247   0.046  1.00  0.00     0.006 C 
ENDROOT
BRANCH   1   2
ATOM      2  C   UNL     1     -16.821  -0.407   1.243  1.00  0.00     0.053 C 
BRANCH   2   3
ATOM      3  C   UNL     1     -15.885  -0.508   2.406  1.00  0.00     0.041 C 
ATOM      4  O   UNL     1     -16.329  -0.763   3.556  1.00  0.00    -0.550 OA
ATOM      5  O   UNL     1     -14.516  -0.371   2.211  1.00  0.00    -0.550 OA
ENDBRANCH   2   3
ENDBRANCH   1   2
BRANCH   1   6
ATOM      6  C   UNL     1     -17.089   0.616  -1.089  1.00  0.00     0.000 C 
BRANCH   6   7
ATOM      7  C   UNL     1     -16.915  -0.197  -2.388  1.00  0.00    -0.000 C 
BRANCH   7   8
ATOM      8  C   UNL     1     -17.026  -1.722  -2.219  1.00  0.00    -0.003 C 
ATOM      9  C   UNL     1     -17.101  -2.466  -3.552  1.00  0.00     0.004 C 
ENDBRANCH   7   8
ENDBRANCH   6   7
ENDBRANCH   1   6
TORSDOF 5
ENDMDL
MODEL 2
REMARK VINA RESULT:    -3.632     16.703     18.061
REMARK INTER + INTRA:          -4.835
REMARK INTER:                  -4.625
REMARK INTRA:                  -0.210
REMARK UNBOUND:                -0.141
REMARK SMILES CCCCCCC(=O)[O-]
REMARK SMILES IDX 5 1 6 2 7 3 8 4 9 5 4 6 3 7 2 8 1 9
REMARK H PARENT
REMARK Flexibility Score: inf
ROOT
ATOM      1  C   UNL     1     -11.247  12.980   9.975  1.00  0.00     0.006 C 
ENDROOT
BRANCH   1   2
ATOM      2  C   UNL     1     -10.254  14.141  10.125  1.00  0.00     0.053 C 
BRANCH   2   3
ATOM      3  C   UNL     1      -8.937  13.783   9.513  1.00  0.00     0.041 C 
ATOM      4  O   UNL     1      -8.530  14.387   8.486  1.00  0.00    -0.550 OA
ATOM      5  O   UNL     1      -8.134  12.816  10.107  1.00  0.00    -0.550 OA
ENDBRANCH   2   3
ENDBRANCH   1   2
BRANCH   1   6
ATOM      6  C   UNL     1     -12.597  13.421   9.381  1.00  0.00     0.000 C 
BRANCH   6   7
ATOM      7  C   UNL     1     -12.591  14.806   8.703  1.00  0.00    -0.000 C 
BRANCH   7   8
ATOM      8  C   UNL     1     -13.400  14.893   7.397  1.00  0.00    -0.003 C 
ATOM      9  C   UNL     1     -14.200  13.623   7.106  1.00  0.00     0.004 C 
ENDBRANCH   7   8
ENDBRANCH   6   7
ENDBRANCH   1   6
TORSDOF 5
ENDMDL
MODEL 3
REMARK VINA RESULT:    -3.598     14.598     16.534
REMARK INTER + INTRA:          -4.791
REMARK INTER:                  -4.679
REMARK INTRA:                  -0.112
REMARK UNBOUND:                -0.141
REMARK SMILES CCCCCCC(=O)[O-]
REMARK SMILES IDX 5 1 6 2 7 3 8 4 9 5 4 6 3 7 2 8 1 9
REMARK H PARENT
REMARK Flexibility Score: inf
ROOT
ATOM      1  C   UNL     1     -12.554  11.507   9.289  1.00  0.00     0.006 C 
ENDROOT
BRANCH   1   2
ATOM      2  C   UNL     1     -12.643   9.978   9.370  1.00  0.00     0.053 C 
BRANCH   2   3
ATOM      3  C   UNL     1     -14.052   9.524   9.153  1.00  0.00     0.041 C 
ATOM      4  O   UNL     1     -14.852   9.455  10.122  1.00  0.00    -0.550 OA
ATOM      5  O   UNL     1     -14.497   9.227   7.870  1.00  0.00    -0.550 OA
ENDBRANCH   2   3
ENDBRANCH   1   2
BRANCH   1   6
ATOM      6  C   UNL     1     -11.236  12.060   9.860  1.00  0.00     0.000 C 
BRANCH   6   7
ATOM      7  C   UNL     1     -11.225  13.580  10.124  1.00  0.00    -0.000 C 
BRANCH   7   8
ATOM      8  C   UNL     1      -9.836  14.239  10.064  1.00  0.00    -0.003 C 
ATOM      9  C   UNL     1      -8.698  13.224   9.971  1.00  0.00     0.004 C 
ENDBRANCH   7   8
ENDBRANCH   6   7
ENDBRANCH   1   6
TORSDOF 5
ENDMDL
MODEL 4
REMARK VINA RESULT:    -3.425      5.478      7.462
REMARK INTER + INTRA:          -4.567
REMARK INTER:                  -4.192
REMARK INTRA:                  -0.374
REMARK UNBOUND:                -0.141
REMARK SMILES CCCCCCC(=O)[O-]
REMARK SMILES IDX 5 1 6 2 7 3 8 4 9 5 4 6 3 7 2 8 1 9
REMARK H PARENT
REMARK Flexibility Score: inf
ROOT
ATOM      1  C   UNL     1     -13.122  -4.257  -4.882  1.00  0.00     0.006 C 
ENDROOT
BRANCH   1   2
ATOM      2  C   UNL     1     -14.124  -4.648  -5.977  1.00  0.00     0.053 C 
BRANCH   2   3
ATOM      3  C   UNL     1     -15.058  -3.514  -6.259  1.00  0.00     0.041 C 
ATOM      4  O   UNL     1     -15.089  -2.513  -5.496  1.00  0.00    -0.550 OA
ATOM      5  O   UNL     1     -15.859  -3.539  -7.395  1.00  0.00    -0.550 OA
ENDBRANCH   2   3
ENDBRANCH   1   2
BRANCH   1   6
ATOM      6  C   UNL     1     -13.250  -5.124  -3.617  1.00  0.00     0.000 C 
BRANCH   6   7
ATOM      7  C   UNL     1     -13.946  -4.439  -2.423  1.00  0.00    -0.000 C 
BRANCH   7   8
ATOM      8  C   UNL     1     -15.473  -4.619  -2.370  1.00  0.00    -0.003 C 
ATOM      9  C   UNL     1     -16.227  -3.291  -2.314  1.00  0.00     0.004 C 
ENDBRANCH   7   8
ENDBRANCH   6   7
ENDBRANCH   1   6
TORSDOF 5
ENDMDL
MODEL 5
REMARK VINA RESULT:    -3.239     15.899     17.673
REMARK INTER + INTRA:          -4.327
REMARK INTER:                  -4.135
REMARK INTRA:                  -0.191
REMARK UNBOUND:                -0.141
REMARK SMILES CCCCCCC(=O)[O-]
REMARK SMILES IDX 5 1 6 2 7 3 8 4 9 5 4 6 3 7 2 8 1 9
REMARK H PARENT
REMARK Flexibility Score: inf
ROOT
ATOM      1  C   UNL     1     -12.368  13.358   9.605  1.00  0.00     0.006 C 
ENDROOT
BRANCH   1   2
ATOM      2  C   UNL     1     -11.748  12.022  10.036  1.00  0.00     0.053 C 
BRANCH   2   3
ATOM      3  C   UNL     1     -12.481  10.880   9.408  1.00  0.00     0.041 C 
ATOM      4  O   UNL     1     -12.154   9.693   9.672  1.00  0.00    -0.550 OA
ATOM      5  O   UNL     1     -13.562  11.125   8.568  1.00  0.00    -0.550 OA
ENDBRANCH   2   3
ENDBRANCH   1   2
BRANCH   1   6
ATOM      6  C   UNL     1     -11.582  14.576  10.123  1.00  0.00     0.000 C 
BRANCH   6   7
ATOM      7  C   UNL     1     -10.289  14.898   9.346  1.00  0.00    -0.000 C 
BRANCH   7   8
ATOM      8  C   UNL     1      -8.985  14.644  10.122  1.00  0.00    -0.003 C 
ATOM      9  C   UNL     1      -8.420  13.243   9.894  1.00  0.00     0.004 C 
ENDBRANCH   7   8
ENDBRANCH   6   7
ENDBRANCH   1   6
TORSDOF 5
ENDMDL
MODEL 6
REMARK VINA RESULT:    -3.134     13.292     14.631
REMARK INTER + INTRA:          -4.191
REMARK INTER:                  -4.093
REMARK INTRA:                  -0.098
REMARK UNBOUND:                -0.141
REMARK SMILES CCCCCCC(=O)[O-]
REMARK SMILES IDX 5 1 6 2 7 3 8 4 9 5 4 6 3 7 2 8 1 9
REMARK H PARENT
REMARK Flexibility Score: inf
ROOT
ATOM      1  C   UNL     1     -15.686  10.953  -9.091  1.00  0.00     0.006 C 
ENDROOT
BRANCH   1   2
ATOM      2  C   UNL     1     -15.702   9.726 -10.011  1.00  0.00     0.053 C 
BRANCH   2   3
ATOM      3  C   UNL     1     -14.922   8.605  -9.401  1.00  0.00     0.041 C 
ATOM      4  O   UNL     1     -13.699   8.751  -9.141  1.00  0.00    -0.550 OA
ATOM      5  O   UNL     1     -15.558   7.414  -9.070  1.00  0.00    -0.550 OA
ENDBRANCH   2   3
ENDBRANCH   1   2
BRANCH   1   6
ATOM      6  C   UNL     1     -17.056  11.237  -8.450  1.00  0.00     0.000 C 
BRANCH   6   7
ATOM      7  C   UNL     1     -17.122  12.515  -7.588  1.00  0.00    -0.000 C 
BRANCH   7   8
ATOM      8  C   UNL     1     -16.843  12.302  -6.090  1.00  0.00    -0.003 C 
ATOM      9  C   UNL     1     -17.107  13.552  -5.251  1.00  0.00     0.004 C 
ENDBRANCH   7   8
ENDBRANCH   6   7
ENDBRANCH   1   6
TORSDOF 5
ENDMDL
MODEL 7
REMARK VINA RESULT:    -3.091      1.647      2.559
REMARK INTER + INTRA:          -4.135
REMARK INTER:                  -3.946
REMARK INTRA:                  -0.189
REMARK UNBOUND:                -0.141
REMARK SMILES CCCCCCC(=O)[O-]
REMARK SMILES IDX 5 1 6 2 7 3 8 4 9 5 4 6 3 7 2 8 1 9
REMARK H PARENT
REMARK Flexibility Score: inf
ROOT
ATOM      1  C   UNL     1     -16.786  -0.604  -1.738  1.00  0.00     0.006 C 
ENDROOT
BRANCH   1   2
ATOM      2  C   UNL     1     -16.904  -0.678  -0.210  1.00  0.00     0.053 C 
BRANCH   2   3
ATOM      3  C   UNL     1     -15.829   0.136   0.436  1.00  0.00     0.041 C 
ATOM      4  O   UNL     1     -15.602   1.311   0.047  1.00  0.00    -0.550 OA
ATOM      5  O   UNL     1     -15.109  -0.386   1.505  1.00  0.00    -0.550 OA
ENDBRANCH   2   3
ENDBRANCH   1   2
BRANCH   1   6
ATOM      6  C   UNL     1     -17.125  -1.937  -2.429  1.00  0.00     0.000 C 
BRANCH   6   7
ATOM      7  C   UNL     1     -16.292  -2.250  -3.689  1.00  0.00    -0.000 C 
BRANCH   7   8
ATOM      8  C   UNL     1     -15.455  -3.538  -3.610  1.00  0.00    -0.003 C 
ATOM      9  C   UNL     1     -15.236  -4.020  -2.177  1.00  0.00     0.004 C 
ENDBRANCH   7   8
ENDBRANCH   6   7
ENDBRANCH   1   6
TORSDOF 5
ENDMDL
MODEL 8
REMARK VINA RESULT:    -3.003      4.538      5.965
REMARK INTER + INTRA:          -4.022
REMARK INTER:                  -3.670
REMARK INTRA:                  -0.351
REMARK UNBOUND:                -0.141
REMARK SMILES CCCCCCC(=O)[O-]
REMARK SMILES IDX 5 1 6 2 7 3 8 4 9 5 4 6 3 7 2 8 1 9
REMARK H PARENT
REMARK Flexibility Score: inf
ROOT
ATOM      1  C   UNL     1     -14.899  -3.755  -2.098  1.00  0.00     0.006 C 
ENDROOT
BRANCH   1   2
ATOM      2  C   UNL     1     -16.327  -3.722  -2.658  1.00  0.00     0.053 C 
BRANCH   2   3
ATOM      3  C   UNL     1     -16.528  -2.504  -3.502  1.00  0.00     0.041 C 
ATOM      4  O   UNL     1     -16.729  -1.384  -2.963  1.00  0.00    -0.550 OA
ATOM      5  O   UNL     1     -16.442  -2.595  -4.887  1.00  0.00    -0.550 OA
ENDBRANCH   2   3
ENDBRANCH   1   2
BRANCH   1   6
ATOM      6  C   UNL     1     -14.217  -5.123  -2.280  1.00  0.00     0.000 C 
BRANCH   6   7
ATOM      7  C   UNL     1     -12.996  -5.125  -3.222  1.00  0.00    -0.000 C 
BRANCH   7   8
ATOM      8  C   UNL     1     -13.124  -4.212  -4.453  1.00  0.00    -0.003 C 
ATOM      9  C   UNL     1     -13.824  -4.893  -5.629  1.00  0.00     0.004 C 
ENDBRANCH   7   8
ENDBRANCH   6   7
ENDBRANCH   1   6
TORSDOF 5
ENDMDL
MODEL 9
REMARK VINA RESULT:    -2.781      3.504      5.136
REMARK INTER + INTRA:          -3.734
REMARK INTER:                  -3.568
REMARK INTRA:                  -0.166
REMARK UNBOUND:                -0.141
REMARK SMILES CCCCCCC(=O)[O-]
REMARK SMILES IDX 5 1 6 2 7 3 8 4 9 5 4 6 3 7 2 8 1 9
REMARK H PARENT
REMARK Flexibility Score: inf
ROOT
ATOM      1  C   UNL     1     -15.726  -2.305  -4.154  1.00  0.00     0.006 C 
ENDROOT
BRANCH   1   2
ATOM      2  C   UNL     1     -17.101  -2.055  -3.519  1.00  0.00     0.053 C 
BRANCH   2   3
ATOM      3  C   UNL     1     -16.962  -1.215  -2.289  1.00  0.00     0.041 C 
ATOM      4  O   UNL     1     -16.652  -1.745  -1.190  1.00  0.00    -0.550 OA
ATOM      5  O   UNL     1     -17.125   0.163  -2.366  1.00  0.00    -0.550 OA
ENDBRANCH   2   3
ENDBRANCH   1   2
BRANCH   1   6
ATOM      6  C   UNL     1     -15.411  -3.802  -4.325  1.00  0.00     0.000 C 
BRANCH   6   7
ATOM      7  C   UNL     1     -14.070  -4.112  -5.023  1.00  0.00    -0.000 C 
BRANCH   7   8
ATOM      8  C   UNL     1     -13.011  -4.777  -4.127  1.00  0.00    -0.003 C 
ATOM      9  C   UNL     1     -13.465  -4.923  -2.675  1.00  0.00     0.004 C 
ENDBRANCH   7   8
ENDBRANCH   6   7
ENDBRANCH   1   6
TORSDOF 5
ENDMDL
