MODEL 1
REMARK VINA RESULT:    -2.669      0.000      0.000
REMARK INTER + INTRA:          -6.626
REMARK INTER:                  -4.931
REMARK INTRA:                  -1.695
REMARK UNBOUND:                -1.695
REMARK SMILES CCCCCCCCCCCCCCCCO
REMARK SMILES IDX 9 1 8 2 7 3 6 4 5 5 4 6 3 7 2 8 1 9 10 10 11 11 12 12 13 13
REMARK SMILES IDX 14 14 15 15 16 16 17 17
REMARK H PARENT 17 18
REMARK Flexibility Score: inf
ROOT
ATOM      1  C   UNL     1     128.781 145.662 138.568  1.00  0.00     0.000 C 
ENDROOT
BRANCH   1   2
ATOM      2  C   UNL     1     129.913 146.266 137.718  1.00  0.00    -0.000 C 
BRANCH   2   3
ATOM      3  C   UNL     1     131.293 145.699 138.087  1.00  0.00    -0.000 C 
BRANCH   3   4
ATOM      4  C   UNL     1     132.062 146.605 139.063  1.00  0.00    -0.000 C 
BRANCH   4   5
ATOM      5  C   UNL     1     133.071 145.827 139.921  1.00  0.00    -0.000 C 
BRANCH   5   6
ATOM      6  C   UNL     1     133.589 144.557 139.222  1.00  0.00    -0.000 C 
BRANCH   6   7
ATOM      7  C   UNL     1     134.996 144.155 139.713  1.00  0.00    -0.000 C 
BRANCH   7   8
ATOM      8  C   UNL     1     135.756 143.253 138.725  1.00  0.00    -0.003 C 
ATOM      9  C   UNL     1     134.927 142.875 137.499  1.00  0.00     0.004 C 
ENDBRANCH   7   8
ENDBRANCH   6   7
ENDBRANCH   5   6
ENDBRANCH   4   5
ENDBRANCH   3   4
ENDBRANCH   2   3
ENDBRANCH   1   2
BRANCH   1  10
ATOM     10  C   UNL     1     129.214 144.387 139.308  1.00  0.00     0.000 C 
BRANCH  10  11
ATOM     11  C   UNL     1     128.296 143.191 139.012  1.00  0.00     0.000 C 
BRANCH  11  12
ATOM     12  C   UNL     1     129.049 142.103 138.230  1.00  0.00     0.000 C 
BRANCH  12  13
ATOM     13  C   UNL     1     130.548 142.061 138.569  1.00  0.00     0.000 C 
BRANCH  13  14
ATOM     14  C   UNL     1     131.437 142.021 137.317  1.00  0.00     0.002 C 
BRANCH  14  15
ATOM     15  C   UNL     1     131.572 140.588 136.785  1.00  0.00     0.028 C 
BRANCH  15  16
ATOM     16  C   UNL     1     131.394 140.543 135.268  1.00  0.00     0.156 C 
BRANCH  16  17
ATOM     17  O   UNL     1     130.222 141.224 134.916  1.00  0.00    -0.396 OA
ATOM     18  H   UNL     1     130.513 142.107 134.565  1.00  0.00     0.210 HD
ENDBRANCH  16  17
ENDBRANCH  15  16
ENDBRANCH  14  15
ENDBRANCH  13  14
ENDBRANCH  12  13
ENDBRANCH  11  12
ENDBRANCH  10  11
ENDBRANCH   1  10
TORSDOF 15
ENDMDL
MODEL 2
REMARK VINA RESULT:    -2.641      1.378      2.354
REMARK INTER + INTRA:          -6.575
REMARK INTER:                  -4.152
REMARK INTRA:                  -2.423
REMARK UNBOUND:                -1.695
REMARK SMILES CCCCCCCCCCCCCCCCO
REMARK SMILES IDX 9 1 8 2 7 3 6 4 5 5 4 6 3 7 2 8 1 9 10 10 11 11 12 12 13 13
REMARK SMILES IDX 14 14 15 15 16 16 17 17
REMARK H PARENT 17 18
REMARK Flexibility Score: inf
ROOT
ATOM      1  C   UNL     1     129.313 146.180 139.709  1.00  0.00     0.000 C 
ENDROOT
BRANCH   1   2
ATOM      2  C   UNL     1     129.641 145.960 138.221  1.00  0.00    -0.000 C 
BRANCH   2   3
ATOM      3  C   UNL     1     131.153 145.922 137.951  1.00  0.00    -0.000 C 
BRANCH   3   4
ATOM      4  C   UNL     1     131.966 146.630 139.048  1.00  0.00    -0.000 C 
BRANCH   4   5
ATOM      5  C   UNL     1     133.154 145.789 139.539  1.00  0.00    -0.000 C 
BRANCH   5   6
ATOM      6  C   UNL     1     132.834 144.285 139.590  1.00  0.00    -0.000 C 
BRANCH   6   7
ATOM      7  C   UNL     1     132.113 143.886 140.895  1.00  0.00    -0.000 C 
BRANCH   7   8
ATOM      8  C   UNL     1     132.562 144.703 142.119  1.00  0.00    -0.003 C 
ATOM      9  C   UNL     1     131.406 145.415 142.819  1.00  0.00     0.004 C 
ENDBRANCH   7   8
ENDBRANCH   6   7
ENDBRANCH   5   6
ENDBRANCH   4   5
ENDBRANCH   3   4
ENDBRANCH   2   3
ENDBRANCH   1   2
BRANCH   1  10
ATOM     10  C   UNL     1     128.631 144.961 140.349  1.00  0.00     0.000 C 
BRANCH  10  11
ATOM     11  C   UNL     1     128.163 143.931 139.309  1.00  0.00     0.000 C 
BRANCH  11  12
ATOM     12  C   UNL     1     128.837 142.571 139.544  1.00  0.00     0.000 C 
BRANCH  12  13
ATOM     13  C   UNL     1     129.321 141.917 138.240  1.00  0.00     0.000 C 
BRANCH  13  14
ATOM     14  C   UNL     1     130.799 141.502 138.298  1.00  0.00     0.002 C 
BRANCH  14  15
ATOM     15  C   UNL     1     131.539 141.926 137.024  1.00  0.00     0.028 C 
BRANCH  15  16
ATOM     16  C   UNL     1     131.406 140.869 135.928  1.00  0.00     0.156 C 
BRANCH  16  17
ATOM     17  O   UNL     1     130.470 141.298 134.980  1.00  0.00    -0.396 OA
ATOM     18  H   UNL     1     130.075 142.134 135.341  1.00  0.00     0.210 HD
ENDBRANCH  16  17
ENDBRANCH  15  16
ENDBRANCH  14  15
ENDBRANCH  13  14
ENDBRANCH  12  13
ENDBRANCH  11  12
ENDBRANCH  10  11
ENDBRANCH   1  10
TORSDOF 15
ENDMDL
MODEL 3
REMARK VINA RESULT:    -2.601      1.570      3.031
REMARK INTER + INTRA:          -6.502
REMARK INTER:                  -4.141
REMARK INTRA:                  -2.360
REMARK UNBOUND:                -1.695
REMARK SMILES CCCCCCCCCCCCCCCCO
REMARK SMILES IDX 9 1 8 2 7 3 6 4 5 5 4 6 3 7 2 8 1 9 10 10 11 11 12 12 13 13
REMARK SMILES IDX 14 14 15 15 16 16 17 17
REMARK H PARENT 17 18
REMARK Flexibility Score: inf
ROOT
ATOM      1  C   UNL     1     130.090 144.306 141.394  1.00  0.00     0.000 C 
ENDROOT
BRANCH   1   2
ATOM      2  C   UNL     1     129.415 145.628 141.802  1.00  0.00    -0.000 C 
BRANCH   2   3
ATOM      3  C   UNL     1     129.306 146.619 140.633  1.00  0.00    -0.000 C 
BRANCH   3   4
ATOM      4  C   UNL     1     128.468 146.066 139.467  1.00  0.00    -0.000 C 
BRANCH   4   5
ATOM      5  C   UNL     1     129.227 146.085 138.132  1.00  0.00    -0.000 C 
BRANCH   5   6
ATOM      6  C   UNL     1     130.717 146.430 138.302  1.00  0.00    -0.000 C 
BRANCH   6   7
ATOM      7  C   UNL     1     131.626 145.197 138.115  1.00  0.00    -0.000 C 
BRANCH   7   8
ATOM      8  C   UNL     1     132.819 145.160 139.087  1.00  0.00    -0.003 C 
ATOM      9  C   UNL     1     132.986 146.455 139.878  1.00  0.00     0.004 C 
ENDBRANCH   7   8
ENDBRANCH   6   7
ENDBRANCH   5   6
ENDBRANCH   4   5
ENDBRANCH   3   4
ENDBRANCH   2   3
ENDBRANCH   1   2
BRANCH   1  10
ATOM     10  C   UNL     1     129.284 143.072 141.828  1.00  0.00     0.000 C 
BRANCH  10  11
ATOM     11  C   UNL     1     129.351 141.931 140.801  1.00  0.00     0.000 C 
BRANCH  11  12
ATOM     12  C   UNL     1     128.461 142.235 139.586  1.00  0.00     0.000 C 
BRANCH  12  13
ATOM     13  C   UNL     1     129.256 142.315 138.274  1.00  0.00     0.000 C 
BRANCH  13  14
ATOM     14  C   UNL     1     130.533 141.461 138.303  1.00  0.00     0.002 C 
BRANCH  14  15
ATOM     15  C   UNL     1     131.457 141.815 137.130  1.00  0.00     0.028 C 
BRANCH  15  16
ATOM     16  C   UNL     1     131.320 140.803 135.994  1.00  0.00     0.156 C 
BRANCH  16  17
ATOM     17  O   UNL     1     130.414 141.288 135.044  1.00  0.00    -0.396 OA
ATOM     18  H   UNL     1     130.156 140.508 134.486  1.00  0.00     0.210 HD
ENDBRANCH  16  17
ENDBRANCH  15  16
ENDBRANCH  14  15
ENDBRANCH  13  14
ENDBRANCH  12  13
ENDBRANCH  11  12
ENDBRANCH  10  11
ENDBRANCH   1  10
TORSDOF 15
ENDMDL
MODEL 4
REMARK VINA RESULT:    -2.583      1.087      3.905
REMARK INTER + INTRA:          -6.469
REMARK INTER:                  -4.443
REMARK INTRA:                  -2.026
REMARK UNBOUND:                -1.695
REMARK SMILES CCCCCCCCCCCCCCCCO
REMARK SMILES IDX 9 1 8 2 7 3 6 4 5 5 4 6 3 7 2 8 1 9 10 10 11 11 12 12 13 13
REMARK SMILES IDX 14 14 15 15 16 16 17 17
REMARK H PARENT 17 18
REMARK Flexibility Score: inf
ROOT
ATOM      1  C   UNL     1     132.178 146.012 140.299  1.00  0.00     0.000 C 
ENDROOT
BRANCH   1   2
ATOM      2  C   UNL     1     131.480 146.967 139.314  1.00  0.00    -0.000 C 
BRANCH   2   3
ATOM      3  C   UNL     1     130.990 146.249 138.047  1.00  0.00    -0.000 C 
BRANCH   3   4
ATOM      4  C   UNL     1     129.456 146.252 137.923  1.00  0.00    -0.000 C 
BRANCH   4   5
ATOM      5  C   UNL     1     128.755 145.945 139.255  1.00  0.00    -0.000 C 
BRANCH   5   6
ATOM      6  C   UNL     1     128.392 144.457 139.405  1.00  0.00    -0.000 C 
BRANCH   6   7
ATOM      7  C   UNL     1     129.450 143.677 140.214  1.00  0.00    -0.000 C 
BRANCH   7   8
ATOM      8  C   UNL     1     129.770 142.290 139.630  1.00  0.00    -0.003 C 
ATOM      9  C   UNL     1     129.192 142.081 138.232  1.00  0.00     0.004 C 
ENDBRANCH   7   8
ENDBRANCH   6   7
ENDBRANCH   5   6
ENDBRANCH   4   5
ENDBRANCH   3   4
ENDBRANCH   2   3
ENDBRANCH   1   2
BRANCH   1  10
ATOM     10  C   UNL     1     133.462 145.399 139.718  1.00  0.00     0.000 C 
BRANCH  10  11
ATOM     11  C   UNL     1     133.383 143.869 139.597  1.00  0.00     0.000 C 
BRANCH  11  12
ATOM     12  C   UNL     1     133.757 143.413 138.178  1.00  0.00     0.000 C 
BRANCH  12  13
ATOM     13  C   UNL     1     132.526 143.186 137.285  1.00  0.00     0.000 C 
BRANCH  13  14
ATOM     14  C   UNL     1     132.824 142.270 136.089  1.00  0.00     0.002 C 
BRANCH  14  15
ATOM     15  C   UNL     1     132.450 140.816 136.404  1.00  0.00     0.028 C 
BRANCH  15  16
ATOM     16  C   UNL     1     131.284 140.344 135.537  1.00  0.00     0.156 C 
BRANCH  16  17
ATOM     17  O   UNL     1     130.721 141.443 134.876  1.00  0.00    -0.396 OA
ATOM     18  H   UNL     1     130.510 141.131 133.957  1.00  0.00     0.210 HD
ENDBRANCH  16  17
ENDBRANCH  15  16
ENDBRANCH  14  15
ENDBRANCH  13  14
ENDBRANCH  12  13
ENDBRANCH  11  12
ENDBRANCH  10  11
ENDBRANCH   1  10
TORSDOF 15
ENDMDL
MODEL 5
REMARK VINA RESULT:    -2.583      8.252     11.464
REMARK INTER + INTRA:          -6.469
REMARK INTER:                  -3.928
REMARK INTRA:                  -2.541
REMARK UNBOUND:                -1.695
REMARK SMILES CCCCCCCCCCCCCCCCO
REMARK SMILES IDX 9 1 8 2 7 3 6 4 5 5 4 6 3 7 2 8 1 9 10 10 11 11 12 12 13 13
REMARK SMILES IDX 14 14 15 15 16 16 17 17
REMARK H PARENT 17 18
REMARK Flexibility Score: inf
ROOT
ATOM      1  C   UNL     1     143.857 144.025 141.174  1.00  0.00     0.000 C 
ENDROOT
BRANCH   1   2
ATOM      2  C   UNL     1     144.944 144.232 140.103  1.00  0.00    -0.000 C 
BRANCH   2   3
ATOM      3  C   UNL     1     145.079 145.703 139.680  1.00  0.00    -0.000 C 
BRANCH   3   4
ATOM      4  C   UNL     1     144.089 146.090 138.568  1.00  0.00    -0.000 C 
BRANCH   4   5
ATOM      5  C   UNL     1     143.274 147.345 138.913  1.00  0.00    -0.000 C 
BRANCH   5   6
ATOM      6  C   UNL     1     143.477 147.802 140.368  1.00  0.00    -0.000 C 
BRANCH   6   7
ATOM      7  C   UNL     1     142.152 147.833 141.160  1.00  0.00    -0.000 C 
BRANCH   7   8
ATOM      8  C   UNL     1     141.070 146.905 140.582  1.00  0.00    -0.003 C 
ATOM      9  C   UNL     1     140.482 145.952 141.621  1.00  0.00     0.004 C 
ENDBRANCH   7   8
ENDBRANCH   6   7
ENDBRANCH   5   6
ENDBRANCH   4   5
ENDBRANCH   3   4
ENDBRANCH   2   3
ENDBRANCH   1   2
BRANCH   1  10
ATOM     10  C   UNL     1     142.699 143.146 140.676  1.00  0.00     0.000 C 
BRANCH  10  11
ATOM     11  C   UNL     1     143.065 142.341 139.419  1.00  0.00     0.000 C 
BRANCH  11  12
ATOM     12  C   UNL     1     142.081 142.634 138.276  1.00  0.00     0.000 C 
BRANCH  12  13
ATOM     13  C   UNL     1     141.050 143.713 138.644  1.00  0.00     0.000 C 
BRANCH  13  14
ATOM     14  C   UNL     1     140.884 144.772 137.544  1.00  0.00     0.002 C 
BRANCH  14  15
ATOM     15  C   UNL     1     139.428 145.247 137.454  1.00  0.00     0.028 C 
BRANCH  15  16
ATOM     16  C   UNL     1     138.752 144.720 136.188  1.00  0.00     0.156 C 
BRANCH  16  17
ATOM     17  O   UNL     1     139.066 145.557 135.111  1.00  0.00    -0.396 OA
ATOM     18  H   UNL     1     139.044 144.982 134.301  1.00  0.00     0.210 HD
ENDBRANCH  16  17
ENDBRANCH  15  16
ENDBRANCH  14  15
ENDBRANCH  13  14
ENDBRANCH  12  13
ENDBRANCH  11  12
ENDBRANCH  10  11
ENDBRANCH   1  10
TORSDOF 15
ENDMDL
MODEL 6
REMARK VINA RESULT:    -2.562      2.599      5.066
REMARK INTER + INTRA:          -6.429
REMARK INTER:                  -4.539
REMARK INTRA:                  -1.890
REMARK UNBOUND:                -1.695
REMARK SMILES CCCCCCCCCCCCCCCCO
REMARK SMILES IDX 9 1 8 2 7 3 6 4 5 5 4 6 3 7 2 8 1 9 10 10 11 11 12 12 13 13
REMARK SMILES IDX 14 14 15 15 16 16 17 17
REMARK H PARENT 17 18
REMARK Flexibility Score: inf
ROOT
ATOM      1  C   UNL     1     129.190 143.313 139.769  1.00  0.00     0.000 C 
ENDROOT
BRANCH   1   2
ATOM      2  C   UNL     1     129.177 141.928 139.098  1.00  0.00    -0.000 C 
BRANCH   2   3
ATOM      3  C   UNL     1     130.139 141.845 137.902  1.00  0.00    -0.000 C 
BRANCH   3   4
ATOM      4  C   UNL     1     131.526 142.429 138.219  1.00  0.00    -0.000 C 
BRANCH   4   5
ATOM      5  C   UNL     1     132.316 142.795 136.954  1.00  0.00    -0.000 C 
BRANCH   5   6
ATOM      6  C   UNL     1     133.278 141.679 136.511  1.00  0.00    -0.000 C 
BRANCH   6   7
ATOM      7  C   UNL     1     132.837 141.019 135.188  1.00  0.00    -0.000 C 
BRANCH   7   8
ATOM      8  C   UNL     1     131.938 139.786 135.386  1.00  0.00    -0.003 C 
ATOM      9  C   UNL     1     132.273 138.999 136.651  1.00  0.00     0.004 C 
ENDBRANCH   7   8
ENDBRANCH   6   7
ENDBRANCH   5   6
ENDBRANCH   4   5
ENDBRANCH   3   4
ENDBRANCH   2   3
ENDBRANCH   1   2
BRANCH   1  10
ATOM     10  C   UNL     1     128.333 144.343 139.016  1.00  0.00     0.000 C 
BRANCH  10  11
ATOM     11  C   UNL     1     128.887 145.771 139.133  1.00  0.00     0.000 C 
BRANCH  11  12
ATOM     12  C   UNL     1     129.487 146.237 137.797  1.00  0.00     0.000 C 
BRANCH  12  13
ATOM     13  C   UNL     1     131.022 146.154 137.776  1.00  0.00     0.000 C 
BRANCH  13  14
ATOM     14  C   UNL     1     131.660 146.673 139.073  1.00  0.00     0.002 C 
BRANCH  14  15
ATOM     15  C   UNL     1     132.619 145.633 139.667  1.00  0.00     0.028 C 
BRANCH  15  16
ATOM     16  C   UNL     1     133.955 146.269 140.049  1.00  0.00     0.156 C 
BRANCH  16  17
ATOM     17  O   UNL     1     133.906 147.645 139.796  1.00  0.00    -0.396 OA
ATOM     18  H   UNL     1     134.823 147.988 139.964  1.00  0.00     0.210 HD
ENDBRANCH  16  17
ENDBRANCH  15  16
ENDBRANCH  14  15
ENDBRANCH  13  14
ENDBRANCH  12  13
ENDBRANCH  11  12
ENDBRANCH  10  11
ENDBRANCH   1  10
TORSDOF 15
ENDMDL
MODEL 7
REMARK VINA RESULT:    -2.558      1.248      4.102
REMARK INTER + INTRA:          -6.422
REMARK INTER:                  -4.195
REMARK INTRA:                  -2.226
REMARK UNBOUND:                -1.695
REMARK SMILES CCCCCCCCCCCCCCCCO
REMARK SMILES IDX 9 1 8 2 7 3 6 4 5 5 4 6 3 7 2 8 1 9 10 10 11 11 12 12 13 13
REMARK SMILES IDX 14 14 15 15 16 16 17 17
REMARK H PARENT 17 18
REMARK Flexibility Score: inf
ROOT
ATOM      1  C   UNL     1     134.397 144.731 140.492  1.00  0.00     0.000 C 
ENDROOT
BRANCH   1   2
ATOM      2  C   UNL     1     133.966 146.146 140.067  1.00  0.00    -0.000 C 
BRANCH   2   3
ATOM      3  C   UNL     1     132.723 146.636 140.825  1.00  0.00    -0.000 C 
BRANCH   3   4
ATOM      4  C   UNL     1     131.669 147.258 139.893  1.00  0.00    -0.000 C 
BRANCH   4   5
ATOM      5  C   UNL     1     131.540 146.504 138.561  1.00  0.00    -0.000 C 
BRANCH   5   6
ATOM      6  C   UNL     1     130.197 145.764 138.425  1.00  0.00    -0.000 C 
BRANCH   6   7
ATOM      7  C   UNL     1     129.248 146.058 139.606  1.00  0.00    -0.000 C 
BRANCH   7   8
ATOM      8  C   UNL     1     128.836 144.801 140.391  1.00  0.00    -0.003 C 
ATOM      9  C   UNL     1     130.006 144.137 141.113  1.00  0.00     0.004 C 
ENDBRANCH   7   8
ENDBRANCH   6   7
ENDBRANCH   5   6
ENDBRANCH   4   5
ENDBRANCH   3   4
ENDBRANCH   2   3
ENDBRANCH   1   2
BRANCH   1  10
ATOM     10  C   UNL     1     133.606 143.630 139.769  1.00  0.00     0.000 C 
BRANCH  10  11
ATOM     11  C   UNL     1     133.901 143.584 138.261  1.00  0.00     0.000 C 
BRANCH  11  12
ATOM     12  C   UNL     1     132.654 143.155 137.473  1.00  0.00     0.000 C 
BRANCH  12  13
ATOM     13  C   UNL     1     131.642 142.387 138.337  1.00  0.00     0.000 C 
BRANCH  13  14
ATOM     14  C   UNL     1     130.926 141.272 137.560  1.00  0.00     0.002 C 
BRANCH  14  15
ATOM     15  C   UNL     1     131.917 140.479 136.699  1.00  0.00     0.028 C 
BRANCH  15  16
ATOM     16  C   UNL     1     131.396 140.307 135.273  1.00  0.00     0.156 C 
BRANCH  16  17
ATOM     17  O   UNL     1     130.490 141.333 134.981  1.00  0.00    -0.396 OA
ATOM     18  H   UNL     1     130.180 141.170 134.052  1.00  0.00     0.210 HD
ENDBRANCH  16  17
ENDBRANCH  15  16
ENDBRANCH  14  15
ENDBRANCH  13  14
ENDBRANCH  12  13
ENDBRANCH  11  12
ENDBRANCH  10  11
ENDBRANCH   1  10
TORSDOF 15
ENDMDL
MODEL 8
REMARK VINA RESULT:    -2.543      2.322      5.635
REMARK INTER + INTRA:          -6.394
REMARK INTER:                  -4.233
REMARK INTRA:                  -2.161
REMARK UNBOUND:                -1.695
REMARK SMILES CCCCCCCCCCCCCCCCO
REMARK SMILES IDX 9 1 8 2 7 3 6 4 5 5 4 6 3 7 2 8 1 9 10 10 11 11 12 12 13 13
REMARK SMILES IDX 14 14 15 15 16 16 17 17
REMARK H PARENT 17 18
REMARK Flexibility Score: inf
ROOT
ATOM      1  C   UNL     1     132.272 144.672 139.345  1.00  0.00     0.000 C 
ENDROOT
BRANCH   1   2
ATOM      2  C   UNL     1     132.356 144.046 137.941  1.00  0.00    -0.000 C 
BRANCH   2   3
ATOM      3  C   UNL     1     131.690 142.663 137.873  1.00  0.00    -0.000 C 
BRANCH   3   4
ATOM      4  C   UNL     1     130.527 142.518 138.868  1.00  0.00    -0.000 C 
BRANCH   4   5
ATOM      5  C   UNL     1     129.194 142.193 138.177  1.00  0.00    -0.000 C 
BRANCH   5   6
ATOM      6  C   UNL     1     128.027 142.061 139.171  1.00  0.00    -0.000 C 
BRANCH   6   7
ATOM      7  C   UNL     1     128.231 142.932 140.429  1.00  0.00    -0.000 C 
BRANCH   7   8
ATOM      8  C   UNL     1     127.918 142.195 141.743  1.00  0.00    -0.003 C 
ATOM      9  C   UNL     1     128.874 141.037 142.022  1.00  0.00     0.004 C 
ENDBRANCH   7   8
ENDBRANCH   6   7
ENDBRANCH   5   6
ENDBRANCH   4   5
ENDBRANCH   3   4
ENDBRANCH   2   3
ENDBRANCH   1   2
BRANCH   1  10
ATOM     10  C   UNL     1     132.573 146.179 139.339  1.00  0.00     0.000 C 
BRANCH  10  11
ATOM     11  C   UNL     1     131.379 147.022 139.812  1.00  0.00     0.000 C 
BRANCH  11  12
ATOM     12  C   UNL     1     130.218 146.122 140.262  1.00  0.00     0.000 C 
BRANCH  12  13
ATOM     13  C   UNL     1     128.909 146.426 139.516  1.00  0.00     0.000 C 
BRANCH  13  14
ATOM     14  C   UNL     1     128.862 145.788 138.120  1.00  0.00     0.002 C 
BRANCH  14  15
ATOM     15  C   UNL     1     128.288 146.767 137.087  1.00  0.00     0.028 C 
BRANCH  15  16
ATOM     16  C   UNL     1     129.400 147.422 136.269  1.00  0.00     0.156 C 
BRANCH  16  17
ATOM     17  O   UNL     1     130.571 146.662 136.382  1.00  0.00    -0.396 OA
ATOM     18  H   UNL     1     131.219 147.060 135.744  1.00  0.00     0.210 HD
ENDBRANCH  16  17
ENDBRANCH  15  16
ENDBRANCH  14  15
ENDBRANCH  13  14
ENDBRANCH  12  13
ENDBRANCH  11  12
ENDBRANCH  10  11
ENDBRANCH   1  10
TORSDOF 15
ENDMDL
MODEL 9
REMARK VINA RESULT:    -2.535      2.622      5.383
REMARK INTER + INTRA:          -6.380
REMARK INTER:                  -3.834
REMARK INTRA:                  -2.546
REMARK UNBOUND:                -1.695
REMARK SMILES CCCCCCCCCCCCCCCCO
REMARK SMILES IDX 9 1 8 2 7 3 6 4 5 5 4 6 3 7 2 8 1 9 10 10 11 11 12 12 13 13
REMARK SMILES IDX 14 14 15 15 16 16 17 17
REMARK H PARENT 17 18
REMARK Flexibility Score: inf
ROOT
ATOM      1  C   UNL     1     131.599 140.961 140.136  1.00  0.00     0.000 C 
ENDROOT
BRANCH   1   2
ATOM      2  C   UNL     1     132.467 139.858 139.504  1.00  0.00    -0.000 C 
BRANCH   2   3
ATOM      3  C   UNL     1     131.806 139.224 138.270  1.00  0.00    -0.000 C 
BRANCH   3   4
ATOM      4  C   UNL     1     132.604 139.474 136.979  1.00  0.00    -0.000 C 
BRANCH   4   5
ATOM      5  C   UNL     1     131.791 140.231 135.918  1.00  0.00    -0.000 C 
BRANCH   5   6
ATOM      6  C   UNL     1     131.977 141.756 136.005  1.00  0.00    -0.000 C 
BRANCH   6   7
ATOM      7  C   UNL     1     133.328 142.144 136.642  1.00  0.00    -0.000 C 
BRANCH   7   8
ATOM      8  C   UNL     1     133.218 143.281 137.673  1.00  0.00    -0.003 C 
ATOM      9  C   UNL     1     134.304 143.223 138.745  1.00  0.00     0.004 C 
ENDBRANCH   7   8
ENDBRANCH   6   7
ENDBRANCH   5   6
ENDBRANCH   4   5
ENDBRANCH   3   4
ENDBRANCH   2   3
ENDBRANCH   1   2
BRANCH   1  10
ATOM     10  C   UNL     1     130.298 141.208 139.357  1.00  0.00     0.000 C 
BRANCH  10  11
ATOM     11  C   UNL     1     130.008 142.703 139.150  1.00  0.00     0.000 C 
BRANCH  11  12
ATOM     12  C   UNL     1     130.478 143.524 140.360  1.00  0.00     0.000 C 
BRANCH  12  13
ATOM     13  C   UNL     1     130.407 145.039 140.112  1.00  0.00     0.000 C 
BRANCH  13  14
ATOM     14  C   UNL     1     130.427 145.396 138.618  1.00  0.00     0.002 C 
BRANCH  14  15
ATOM     15  C   UNL     1     131.375 146.572 138.347  1.00  0.00     0.028 C 
BRANCH  15  16
ATOM     16  C   UNL     1     132.514 146.610 139.365  1.00  0.00     0.156 C 
BRANCH  16  17
ATOM     17  O   UNL     1     132.819 147.941 139.673  1.00  0.00    -0.396 OA
ATOM     18  H   UNL     1     132.791 148.007 140.664  1.00  0.00     0.210 HD
ENDBRANCH  16  17
ENDBRANCH  15  16
ENDBRANCH  14  15
ENDBRANCH  13  14
ENDBRANCH  12  13
ENDBRANCH  11  12
ENDBRANCH  10  11
ENDBRANCH   1  10
TORSDOF 15
ENDMDL
