MODEL 1
REMARK VINA RESULT:    -2.940      0.000      0.000
REMARK INTER + INTRA:          -3.462
REMARK INTER:                  -3.456
REMARK INTRA:                  -0.006
REMARK UNBOUND:                -0.006
REMARK SMILES [NH3+][C@H](CO)C(=O)[O-]
REMARK SMILES IDX 3 1 2 2 1 3 5 7 6 8 7 9 4 10
REMARK H PARENT 1 4 1 5 1 6 4 11
REMARK Flexibility Score: inf
ROOT
ATOM      1  C   UNL     1      44.347   5.803   7.038  1.00  0.00     0.227 C 
ENDROOT
BRANCH   1   2
ATOM      2  C   UNL     1      43.905   6.988   7.912  1.00  0.00     0.253 C 
BRANCH   2   3
ATOM      3  N   UNL     1      42.888   7.802   7.232  1.00  0.00    -0.348 N 
ATOM      4  H   UNL     1      43.252   8.177   6.326  1.00  0.00     0.345 HD
ATOM      5  H   UNL     1      42.039   7.221   7.045  1.00  0.00     0.345 HD
ATOM      6  H   UNL     1      42.608   8.603   7.845  1.00  0.00     0.345 HD
ENDBRANCH   2   3
BRANCH   2   7
ATOM      7  C   UNL     1      43.407   6.511   9.251  1.00  0.00     0.102 C 
ATOM      8  O   UNL     1      42.253   6.022   9.371  1.00  0.00    -0.544 OA
ATOM      9  O   UNL     1      44.243   6.572  10.360  1.00  0.00    -0.544 OA
ENDBRANCH   2   7
ENDBRANCH   1   2
BRANCH   1  10
ATOM     10  O   UNL     1      44.310   6.145   5.679  1.00  0.00    -0.390 OA
ATOM     11  H   UNL     1      43.797   6.993   5.623  1.00  0.00     0.210 HD
ENDBRANCH   1  10
TORSDOF 4
ENDMDL
MODEL 2
REMARK VINA RESULT:    -2.926     12.909     13.217
REMARK INTER + INTRA:          -3.446
REMARK INTER:                  -3.211
REMARK INTRA:                  -0.235
REMARK UNBOUND:                -0.006
REMARK SMILES [NH3+][C@H](CO)C(=O)[O-]
REMARK SMILES IDX 3 1 2 2 1 3 5 7 6 8 7 9 4 10
REMARK H PARENT 1 4 1 5 1 6 4 11
REMARK Flexibility Score: inf
ROOT
ATOM      1  C   UNL     1      33.210   6.925  -0.791  1.00  0.00     0.227 C 
ENDROOT
BRANCH   1   2
ATOM      2  C   UNL     1      32.621   6.295   0.482  1.00  0.00     0.253 C 
BRANCH   2   3
ATOM      3  N   UNL     1      33.573   5.367   1.107  1.00  0.00    -0.348 N 
ATOM      4  H   UNL     1      33.223   5.041   2.037  1.00  0.00     0.345 HD
ATOM      5  H   UNL     1      33.716   4.537   0.486  1.00  0.00     0.345 HD
ATOM      6  H   UNL     1      34.497   5.842   1.236  1.00  0.00     0.345 HD
ENDBRANCH   2   3
BRANCH   2   7
ATOM      7  C   UNL     1      32.188   7.360   1.456  1.00  0.00     0.102 C 
ATOM      8  O   UNL     1      32.277   7.170   2.697  1.00  0.00    -0.544 OA
ATOM      9  O   UNL     1      31.722   8.581   0.982  1.00  0.00    -0.544 OA
ENDBRANCH   2   7
ENDBRANCH   1   2
BRANCH   1  10
ATOM     10  O   UNL     1      34.268   7.788  -0.476  1.00  0.00    -0.390 OA
ATOM     11  H   UNL     1      33.850   8.644  -0.196  1.00  0.00     0.210 HD
ENDBRANCH   1  10
TORSDOF 4
ENDMDL
MODEL 3
REMARK VINA RESULT:    -2.921      1.897      2.299
REMARK INTER + INTRA:          -3.440
REMARK INTER:                  -3.217
REMARK INTRA:                  -0.223
REMARK UNBOUND:                -0.006
REMARK SMILES [NH3+][C@H](CO)C(=O)[O-]
REMARK SMILES IDX 3 1 2 2 1 3 5 7 6 8 7 9 4 10
REMARK H PARENT 1 4 1 5 1 6 4 11
REMARK Flexibility Score: inf
ROOT
ATOM      1  C   UNL     1      42.291   8.136   7.959  1.00  0.00     0.227 C 
ENDROOT
BRANCH   1   2
ATOM      2  C   UNL     1      42.382   6.871   8.829  1.00  0.00     0.253 C 
BRANCH   2   3
ATOM      3  N   UNL     1      41.727   5.729   8.178  1.00  0.00    -0.348 N 
ATOM      4  H   UNL     1      41.394   5.983   7.219  1.00  0.00     0.345 HD
ATOM      5  H   UNL     1      42.398   4.931   8.106  1.00  0.00     0.345 HD
ATOM      6  H   UNL     1      40.908   5.417   8.751  1.00  0.00     0.345 HD
ENDBRANCH   2   3
BRANCH   2   7
ATOM      7  C   UNL     1      43.816   6.552   9.163  1.00  0.00     0.102 C 
ATOM      8  O   UNL     1      44.219   6.580  10.356  1.00  0.00    -0.544 OA
ATOM      9  O   UNL     1      44.695   6.183   8.153  1.00  0.00    -0.544 OA
ENDBRANCH   2   7
ENDBRANCH   1   2
BRANCH   1  10
ATOM     10  O   UNL     1      43.006   7.971   6.765  1.00  0.00    -0.390 OA
ATOM     11  H   UNL     1      43.288   7.020   6.743  1.00  0.00     0.210 HD
ENDBRANCH   1  10
TORSDOF 4
ENDMDL
MODEL 4
REMARK VINA RESULT:    -2.863     13.278     13.786
REMARK INTER + INTRA:          -3.372
REMARK INTER:                  -3.009
REMARK INTRA:                  -0.363
REMARK UNBOUND:                -0.006
REMARK SMILES [NH3+][C@H](CO)C(=O)[O-]
REMARK SMILES IDX 3 1 2 2 1 3 5 7 6 8 7 9 4 10
REMARK H PARENT 1 4 1 5 1 6 4 11
REMARK Flexibility Score: inf
ROOT
ATOM      1  C   UNL     1      32.433   5.562   2.086  1.00  0.00     0.227 C 
ENDROOT
BRANCH   1   2
ATOM      2  C   UNL     1      31.763   6.121   0.820  1.00  0.00     0.253 C 
BRANCH   2   3
ATOM      3  N   UNL     1      30.299   6.044   0.913  1.00  0.00    -0.348 N 
ATOM      4  H   UNL     1      30.002   5.655   1.837  1.00  0.00     0.345 HD
ATOM      5  H   UNL     1      29.886   6.997   0.794  1.00  0.00     0.345 HD
ATOM      6  H   UNL     1      29.928   5.430   0.150  1.00  0.00     0.345 HD
ENDBRANCH   2   3
BRANCH   2   7
ATOM      7  C   UNL     1      32.212   7.535   0.555  1.00  0.00     0.102 C 
ATOM      8  O   UNL     1      33.164   7.769  -0.236  1.00  0.00    -0.544 OA
ATOM      9  O   UNL     1      31.546   8.596   1.157  1.00  0.00    -0.544 OA
ENDBRANCH   2   7
ENDBRANCH   1   2
BRANCH   1  10
ATOM     10  O   UNL     1      33.122   6.572   2.771  1.00  0.00    -0.390 OA
ATOM     11  H   UNL     1      32.731   7.431   2.461  1.00  0.00     0.210 HD
ENDBRANCH   1  10
TORSDOF 4
ENDMDL
MODEL 5
REMARK VINA RESULT:    -2.849      1.242      2.687
REMARK INTER + INTRA:          -3.355
REMARK INTER:                  -2.974
REMARK INTRA:                  -0.381
REMARK UNBOUND:                -0.006
REMARK SMILES [NH3+][C@H](CO)C(=O)[O-]
REMARK SMILES IDX 3 1 2 2 1 3 5 7 6 8 7 9 4 10
REMARK H PARENT 1 4 1 5 1 6 4 11
REMARK Flexibility Score: inf
ROOT
ATOM      1  C   UNL     1      43.307   7.418   9.527  1.00  0.00     0.227 C 
ENDROOT
BRANCH   1   2
ATOM      2  C   UNL     1      42.839   6.904   8.156  1.00  0.00     0.253 C 
BRANCH   2   3
ATOM      3  N   UNL     1      42.893   7.966   7.142  1.00  0.00    -0.348 N 
ATOM      4  H   UNL     1      43.013   7.564   6.184  1.00  0.00     0.345 HD
ATOM      5  H   UNL     1      42.011   8.526   7.170  1.00  0.00     0.345 HD
ATOM      6  H   UNL     1      43.695   8.608   7.345  1.00  0.00     0.345 HD
ENDBRANCH   2   3
BRANCH   2   7
ATOM      7  C   UNL     1      43.647   5.707   7.727  1.00  0.00     0.102 C 
ATOM      8  O   UNL     1      43.213   4.540   7.911  1.00  0.00    -0.544 OA
ATOM      9  O   UNL     1      44.866   5.890   7.086  1.00  0.00    -0.544 OA
ENDBRANCH   2   7
ENDBRANCH   1   2
BRANCH   1  10
ATOM     10  O   UNL     1      44.260   6.554  10.084  1.00  0.00    -0.390 OA
ATOM     11  H   UNL     1      44.017   5.642   9.775  1.00  0.00     0.210 HD
ENDBRANCH   1  10
TORSDOF 4
ENDMDL
MODEL 6
REMARK VINA RESULT:    -2.836     12.768     13.288
REMARK INTER + INTRA:          -3.340
REMARK INTER:                  -3.110
REMARK INTRA:                  -0.229
REMARK UNBOUND:                -0.006
REMARK SMILES [NH3+][C@H](CO)C(=O)[O-]
REMARK SMILES IDX 3 1 2 2 1 3 5 7 6 8 7 9 4 10
REMARK H PARENT 1 4 1 5 1 6 4 11
REMARK Flexibility Score: inf
ROOT
ATOM      1  C   UNL     1      33.722   5.203  -0.594  1.00  0.00     0.227 C 
ENDROOT
BRANCH   1   2
ATOM      2  C   UNL     1      32.776   5.913   0.387  1.00  0.00     0.253 C 
BRANCH   2   3
ATOM      3  N   UNL     1      33.190   5.694   1.780  1.00  0.00    -0.348 N 
ATOM      4  H   UNL     1      32.450   6.016   2.446  1.00  0.00     0.345 HD
ATOM      5  H   UNL     1      33.373   4.677   1.938  1.00  0.00     0.345 HD
ATOM      6  H   UNL     1      34.074   6.220   1.972  1.00  0.00     0.345 HD
ENDBRANCH   2   3
BRANCH   2   7
ATOM      7  C   UNL     1      32.686   7.384   0.076  1.00  0.00     0.102 C 
ATOM      8  O   UNL     1      32.045   8.163   0.830  1.00  0.00    -0.544 OA
ATOM      9  O   UNL     1      33.348   7.897  -1.033  1.00  0.00    -0.544 OA
ENDBRANCH   2   7
ENDBRANCH   1   2
BRANCH   1  10
ATOM     10  O   UNL     1      35.051   5.591  -0.373  1.00  0.00    -0.390 OA
ATOM     11  H   UNL     1      35.010   6.506   0.010  1.00  0.00     0.210 HD
ENDBRANCH   1  10
TORSDOF 4
ENDMDL
MODEL 7
REMARK VINA RESULT:    -2.830     12.852     13.300
REMARK INTER + INTRA:          -3.333
REMARK INTER:                  -3.107
REMARK INTRA:                  -0.226
REMARK UNBOUND:                -0.006
REMARK SMILES [NH3+][C@H](CO)C(=O)[O-]
REMARK SMILES IDX 3 1 2 2 1 3 5 7 6 8 7 9 4 10
REMARK H PARENT 1 4 1 5 1 6 4 11
REMARK Flexibility Score: inf
ROOT
ATOM      1  C   UNL     1      32.454   5.225   1.126  1.00  0.00     0.227 C 
ENDROOT
BRANCH   1   2
ATOM      2  C   UNL     1      32.054   6.456   1.957  1.00  0.00     0.253 C 
BRANCH   2   3
ATOM      3  N   UNL     1      32.992   6.679   3.065  1.00  0.00    -0.348 N 
ATOM      4  H   UNL     1      33.965   6.411   2.792  1.00  0.00     0.345 HD
ATOM      5  H   UNL     1      32.980   7.689   3.339  1.00  0.00     0.345 HD
ATOM      6  H   UNL     1      32.701   6.111   3.894  1.00  0.00     0.345 HD
ENDBRANCH   2   3
BRANCH   2   7
ATOM      7  C   UNL     1      31.948   7.680   1.084  1.00  0.00     0.102 C 
ATOM      8  O   UNL     1      31.148   8.608   1.375  1.00  0.00    -0.544 OA
ATOM      9  O   UNL     1      32.767   7.806  -0.031  1.00  0.00    -0.544 OA
ENDBRANCH   2   7
ENDBRANCH   1   2
BRANCH   1  10
ATOM     10  O   UNL     1      33.825   5.247   0.835  1.00  0.00    -0.390 OA
ATOM     11  H   UNL     1      34.260   4.670   1.515  1.00  0.00     0.210 HD
ENDBRANCH   1  10
TORSDOF 4
ENDMDL
MODEL 8
REMARK VINA RESULT:    -2.812     14.892     15.327
REMARK INTER + INTRA:          -3.311
REMARK INTER:                  -3.063
REMARK INTRA:                  -0.249
REMARK UNBOUND:                -0.006
REMARK SMILES [NH3+][C@H](CO)C(=O)[O-]
REMARK SMILES IDX 3 1 2 2 1 3 5 7 6 8 7 9 4 10
REMARK H PARENT 1 4 1 5 1 6 4 11
REMARK Flexibility Score: inf
ROOT
ATOM      1  C   UNL     1      28.320   7.822   2.507  1.00  0.00     0.227 C 
ENDROOT
BRANCH   1   2
ATOM      2  C   UNL     1      29.795   8.146   2.800  1.00  0.00     0.253 C 
BRANCH   2   3
ATOM      3  N   UNL     1      30.237   7.527   4.056  1.00  0.00    -0.348 N 
ATOM      4  H   UNL     1      29.840   6.564   4.160  1.00  0.00     0.345 HD
ATOM      5  H   UNL     1      31.281   7.470   4.074  1.00  0.00     0.345 HD
ATOM      6  H   UNL     1      29.927   8.112   4.867  1.00  0.00     0.345 HD
ENDBRANCH   2   3
BRANCH   2   7
ATOM      7  C   UNL     1      30.675   7.725   1.652  1.00  0.00     0.102 C 
ATOM      8  O   UNL     1      30.549   6.585   1.131  1.00  0.00    -0.544 OA
ATOM      9  O   UNL     1      31.607   8.615   1.134  1.00  0.00    -0.544 OA
ENDBRANCH   2   7
ENDBRANCH   1   2
BRANCH   1  10
ATOM     10  O   UNL     1      27.991   8.156   1.185  1.00  0.00    -0.390 OA
ATOM     11  H   UNL     1      27.573   9.055   1.225  1.00  0.00     0.210 HD
ENDBRANCH   1  10
TORSDOF 4
ENDMDL
MODEL 9
REMARK VINA RESULT:    -2.767      2.052      2.605
REMARK INTER + INTRA:          -3.259
REMARK INTER:                  -2.875
REMARK INTRA:                  -0.383
REMARK UNBOUND:                -0.006
REMARK SMILES [NH3+][C@H](CO)C(=O)[O-]
REMARK SMILES IDX 3 1 2 2 1 3 5 7 6 8 7 9 4 10
REMARK H PARENT 1 4 1 5 1 6 4 11
REMARK Flexibility Score: inf
ROOT
ATOM      1  C   UNL     1      43.298   8.100   8.137  1.00  0.00     0.227 C 
ENDROOT
BRANCH   1   2
ATOM      2  C   UNL     1      44.039   6.859   8.662  1.00  0.00     0.253 C 
BRANCH   2   3
ATOM      3  N   UNL     1      43.495   6.420   9.953  1.00  0.00    -0.348 N 
ATOM      4  H   UNL     1      42.950   7.187  10.411  1.00  0.00     0.345 HD
ATOM      5  H   UNL     1      42.870   5.594   9.811  1.00  0.00     0.345 HD
ATOM      6  H   UNL     1      44.278   6.133  10.587  1.00  0.00     0.345 HD
ENDBRANCH   2   3
BRANCH   2   7
ATOM      7  C   UNL     1      43.997   5.742   7.651  1.00  0.00     0.102 C 
ATOM      8  O   UNL     1      43.073   4.887   7.677  1.00  0.00    -0.544 OA
ATOM      9  O   UNL     1      44.962   5.677   6.654  1.00  0.00    -0.544 OA
ENDBRANCH   2   7
ENDBRANCH   1   2
BRANCH   1  10
ATOM     10  O   UNL     1      42.982   7.954   6.779  1.00  0.00    -0.390 OA
ATOM     11  H   UNL     1      42.242   7.294   6.739  1.00  0.00     0.210 HD
ENDBRANCH   1  10
TORSDOF 4
ENDMDL
