MODEL 1
REMARK VINA RESULT:    -6.134      0.000      0.000
REMARK INTER + INTRA:          -7.675
REMARK INTER:                  -7.389
REMARK INTRA:                  -0.286
REMARK UNBOUND:                -0.286
REMARK SMILES O=c1c(O)c(-c2ccc(O)c(O)c2)oc2cc(O)cc(O)c12
REMARK SMILES IDX 5 1 3 2 2 3 1 4 22 5 20 6 19 7 17 8 16 9 15 10 14 11 6 12
REMARK SMILES IDX 7 13 8 14 9 15 13 16 11 17 10 18 12 20 4 22 21 24 18 26
REMARK H PARENT 10 19 12 21 4 23 21 25 18 27
REMARK Flexibility Score: inf
ROOT
ATOM      1  C   UNL     1     131.968 131.437 142.426  1.00  0.00     0.180 A 
ATOM      2  C   UNL     1     131.109 132.309 141.734  1.00  0.00     0.208 A 
ATOM      3  C   UNL     1     131.290 133.695 141.872  1.00  0.00     0.238 A 
ATOM      4  O   UNL     1     130.552 134.469 141.209  1.00  0.00    -0.285 OA
ATOM      5  C   UNL     1     132.318 134.191 142.710  1.00  0.00     0.111 A 
ATOM      6  C   UNL     1     132.568 135.575 142.953  1.00  0.00     0.134 A 
ATOM      7  C   UNL     1     133.692 135.954 143.696  1.00  0.00     0.093 A 
ATOM      8  C   UNL     1     134.539 135.000 144.257  1.00  0.00     0.123 A 
ATOM      9  C   UNL     1     134.272 133.642 144.076  1.00  0.00     0.094 A 
ATOM     10  C   UNL     1     133.177 133.233 143.309  1.00  0.00     0.146 A 
ATOM     11  O   UNL     1     132.964 131.933 143.151  1.00  0.00    -0.452 OA
ENDROOT
BRANCH   1  12
ATOM     12  C   UNL     1     131.823 129.965 142.351  1.00  0.00     0.025 A 
ATOM     13  C   UNL     1     132.336 129.277 141.239  1.00  0.00     0.016 A 
ATOM     14  C   UNL     1     132.228 127.886 141.158  1.00  0.00     0.051 A 
ATOM     15  C   UNL     1     131.624 127.162 142.189  1.00  0.00     0.157 A 
ATOM     16  C   UNL     1     131.234 129.233 143.396  1.00  0.00     0.062 A 
ATOM     17  C   UNL     1     131.127 127.837 143.317  1.00  0.00     0.158 A 
BRANCH  15  18
ATOM     18  O   UNL     1     131.529 125.775 142.078  1.00  0.00    -0.504 OA
ATOM     19  H   UNL     1     130.669 125.314 141.805  1.00  0.00     0.293 HD
ENDBRANCH  15  18
BRANCH  17  20
ATOM     20  O   UNL     1     130.536 127.120 144.356  1.00  0.00    -0.504 OA
ATOM     21  H   UNL     1     131.049 126.418 144.877  1.00  0.00     0.293 HD
ENDBRANCH  17  20
ENDBRANCH   1  12
BRANCH   2  22
ATOM     22  O   UNL     1     130.115 131.797 140.896  1.00  0.00    -0.502 OA
ATOM     23  H   UNL     1     129.132 131.825 141.139  1.00  0.00     0.293 HD
ENDBRANCH   2  22
BRANCH   6  24
ATOM     24  O   UNL     1     131.732 136.607 142.517  1.00  0.00    -0.507 OA
ATOM     25  H   UNL     1     131.611 137.489 142.992  1.00  0.00     0.293 HD
ENDBRANCH   6  24
BRANCH   8  26
ATOM     26  O   UNL     1     135.640 135.412 145.004  1.00  0.00    -0.508 OA
ATOM     27  H   UNL     1     135.531 135.935 145.866  1.00  0.00     0.293 HD
ENDBRANCH   8  26
TORSDOF 6
ENDMDL
MODEL 2
REMARK VINA RESULT:    -6.089      4.467      7.499
REMARK INTER + INTRA:          -7.621
REMARK INTER:                  -7.299
REMARK INTRA:                  -0.323
REMARK UNBOUND:                -0.286
REMARK SMILES O=c1c(O)c(-c2ccc(O)c(O)c2)oc2cc(O)cc(O)c12
REMARK SMILES IDX 5 1 3 2 2 3 1 4 22 5 20 6 19 7 17 8 16 9 15 10 14 11 6 12
REMARK SMILES IDX 7 13 8 14 9 15 13 16 11 17 10 18 12 20 4 22 21 24 18 26
REMARK H PARENT 10 19 12 21 4 23 21 25 18 27
REMARK Flexibility Score: inf
ROOT
ATOM      1  C   UNL     1     135.509 132.810 141.437  1.00  0.00     0.180 A 
ATOM      2  C   UNL     1     135.238 131.447 141.648  1.00  0.00     0.208 A 
ATOM      3  C   UNL     1     135.733 130.505 140.732  1.00  0.00     0.238 A 
ATOM      4  O   UNL     1     135.533 129.283 140.956  1.00  0.00    -0.285 OA
ATOM      5  C   UNL     1     136.479 130.938 139.610  1.00  0.00     0.111 A 
ATOM      6  C   UNL     1     136.996 130.074 138.597  1.00  0.00     0.134 A 
ATOM      7  C   UNL     1     137.830 130.597 137.602  1.00  0.00     0.093 A 
ATOM      8  C   UNL     1     138.114 131.961 137.545  1.00  0.00     0.123 A 
ATOM      9  C   UNL     1     137.566 132.824 138.494  1.00  0.00     0.094 A 
ATOM     10  C   UNL     1     136.759 132.327 139.521  1.00  0.00     0.146 A 
ATOM     11  O   UNL     1     136.267 133.179 140.410  1.00  0.00    -0.452 OA
ENDROOT
BRANCH   1  12
ATOM     12  C   UNL     1     134.999 133.865 142.344  1.00  0.00     0.025 A 
ATOM     13  C   UNL     1     133.723 134.408 142.123  1.00  0.00     0.016 A 
ATOM     14  C   UNL     1     133.214 135.387 142.979  1.00  0.00     0.051 A 
ATOM     15  C   UNL     1     133.962 135.829 144.074  1.00  0.00     0.157 A 
ATOM     16  C   UNL     1     135.742 134.295 143.457  1.00  0.00     0.062 A 
ATOM     17  C   UNL     1     135.231 135.278 144.318  1.00  0.00     0.158 A 
BRANCH  15  18
ATOM     18  O   UNL     1     133.429 136.810 144.908  1.00  0.00    -0.504 OA
ATOM     19  H   UNL     1     132.433 136.985 144.967  1.00  0.00     0.293 HD
ENDBRANCH  15  18
BRANCH  17  20
ATOM     20  O   UNL     1     135.978 135.702 145.417  1.00  0.00    -0.504 OA
ATOM     21  H   UNL     1     136.737 136.366 145.319  1.00  0.00     0.293 HD
ENDBRANCH  17  20
ENDBRANCH   1  12
BRANCH   2  22
ATOM     22  O   UNL     1     134.519 131.041 142.775  1.00  0.00    -0.502 OA
ATOM     23  H   UNL     1     133.507 131.079 142.816  1.00  0.00     0.293 HD
ENDBRANCH   2  22
BRANCH   6  24
ATOM     24  O   UNL     1     136.698 128.711 138.509  1.00  0.00    -0.507 OA
ATOM     25  H   UNL     1     135.803 128.302 138.732  1.00  0.00     0.293 HD
ENDBRANCH   6  24
BRANCH   8  26
ATOM     26  O   UNL     1     138.935 132.449 136.531  1.00  0.00    -0.508 OA
ATOM     27  H   UNL     1     139.847 132.047 136.346  1.00  0.00     0.293 HD
ENDBRANCH   8  26
TORSDOF 6
ENDMDL
MODEL 3
REMARK VINA RESULT:    -6.084      2.013      2.292
REMARK INTER + INTRA:          -7.615
REMARK INTER:                  -7.401
REMARK INTRA:                  -0.214
REMARK UNBOUND:                -0.286
REMARK SMILES O=c1c(O)c(-c2ccc(O)c(O)c2)oc2cc(O)cc(O)c12
REMARK SMILES IDX 5 1 3 2 2 3 1 4 22 5 20 6 19 7 17 8 16 9 15 10 14 11 6 12
REMARK SMILES IDX 7 13 8 14 9 15 13 16 11 17 10 18 12 20 4 22 21 24 18 26
REMARK H PARENT 10 19 12 21 4 23 21 25 18 27
REMARK Flexibility Score: inf
ROOT
ATOM      1  C   UNL     1     133.137 130.787 142.828  1.00  0.00     0.180 A 
ATOM      2  C   UNL     1     133.114 131.115 141.461  1.00  0.00     0.208 A 
ATOM      3  C   UNL     1     133.518 132.399 141.063  1.00  0.00     0.238 A 
ATOM      4  O   UNL     1     133.547 132.669 139.834  1.00  0.00    -0.285 OA
ATOM      5  C   UNL     1     133.925 133.343 142.037  1.00  0.00     0.111 A 
ATOM      6  C   UNL     1     134.317 134.685 141.749  1.00  0.00     0.134 A 
ATOM      7  C   UNL     1     134.825 135.491 142.776  1.00  0.00     0.093 A 
ATOM      8  C   UNL     1     134.895 135.026 144.088  1.00  0.00     0.123 A 
ATOM      9  C   UNL     1     134.458 133.736 144.391  1.00  0.00     0.094 A 
ATOM     10  C   UNL     1     133.981 132.895 143.382  1.00  0.00     0.146 A 
ATOM     11  O   UNL     1     133.586 131.672 143.710  1.00  0.00    -0.452 OA
ENDROOT
BRANCH   1  12
ATOM     12  C   UNL     1     132.701 129.462 143.328  1.00  0.00     0.025 A 
ATOM     13  C   UNL     1     131.343 129.110 143.257  1.00  0.00     0.016 A 
ATOM     14  C   UNL     1     130.913 127.858 143.703  1.00  0.00     0.051 A 
ATOM     15  C   UNL     1     131.831 126.934 144.210  1.00  0.00     0.157 A 
ATOM     16  C   UNL     1     133.625 128.523 143.819  1.00  0.00     0.062 A 
ATOM     17  C   UNL     1     133.195 127.265 144.265  1.00  0.00     0.158 A 
BRANCH  15  18
ATOM     18  O   UNL     1     131.371 125.693 144.650  1.00  0.00    -0.504 OA
ATOM     19  H   UNL     1     131.661 124.826 144.214  1.00  0.00     0.293 HD
ENDBRANCH  15  18
BRANCH  17  20
ATOM     20  O   UNL     1     134.118 126.343 144.756  1.00  0.00    -0.504 OA
ATOM     21  H   UNL     1     133.890 125.717 145.519  1.00  0.00     0.293 HD
ENDBRANCH  17  20
ENDBRANCH   1  12
BRANCH   2  22
ATOM     22  O   UNL     1     132.730 130.160 140.516  1.00  0.00    -0.502 OA
ATOM     23  H   UNL     1     131.760 129.994 140.275  1.00  0.00     0.293 HD
ENDBRANCH   2  22
BRANCH   6  24
ATOM     24  O   UNL     1     134.202 135.279 140.489  1.00  0.00    -0.507 OA
ATOM     25  H   UNL     1     134.154 136.274 140.324  1.00  0.00     0.293 HD
ENDBRANCH   6  24
BRANCH   8  26
ATOM     26  O   UNL     1     135.390 135.861 145.087  1.00  0.00    -0.508 OA
ATOM     27  H   UNL     1     135.257 135.650 146.070  1.00  0.00     0.293 HD
ENDBRANCH   8  26
TORSDOF 6
ENDMDL
MODEL 4
REMARK VINA RESULT:    -6.063      1.604      6.942
REMARK INTER + INTRA:          -7.590
REMARK INTER:                  -7.296
REMARK INTRA:                  -0.294
REMARK UNBOUND:                -0.286
REMARK SMILES O=c1c(O)c(-c2ccc(O)c(O)c2)oc2cc(O)cc(O)c12
REMARK SMILES IDX 5 1 3 2 2 3 1 4 22 5 20 6 19 7 17 8 16 9 15 10 14 11 6 12
REMARK SMILES IDX 7 13 8 14 9 15 13 16 11 17 10 18 12 20 4 22 21 24 18 26
REMARK H PARENT 10 19 12 21 4 23 21 25 18 27
REMARK Flexibility Score: inf
ROOT
ATOM      1  C   UNL     1     132.923 132.336 142.255  1.00  0.00     0.180 A 
ATOM      2  C   UNL     1     133.432 131.899 141.019  1.00  0.00     0.208 A 
ATOM      3  C   UNL     1     133.254 130.558 140.645  1.00  0.00     0.238 A 
ATOM      4  O   UNL     1     133.664 130.187 139.515  1.00  0.00    -0.285 OA
ATOM      5  C   UNL     1     132.583 129.667 141.517  1.00  0.00     0.111 A 
ATOM      6  C   UNL     1     132.380 128.278 141.257  1.00  0.00     0.134 A 
ATOM      7  C   UNL     1     131.589 127.520 142.129  1.00  0.00     0.093 A 
ATOM      8  C   UNL     1     131.049 128.084 143.284  1.00  0.00     0.123 A 
ATOM      9  C   UNL     1     131.290 129.426 143.579  1.00  0.00     0.094 A 
ATOM     10  C   UNL     1     132.044 130.217 142.709  1.00  0.00     0.146 A 
ATOM     11  O   UNL     1     132.241 131.492 143.021  1.00  0.00    -0.452 OA
ENDROOT
BRANCH   1  12
ATOM     12  C   UNL     1     133.094 133.728 142.730  1.00  0.00     0.025 A 
ATOM     13  C   UNL     1     132.225 134.728 142.264  1.00  0.00     0.016 A 
ATOM     14  C   UNL     1     132.355 136.044 142.715  1.00  0.00     0.051 A 
ATOM     15  C   UNL     1     133.342 136.379 143.646  1.00  0.00     0.157 A 
ATOM     16  C   UNL     1     134.073 134.063 143.682  1.00  0.00     0.062 A 
ATOM     17  C   UNL     1     134.204 135.383 144.136  1.00  0.00     0.158 A 
BRANCH  15  18
ATOM     18  O   UNL     1     133.450 137.701 144.075  1.00  0.00    -0.504 OA
ATOM     19  H   UNL     1     133.628 137.941 145.043  1.00  0.00     0.293 HD
ENDBRANCH  15  18
BRANCH  17  20
ATOM     20  O   UNL     1     135.182 135.706 145.077  1.00  0.00    -0.504 OA
ATOM     21  H   UNL     1     136.059 135.202 145.126  1.00  0.00     0.293 HD
ENDBRANCH  17  20
ENDBRANCH   1  12
BRANCH   2  22
ATOM     22  O   UNL     1     134.071 132.802 140.165  1.00  0.00    -0.502 OA
ATOM     23  H   UNL     1     135.044 133.062 140.280  1.00  0.00     0.293 HD
ENDBRANCH   2  22
BRANCH   6  24
ATOM     24  O   UNL     1     132.952 127.594 140.181  1.00  0.00    -0.507 OA
ATOM     25  H   UNL     1     133.896 127.236 140.163  1.00  0.00     0.293 HD
ENDBRANCH   6  24
BRANCH   8  26
ATOM     26  O   UNL     1     130.280 127.296 144.138  1.00  0.00    -0.508 OA
ATOM     27  H   UNL     1     129.273 127.400 144.195  1.00  0.00     0.293 HD
ENDBRANCH   8  26
TORSDOF 6
ENDMDL
MODEL 5
REMARK VINA RESULT:    -6.058      2.502      8.181
REMARK INTER + INTRA:          -7.583
REMARK INTER:                  -7.264
REMARK INTRA:                  -0.319
REMARK UNBOUND:                -0.286
REMARK SMILES O=c1c(O)c(-c2ccc(O)c(O)c2)oc2cc(O)cc(O)c12
REMARK SMILES IDX 5 1 3 2 2 3 1 4 22 5 20 6 19 7 17 8 16 9 15 10 14 11 6 12
REMARK SMILES IDX 7 13 8 14 9 15 13 16 11 17 10 18 12 20 4 22 21 24 18 26
REMARK H PARENT 10 19 12 21 4 23 21 25 18 27
REMARK Flexibility Score: inf
ROOT
ATOM      1  C   UNL     1     131.443 128.268 142.367  1.00  0.00     0.180 A 
ATOM      2  C   UNL     1     132.585 127.569 141.937  1.00  0.00     0.208 A 
ATOM      3  C   UNL     1     132.483 126.191 141.683  1.00  0.00     0.238 A 
ATOM      4  O   UNL     1     133.494 125.582 141.247  1.00  0.00    -0.285 OA
ATOM      5  C   UNL     1     131.247 125.529 141.877  1.00  0.00     0.111 A 
ATOM      6  C   UNL     1     131.040 124.129 141.687  1.00  0.00     0.134 A 
ATOM      7  C   UNL     1     129.746 123.603 141.781  1.00  0.00     0.093 A 
ATOM      8  C   UNL     1     128.663 124.413 142.120  1.00  0.00     0.123 A 
ATOM      9  C   UNL     1     128.863 125.772 142.366  1.00  0.00     0.094 A 
ATOM     10  C   UNL     1     130.137 126.333 142.245  1.00  0.00     0.146 A 
ATOM     11  O   UNL     1     130.283 127.631 142.476  1.00  0.00    -0.452 OA
ENDROOT
BRANCH   1  12
ATOM     12  C   UNL     1     131.478 129.716 142.680  1.00  0.00     0.025 A 
ATOM     13  C   UNL     1     131.263 130.649 141.653  1.00  0.00     0.016 A 
ATOM     14  C   UNL     1     131.271 132.018 141.929  1.00  0.00     0.051 A 
ATOM     15  C   UNL     1     131.477 132.476 143.234  1.00  0.00     0.157 A 
ATOM     16  C   UNL     1     131.665 130.177 143.995  1.00  0.00     0.062 A 
ATOM     17  C   UNL     1     131.672 131.551 144.273  1.00  0.00     0.158 A 
BRANCH  15  18
ATOM     18  O   UNL     1     131.482 133.849 143.478  1.00  0.00    -0.504 OA
ATOM     19  H   UNL     1     131.134 134.243 144.344  1.00  0.00     0.293 HD
ENDBRANCH  15  18
BRANCH  17  20
ATOM     20  O   UNL     1     131.864 132.000 145.580  1.00  0.00    -0.504 OA
ATOM     21  H   UNL     1     132.234 132.922 145.776  1.00  0.00     0.293 HD
ENDBRANCH  17  20
ENDBRANCH   1  12
BRANCH   2  22
ATOM     22  O   UNL     1     133.789 128.248 141.732  1.00  0.00    -0.502 OA
ATOM     23  H   UNL     1     134.598 128.110 142.326  1.00  0.00     0.293 HD
ENDBRANCH   2  22
BRANCH   6  24
ATOM     24  O   UNL     1     132.068 123.215 141.436  1.00  0.00    -0.507 OA
ATOM     25  H   UNL     1     133.008 123.466 141.168  1.00  0.00     0.293 HD
ENDBRANCH   6  24
BRANCH   8  26
ATOM     26  O   UNL     1     127.392 123.853 142.221  1.00  0.00    -0.508 OA
ATOM     27  H   UNL     1     126.562 124.430 142.303  1.00  0.00     0.293 HD
ENDBRANCH   8  26
TORSDOF 6
ENDMDL
MODEL 6
REMARK VINA RESULT:    -5.982      4.968      7.374
REMARK INTER + INTRA:          -7.492
REMARK INTER:                  -7.175
REMARK INTRA:                  -0.317
REMARK UNBOUND:                -0.286
REMARK SMILES O=c1c(O)c(-c2ccc(O)c(O)c2)oc2cc(O)cc(O)c12
REMARK SMILES IDX 5 1 3 2 2 3 1 4 22 5 20 6 19 7 17 8 16 9 15 10 14 11 6 12
REMARK SMILES IDX 7 13 8 14 9 15 13 16 11 17 10 18 12 20 4 22 21 24 18 26
REMARK H PARENT 10 19 12 21 4 23 21 25 18 27
REMARK Flexibility Score: inf
ROOT
ATOM      1  C   UNL     1     135.683 132.329 140.646  1.00  0.00     0.180 A 
ATOM      2  C   UNL     1     134.824 131.675 139.745  1.00  0.00     0.208 A 
ATOM      3  C   UNL     1     135.368 130.763 138.826  1.00  0.00     0.238 A 
ATOM      4  O   UNL     1     134.588 130.141 138.059  1.00  0.00    -0.285 OA
ATOM      5  C   UNL     1     136.764 130.527 138.811  1.00  0.00     0.111 A 
ATOM      6  C   UNL     1     137.427 129.652 137.898  1.00  0.00     0.134 A 
ATOM      7  C   UNL     1     138.794 129.395 138.058  1.00  0.00     0.093 A 
ATOM      8  C   UNL     1     139.534 130.029 139.054  1.00  0.00     0.123 A 
ATOM      9  C   UNL     1     138.908 130.931 139.916  1.00  0.00     0.094 A 
ATOM     10  C   UNL     1     137.538 131.180 139.804  1.00  0.00     0.146 A 
ATOM     11  O   UNL     1     136.978 132.037 140.649  1.00  0.00    -0.452 OA
ENDROOT
BRANCH   1  12
ATOM     12  C   UNL     1     135.187 133.323 141.626  1.00  0.00     0.025 A 
ATOM     13  C   UNL     1     135.013 134.659 141.226  1.00  0.00     0.016 A 
ATOM     14  C   UNL     1     134.528 135.608 142.128  1.00  0.00     0.051 A 
ATOM     15  C   UNL     1     134.194 135.239 143.434  1.00  0.00     0.157 A 
ATOM     16  C   UNL     1     134.833 132.950 142.934  1.00  0.00     0.062 A 
ATOM     17  C   UNL     1     134.343 133.902 143.839  1.00  0.00     0.158 A 
BRANCH  15  18
ATOM     18  O   UNL     1     133.714 136.210 144.312  1.00  0.00    -0.504 OA
ATOM     19  H   UNL     1     133.245 135.969 145.177  1.00  0.00     0.293 HD
ENDBRANCH  15  18
BRANCH  17  20
ATOM     20  O   UNL     1     133.999 133.522 145.136  1.00  0.00    -0.504 OA
ATOM     21  H   UNL     1     134.700 133.390 145.855  1.00  0.00     0.293 HD
ENDBRANCH  17  20
ENDBRANCH   1  12
BRANCH   2  22
ATOM     22  O   UNL     1     133.447 131.908 139.793  1.00  0.00    -0.502 OA
ATOM     23  H   UNL     1     133.000 132.360 140.582  1.00  0.00     0.293 HD
ENDBRANCH   2  22
BRANCH   6  24
ATOM     24  O   UNL     1     136.800 129.040 136.809  1.00  0.00    -0.507 OA
ATOM     25  H   UNL     1     136.528 129.514 135.960  1.00  0.00     0.293 HD
ENDBRANCH   6  24
BRANCH   8  26
ATOM     26  O   UNL     1     140.896 129.761 139.174  1.00  0.00    -0.508 OA
ATOM     27  H   UNL     1     141.450 129.462 138.380  1.00  0.00     0.293 HD
ENDBRANCH   8  26
TORSDOF 6
ENDMDL
MODEL 7
REMARK VINA RESULT:    -5.948      4.312      6.662
REMARK INTER + INTRA:          -7.451
REMARK INTER:                  -7.128
REMARK INTRA:                  -0.323
REMARK UNBOUND:                -0.286
REMARK SMILES O=c1c(O)c(-c2ccc(O)c(O)c2)oc2cc(O)cc(O)c12
REMARK SMILES IDX 5 1 3 2 2 3 1 4 22 5 20 6 19 7 17 8 16 9 15 10 14 11 6 12
REMARK SMILES IDX 7 13 8 14 9 15 13 16 11 17 10 18 12 20 4 22 21 24 18 26
REMARK H PARENT 10 19 12 21 4 23 21 25 18 27
REMARK Flexibility Score: inf
ROOT
ATOM      1  C   UNL     1     135.099 132.013 141.063  1.00  0.00     0.180 A 
ATOM      2  C   UNL     1     135.113 132.815 142.219  1.00  0.00     0.208 A 
ATOM      3  C   UNL     1     134.171 132.566 143.230  1.00  0.00     0.238 A 
ATOM      4  O   UNL     1     134.223 133.251 144.285  1.00  0.00    -0.285 OA
ATOM      5  C   UNL     1     133.220 131.530 143.068  1.00  0.00     0.111 A 
ATOM      6  C   UNL     1     132.196 131.215 144.012  1.00  0.00     0.134 A 
ATOM      7  C   UNL     1     131.393 130.086 143.809  1.00  0.00     0.093 A 
ATOM      8  C   UNL     1     131.533 129.300 142.666  1.00  0.00     0.123 A 
ATOM      9  C   UNL     1     132.491 129.632 141.708  1.00  0.00     0.094 A 
ATOM     10  C   UNL     1     133.332 130.732 141.900  1.00  0.00     0.146 A 
ATOM     11  O   UNL     1     134.237 131.008 140.970  1.00  0.00    -0.452 OA
ENDROOT
BRANCH   1  12
ATOM     12  C   UNL     1     136.043 132.232 139.943  1.00  0.00     0.025 A 
ATOM     13  C   UNL     1     135.713 133.148 138.931  1.00  0.00     0.016 A 
ATOM     14  C   UNL     1     136.597 133.385 137.876  1.00  0.00     0.051 A 
ATOM     15  C   UNL     1     137.828 132.725 137.822  1.00  0.00     0.157 A 
ATOM     16  C   UNL     1     137.290 131.584 139.898  1.00  0.00     0.062 A 
ATOM     17  C   UNL     1     138.179 131.822 138.840  1.00  0.00     0.158 A 
BRANCH  15  18
ATOM     18  O   UNL     1     138.689 132.979 136.755  1.00  0.00    -0.504 OA
ATOM     19  H   UNL     1     139.104 133.891 136.604  1.00  0.00     0.293 HD
ENDBRANCH  15  18
BRANCH  17  20
ATOM     20  O   UNL     1     139.412 131.170 138.801  1.00  0.00    -0.504 OA
ATOM     21  H   UNL     1     139.920 131.045 137.934  1.00  0.00     0.293 HD
ENDBRANCH  17  20
ENDBRANCH   1  12
BRANCH   2  22
ATOM     22  O   UNL     1     136.074 133.818 142.367  1.00  0.00    -0.502 OA
ATOM     23  H   UNL     1     135.861 134.799 142.235  1.00  0.00     0.293 HD
ENDBRANCH   2  22
BRANCH   6  24
ATOM     24  O   UNL     1     131.910 131.989 145.140  1.00  0.00    -0.507 OA
ATOM     25  H   UNL     1     131.064 132.521 145.273  1.00  0.00     0.293 HD
ENDBRANCH   6  24
BRANCH   8  26
ATOM     26  O   UNL     1     130.705 128.193 142.489  1.00  0.00    -0.508 OA
ATOM     27  H   UNL     1     130.764 127.614 141.659  1.00  0.00     0.293 HD
ENDBRANCH   8  26
TORSDOF 6
ENDMDL
MODEL 8
REMARK VINA RESULT:    -5.939      1.979      7.024
REMARK INTER + INTRA:          -7.440
REMARK INTER:                  -7.249
REMARK INTRA:                  -0.191
REMARK UNBOUND:                -0.286
REMARK SMILES O=c1c(O)c(-c2ccc(O)c(O)c2)oc2cc(O)cc(O)c12
REMARK SMILES IDX 5 1 3 2 2 3 1 4 22 5 20 6 19 7 17 8 16 9 15 10 14 11 6 12
REMARK SMILES IDX 7 13 8 14 9 15 13 16 11 17 10 18 12 20 4 22 21 24 18 26
REMARK H PARENT 10 19 12 21 4 23 21 25 18 27
REMARK Flexibility Score: inf
ROOT
ATOM      1  C   UNL     1     133.325 132.012 142.821  1.00  0.00     0.180 A 
ATOM      2  C   UNL     1     132.376 131.513 143.731  1.00  0.00     0.208 A 
ATOM      3  C   UNL     1     131.874 130.215 143.547  1.00  0.00     0.238 A 
ATOM      4  O   UNL     1     131.065 129.755 144.395  1.00  0.00    -0.285 OA
ATOM      5  C   UNL     1     132.317 129.437 142.450  1.00  0.00     0.111 A 
ATOM      6  C   UNL     1     131.846 128.124 142.146  1.00  0.00     0.134 A 
ATOM      7  C   UNL     1     132.449 127.397 141.112  1.00  0.00     0.093 A 
ATOM      8  C   UNL     1     133.457 127.958 140.330  1.00  0.00     0.123 A 
ATOM      9  C   UNL     1     133.884 129.263 140.580  1.00  0.00     0.094 A 
ATOM     10  C   UNL     1     133.327 130.001 141.629  1.00  0.00     0.146 A 
ATOM     11  O   UNL     1     133.768 131.234 141.840  1.00  0.00    -0.452 OA
ENDROOT
BRANCH   1  12
ATOM     12  C   UNL     1     133.880 133.381 142.933  1.00  0.00     0.025 A 
ATOM     13  C   UNL     1     133.521 134.351 141.984  1.00  0.00     0.016 A 
ATOM     14  C   UNL     1     134.016 135.653 142.083  1.00  0.00     0.051 A 
ATOM     15  C   UNL     1     134.863 136.011 143.136  1.00  0.00     0.157 A 
ATOM     16  C   UNL     1     134.716 133.747 144.003  1.00  0.00     0.062 A 
ATOM     17  C   UNL     1     135.212 135.055 144.104  1.00  0.00     0.158 A 
BRANCH  15  18
ATOM     18  O   UNL     1     135.344 137.318 143.206  1.00  0.00    -0.504 OA
ATOM     19  H   UNL     1     135.937 137.634 143.964  1.00  0.00     0.293 HD
ENDBRANCH  15  18
BRANCH  17  20
ATOM     20  O   UNL     1     136.044 135.407 145.166  1.00  0.00    -0.504 OA
ATOM     21  H   UNL     1     135.964 136.305 145.628  1.00  0.00     0.293 HD
ENDBRANCH  17  20
ENDBRANCH   1  12
BRANCH   2  22
ATOM     22  O   UNL     1     131.970 132.291 144.819  1.00  0.00    -0.502 OA
ATOM     23  H   UNL     1     132.255 133.256 144.933  1.00  0.00     0.293 HD
ENDBRANCH   2  22
BRANCH   6  24
ATOM     24  O   UNL     1     130.781 127.504 142.805  1.00  0.00    -0.507 OA
ATOM     25  H   UNL     1     129.901 127.261 142.374  1.00  0.00     0.293 HD
ENDBRANCH   6  24
BRANCH   8  26
ATOM     26  O   UNL     1     134.023 127.212 139.299  1.00  0.00    -0.508 OA
ATOM     27  H   UNL     1     133.513 127.017 138.444  1.00  0.00     0.293 HD
ENDBRANCH   8  26
TORSDOF 6
ENDMDL
MODEL 9
REMARK VINA RESULT:    -5.908      2.166      3.189
REMARK INTER + INTRA:          -7.403
REMARK INTER:                  -7.098
REMARK INTRA:                  -0.305
REMARK UNBOUND:                -0.286
REMARK SMILES O=c1c(O)c(-c2ccc(O)c(O)c2)oc2cc(O)cc(O)c12
REMARK SMILES IDX 5 1 3 2 2 3 1 4 22 5 20 6 19 7 17 8 16 9 15 10 14 11 6 12
REMARK SMILES IDX 7 13 8 14 9 15 13 16 11 17 10 18 12 20 4 22 21 24 18 26
REMARK H PARENT 10 19 12 21 4 23 21 25 18 27
REMARK Flexibility Score: inf
ROOT
ATOM      1  C   UNL     1     131.950 129.712 142.240  1.00  0.00     0.180 A 
ATOM      2  C   UNL     1     132.355 129.756 140.895  1.00  0.00     0.208 A 
ATOM      3  C   UNL     1     132.413 130.997 140.241  1.00  0.00     0.238 A 
ATOM      4  O   UNL     1     132.827 131.036 139.054  1.00  0.00    -0.285 OA
ATOM      5  C   UNL     1     132.051 132.176 140.937  1.00  0.00     0.111 A 
ATOM      6  C   UNL     1     132.034 133.483 140.362  1.00  0.00     0.134 A 
ATOM      7  C   UNL     1     131.785 134.593 141.178  1.00  0.00     0.093 A 
ATOM      8  C   UNL     1     131.489 134.440 142.531  1.00  0.00     0.123 A 
ATOM      9  C   UNL     1     131.444 133.162 143.091  1.00  0.00     0.094 A 
ATOM     10  C   UNL     1     131.723 132.038 142.311  1.00  0.00     0.146 A 
ATOM     11  O   UNL     1     131.680 130.842 142.883  1.00  0.00    -0.452 OA
ENDROOT
BRANCH   1  12
ATOM     12  C   UNL     1     131.840 128.438 142.988  1.00  0.00     0.025 A 
ATOM     13  C   UNL     1     130.693 127.642 142.832  1.00  0.00     0.016 A 
ATOM     14  C   UNL     1     130.578 126.428 143.511  1.00  0.00     0.051 A 
ATOM     15  C   UNL     1     131.608 125.981 144.343  1.00  0.00     0.157 A 
ATOM     16  C   UNL     1     132.884 127.977 143.809  1.00  0.00     0.062 A 
ATOM     17  C   UNL     1     132.770 126.757 144.491  1.00  0.00     0.158 A 
BRANCH  15  18
ATOM     18  O   UNL     1     131.463 124.765 145.011  1.00  0.00    -0.504 OA
ATOM     19  H   UNL     1     132.170 124.410 145.644  1.00  0.00     0.293 HD
ENDBRANCH  15  18
BRANCH  17  20
ATOM     20  O   UNL     1     133.809 126.311 145.307  1.00  0.00    -0.504 OA
ATOM     21  H   UNL     1     133.656 125.621 146.033  1.00  0.00     0.293 HD
ENDBRANCH  17  20
ENDBRANCH   1  12
BRANCH   2  22
ATOM     22  O   UNL     1     132.729 128.582 140.235  1.00  0.00    -0.502 OA
ATOM     23  H   UNL     1     133.384 128.578 139.462  1.00  0.00     0.293 HD
ENDBRANCH   2  22
BRANCH   6  24
ATOM     24  O   UNL     1     132.226 133.740 139.001  1.00  0.00    -0.507 OA
ATOM     25  H   UNL     1     132.298 133.030 138.287  1.00  0.00     0.293 HD
ENDBRANCH   6  24
BRANCH   8  26
ATOM     26  O   UNL     1     131.230 135.566 143.310  1.00  0.00    -0.508 OA
ATOM     27  H   UNL     1     130.590 136.289 143.001  1.00  0.00     0.293 HD
ENDBRANCH   8  26
TORSDOF 6
ENDMDL
