MODEL 1
REMARK VINA RESULT:    -3.779      0.000      0.000
REMARK INTER + INTRA:          -7.133
REMARK INTER:                  -5.989
REMARK INTRA:                  -1.145
REMARK UNBOUND:                -1.145
REMARK SMILES CCCCCCCCCCCC(=O)[O-]
REMARK SMILES IDX 7 1 8 2 9 3 10 4 11 5 12 6 13 7 14 8 6 9 5 10 4 11 3 12 2 13
REMARK SMILES IDX 1 14
REMARK H PARENT
REMARK Flexibility Score: inf
ROOT
ATOM      1  C   UNL     1     -17.727  -9.129 -21.367  1.00  0.00     0.000 C 
ENDROOT
BRANCH   1   2
ATOM      2  C   UNL     1     -17.863  -9.614 -22.814  1.00  0.00     0.000 C 
BRANCH   2   3
ATOM      3  C   UNL     1     -18.325  -8.479 -23.735  1.00  0.00     0.000 C 
BRANCH   3   4
ATOM      4  C   UNL     1     -17.200  -8.046 -24.682  1.00  0.00     0.006 C 
BRANCH   4   5
ATOM      5  C   UNL     1     -16.267  -9.219 -24.999  1.00  0.00     0.053 C 
BRANCH   5   6
ATOM      6  C   UNL     1     -14.911  -8.983 -24.412  1.00  0.00     0.041 C 
ATOM      7  O   UNL     1     -14.232  -7.985 -24.768  1.00  0.00    -0.550 OA
ATOM      8  O   UNL     1     -14.377  -9.894 -23.509  1.00  0.00    -0.550 OA
ENDBRANCH   5   6
ENDBRANCH   4   5
ENDBRANCH   3   4
ENDBRANCH   2   3
ENDBRANCH   1   2
BRANCH   1   9
ATOM      9  C   UNL     1     -16.263  -9.152 -20.913  1.00  0.00     0.000 C 
BRANCH   9  10
ATOM     10  C   UNL     1     -15.853  -7.805 -20.307  1.00  0.00    -0.000 C 
BRANCH  10  11
ATOM     11  C   UNL     1     -16.520  -6.641 -21.050  1.00  0.00    -0.000 C 
BRANCH  11  12
ATOM     12  C   UNL     1     -15.608  -6.101 -22.158  1.00  0.00    -0.000 C 
BRANCH  12  13
ATOM     13  C   UNL     1     -16.322  -5.020 -22.979  1.00  0.00    -0.003 C 
ATOM     14  C   UNL     1     -16.360  -3.693 -22.227  1.00  0.00     0.004 C 
ENDBRANCH  12  13
ENDBRANCH  11  12
ENDBRANCH  10  11
ENDBRANCH   9  10
ENDBRANCH   1   9
TORSDOF 10
ENDMDL
MODEL 2
REMARK VINA RESULT:    -3.602      2.452      4.399
REMARK INTER + INTRA:          -6.852
REMARK INTER:                  -5.383
REMARK INTRA:                  -1.469
REMARK UNBOUND:                -1.145
REMARK SMILES CCCCCCCCCCCC(=O)[O-]
REMARK SMILES IDX 7 1 8 2 9 3 10 4 11 5 12 6 13 7 14 8 6 9 5 10 4 11 3 12 2 13
REMARK SMILES IDX 1 14
REMARK H PARENT
REMARK Flexibility Score: inf
ROOT
ATOM      1  C   UNL     1     -16.692  -9.278 -21.142  1.00  0.00     0.000 C 
ENDROOT
BRANCH   1   2
ATOM      2  C   UNL     1     -15.563  -8.291 -20.823  1.00  0.00     0.000 C 
BRANCH   2   3
ATOM      3  C   UNL     1     -16.104  -6.865 -20.672  1.00  0.00     0.000 C 
BRANCH   3   4
ATOM      4  C   UNL     1     -15.543  -5.945 -21.763  1.00  0.00     0.006 C 
BRANCH   4   5
ATOM      5  C   UNL     1     -16.652  -5.478 -22.711  1.00  0.00     0.053 C 
BRANCH   5   6
ATOM      6  C   UNL     1     -16.580  -3.997 -22.913  1.00  0.00     0.041 C 
ATOM      7  O   UNL     1     -16.169  -3.251 -21.985  1.00  0.00    -0.550 OA
ATOM      8  O   UNL     1     -17.013  -3.436 -24.108  1.00  0.00    -0.550 OA
ENDBRANCH   5   6
ENDBRANCH   4   5
ENDBRANCH   3   4
ENDBRANCH   2   3
ENDBRANCH   1   2
BRANCH   1   9
ATOM      9  C   UNL     1     -17.987  -8.538 -21.498  1.00  0.00     0.000 C 
BRANCH   9  10
ATOM     10  C   UNL     1     -18.436  -8.869 -22.926  1.00  0.00    -0.000 C 
BRANCH  10  11
ATOM     11  C   UNL     1     -17.241  -9.266 -23.801  1.00  0.00    -0.000 C 
BRANCH  11  12
ATOM     12  C   UNL     1     -17.072  -8.295 -24.976  1.00  0.00    -0.000 C 
BRANCH  12  13
ATOM     13  C   UNL     1     -15.609  -7.860 -25.122  1.00  0.00    -0.003 C 
ATOM     14  C   UNL     1     -14.686  -8.741 -24.286  1.00  0.00     0.004 C 
ENDBRANCH  12  13
ENDBRANCH  11  12
ENDBRANCH  10  11
ENDBRANCH   9  10
ENDBRANCH   1   9
TORSDOF 10
ENDMDL
MODEL 3
REMARK VINA RESULT:    -3.297     16.177     17.929
REMARK INTER + INTRA:          -6.369
REMARK INTER:                  -5.862
REMARK INTRA:                  -0.507
REMARK UNBOUND:                -1.145
REMARK SMILES CCCCCCCCCCCC(=O)[O-]
REMARK SMILES IDX 7 1 8 2 9 3 10 4 11 5 12 6 13 7 14 8 6 9 5 10 4 11 3 12 2 13
REMARK SMILES IDX 1 14
REMARK H PARENT
REMARK Flexibility Score: inf
ROOT
ATOM      1  C   UNL     1      -8.668  -7.738  -6.315  1.00  0.00     0.000 C 
ENDROOT
BRANCH   1   2
ATOM      2  C   UNL     1      -9.901  -8.459  -6.872  1.00  0.00     0.000 C 
BRANCH   2   3
ATOM      3  C   UNL     1     -11.141  -8.169  -6.018  1.00  0.00     0.000 C 
BRANCH   3   4
ATOM      4  C   UNL     1     -12.426  -8.531  -6.774  1.00  0.00     0.006 C 
BRANCH   4   5
ATOM      5  C   UNL     1     -13.270  -7.282  -7.051  1.00  0.00     0.053 C 
BRANCH   5   6
ATOM      6  C   UNL     1     -14.715  -7.556  -6.781  1.00  0.00     0.041 C 
ATOM      7  O   UNL     1     -15.070  -8.057  -5.681  1.00  0.00    -0.550 OA
ATOM      8  O   UNL     1     -15.666  -7.304  -7.762  1.00  0.00    -0.550 OA
ENDBRANCH   5   6
ENDBRANCH   4   5
ENDBRANCH   3   4
ENDBRANCH   2   3
ENDBRANCH   1   2
BRANCH   1   9
ATOM      9  C   UNL     1      -7.435  -8.648  -6.350  1.00  0.00     0.000 C 
BRANCH   9  10
ATOM     10  C   UNL     1      -7.786 -10.031  -6.910  1.00  0.00    -0.000 C 
BRANCH  10  11
ATOM     11  C   UNL     1      -6.606 -10.625  -7.688  1.00  0.00    -0.000 C 
BRANCH  11  12
ATOM     12  C   UNL     1      -5.314  -9.851  -7.404  1.00  0.00    -0.000 C 
BRANCH  12  13
ATOM     13  C   UNL     1      -4.656  -9.382  -8.708  1.00  0.00    -0.003 C 
ATOM     14  C   UNL     1      -3.992 -10.545  -9.438  1.00  0.00     0.004 C 
ENDBRANCH  12  13
ENDBRANCH  11  12
ENDBRANCH  10  11
ENDBRANCH   9  10
ENDBRANCH   1   9
TORSDOF 10
ENDMDL
MODEL 4
REMARK VINA RESULT:    -3.237     16.359     17.906
REMARK INTER + INTRA:          -6.273
REMARK INTER:                  -5.617
REMARK INTRA:                  -0.656
REMARK UNBOUND:                -1.145
REMARK SMILES CCCCCCCCCCCC(=O)[O-]
REMARK SMILES IDX 7 1 8 2 9 3 10 4 11 5 12 6 13 7 14 8 6 9 5 10 4 11 3 12 2 13
REMARK SMILES IDX 1 14
REMARK H PARENT
REMARK Flexibility Score: inf
ROOT
ATOM      1  C   UNL     1      -8.218  -8.848  -6.384  1.00  0.00     0.000 C 
ENDROOT
BRANCH   1   2
ATOM      2  C   UNL     1      -8.469 -10.296  -6.819  1.00  0.00     0.000 C 
BRANCH   2   3
ATOM      3  C   UNL     1      -7.271 -10.854  -7.595  1.00  0.00     0.000 C 
BRANCH   3   4
ATOM      4  C   UNL     1      -5.953 -10.278  -7.063  1.00  0.00     0.006 C 
BRANCH   4   5
ATOM      5  C   UNL     1      -4.755 -11.088  -7.571  1.00  0.00     0.053 C 
BRANCH   5   6
ATOM      6  C   UNL     1      -4.152 -10.431  -8.772  1.00  0.00     0.041 C 
ATOM      7  O   UNL     1      -4.500  -9.267  -9.100  1.00  0.00    -0.550 OA
ATOM      8  O   UNL     1      -3.241 -11.125  -9.559  1.00  0.00    -0.550 OA
ENDBRANCH   5   6
ENDBRANCH   4   5
ENDBRANCH   3   4
ENDBRANCH   2   3
ENDBRANCH   1   2
BRANCH   1   9
ATOM      9  C   UNL     1      -9.524  -8.046  -6.357  1.00  0.00     0.000 C 
BRANCH   9  10
ATOM     10  C   UNL     1     -10.519  -8.578  -7.395  1.00  0.00    -0.000 C 
BRANCH  10  11
ATOM     11  C   UNL     1     -11.923  -8.713  -6.792  1.00  0.00    -0.000 C 
BRANCH  11  12
ATOM     12  C   UNL     1     -12.077  -7.824  -5.552  1.00  0.00    -0.000 C 
BRANCH  12  13
ATOM     13  C   UNL     1     -13.253  -6.853  -5.714  1.00  0.00    -0.003 C 
ATOM     14  C   UNL     1     -14.043  -7.153  -6.985  1.00  0.00     0.004 C 
ENDBRANCH  12  13
ENDBRANCH  11  12
ENDBRANCH  10  11
ENDBRANCH   9  10
ENDBRANCH   1   9
TORSDOF 10
ENDMDL
MODEL 5
REMARK VINA RESULT:    -3.208     16.765     18.685
REMARK INTER + INTRA:          -6.227
REMARK INTER:                  -5.284
REMARK INTRA:                  -0.943
REMARK UNBOUND:                -1.145
REMARK SMILES CCCCCCCCCCCC(=O)[O-]
REMARK SMILES IDX 7 1 8 2 9 3 10 4 11 5 12 6 13 7 14 8 6 9 5 10 4 11 3 12 2 13
REMARK SMILES IDX 1 14
REMARK H PARENT
REMARK Flexibility Score: inf
ROOT
ATOM      1  C   UNL     1      -7.188 -10.677  -7.494  1.00  0.00     0.000 C 
ENDROOT
BRANCH   1   2
ATOM      2  C   UNL     1      -7.746 -10.055  -6.209  1.00  0.00     0.000 C 
BRANCH   2   3
ATOM      3  C   UNL     1      -7.932  -8.542  -6.364  1.00  0.00     0.000 C 
BRANCH   3   4
ATOM      4  C   UNL     1      -9.395  -8.141  -6.137  1.00  0.00     0.006 C 
BRANCH   4   5
ATOM      5  C   UNL     1     -10.270  -8.561  -7.322  1.00  0.00     0.053 C 
BRANCH   5   6
ATOM      6  C   UNL     1     -11.694  -8.718  -6.892  1.00  0.00     0.041 C 
ATOM      7  O   UNL     1     -12.058  -9.754  -6.275  1.00  0.00    -0.550 OA
ATOM      8  O   UNL     1     -12.630  -7.744  -7.215  1.00  0.00    -0.550 OA
ENDBRANCH   5   6
ENDBRANCH   4   5
ENDBRANCH   3   4
ENDBRANCH   2   3
ENDBRANCH   1   2
BRANCH   1   9
ATOM      9  C   UNL     1      -5.658 -10.743  -7.456  1.00  0.00     0.000 C 
BRANCH   9  10
ATOM     10  C   UNL     1      -5.042  -9.967  -8.626  1.00  0.00    -0.000 C 
BRANCH  10  11
ATOM     11  C   UNL     1      -4.716  -8.525  -8.219  1.00  0.00    -0.000 C 
BRANCH  11  12
ATOM     12  C   UNL     1      -4.180  -8.466  -6.783  1.00  0.00    -0.000 C 
BRANCH  12  13
ATOM     13  C   UNL     1      -3.928  -7.017  -6.349  1.00  0.00    -0.003 C 
ATOM     14  C   UNL     1      -4.848  -6.619  -5.199  1.00  0.00     0.004 C 
ENDBRANCH  12  13
ENDBRANCH  11  12
ENDBRANCH  10  11
ENDBRANCH   9  10
ENDBRANCH   1   9
TORSDOF 10
ENDMDL
MODEL 6
REMARK VINA RESULT:    -3.207     16.502     18.333
REMARK INTER + INTRA:          -6.226
REMARK INTER:                  -5.504
REMARK INTRA:                  -0.722
REMARK UNBOUND:                -1.145
REMARK SMILES CCCCCCCCCCCC(=O)[O-]
REMARK SMILES IDX 7 1 8 2 9 3 10 4 11 5 12 6 13 7 14 8 6 9 5 10 4 11 3 12 2 13
REMARK SMILES IDX 1 14
REMARK H PARENT
REMARK Flexibility Score: inf
ROOT
ATOM      1  C   UNL     1      -8.773 -10.262  -6.851  1.00  0.00     0.000 C 
ENDROOT
BRANCH   1   2
ATOM      2  C   UNL     1      -8.527  -8.821  -6.388  1.00  0.00     0.000 C 
BRANCH   2   3
ATOM      3  C   UNL     1      -9.850  -8.062  -6.224  1.00  0.00     0.000 C 
BRANCH   3   4
ATOM      4  C   UNL     1     -10.876  -8.513  -7.271  1.00  0.00     0.006 C 
BRANCH   4   5
ATOM      5  C   UNL     1     -12.254  -8.721  -6.634  1.00  0.00     0.053 C 
BRANCH   5   6
ATOM      6  C   UNL     1     -13.053  -7.458  -6.691  1.00  0.00     0.041 C 
ATOM      7  O   UNL     1     -13.597  -7.100  -7.769  1.00  0.00    -0.550 OA
ATOM      8  O   UNL     1     -13.157  -6.650  -5.565  1.00  0.00    -0.550 OA
ENDBRANCH   5   6
ENDBRANCH   4   5
ENDBRANCH   3   4
ENDBRANCH   2   3
ENDBRANCH   1   2
BRANCH   1   9
ATOM      9  C   UNL     1      -7.513 -10.857  -7.490  1.00  0.00     0.000 C 
BRANCH   9  10
ATOM     10  C   UNL     1      -6.247 -10.188  -6.942  1.00  0.00    -0.000 C 
BRANCH  10  11
ATOM     11  C   UNL     1      -5.240  -9.913  -8.065  1.00  0.00    -0.000 C 
BRANCH  11  12
ATOM     12  C   UNL     1      -4.750  -8.461  -8.021  1.00  0.00    -0.000 C 
BRANCH  12  13
ATOM     13  C   UNL     1      -4.657  -7.955  -6.576  1.00  0.00    -0.003 C 
ATOM     14  C   UNL     1      -3.287  -8.257  -5.974  1.00  0.00     0.004 C 
ENDBRANCH  12  13
ENDBRANCH  11  12
ENDBRANCH  10  11
ENDBRANCH   9  10
ENDBRANCH   1   9
TORSDOF 10
ENDMDL
MODEL 7
REMARK VINA RESULT:    -3.183     15.356     17.511
REMARK INTER + INTRA:          -6.189
REMARK INTER:                  -5.727
REMARK INTRA:                  -0.462
REMARK UNBOUND:                -1.145
REMARK SMILES CCCCCCCCCCCC(=O)[O-]
REMARK SMILES IDX 7 1 8 2 9 3 10 4 11 5 12 6 13 7 14 8 6 9 5 10 4 11 3 12 2 13
REMARK SMILES IDX 1 14
REMARK H PARENT
REMARK Flexibility Score: inf
ROOT
ATOM      1  C   UNL     1      -9.975  -8.563  -7.131  1.00  0.00     0.000 C 
ENDROOT
BRANCH   1   2
ATOM      2  C   UNL     1      -9.253  -9.870  -6.784  1.00  0.00     0.000 C 
BRANCH   2   3
ATOM      3  C   UNL     1      -8.063  -9.612  -5.853  1.00  0.00     0.000 C 
BRANCH   3   4
ATOM      4  C   UNL     1      -6.851  -9.097  -6.639  1.00  0.00     0.006 C 
BRANCH   4   5
ATOM      5  C   UNL     1      -6.258 -10.201  -7.520  1.00  0.00     0.053 C 
BRANCH   5   6
ATOM      6  C   UNL     1      -5.119  -9.669  -8.331  1.00  0.00     0.041 C 
ATOM      7  O   UNL     1      -4.888  -8.432  -8.363  1.00  0.00    -0.550 OA
ATOM      8  O   UNL     1      -4.342 -10.535  -9.090  1.00  0.00    -0.550 OA
ENDBRANCH   5   6
ENDBRANCH   4   5
ENDBRANCH   3   4
ENDBRANCH   2   3
ENDBRANCH   1   2
BRANCH   1   9
ATOM      9  C   UNL     1     -11.459  -8.635  -6.751  1.00  0.00     0.000 C 
BRANCH   9  10
ATOM     10  C   UNL     1     -11.758  -7.763  -5.526  1.00  0.00    -0.000 C 
BRANCH  10  11
ATOM     11  C   UNL     1     -13.056  -6.970  -5.719  1.00  0.00    -0.000 C 
BRANCH  11  12
ATOM     12  C   UNL     1     -13.681  -7.262  -7.088  1.00  0.00    -0.000 C 
BRANCH  12  13
ATOM     13  C   UNL     1     -15.182  -7.552  -6.957  1.00  0.00    -0.003 C 
ATOM     14  C   UNL     1     -15.936  -7.133  -8.216  1.00  0.00     0.004 C 
ENDBRANCH  12  13
ENDBRANCH  11  12
ENDBRANCH  10  11
ENDBRANCH   9  10
ENDBRANCH   1   9
TORSDOF 10
ENDMDL
MODEL 8
REMARK VINA RESULT:    -3.121     18.233     19.713
REMARK INTER + INTRA:          -6.090
REMARK INTER:                  -5.099
REMARK INTRA:                  -0.991
REMARK UNBOUND:                -1.145
REMARK SMILES CCCCCCCCCCCC(=O)[O-]
REMARK SMILES IDX 7 1 8 2 9 3 10 4 11 5 12 6 13 7 14 8 6 9 5 10 4 11 3 12 2 13
REMARK SMILES IDX 1 14
REMARK H PARENT
REMARK Flexibility Score: inf
ROOT
ATOM      1  C   UNL     1      -6.036 -10.471  -7.078  1.00  0.00     0.000 C 
ENDROOT
BRANCH   1   2
ATOM      2  C   UNL     1      -5.275  -9.986  -8.317  1.00  0.00     0.000 C 
BRANCH   2   3
ATOM      3  C   UNL     1      -4.722  -8.572  -8.107  1.00  0.00     0.000 C 
BRANCH   3   4
ATOM      4  C   UNL     1      -4.322  -8.349  -6.644  1.00  0.00     0.006 C 
BRANCH   4   5
ATOM      5  C   UNL     1      -3.919  -6.891  -6.400  1.00  0.00     0.053 C 
BRANCH   5   6
ATOM      6  C   UNL     1      -2.640  -6.824  -5.627  1.00  0.00     0.041 C 
ATOM      7  O   UNL     1      -2.179  -5.711  -5.260  1.00  0.00    -0.550 OA
ATOM      8  O   UNL     1      -1.931  -7.987  -5.354  1.00  0.00    -0.550 OA
ENDBRANCH   5   6
ENDBRANCH   4   5
ENDBRANCH   3   4
ENDBRANCH   2   3
ENDBRANCH   1   2
BRANCH   1   9
ATOM      9  C   UNL     1      -7.491 -10.807  -7.421  1.00  0.00     0.000 C 
BRANCH   9  10
ATOM     10  C   UNL     1      -8.297 -11.125  -6.155  1.00  0.00    -0.000 C 
BRANCH  10  11
ATOM     11  C   UNL     1      -9.631 -10.370  -6.148  1.00  0.00    -0.000 C 
BRANCH  11  12
ATOM     12  C   UNL     1      -9.545  -9.092  -6.990  1.00  0.00    -0.000 C 
BRANCH  12  13
ATOM     13  C   UNL     1      -9.455  -7.849  -6.095  1.00  0.00    -0.003 C 
ATOM     14  C   UNL     1      -8.011  -7.375  -5.956  1.00  0.00     0.004 C 
ENDBRANCH  12  13
ENDBRANCH  11  12
ENDBRANCH  10  11
ENDBRANCH   9  10
ENDBRANCH   1   9
TORSDOF 10
ENDMDL
MODEL 9
REMARK VINA RESULT:    -3.021     17.466     19.630
REMARK INTER + INTRA:          -5.931
REMARK INTER:                  -4.814
REMARK INTRA:                  -1.117
REMARK UNBOUND:                -1.145
REMARK SMILES CCCCCCCCCCCC(=O)[O-]
REMARK SMILES IDX 7 1 8 2 9 3 10 4 11 5 12 6 13 7 14 8 6 9 5 10 4 11 3 12 2 13
REMARK SMILES IDX 1 14
REMARK H PARENT
REMARK Flexibility Score: inf
ROOT
ATOM      1  C   UNL     1      -5.009  -9.711  -8.524  1.00  0.00     0.000 C 
ENDROOT
BRANCH   1   2
ATOM      2  C   UNL     1      -6.069 -10.182  -7.522  1.00  0.00     0.000 C 
BRANCH   2   3
ATOM      3  C   UNL     1      -6.669  -8.997  -6.756  1.00  0.00     0.000 C 
BRANCH   3   4
ATOM      4  C   UNL     1      -7.872  -9.438  -5.914  1.00  0.00     0.006 C 
BRANCH   4   5
ATOM      5  C   UNL     1      -9.039  -9.873  -6.808  1.00  0.00     0.053 C 
BRANCH   5   6
ATOM      6  C   UNL     1     -10.236  -9.011  -6.563  1.00  0.00     0.041 C 
ATOM      7  O   UNL     1     -10.669  -8.845  -5.392  1.00  0.00    -0.550 OA
ATOM      8  O   UNL     1     -10.904  -8.429  -7.633  1.00  0.00    -0.550 OA
ENDBRANCH   5   6
ENDBRANCH   4   5
ENDBRANCH   3   4
ENDBRANCH   2   3
ENDBRANCH   1   2
BRANCH   1   9
ATOM      9  C   UNL     1      -3.736 -10.558  -8.420  1.00  0.00     0.000 C 
BRANCH   9  10
ATOM     10  C   UNL     1      -3.461 -10.963  -6.967  1.00  0.00    -0.000 C 
BRANCH  10  11
ATOM     11  C   UNL     1      -2.490  -9.984  -6.297  1.00  0.00    -0.000 C 
BRANCH  11  12
ATOM     12  C   UNL     1      -3.217  -9.100  -5.276  1.00  0.00    -0.000 C 
BRANCH  12  13
ATOM     13  C   UNL     1      -2.786  -7.635  -5.412  1.00  0.00    -0.003 C 
ATOM     14  C   UNL     1      -3.642  -6.903  -6.442  1.00  0.00     0.004 C 
ENDBRANCH  12  13
ENDBRANCH  11  12
ENDBRANCH  10  11
ENDBRANCH   9  10
ENDBRANCH   1   9
TORSDOF 10
ENDMDL
