MODEL 1
REMARK VINA RESULT:    -3.720      0.000      0.000
REMARK INTER + INTRA:          -9.421
REMARK INTER:                  -6.764
REMARK INTRA:                  -2.657
REMARK UNBOUND:                -2.657
REMARK SMILES CCCCCC=CCC=CCCCCCCCC(=O)[O-]
REMARK SMILES IDX 11 1 12 2 13 3 14 4 15 5 16 6 17 7 18 8 19 9 20 10 10 11
REMARK SMILES IDX 9 12 8 13 7 14 6 15 5 16 4 17 3 18 2 19 1 20
REMARK H PARENT
REMARK Flexibility Score: inf
ROOT
ATOM      1  C   UNL     1      -5.920  -6.812   4.077  1.00  0.00     0.027 C 
ENDROOT
BRANCH   1   2
ATOM      2  C   UNL     1      -5.249  -5.946   5.154  1.00  0.00     0.004 C 
BRANCH   2   3
ATOM      3  C   UNL     1      -6.140  -4.783   5.620  1.00  0.00     0.000 C 
BRANCH   3   4
ATOM      4  C   UNL     1      -6.023  -3.548   4.711  1.00  0.00     0.000 C 
BRANCH   4   5
ATOM      5  C   UNL     1      -7.260  -2.638   4.789  1.00  0.00     0.000 C 
BRANCH   5   6
ATOM      6  C   UNL     1      -7.469  -1.808   3.510  1.00  0.00     0.006 C 
BRANCH   6   7
ATOM      7  C   UNL     1      -6.211  -1.773   2.631  1.00  0.00     0.053 C 
BRANCH   7   8
ATOM      8  C   UNL     1      -6.537  -2.005   1.187  1.00  0.00     0.041 C 
ATOM      9  O   UNL     1      -5.616  -2.239   0.360  1.00  0.00    -0.550 OA
ATOM     10  O   UNL     1      -7.859  -1.996   0.761  1.00  0.00    -0.550 OA
ENDBRANCH   7   8
ENDBRANCH   6   7
ENDBRANCH   5   6
ENDBRANCH   4   5
ENDBRANCH   3   4
ENDBRANCH   2   3
ENDBRANCH   1   2
BRANCH   1  11
ATOM     11  C   UNL     1      -5.242  -8.154   3.973  1.00  0.00    -0.031 C 
ATOM     12  C   UNL     1      -5.644  -9.147   3.158  1.00  0.00    -0.027 C 
BRANCH  12  13
ATOM     13  C   UNL     1      -6.865  -9.080   2.276  1.00  0.00     0.054 C 
BRANCH  13  14
ATOM     14  C   UNL     1      -6.480  -8.858   0.834  1.00  0.00    -0.027 C 
ATOM     15  C   UNL     1      -7.071  -7.951   0.035  1.00  0.00    -0.031 C 
BRANCH  15  16
ATOM     16  C   UNL     1      -8.165  -7.007   0.471  1.00  0.00     0.027 C 
BRANCH  16  17
ATOM     17  C   UNL     1      -7.614  -5.684   1.033  1.00  0.00     0.004 C 
BRANCH  17  18
ATOM     18  C   UNL     1      -8.463  -5.067   2.162  1.00  0.00     0.000 C 
BRANCH  18  19
ATOM     19  C   UNL     1      -9.354  -6.064   2.924  1.00  0.00    -0.003 C 
ATOM     20  C   UNL     1      -9.500  -5.722   4.407  1.00  0.00     0.004 C 
ENDBRANCH  18  19
ENDBRANCH  17  18
ENDBRANCH  16  17
ENDBRANCH  15  16
ENDBRANCH  13  14
ENDBRANCH  12  13
ENDBRANCH   1  11
TORSDOF 14
ENDMDL
MODEL 2
REMARK VINA RESULT:    -3.681     11.189     13.452
REMARK INTER + INTRA:          -9.351
REMARK INTER:                  -7.644
REMARK INTRA:                  -1.707
REMARK UNBOUND:                -2.657
REMARK SMILES CCCCCC=CCC=CCCCCCCCC(=O)[O-]
REMARK SMILES IDX 11 1 12 2 13 3 14 4 15 5 16 6 17 7 18 8 19 9 20 10 10 11
REMARK SMILES IDX 9 12 8 13 7 14 6 15 5 16 4 17 3 18 2 19 1 20
REMARK H PARENT
REMARK Flexibility Score: inf
ROOT
ATOM      1  C   UNL     1       0.559  -1.164  -7.147  1.00  0.00     0.027 C 
ENDROOT
BRANCH   1   2
ATOM      2  C   UNL     1       1.776  -1.634  -6.334  1.00  0.00     0.004 C 
BRANCH   2   3
ATOM      3  C   UNL     1       1.527  -2.968  -5.613  1.00  0.00     0.000 C 
BRANCH   3   4
ATOM      4  C   UNL     1       1.049  -4.076  -6.567  1.00  0.00     0.000 C 
BRANCH   4   5
ATOM      5  C   UNL     1       2.157  -4.557  -7.517  1.00  0.00     0.000 C 
BRANCH   5   6
ATOM      6  C   UNL     1       1.667  -4.726  -8.966  1.00  0.00     0.006 C 
BRANCH   6   7
ATOM      7  C   UNL     1       0.165  -5.034  -9.036  1.00  0.00     0.053 C 
BRANCH   7   8
ATOM      8  C   UNL     1      -0.098  -6.508  -9.056  1.00  0.00     0.041 C 
ATOM      9  O   UNL     1       0.797  -7.306  -9.441  1.00  0.00    -0.550 OA
ATOM     10  O   UNL     1      -1.320  -7.003  -8.617  1.00  0.00    -0.550 OA
ENDBRANCH   7   8
ENDBRANCH   6   7
ENDBRANCH   5   6
ENDBRANCH   4   5
ENDBRANCH   3   4
ENDBRANCH   2   3
ENDBRANCH   1   2
BRANCH   1  11
ATOM     11  C   UNL     1       0.928  -0.971  -8.596  1.00  0.00    -0.031 C 
ATOM     12  C   UNL     1       0.087  -1.172  -9.627  1.00  0.00    -0.027 C 
BRANCH  12  13
ATOM     13  C   UNL     1      -1.327  -1.676  -9.484  1.00  0.00     0.054 C 
BRANCH  13  14
ATOM     14  C   UNL     1      -2.311  -0.532  -9.470  1.00  0.00    -0.027 C 
ATOM     15  C   UNL     1      -3.646  -0.694  -9.502  1.00  0.00    -0.031 C 
BRANCH  15  16
ATOM     16  C   UNL     1      -4.347  -2.031  -9.517  1.00  0.00     0.027 C 
BRANCH  16  17
ATOM     17  C   UNL     1      -5.525  -2.089  -8.528  1.00  0.00     0.004 C 
BRANCH  17  18
ATOM     18  C   UNL     1      -6.192  -3.475  -8.409  1.00  0.00     0.000 C 
BRANCH  18  19
ATOM     19  C   UNL     1      -6.792  -3.790  -7.027  1.00  0.00    -0.003 C 
ATOM     20  C   UNL     1      -6.941  -5.289  -6.769  1.00  0.00     0.004 C 
ENDBRANCH  18  19
ENDBRANCH  17  18
ENDBRANCH  16  17
ENDBRANCH  15  16
ENDBRANCH  13  14
ENDBRANCH  12  13
ENDBRANCH   1  11
TORSDOF 14
ENDMDL
MODEL 3
REMARK VINA RESULT:    -3.651     10.890     13.382
REMARK INTER + INTRA:          -9.296
REMARK INTER:                  -7.782
REMARK INTRA:                  -1.514
REMARK UNBOUND:                -2.657
REMARK SMILES CCCCCC=CCC=CCCCCCCCC(=O)[O-]
REMARK SMILES IDX 11 1 12 2 13 3 14 4 15 5 16 6 17 7 18 8 19 9 20 10 10 11
REMARK SMILES IDX 9 12 8 13 7 14 6 15 5 16 4 17 3 18 2 19 1 20
REMARK H PARENT
REMARK Flexibility Score: inf
ROOT
ATOM      1  C   UNL     1       0.322  -1.599  -8.895  1.00  0.00     0.027 C 
ENDROOT
BRANCH   1   2
ATOM      2  C   UNL     1      -0.734  -1.164  -9.922  1.00  0.00     0.004 C 
BRANCH   2   3
ATOM      3  C   UNL     1      -2.075  -0.789  -9.271  1.00  0.00     0.000 C 
BRANCH   3   4
ATOM      4  C   UNL     1      -3.253  -1.600  -9.837  1.00  0.00     0.000 C 
BRANCH   4   5
ATOM      5  C   UNL     1      -4.579  -1.290  -9.123  1.00  0.00     0.000 C 
BRANCH   5   6
ATOM      6  C   UNL     1      -5.526  -2.503  -9.075  1.00  0.00     0.006 C 
BRANCH   6   7
ATOM      7  C   UNL     1      -6.297  -2.583  -7.751  1.00  0.00     0.053 C 
BRANCH   7   8
ATOM      8  C   UNL     1      -6.636  -3.998  -7.392  1.00  0.00     0.041 C 
ATOM      9  O   UNL     1      -7.467  -4.237  -6.476  1.00  0.00    -0.550 OA
ATOM     10  O   UNL     1      -6.061  -5.051  -8.091  1.00  0.00    -0.550 OA
ENDBRANCH   7   8
ENDBRANCH   6   7
ENDBRANCH   5   6
ENDBRANCH   4   5
ENDBRANCH   3   4
ENDBRANCH   2   3
ENDBRANCH   1   2
BRANCH   1  11
ATOM     11  C   UNL     1       0.237  -0.753  -7.650  1.00  0.00    -0.031 C 
ATOM     12  C   UNL     1       0.935  -0.987  -6.523  1.00  0.00    -0.027 C 
BRANCH  12  13
ATOM     13  C   UNL     1       1.858  -2.163  -6.324  1.00  0.00     0.054 C 
BRANCH  13  14
ATOM     14  C   UNL     1       1.085  -3.394  -5.918  1.00  0.00    -0.027 C 
ATOM     15  C   UNL     1       1.162  -4.570  -6.566  1.00  0.00    -0.031 C 
BRANCH  15  16
ATOM     16  C   UNL     1       2.052  -4.839  -7.755  1.00  0.00     0.027 C 
BRANCH  16  17
ATOM     17  C   UNL     1       1.290  -5.480  -8.929  1.00  0.00     0.004 C 
BRANCH  17  18
ATOM     18  C   UNL     1      -0.170  -5.005  -9.079  1.00  0.00     0.000 C 
BRANCH  18  19
ATOM     19  C   UNL     1      -1.127  -6.036  -9.702  1.00  0.00    -0.003 C 
ATOM     20  C   UNL     1      -1.202  -7.339  -8.906  1.00  0.00     0.004 C 
ENDBRANCH  18  19
ENDBRANCH  17  18
ENDBRANCH  16  17
ENDBRANCH  15  16
ENDBRANCH  13  14
ENDBRANCH  12  13
ENDBRANCH   1  11
TORSDOF 14
ENDMDL
MODEL 4
REMARK VINA RESULT:    -3.622      1.403      3.919
REMARK INTER + INTRA:          -9.244
REMARK INTER:                  -6.815
REMARK INTRA:                  -2.429
REMARK UNBOUND:                -2.657
REMARK SMILES CCCCCC=CCC=CCCCCCCCC(=O)[O-]
REMARK SMILES IDX 11 1 12 2 13 3 14 4 15 5 16 6 17 7 18 8 19 9 20 10 10 11
REMARK SMILES IDX 9 12 8 13 7 14 6 15 5 16 4 17 3 18 2 19 1 20
REMARK H PARENT
REMARK Flexibility Score: inf
ROOT
ATOM      1  C   UNL     1      -6.741  -8.408   2.097  1.00  0.00     0.027 C 
ENDROOT
BRANCH   1   2
ATOM      2  C   UNL     1      -6.780  -8.298   0.565  1.00  0.00     0.004 C 
BRANCH   2   3
ATOM      3  C   UNL     1      -7.330  -6.946   0.081  1.00  0.00     0.000 C 
BRANCH   3   4
ATOM      4  C   UNL     1      -7.103  -5.817   1.101  1.00  0.00     0.000 C 
BRANCH   4   5
ATOM      5  C   UNL     1      -8.353  -4.946   1.305  1.00  0.00     0.000 C 
BRANCH   5   6
ATOM      6  C   UNL     1      -8.083  -3.720   2.196  1.00  0.00     0.006 C 
BRANCH   6   7
ATOM      7  C   UNL     1      -7.895  -2.437   1.375  1.00  0.00     0.053 C 
BRANCH   7   8
ATOM      8  C   UNL     1      -6.459  -2.013   1.331  1.00  0.00     0.041 C 
ATOM      9  O   UNL     1      -6.010  -1.207   2.189  1.00  0.00    -0.550 OA
ATOM     10  O   UNL     1      -5.608  -2.533   0.364  1.00  0.00    -0.550 OA
ENDBRANCH   7   8
ENDBRANCH   6   7
ENDBRANCH   5   6
ENDBRANCH   4   5
ENDBRANCH   3   4
ENDBRANCH   2   3
ENDBRANCH   1   2
BRANCH   1  11
ATOM     11  C   UNL     1      -5.350  -8.742   2.572  1.00  0.00    -0.031 C 
ATOM     12  C   UNL     1      -5.076  -9.422   3.701  1.00  0.00    -0.027 C 
BRANCH  12  13
ATOM     13  C   UNL     1      -6.119  -9.896   4.682  1.00  0.00     0.054 C 
BRANCH  13  14
ATOM     14  C   UNL     1      -5.978  -9.186   6.006  1.00  0.00    -0.027 C 
ATOM     15  C   UNL     1      -6.664  -8.078   6.336  1.00  0.00    -0.031 C 
BRANCH  15  16
ATOM     16  C   UNL     1      -7.694  -7.412   5.455  1.00  0.00     0.027 C 
BRANCH  16  17
ATOM     17  C   UNL     1      -7.255  -6.012   4.991  1.00  0.00     0.004 C 
BRANCH  17  18
ATOM     18  C   UNL     1      -5.729  -5.833   4.853  1.00  0.00     0.000 C 
BRANCH  18  19
ATOM     19  C   UNL     1      -5.197  -4.451   5.272  1.00  0.00    -0.003 C 
ATOM     20  C   UNL     1      -6.275  -3.367   5.258  1.00  0.00     0.004 C 
ENDBRANCH  18  19
ENDBRANCH  17  18
ENDBRANCH  16  17
ENDBRANCH  15  16
ENDBRANCH  13  14
ENDBRANCH  12  13
ENDBRANCH   1  11
TORSDOF 14
ENDMDL
MODEL 5
REMARK VINA RESULT:    -3.588      1.156      3.245
REMARK INTER + INTRA:          -9.181
REMARK INTER:                  -6.701
REMARK INTRA:                  -2.479
REMARK UNBOUND:                -2.657
REMARK SMILES CCCCCC=CCC=CCCCCCCCC(=O)[O-]
REMARK SMILES IDX 11 1 12 2 13 3 14 4 15 5 16 6 17 7 18 8 19 9 20 10 10 11
REMARK SMILES IDX 9 12 8 13 7 14 6 15 5 16 4 17 3 18 2 19 1 20
REMARK H PARENT
REMARK Flexibility Score: inf
ROOT
ATOM      1  C   UNL     1      -8.793  -5.591   1.143  1.00  0.00     0.027 C 
ENDROOT
BRANCH   1   2
ATOM      2  C   UNL     1      -8.674  -5.239   2.634  1.00  0.00     0.004 C 
BRANCH   2   3
ATOM      3  C   UNL     1      -7.214  -5.130   3.102  1.00  0.00     0.000 C 
BRANCH   3   4
ATOM      4  C   UNL     1      -7.074  -4.365   4.429  1.00  0.00     0.000 C 
BRANCH   4   5
ATOM      5  C   UNL     1      -7.126  -2.840   4.240  1.00  0.00     0.000 C 
BRANCH   5   6
ATOM      6  C   UNL     1      -5.879  -2.287   3.526  1.00  0.00     0.006 C 
BRANCH   6   7
ATOM      7  C   UNL     1      -6.244  -1.328   2.385  1.00  0.00     0.053 C 
BRANCH   7   8
ATOM      8  C   UNL     1      -6.672  -2.069   1.154  1.00  0.00     0.041 C 
ATOM      9  O   UNL     1      -7.894  -2.154   0.860  1.00  0.00    -0.550 OA
ATOM     10  O   UNL     1      -5.721  -2.635   0.315  1.00  0.00    -0.550 OA
ENDBRANCH   7   8
ENDBRANCH   6   7
ENDBRANCH   5   6
ENDBRANCH   4   5
ENDBRANCH   3   4
ENDBRANCH   2   3
ENDBRANCH   1   2
BRANCH   1  11
ATOM     11  C   UNL     1      -7.429  -5.728   0.516  1.00  0.00    -0.031 C 
ATOM     12  C   UNL     1      -7.119  -6.623  -0.440  1.00  0.00    -0.027 C 
BRANCH  12  13
ATOM     13  C   UNL     1      -8.076  -7.656  -0.979  1.00  0.00     0.054 C 
BRANCH  13  14
ATOM     14  C   UNL     1      -7.540  -9.051  -0.769  1.00  0.00    -0.027 C 
ATOM     15  C   UNL     1      -7.574  -9.694   0.412  1.00  0.00    -0.031 C 
BRANCH  15  16
ATOM     16  C   UNL     1      -8.183  -9.135   1.676  1.00  0.00     0.027 C 
BRANCH  16  17
ATOM     17  C   UNL     1      -7.304  -9.387   2.915  1.00  0.00     0.004 C 
BRANCH  17  18
ATOM     18  C   UNL     1      -5.822  -8.997   2.737  1.00  0.00     0.000 C 
BRANCH  18  19
ATOM     19  C   UNL     1      -5.293  -7.974   3.757  1.00  0.00    -0.003 C 
ATOM     20  C   UNL     1      -6.020  -8.040   5.100  1.00  0.00     0.004 C 
ENDBRANCH  18  19
ENDBRANCH  17  18
ENDBRANCH  16  17
ENDBRANCH  15  16
ENDBRANCH  13  14
ENDBRANCH  12  13
ENDBRANCH   1  11
TORSDOF 14
ENDMDL
MODEL 6
REMARK VINA RESULT:    -3.583     11.349     12.993
REMARK INTER + INTRA:          -9.172
REMARK INTER:                  -7.801
REMARK INTRA:                  -1.371
REMARK UNBOUND:                -2.657
REMARK SMILES CCCCCC=CCC=CCCCCCCCC(=O)[O-]
REMARK SMILES IDX 11 1 12 2 13 3 14 4 15 5 16 6 17 7 18 8 19 9 20 10 10 11
REMARK SMILES IDX 9 12 8 13 7 14 6 15 5 16 4 17 3 18 2 19 1 20
REMARK H PARENT
REMARK Flexibility Score: inf
ROOT
ATOM      1  C   UNL     1       2.639  -3.401  -6.651  1.00  0.00     0.027 C 
ENDROOT
BRANCH   1   2
ATOM      2  C   UNL     1       2.324  -2.027  -7.262  1.00  0.00     0.004 C 
BRANCH   2   3
ATOM      3  C   UNL     1       1.180  -1.304  -6.535  1.00  0.00     0.000 C 
BRANCH   3   4
ATOM      4  C   UNL     1       0.125  -0.743  -7.503  1.00  0.00     0.000 C 
BRANCH   4   5
ATOM      5  C   UNL     1      -0.073  -1.634  -8.741  1.00  0.00     0.000 C 
BRANCH   5   6
ATOM      6  C   UNL     1      -1.373  -1.315  -9.501  1.00  0.00     0.006 C 
BRANCH   6   7
ATOM      7  C   UNL     1      -1.857   0.119  -9.243  1.00  0.00     0.053 C 
BRANCH   7   8
ATOM      8  C   UNL     1      -3.321   0.162  -8.928  1.00  0.00     0.041 C 
ATOM      9  O   UNL     1      -4.002  -0.897  -8.939  1.00  0.00    -0.550 OA
ATOM     10  O   UNL     1      -3.925   1.366  -8.589  1.00  0.00    -0.550 OA
ENDBRANCH   7   8
ENDBRANCH   6   7
ENDBRANCH   5   6
ENDBRANCH   4   5
ENDBRANCH   3   4
ENDBRANCH   2   3
ENDBRANCH   1   2
BRANCH   1  11
ATOM     11  C   UNL     1       1.372  -4.184  -6.416  1.00  0.00    -0.031 C 
ATOM     12  C   UNL     1       0.744  -4.914  -7.356  1.00  0.00    -0.027 C 
BRANCH  12  13
ATOM     13  C   UNL     1       1.186  -5.007  -8.795  1.00  0.00     0.054 C 
BRANCH  13  14
ATOM     14  C   UNL     1       1.137  -6.433  -9.285  1.00  0.00    -0.027 C 
ATOM     15  C   UNL     1       0.008  -7.049  -9.681  1.00  0.00    -0.031 C 
BRANCH  15  16
ATOM     16  C   UNL     1      -1.353  -6.397  -9.729  1.00  0.00     0.027 C 
BRANCH  16  17
ATOM     17  C   UNL     1      -2.409  -7.176  -8.924  1.00  0.00     0.004 C 
BRANCH  17  18
ATOM     18  C   UNL     1      -3.854  -7.007  -9.435  1.00  0.00     0.000 C 
BRANCH  18  19
ATOM     19  C   UNL     1      -4.948  -7.275  -8.386  1.00  0.00    -0.003 C 
ATOM     20  C   UNL     1      -4.650  -8.492  -7.510  1.00  0.00     0.004 C 
ENDBRANCH  18  19
ENDBRANCH  17  18
ENDBRANCH  16  17
ENDBRANCH  15  16
ENDBRANCH  13  14
ENDBRANCH  12  13
ENDBRANCH   1  11
TORSDOF 14
ENDMDL
MODEL 7
REMARK VINA RESULT:    -3.561      2.194      5.547
REMARK INTER + INTRA:          -9.131
REMARK INTER:                  -6.335
REMARK INTRA:                  -2.796
REMARK UNBOUND:                -2.657
REMARK SMILES CCCCCC=CCC=CCCCCCCCC(=O)[O-]
REMARK SMILES IDX 11 1 12 2 13 3 14 4 15 5 16 6 17 7 18 8 19 9 20 10 10 11
REMARK SMILES IDX 9 12 8 13 7 14 6 15 5 16 4 17 3 18 2 19 1 20
REMARK H PARENT
REMARK Flexibility Score: inf
ROOT
ATOM      1  C   UNL     1      -7.342  -5.738   3.956  1.00  0.00     0.027 C 
ENDROOT
BRANCH   1   2
ATOM      2  C   UNL     1      -6.902  -7.134   4.424  1.00  0.00     0.004 C 
BRANCH   2   3
ATOM      3  C   UNL     1      -5.604  -7.604   3.748  1.00  0.00     0.000 C 
BRANCH   3   4
ATOM      4  C   UNL     1      -5.784  -8.921   2.975  1.00  0.00     0.000 C 
BRANCH   4   5
ATOM      5  C   UNL     1      -7.256  -9.354   2.879  1.00  0.00     0.000 C 
BRANCH   5   6
ATOM      6  C   UNL     1      -7.840  -9.162   1.468  1.00  0.00     0.006 C 
BRANCH   6   7
ATOM      7  C   UNL     1      -6.777  -8.710   0.458  1.00  0.00     0.053 C 
BRANCH   7   8
ATOM      8  C   UNL     1      -7.375  -7.902  -0.653  1.00  0.00     0.041 C 
ATOM      9  O   UNL     1      -6.790  -6.868  -1.070  1.00  0.00    -0.550 OA
ATOM     10  O   UNL     1      -8.561  -8.311  -1.250  1.00  0.00    -0.550 OA
ENDBRANCH   7   8
ENDBRANCH   6   7
ENDBRANCH   5   6
ENDBRANCH   4   5
ENDBRANCH   3   4
ENDBRANCH   2   3
ENDBRANCH   1   2
BRANCH   1  11
ATOM     11  C   UNL     1      -7.169  -5.596   2.465  1.00  0.00    -0.031 C 
ATOM     12  C   UNL     1      -8.120  -5.139   1.630  1.00  0.00    -0.027 C 
BRANCH  12  13
ATOM     13  C   UNL     1      -9.515  -4.759   2.058  1.00  0.00     0.054 C 
BRANCH  13  14
ATOM     14  C   UNL     1      -9.840  -3.342   1.650  1.00  0.00    -0.027 C 
ATOM     15  C   UNL     1      -9.580  -2.267   2.415  1.00  0.00    -0.031 C 
BRANCH  15  16
ATOM     16  C   UNL     1      -8.897  -2.316   3.760  1.00  0.00     0.027 C 
BRANCH  16  17
ATOM     17  C   UNL     1      -7.617  -1.463   3.803  1.00  0.00     0.004 C 
BRANCH  17  18
ATOM     18  C   UNL     1      -6.373  -2.146   3.199  1.00  0.00     0.000 C 
BRANCH  18  19
ATOM     19  C   UNL     1      -5.790  -1.451   1.956  1.00  0.00    -0.003 C 
ATOM     20  C   UNL     1      -6.054  -2.220   0.662  1.00  0.00     0.004 C 
ENDBRANCH  18  19
ENDBRANCH  17  18
ENDBRANCH  16  17
ENDBRANCH  15  16
ENDBRANCH  13  14
ENDBRANCH  12  13
ENDBRANCH   1  11
TORSDOF 14
ENDMDL
MODEL 8
REMARK VINA RESULT:    -3.551      1.410      2.513
REMARK INTER + INTRA:          -9.115
REMARK INTER:                  -6.799
REMARK INTRA:                  -2.316
REMARK UNBOUND:                -2.657
REMARK SMILES CCCCCC=CCC=CCCCCCCCC(=O)[O-]
REMARK SMILES IDX 11 1 12 2 13 3 14 4 15 5 16 6 17 7 18 8 19 9 20 10 10 11
REMARK SMILES IDX 9 12 8 13 7 14 6 15 5 16 4 17 3 18 2 19 1 20
REMARK H PARENT
REMARK Flexibility Score: inf
ROOT
ATOM      1  C   UNL     1      -7.455  -7.538   5.459  1.00  0.00     0.027 C 
ENDROOT
BRANCH   1   2
ATOM      2  C   UNL     1      -7.104  -6.061   5.224  1.00  0.00     0.004 C 
BRANCH   2   3
ATOM      3  C   UNL     1      -5.593  -5.827   5.076  1.00  0.00     0.000 C 
BRANCH   3   4
ATOM      4  C   UNL     1      -5.218  -4.336   5.121  1.00  0.00     0.000 C 
BRANCH   4   5
ATOM      5  C   UNL     1      -6.450  -3.416   5.096  1.00  0.00     0.000 C 
BRANCH   5   6
ATOM      6  C   UNL     1      -6.387  -2.368   3.970  1.00  0.00     0.006 C 
BRANCH   6   7
ATOM      7  C   UNL     1      -6.798  -2.952   2.612  1.00  0.00     0.053 C 
BRANCH   7   8
ATOM      8  C   UNL     1      -6.118  -2.249   1.477  1.00  0.00     0.041 C 
ATOM      9  O   UNL     1      -5.653  -1.090   1.638  1.00  0.00    -0.550 OA
ATOM     10  O   UNL     1      -5.968  -2.887   0.252  1.00  0.00    -0.550 OA
ENDBRANCH   7   8
ENDBRANCH   6   7
ENDBRANCH   5   6
ENDBRANCH   4   5
ENDBRANCH   3   4
ENDBRANCH   2   3
ENDBRANCH   1   2
BRANCH   1  11
ATOM     11  C   UNL     1      -6.386  -8.217   6.277  1.00  0.00    -0.031 C 
ATOM     12  C   UNL     1      -5.634  -9.245   5.842  1.00  0.00    -0.027 C 
BRANCH  12  13
ATOM     13  C   UNL     1      -5.794  -9.904   4.495  1.00  0.00     0.054 C 
BRANCH  13  14
ATOM     14  C   UNL     1      -5.056  -9.135   3.426  1.00  0.00    -0.027 C 
ATOM     15  C   UNL     1      -5.630  -8.699   2.290  1.00  0.00    -0.031 C 
BRANCH  15  16
ATOM     16  C   UNL     1      -7.088  -8.878   1.941  1.00  0.00     0.027 C 
BRANCH  16  17
ATOM     17  C   UNL     1      -7.836  -7.537   1.830  1.00  0.00     0.004 C 
BRANCH  17  18
ATOM     18  C   UNL     1      -7.044  -6.421   1.119  1.00  0.00     0.000 C 
BRANCH  18  19
ATOM     19  C   UNL     1      -7.013  -6.523  -0.416  1.00  0.00    -0.003 C 
ATOM     20  C   UNL     1      -8.334  -7.017  -1.007  1.00  0.00     0.004 C 
ENDBRANCH  18  19
ENDBRANCH  17  18
ENDBRANCH  16  17
ENDBRANCH  15  16
ENDBRANCH  13  14
ENDBRANCH  12  13
ENDBRANCH   1  11
TORSDOF 14
ENDMDL
MODEL 9
REMARK VINA RESULT:    -3.510      1.984      4.883
REMARK INTER + INTRA:          -9.040
REMARK INTER:                  -6.649
REMARK INTRA:                  -2.391
REMARK UNBOUND:                -2.657
REMARK SMILES CCCCCC=CCC=CCCCCCCCC(=O)[O-]
REMARK SMILES IDX 11 1 12 2 13 3 14 4 15 5 16 6 17 7 18 8 19 9 20 10 10 11
REMARK SMILES IDX 9 12 8 13 7 14 6 15 5 16 4 17 3 18 2 19 1 20
REMARK H PARENT
REMARK Flexibility Score: inf
ROOT
ATOM      1  C   UNL     1      -6.577  -7.728   5.616  1.00  0.00     0.027 C 
ENDROOT
BRANCH   1   2
ATOM      2  C   UNL     1      -6.628  -8.858   4.577  1.00  0.00     0.004 C 
BRANCH   2   3
ATOM      3  C   UNL     1      -5.263  -9.124   3.923  1.00  0.00     0.000 C 
BRANCH   3   4
ATOM      4  C   UNL     1      -5.291  -8.934   2.398  1.00  0.00     0.000 C 
BRANCH   4   5
ATOM      5  C   UNL     1      -6.718  -8.783   1.847  1.00  0.00     0.000 C 
BRANCH   5   6
ATOM      6  C   UNL     1      -6.759  -8.725   0.310  1.00  0.00     0.006 C 
BRANCH   6   7
ATOM      7  C   UNL     1      -8.078  -8.139  -0.213  1.00  0.00     0.053 C 
BRANCH   7   8
ATOM      8  C   UNL     1      -7.843  -7.016  -1.175  1.00  0.00     0.041 C 
ATOM      9  O   UNL     1      -6.714  -6.461  -1.237  1.00  0.00    -0.550 OA
ATOM     10  O   UNL     1      -8.860  -6.604  -2.026  1.00  0.00    -0.550 OA
ENDBRANCH   7   8
ENDBRANCH   6   7
ENDBRANCH   5   6
ENDBRANCH   4   5
ENDBRANCH   3   4
ENDBRANCH   2   3
ENDBRANCH   1   2
BRANCH   1  11
ATOM     11  C   UNL     1      -5.659  -6.623   5.158  1.00  0.00    -0.031 C 
ATOM     12  C   UNL     1      -6.067  -5.515   4.513  1.00  0.00    -0.027 C 
BRANCH  12  13
ATOM     13  C   UNL     1      -7.493  -5.247   4.102  1.00  0.00     0.054 C 
BRANCH  13  14
ATOM     14  C   UNL     1      -7.736  -5.679   2.677  1.00  0.00    -0.027 C 
ATOM     15  C   UNL     1      -7.957  -4.821   1.664  1.00  0.00    -0.031 C 
BRANCH  15  16
ATOM     16  C   UNL     1      -7.955  -3.318   1.797  1.00  0.00     0.027 C 
BRANCH  16  17
ATOM     17  C   UNL     1      -6.651  -2.682   1.280  1.00  0.00     0.004 C 
BRANCH  17  18
ATOM     18  C   UNL     1      -5.913  -1.809   2.314  1.00  0.00     0.000 C 
BRANCH  18  19
ATOM     19  C   UNL     1      -6.747  -1.416   3.546  1.00  0.00    -0.003 C 
ATOM     20  C   UNL     1      -6.117  -1.870   4.863  1.00  0.00     0.004 C 
ENDBRANCH  18  19
ENDBRANCH  17  18
ENDBRANCH  16  17
ENDBRANCH  15  16
ENDBRANCH  13  14
ENDBRANCH  12  13
ENDBRANCH   1  11
TORSDOF 14
ENDMDL
