MODEL 1
REMARK VINA RESULT:    -4.446      0.000      0.000
REMARK INTER + INTRA:         -15.057
REMARK INTER:                 -11.204
REMARK INTRA:                  -3.853
REMARK UNBOUND:                -3.853
REMARK SMILES CCCCCCCCCCCCCCCCCCCCCCCCCCCC(=O)[O-]
REMARK SMILES IDX 15 1 16 2 17 3 18 4 19 5 20 6 21 7 22 8 23 9 24 10 25 11
REMARK SMILES IDX 26 12 27 13 28 14 29 15 30 16 14 17 13 18 12 19 11 20 10 21
REMARK SMILES IDX 9 22 8 23 7 24 6 25 5 26 4 27 3 28 2 29 1 30
REMARK H PARENT
REMARK Flexibility Score: inf
ROOT
ATOM      1  C   UNL     1     172.753 176.709 181.676  1.00  0.00     0.000 C 
ENDROOT
BRANCH   1   2
ATOM      2  C   UNL     1     171.568 175.752 181.870  1.00  0.00     0.000 C 
BRANCH   2   3
ATOM      3  C   UNL     1     170.348 176.436 182.507  1.00  0.00     0.000 C 
BRANCH   3   4
ATOM      4  C   UNL     1     170.400 177.978 182.547  1.00  0.00     0.000 C 
BRANCH   4   5
ATOM      5  C   UNL     1     169.262 178.670 181.766  1.00  0.00     0.000 C 
BRANCH   5   6
ATOM      6  C   UNL     1     169.246 178.289 180.276  1.00  0.00     0.000 C 
BRANCH   6   7
ATOM      7  C   UNL     1     167.919 178.686 179.620  1.00  0.00     0.000 C 
BRANCH   7   8
ATOM      8  C   UNL     1     166.816 178.856 180.676  1.00  0.00     0.000 C 
BRANCH   8   9
ATOM      9  C   UNL     1     165.849 180.003 180.333  1.00  0.00     0.000 C 
BRANCH   9  10
ATOM     10  C   UNL     1     164.382 179.540 180.158  1.00  0.00     0.000 C 
BRANCH  10  11
ATOM     11  C   UNL     1     163.792 178.898 181.424  1.00  0.00     0.000 C 
BRANCH  11  12
ATOM     12  C   UNL     1     163.495 177.390 181.287  1.00  0.00     0.006 C 
BRANCH  12  13
ATOM     13  C   UNL     1     163.194 176.944 179.843  1.00  0.00     0.053 C 
BRANCH  13  14
ATOM     14  C   UNL     1     161.730 176.945 179.533  1.00  0.00     0.041 C 
ATOM     15  O   UNL     1     161.277 177.682 178.616  1.00  0.00    -0.550 OA
ATOM     16  O   UNL     1     160.866 176.118 180.242  1.00  0.00    -0.550 OA
ENDBRANCH  13  14
ENDBRANCH  12  13
ENDBRANCH  11  12
ENDBRANCH  10  11
ENDBRANCH   9  10
ENDBRANCH   8   9
ENDBRANCH   7   8
ENDBRANCH   6   7
ENDBRANCH   5   6
ENDBRANCH   4   5
ENDBRANCH   3   4
ENDBRANCH   2   3
ENDBRANCH   1   2
BRANCH   1  17
ATOM     17  C   UNL     1     173.005 176.983 180.187  1.00  0.00     0.000 C 
BRANCH  17  18
ATOM     18  C   UNL     1     172.944 178.483 179.852  1.00  0.00     0.000 C 
BRANCH  18  19
ATOM     19  C   UNL     1     173.748 179.340 180.845  1.00  0.00     0.000 C 
BRANCH  19  20
ATOM     20  C   UNL     1     175.258 179.328 180.552  1.00  0.00     0.000 C 
BRANCH  20  21
ATOM     21  C   UNL     1     176.113 178.943 181.778  1.00  0.00     0.000 C 
BRANCH  21  22
ATOM     22  C   UNL     1     177.194 177.902 181.432  1.00  0.00    -0.000 C 
BRANCH  22  23
ATOM     23  C   UNL     1     176.597 176.569 180.953  1.00  0.00    -0.000 C 
BRANCH  23  24
ATOM     24  C   UNL     1     177.518 175.826 179.968  1.00  0.00    -0.000 C 
BRANCH  24  25
ATOM     25  C   UNL     1     176.796 175.437 178.668  1.00  0.00    -0.000 C 
BRANCH  25  26
ATOM     26  C   UNL     1     176.011 176.609 178.057  1.00  0.00    -0.000 C 
BRANCH  26  27
ATOM     27  C   UNL     1     176.921 177.739 177.547  1.00  0.00    -0.000 C 
BRANCH  27  28
ATOM     28  C   UNL     1     176.147 178.929 176.942  1.00  0.00    -0.000 C 
BRANCH  28  29
ATOM     29  C   UNL     1     174.840 178.492 176.266  1.00  0.00    -0.003 C 
ATOM     30  C   UNL     1     173.720 179.496 176.530  1.00  0.00     0.004 C 
ENDBRANCH  28  29
ENDBRANCH  27  28
ENDBRANCH  26  27
ENDBRANCH  25  26
ENDBRANCH  24  25
ENDBRANCH  23  24
ENDBRANCH  22  23
ENDBRANCH  21  22
ENDBRANCH  20  21
ENDBRANCH  19  20
ENDBRANCH  18  19
ENDBRANCH  17  18
ENDBRANCH   1  17
TORSDOF 26
ENDMDL
MODEL 2
REMARK VINA RESULT:    -4.442      7.078     10.999
REMARK INTER + INTRA:         -15.047
REMARK INTER:                  -9.838
REMARK INTRA:                  -5.209
REMARK UNBOUND:                -3.853
REMARK SMILES CCCCCCCCCCCCCCCCCCCCCCCCCCCC(=O)[O-]
REMARK SMILES IDX 15 1 16 2 17 3 18 4 19 5 20 6 21 7 22 8 23 9 24 10 25 11
REMARK SMILES IDX 26 12 27 13 28 14 29 15 30 16 14 17 13 18 12 19 11 20 10 21
REMARK SMILES IDX 9 22 8 23 7 24 6 25 5 26 4 27 3 28 2 29 1 30
REMARK H PARENT
REMARK Flexibility Score: inf
ROOT
ATOM      1  C   UNL     1     164.011 173.548 181.154  1.00  0.00     0.000 C 
ENDROOT
BRANCH   1   2
ATOM      2  C   UNL     1     164.038 174.730 182.134  1.00  0.00     0.000 C 
BRANCH   2   3
ATOM      3  C   UNL     1     163.721 176.073 181.456  1.00  0.00     0.000 C 
BRANCH   3   4
ATOM      4  C   UNL     1     162.233 176.310 181.121  1.00  0.00     0.000 C 
BRANCH   4   5
ATOM      5  C   UNL     1     161.796 177.788 181.195  1.00  0.00     0.000 C 
BRANCH   5   6
ATOM      6  C   UNL     1     162.968 178.741 181.483  1.00  0.00     0.000 C 
BRANCH   6   7
ATOM      7  C   UNL     1     162.939 179.951 180.543  1.00  0.00     0.000 C 
BRANCH   7   8
ATOM      8  C   UNL     1     161.734 179.877 179.593  1.00  0.00     0.000 C 
BRANCH   8   9
ATOM      9  C   UNL     1     162.156 179.786 178.116  1.00  0.00     0.000 C 
BRANCH   9  10
ATOM     10  C   UNL     1     162.246 178.333 177.589  1.00  0.00     0.000 C 
BRANCH  10  11
ATOM     11  C   UNL     1     163.667 177.928 177.165  1.00  0.00     0.000 C 
BRANCH  11  12
ATOM     12  C   UNL     1     164.617 177.631 178.345  1.00  0.00     0.006 C 
BRANCH  12  13
ATOM     13  C   UNL     1     165.858 178.542 178.388  1.00  0.00     0.053 C 
BRANCH  13  14
ATOM     14  C   UNL     1     166.459 178.634 179.756  1.00  0.00     0.041 C 
ATOM     15  O   UNL     1     166.553 179.750 180.332  1.00  0.00    -0.550 OA
ATOM     16  O   UNL     1     166.899 177.484 180.403  1.00  0.00    -0.550 OA
ENDBRANCH  13  14
ENDBRANCH  12  13
ENDBRANCH  11  12
ENDBRANCH  10  11
ENDBRANCH   9  10
ENDBRANCH   8   9
ENDBRANCH   7   8
ENDBRANCH   6   7
ENDBRANCH   5   6
ENDBRANCH   4   5
ENDBRANCH   3   4
ENDBRANCH   2   3
ENDBRANCH   1   2
BRANCH   1  17
ATOM     17  C   UNL     1     163.406 172.299 181.812  1.00  0.00     0.000 C 
BRANCH  17  18
ATOM     18  C   UNL     1     162.186 172.634 182.687  1.00  0.00     0.000 C 
BRANCH  18  19
ATOM     19  C   UNL     1     160.854 172.423 181.945  1.00  0.00     0.000 C 
BRANCH  19  20
ATOM     20  C   UNL     1     161.000 171.517 180.711  1.00  0.00     0.000 C 
BRANCH  20  21
ATOM     21  C   UNL     1     160.606 172.216 179.392  1.00  0.00     0.000 C 
BRANCH  21  22
ATOM     22  C   UNL     1     160.604 173.750 179.521  1.00  0.00    -0.000 C 
BRANCH  22  23
ATOM     23  C   UNL     1     160.815 174.456 178.172  1.00  0.00    -0.000 C 
BRANCH  23  24
ATOM     24  C   UNL     1     162.302 174.563 177.785  1.00  0.00    -0.000 C 
BRANCH  24  25
ATOM     25  C   UNL     1     162.524 174.444 176.269  1.00  0.00    -0.000 C 
BRANCH  25  26
ATOM     26  C   UNL     1     161.228 174.641 175.466  1.00  0.00    -0.000 C 
BRANCH  26  27
ATOM     27  C   UNL     1     161.118 176.043 174.844  1.00  0.00    -0.000 C 
BRANCH  27  28
ATOM     28  C   UNL     1     161.851 176.178 173.492  1.00  0.00    -0.000 C 
BRANCH  28  29
ATOM     29  C   UNL     1     163.057 177.125 173.574  1.00  0.00    -0.003 C 
ATOM     30  C   UNL     1     162.608 178.574 173.743  1.00  0.00     0.004 C 
ENDBRANCH  28  29
ENDBRANCH  27  28
ENDBRANCH  26  27
ENDBRANCH  25  26
ENDBRANCH  24  25
ENDBRANCH  23  24
ENDBRANCH  22  23
ENDBRANCH  21  22
ENDBRANCH  20  21
ENDBRANCH  19  20
ENDBRANCH  18  19
ENDBRANCH  17  18
ENDBRANCH   1  17
TORSDOF 26
ENDMDL
MODEL 3
REMARK VINA RESULT:    -4.394      6.173     10.973
REMARK INTER + INTRA:         -14.926
REMARK INTER:                  -9.131
REMARK INTRA:                  -5.796
REMARK UNBOUND:                -3.853
REMARK SMILES CCCCCCCCCCCCCCCCCCCCCCCCCCCC(=O)[O-]
REMARK SMILES IDX 15 1 16 2 17 3 18 4 19 5 20 6 21 7 22 8 23 9 24 10 25 11
REMARK SMILES IDX 26 12 27 13 28 14 29 15 30 16 14 17 13 18 12 19 11 20 10 21
REMARK SMILES IDX 9 22 8 23 7 24 6 25 5 26 4 27 3 28 2 29 1 30
REMARK H PARENT
REMARK Flexibility Score: inf
ROOT
ATOM      1  C   UNL     1     164.717 175.660 177.448  1.00  0.00     0.000 C 
ENDROOT
BRANCH   1   2
ATOM      2  C   UNL     1     165.557 175.063 178.587  1.00  0.00     0.000 C 
BRANCH   2   3
ATOM      3  C   UNL     1     164.697 174.421 179.687  1.00  0.00     0.000 C 
BRANCH   3   4
ATOM      4  C   UNL     1     164.881 175.014 181.100  1.00  0.00     0.000 C 
BRANCH   4   5
ATOM      5  C   UNL     1     163.735 175.946 181.548  1.00  0.00     0.000 C 
BRANCH   5   6
ATOM      6  C   UNL     1     162.359 175.484 181.039  1.00  0.00     0.000 C 
BRANCH   6   7
ATOM      7  C   UNL     1     161.473 176.682 180.681  1.00  0.00     0.000 C 
BRANCH   7   8
ATOM      8  C   UNL     1     162.079 177.990 181.213  1.00  0.00     0.000 C 
BRANCH   8   9
ATOM      9  C   UNL     1     161.989 179.136 180.191  1.00  0.00     0.000 C 
BRANCH   9  10
ATOM     10  C   UNL     1     163.305 179.940 180.049  1.00  0.00     0.000 C 
BRANCH  10  11
ATOM     11  C   UNL     1     164.435 179.419 180.951  1.00  0.00     0.000 C 
BRANCH  11  12
ATOM     12  C   UNL     1     165.845 179.552 180.337  1.00  0.00     0.006 C 
BRANCH  12  13
ATOM     13  C   UNL     1     166.596 178.214 180.208  1.00  0.00     0.053 C 
BRANCH  13  14
ATOM     14  C   UNL     1     167.857 178.336 179.411  1.00  0.00     0.041 C 
ATOM     15  O   UNL     1     168.581 179.361 179.523  1.00  0.00    -0.550 OA
ATOM     16  O   UNL     1     168.244 177.310 178.556  1.00  0.00    -0.550 OA
ENDBRANCH  13  14
ENDBRANCH  12  13
ENDBRANCH  11  12
ENDBRANCH  10  11
ENDBRANCH   9  10
ENDBRANCH   8   9
ENDBRANCH   7   8
ENDBRANCH   6   7
ENDBRANCH   5   6
ENDBRANCH   4   5
ENDBRANCH   3   4
ENDBRANCH   2   3
ENDBRANCH   1   2
BRANCH   1  17
ATOM     17  C   UNL     1     163.961 176.911 177.915  1.00  0.00     0.000 C 
BRANCH  17  18
ATOM     18  C   UNL     1     164.129 178.091 176.943  1.00  0.00     0.000 C 
BRANCH  18  19
ATOM     19  C   UNL     1     162.888 178.306 176.059  1.00  0.00     0.000 C 
BRANCH  19  20
ATOM     20  C   UNL     1     163.038 177.678 174.663  1.00  0.00     0.000 C 
BRANCH  20  21
ATOM     21  C   UNL     1     161.874 176.736 174.290  1.00  0.00     0.000 C 
BRANCH  21  22
ATOM     22  C   UNL     1     161.838 175.474 175.172  1.00  0.00    -0.000 C 
BRANCH  22  23
ATOM     23  C   UNL     1     160.627 175.451 176.118  1.00  0.00    -0.000 C 
BRANCH  23  24
ATOM     24  C   UNL     1     160.982 174.930 177.523  1.00  0.00    -0.000 C 
BRANCH  24  25
ATOM     25  C   UNL     1     161.527 173.493 177.496  1.00  0.00    -0.000 C 
BRANCH  25  26
ATOM     26  C   UNL     1     161.027 172.652 178.682  1.00  0.00    -0.000 C 
BRANCH  26  27
ATOM     27  C   UNL     1     162.170 172.123 179.564  1.00  0.00    -0.000 C 
BRANCH  27  28
ATOM     28  C   UNL     1     161.821 172.085 181.068  1.00  0.00    -0.000 C 
BRANCH  28  29
ATOM     29  C   UNL     1     163.022 171.684 181.936  1.00  0.00    -0.003 C 
ATOM     30  C   UNL     1     163.039 172.465 183.248  1.00  0.00     0.004 C 
ENDBRANCH  28  29
ENDBRANCH  27  28
ENDBRANCH  26  27
ENDBRANCH  25  26
ENDBRANCH  24  25
ENDBRANCH  23  24
ENDBRANCH  22  23
ENDBRANCH  21  22
ENDBRANCH  20  21
ENDBRANCH  19  20
ENDBRANCH  18  19
ENDBRANCH  17  18
ENDBRANCH   1  17
TORSDOF 26
ENDMDL
MODEL 4
REMARK VINA RESULT:    -4.379      5.892     11.116
REMARK INTER + INTRA:         -14.888
REMARK INTER:                  -9.691
REMARK INTRA:                  -5.197
REMARK UNBOUND:                -3.853
REMARK SMILES CCCCCCCCCCCCCCCCCCCCCCCCCCCC(=O)[O-]
REMARK SMILES IDX 15 1 16 2 17 3 18 4 19 5 20 6 21 7 22 8 23 9 24 10 25 11
REMARK SMILES IDX 26 12 27 13 28 14 29 15 30 16 14 17 13 18 12 19 11 20 10 21
REMARK SMILES IDX 9 22 8 23 7 24 6 25 5 26 4 27 3 28 2 29 1 30
REMARK H PARENT
REMARK Flexibility Score: inf
ROOT
ATOM      1  C   UNL     1     162.870 176.244 181.031  1.00  0.00     0.000 C 
ENDROOT
BRANCH   1   2
ATOM      2  C   UNL     1     163.498 177.575 181.467  1.00  0.00     0.000 C 
BRANCH   2   3
ATOM      3  C   UNL     1     162.491 178.736 181.472  1.00  0.00     0.000 C 
BRANCH   3   4
ATOM      4  C   UNL     1     162.802 179.886 180.491  1.00  0.00     0.000 C 
BRANCH   4   5
ATOM      5  C   UNL     1     161.761 180.056 179.365  1.00  0.00     0.000 C 
BRANCH   5   6
ATOM      6  C   UNL     1     161.744 178.869 178.387  1.00  0.00     0.000 C 
BRANCH   6   7
ATOM      7  C   UNL     1     162.306 179.274 177.020  1.00  0.00     0.000 C 
BRANCH   7   8
ATOM      8  C   UNL     1     163.835 179.124 176.990  1.00  0.00     0.000 C 
BRANCH   8   9
ATOM      9  C   UNL     1     164.304 177.777 177.566  1.00  0.00     0.000 C 
BRANCH   9  10
ATOM     10  C   UNL     1     165.640 177.870 178.343  1.00  0.00     0.000 C 
BRANCH  10  11
ATOM     11  C   UNL     1     166.064 176.538 178.984  1.00  0.00     0.000 C 
BRANCH  11  12
ATOM     12  C   UNL     1     166.964 176.695 180.227  1.00  0.00     0.006 C 
BRANCH  12  13
ATOM     13  C   UNL     1     167.098 178.148 180.719  1.00  0.00     0.053 C 
BRANCH  13  14
ATOM     14  C   UNL     1     168.518 178.621 180.738  1.00  0.00     0.041 C 
ATOM     15  O   UNL     1     169.193 178.555 181.799  1.00  0.00    -0.550 OA
ATOM     16  O   UNL     1     169.104 179.118 179.578  1.00  0.00    -0.550 OA
ENDBRANCH  13  14
ENDBRANCH  12  13
ENDBRANCH  11  12
ENDBRANCH  10  11
ENDBRANCH   9  10
ENDBRANCH   8   9
ENDBRANCH   7   8
ENDBRANCH   6   7
ENDBRANCH   5   6
ENDBRANCH   4   5
ENDBRANCH   3   4
ENDBRANCH   2   3
ENDBRANCH   1   2
BRANCH   1  17
ATOM     17  C   UNL     1     161.343 176.362 180.925  1.00  0.00     0.000 C 
BRANCH  17  18
ATOM     18  C   UNL     1     160.628 175.063 181.336  1.00  0.00     0.000 C 
BRANCH  18  19
ATOM     19  C   UNL     1     161.613 173.923 181.646  1.00  0.00     0.000 C 
BRANCH  19  20
ATOM     20  C   UNL     1     160.908 172.647 182.138  1.00  0.00     0.000 C 
BRANCH  20  21
ATOM     21  C   UNL     1     160.629 171.632 181.010  1.00  0.00     0.000 C 
BRANCH  21  22
ATOM     22  C   UNL     1     161.292 172.038 179.680  1.00  0.00    -0.000 C 
BRANCH  22  23
ATOM     23  C   UNL     1     162.458 171.113 179.296  1.00  0.00    -0.000 C 
BRANCH  23  24
ATOM     24  C   UNL     1     163.591 171.858 178.567  1.00  0.00    -0.000 C 
BRANCH  24  25
ATOM     25  C   UNL     1     163.569 173.370 178.838  1.00  0.00    -0.000 C 
BRANCH  25  26
ATOM     26  C   UNL     1     163.294 174.192 177.568  1.00  0.00    -0.000 C 
BRANCH  26  27
ATOM     27  C   UNL     1     161.969 174.970 177.635  1.00  0.00    -0.000 C 
BRANCH  27  28
ATOM     28  C   UNL     1     161.079 174.782 176.388  1.00  0.00    -0.000 C 
BRANCH  28  29
ATOM     29  C   UNL     1     160.692 176.119 175.740  1.00  0.00    -0.003 C 
ATOM     30  C   UNL     1     161.613 176.452 174.569  1.00  0.00     0.004 C 
ENDBRANCH  28  29
ENDBRANCH  27  28
ENDBRANCH  26  27
ENDBRANCH  25  26
ENDBRANCH  24  25
ENDBRANCH  23  24
ENDBRANCH  22  23
ENDBRANCH  21  22
ENDBRANCH  20  21
ENDBRANCH  19  20
ENDBRANCH  18  19
ENDBRANCH  17  18
ENDBRANCH   1  17
TORSDOF 26
ENDMDL
MODEL 5
REMARK VINA RESULT:    -4.379      4.548     12.004
REMARK INTER + INTRA:         -14.888
REMARK INTER:                 -11.501
REMARK INTRA:                  -3.387
REMARK UNBOUND:                -3.853
REMARK SMILES CCCCCCCCCCCCCCCCCCCCCCCCCCCC(=O)[O-]
REMARK SMILES IDX 15 1 16 2 17 3 18 4 19 5 20 6 21 7 22 8 23 9 24 10 25 11
REMARK SMILES IDX 26 12 27 13 28 14 29 15 30 16 14 17 13 18 12 19 11 20 10 21
REMARK SMILES IDX 9 22 8 23 7 24 6 25 5 26 4 27 3 28 2 29 1 30
REMARK H PARENT
REMARK Flexibility Score: inf
ROOT
ATOM      1  C   UNL     1     165.764 176.539 179.704  1.00  0.00     0.000 C 
ENDROOT
BRANCH   1   2
ATOM      2  C   UNL     1     166.082 177.807 178.898  1.00  0.00     0.000 C 
BRANCH   2   3
ATOM      3  C   UNL     1     167.579 178.156 178.901  1.00  0.00     0.000 C 
BRANCH   3   4
ATOM      4  C   UNL     1     168.407 177.502 180.028  1.00  0.00     0.000 C 
BRANCH   4   5
ATOM      5  C   UNL     1     168.867 178.484 181.126  1.00  0.00     0.000 C 
BRANCH   5   6
ATOM      6  C   UNL     1     170.392 178.682 181.147  1.00  0.00     0.000 C 
BRANCH   6   7
ATOM      7  C   UNL     1     170.887 179.296 179.834  1.00  0.00     0.000 C 
BRANCH   7   8
ATOM      8  C   UNL     1     172.419 179.407 179.824  1.00  0.00     0.000 C 
BRANCH   8   9
ATOM      9  C   UNL     1     173.050 178.933 181.146  1.00  0.00     0.000 C 
BRANCH   9  10
ATOM     10  C   UNL     1     174.413 178.224 180.959  1.00  0.00     0.000 C 
BRANCH  10  11
ATOM     11  C   UNL     1     175.366 178.978 180.017  1.00  0.00     0.000 C 
BRANCH  11  12
ATOM     12  C   UNL     1     176.845 178.942 180.455  1.00  0.00     0.006 C 
BRANCH  12  13
ATOM     13  C   UNL     1     177.613 177.706 179.952  1.00  0.00     0.053 C 
BRANCH  13  14
ATOM     14  C   UNL     1     177.196 177.289 178.576  1.00  0.00     0.041 C 
ATOM     15  O   UNL     1     177.512 177.991 177.579  1.00  0.00    -0.550 OA
ATOM     16  O   UNL     1     176.473 176.115 178.392  1.00  0.00    -0.550 OA
ENDBRANCH  13  14
ENDBRANCH  12  13
ENDBRANCH  11  12
ENDBRANCH  10  11
ENDBRANCH   9  10
ENDBRANCH   8   9
ENDBRANCH   7   8
ENDBRANCH   6   7
ENDBRANCH   5   6
ENDBRANCH   4   5
ENDBRANCH   3   4
ENDBRANCH   2   3
ENDBRANCH   1   2
BRANCH   1  17
ATOM     17  C   UNL     1     164.943 176.873 180.958  1.00  0.00     0.000 C 
BRANCH  17  18
ATOM     18  C   UNL     1     164.758 178.388 181.148  1.00  0.00     0.000 C 
BRANCH  18  19
ATOM     19  C   UNL     1     163.435 178.735 181.852  1.00  0.00     0.000 C 
BRANCH  19  20
ATOM     20  C   UNL     1     162.555 179.688 181.027  1.00  0.00     0.000 C 
BRANCH  20  21
ATOM     21  C   UNL     1     163.030 179.844 179.566  1.00  0.00     0.000 C 
BRANCH  21  22
ATOM     22  C   UNL     1     161.856 179.862 178.569  1.00  0.00    -0.000 C 
BRANCH  22  23
ATOM     23  C   UNL     1     161.329 178.452 178.253  1.00  0.00    -0.000 C 
BRANCH  23  24
ATOM     24  C   UNL     1     162.460 177.420 178.087  1.00  0.00    -0.000 C 
BRANCH  24  25
ATOM     25  C   UNL     1     162.146 176.087 178.784  1.00  0.00    -0.000 C 
BRANCH  25  26
ATOM     26  C   UNL     1     161.391 176.279 180.109  1.00  0.00    -0.000 C 
BRANCH  26  27
ATOM     27  C   UNL     1     161.110 174.953 180.835  1.00  0.00    -0.000 C 
BRANCH  27  28
ATOM     28  C   UNL     1     162.387 174.222 181.300  1.00  0.00    -0.000 C 
BRANCH  28  29
ATOM     29  C   UNL     1     162.080 172.861 181.941  1.00  0.00    -0.003 C 
ATOM     30  C   UNL     1     160.707 172.864 182.611  1.00  0.00     0.004 C 
ENDBRANCH  28  29
ENDBRANCH  27  28
ENDBRANCH  26  27
ENDBRANCH  25  26
ENDBRANCH  24  25
ENDBRANCH  23  24
ENDBRANCH  22  23
ENDBRANCH  21  22
ENDBRANCH  20  21
ENDBRANCH  19  20
ENDBRANCH  18  19
ENDBRANCH  17  18
ENDBRANCH   1  17
TORSDOF 26
ENDMDL
MODEL 6
REMARK VINA RESULT:    -4.377      4.556     11.971
REMARK INTER + INTRA:         -14.884
REMARK INTER:                 -11.938
REMARK INTRA:                  -2.946
REMARK UNBOUND:                -3.853
REMARK SMILES CCCCCCCCCCCCCCCCCCCCCCCCCCCC(=O)[O-]
REMARK SMILES IDX 15 1 16 2 17 3 18 4 19 5 20 6 21 7 22 8 23 9 24 10 25 11
REMARK SMILES IDX 26 12 27 13 28 14 29 15 30 16 14 17 13 18 12 19 11 20 10 21
REMARK SMILES IDX 9 22 8 23 7 24 6 25 5 26 4 27 3 28 2 29 1 30
REMARK H PARENT
REMARK Flexibility Score: inf
ROOT
ATOM      1  C   UNL     1     168.541 178.067 180.782  1.00  0.00     0.000 C 
ENDROOT
BRANCH   1   2
ATOM      2  C   UNL     1     169.936 178.551 180.359  1.00  0.00     0.000 C 
BRANCH   2   3
ATOM      3  C   UNL     1     170.819 178.940 181.555  1.00  0.00     0.000 C 
BRANCH   3   4
ATOM      4  C   UNL     1     172.114 179.703 181.200  1.00  0.00     0.000 C 
BRANCH   4   5
ATOM      5  C   UNL     1     173.350 178.798 181.014  1.00  0.00     0.000 C 
BRANCH   5   6
ATOM      6  C   UNL     1     173.610 178.443 179.540  1.00  0.00     0.000 C 
BRANCH   6   7
ATOM      7  C   UNL     1     174.591 179.431 178.900  1.00  0.00     0.000 C 
BRANCH   7   8
ATOM      8  C   UNL     1     175.820 178.698 178.341  1.00  0.00     0.000 C 
BRANCH   8   9
ATOM      9  C   UNL     1     177.133 179.180 178.984  1.00  0.00     0.000 C 
BRANCH   9  10
ATOM     10  C   UNL     1     176.982 179.568 180.475  1.00  0.00     0.000 C 
BRANCH  10  11
ATOM     11  C   UNL     1     177.046 178.362 181.426  1.00  0.00     0.000 C 
BRANCH  11  12
ATOM     12  C   UNL     1     177.808 177.148 180.856  1.00  0.00     0.006 C 
BRANCH  12  13
ATOM     13  C   UNL     1     176.930 175.896 180.666  1.00  0.00     0.053 C 
BRANCH  13  14
ATOM     14  C   UNL     1     177.376 175.049 179.515  1.00  0.00     0.041 C 
ATOM     15  O   UNL     1     177.009 175.330 178.343  1.00  0.00    -0.550 OA
ATOM     16  O   UNL     1     178.211 173.959 179.733  1.00  0.00    -0.550 OA
ENDBRANCH  13  14
ENDBRANCH  12  13
ENDBRANCH  11  12
ENDBRANCH  10  11
ENDBRANCH   9  10
ENDBRANCH   8   9
ENDBRANCH   7   8
ENDBRANCH   6   7
ENDBRANCH   5   6
ENDBRANCH   4   5
ENDBRANCH   3   4
ENDBRANCH   2   3
ENDBRANCH   1   2
BRANCH   1  17
ATOM     17  C   UNL     1     167.443 178.964 180.195  1.00  0.00     0.000 C 
BRANCH  17  18
ATOM     18  C   UNL     1     166.031 178.438 180.508  1.00  0.00     0.000 C 
BRANCH  18  19
ATOM     19  C   UNL     1     165.027 179.573 180.773  1.00  0.00     0.000 C 
BRANCH  19  20
ATOM     20  C   UNL     1     163.798 179.105 181.570  1.00  0.00     0.000 C 
BRANCH  20  21
ATOM     21  C   UNL     1     162.465 179.636 181.003  1.00  0.00     0.000 C 
BRANCH  21  22
ATOM     22  C   UNL     1     162.533 179.885 179.485  1.00  0.00    -0.000 C 
BRANCH  22  23
ATOM     23  C   UNL     1     161.327 179.295 178.736  1.00  0.00    -0.000 C 
BRANCH  23  24
ATOM     24  C   UNL     1     161.671 177.990 177.994  1.00  0.00    -0.000 C 
BRANCH  24  25
ATOM     25  C   UNL     1     163.159 177.624 178.108  1.00  0.00    -0.000 C 
BRANCH  25  26
ATOM     26  C   UNL     1     163.395 176.379 178.979  1.00  0.00    -0.000 C 
BRANCH  26  27
ATOM     27  C   UNL     1     162.569 175.165 178.522  1.00  0.00    -0.000 C 
BRANCH  27  28
ATOM     28  C   UNL     1     161.835 174.449 179.677  1.00  0.00    -0.000 C 
BRANCH  28  29
ATOM     29  C   UNL     1     161.884 175.252 180.985  1.00  0.00    -0.003 C 
ATOM     30  C   UNL     1     160.526 175.876 181.299  1.00  0.00     0.004 C 
ENDBRANCH  28  29
ENDBRANCH  27  28
ENDBRANCH  26  27
ENDBRANCH  25  26
ENDBRANCH  24  25
ENDBRANCH  23  24
ENDBRANCH  22  23
ENDBRANCH  21  22
ENDBRANCH  20  21
ENDBRANCH  19  20
ENDBRANCH  18  19
ENDBRANCH  17  18
ENDBRANCH   1  17
TORSDOF 26
ENDMDL
MODEL 7
REMARK VINA RESULT:    -4.363      4.259     11.099
REMARK INTER + INTRA:         -14.848
REMARK INTER:                 -11.457
REMARK INTRA:                  -3.391
REMARK UNBOUND:                -3.853
REMARK SMILES CCCCCCCCCCCCCCCCCCCCCCCCCCCC(=O)[O-]
REMARK SMILES IDX 15 1 16 2 17 3 18 4 19 5 20 6 21 7 22 8 23 9 24 10 25 11
REMARK SMILES IDX 26 12 27 13 28 14 29 15 30 16 14 17 13 18 12 19 11 20 10 21
REMARK SMILES IDX 9 22 8 23 7 24 6 25 5 26 4 27 3 28 2 29 1 30
REMARK H PARENT
REMARK Flexibility Score: inf
ROOT
ATOM      1  C   UNL     1     169.268 175.421 181.404  1.00  0.00     0.000 C 
ENDROOT
BRANCH   1   2
ATOM      2  C   UNL     1     170.434 176.347 181.782  1.00  0.00     0.000 C 
BRANCH   2   3
ATOM      3  C   UNL     1     170.028 177.436 182.787  1.00  0.00     0.000 C 
BRANCH   3   4
ATOM      4  C   UNL     1     170.267 178.888 182.321  1.00  0.00     0.000 C 
BRANCH   4   5
ATOM      5  C   UNL     1     171.271 179.021 181.157  1.00  0.00     0.000 C 
BRANCH   5   6
ATOM      6  C   UNL     1     172.344 180.093 181.416  1.00  0.00     0.000 C 
BRANCH   6   7
ATOM      7  C   UNL     1     173.710 179.646 180.885  1.00  0.00     0.000 C 
BRANCH   7   8
ATOM      8  C   UNL     1     173.896 178.131 181.057  1.00  0.00     0.000 C 
BRANCH   8   9
ATOM      9  C   UNL     1     175.375 177.735 181.204  1.00  0.00     0.000 C 
BRANCH   9  10
ATOM     10  C   UNL     1     176.308 178.934 181.501  1.00  0.00     0.000 C 
BRANCH  10  11
ATOM     11  C   UNL     1     177.256 179.269 180.338  1.00  0.00     0.000 C 
BRANCH  11  12
ATOM     12  C   UNL     1     177.032 178.412 179.074  1.00  0.00     0.006 C 
BRANCH  12  13
ATOM     13  C   UNL     1     176.328 179.165 177.929  1.00  0.00     0.053 C 
BRANCH  13  14
ATOM     14  C   UNL     1     176.593 178.554 176.589  1.00  0.00     0.041 C 
ATOM     15  O   UNL     1     177.773 178.462 176.158  1.00  0.00    -0.550 OA
ATOM     16  O   UNL     1     175.539 178.069 175.822  1.00  0.00    -0.550 OA
ENDBRANCH  13  14
ENDBRANCH  12  13
ENDBRANCH  11  12
ENDBRANCH  10  11
ENDBRANCH   9  10
ENDBRANCH   8   9
ENDBRANCH   7   8
ENDBRANCH   6   7
ENDBRANCH   5   6
ENDBRANCH   4   5
ENDBRANCH   3   4
ENDBRANCH   2   3
ENDBRANCH   1   2
BRANCH   1  17
ATOM     17  C   UNL     1     168.110 176.216 180.783  1.00  0.00     0.000 C 
BRANCH  17  18
ATOM     18  C   UNL     1     168.500 176.864 179.443  1.00  0.00     0.000 C 
BRANCH  18  19
ATOM     19  C   UNL     1     167.843 178.240 179.243  1.00  0.00     0.000 C 
BRANCH  19  20
ATOM     20  C   UNL     1     166.961 178.656 180.432  1.00  0.00     0.000 C 
BRANCH  20  21
ATOM     21  C   UNL     1     165.584 179.208 180.005  1.00  0.00     0.000 C 
BRANCH  21  22
ATOM     22  C   UNL     1     164.671 179.498 181.211  1.00  0.00    -0.000 C 
BRANCH  22  23
ATOM     23  C   UNL     1     163.215 179.765 180.797  1.00  0.00    -0.000 C 
BRANCH  23  24
ATOM     24  C   UNL     1     162.964 179.496 179.302  1.00  0.00    -0.000 C 
BRANCH  24  25
ATOM     25  C   UNL     1     161.758 178.574 179.066  1.00  0.00    -0.000 C 
BRANCH  25  26
ATOM     26  C   UNL     1     162.128 177.312 178.269  1.00  0.00    -0.000 C 
BRANCH  26  27
ATOM     27  C   UNL     1     161.840 176.012 179.040  1.00  0.00    -0.000 C 
BRANCH  27  28
ATOM     28  C   UNL     1     161.951 176.166 180.572  1.00  0.00    -0.000 C 
BRANCH  28  29
ATOM     29  C   UNL     1     163.024 175.248 181.175  1.00  0.00    -0.003 C 
ATOM     30  C   UNL     1     164.283 176.034 181.532  1.00  0.00     0.004 C 
ENDBRANCH  28  29
ENDBRANCH  27  28
ENDBRANCH  26  27
ENDBRANCH  25  26
ENDBRANCH  24  25
ENDBRANCH  23  24
ENDBRANCH  22  23
ENDBRANCH  21  22
ENDBRANCH  20  21
ENDBRANCH  19  20
ENDBRANCH  18  19
ENDBRANCH  17  18
ENDBRANCH   1  17
TORSDOF 26
ENDMDL
MODEL 8
REMARK VINA RESULT:    -4.321      2.504      6.218
REMARK INTER + INTRA:         -14.743
REMARK INTER:                 -12.204
REMARK INTRA:                  -2.539
REMARK UNBOUND:                -3.853
REMARK SMILES CCCCCCCCCCCCCCCCCCCCCCCCCCCC(=O)[O-]
REMARK SMILES IDX 15 1 16 2 17 3 18 4 19 5 20 6 21 7 22 8 23 9 24 10 25 11
REMARK SMILES IDX 26 12 27 13 28 14 29 15 30 16 14 17 13 18 12 19 11 20 10 21
REMARK SMILES IDX 9 22 8 23 7 24 6 25 5 26 4 27 3 28 2 29 1 30
REMARK H PARENT
REMARK Flexibility Score: inf
ROOT
ATOM      1  C   UNL     1     164.782 178.327 180.757  1.00  0.00     0.000 C 
ENDROOT
BRANCH   1   2
ATOM      2  C   UNL     1     163.880 178.894 181.862  1.00  0.00     0.000 C 
BRANCH   2   3
ATOM      3  C   UNL     1     162.411 179.018 181.426  1.00  0.00     0.000 C 
BRANCH   3   4
ATOM      4  C   UNL     1     162.122 180.115 180.380  1.00  0.00     0.000 C 
BRANCH   4   5
ATOM      5  C   UNL     1     161.554 179.584 179.047  1.00  0.00     0.000 C 
BRANCH   5   6
ATOM      6  C   UNL     1     162.653 179.188 178.047  1.00  0.00     0.000 C 
BRANCH   6   7
ATOM      7  C   UNL     1     162.778 177.665 177.939  1.00  0.00     0.000 C 
BRANCH   7   8
ATOM      8  C   UNL     1     161.638 176.967 178.695  1.00  0.00     0.000 C 
BRANCH   8   9
ATOM      9  C   UNL     1     162.112 175.702 179.433  1.00  0.00     0.000 C 
BRANCH   9  10
ATOM     10  C   UNL     1     161.184 175.285 180.599  1.00  0.00     0.000 C 
BRANCH  10  11
ATOM     11  C   UNL     1     161.038 173.761 180.744  1.00  0.00     0.000 C 
BRANCH  11  12
ATOM     12  C   UNL     1     161.174 173.249 182.193  1.00  0.00     0.006 C 
BRANCH  12  13
ATOM     13  C   UNL     1     162.375 172.310 182.412  1.00  0.00     0.053 C 
BRANCH  13  14
ATOM     14  C   UNL     1     163.664 172.904 181.936  1.00  0.00     0.041 C 
ATOM     15  O   UNL     1     164.220 173.823 182.595  1.00  0.00    -0.550 OA
ATOM     16  O   UNL     1     164.263 172.431 180.774  1.00  0.00    -0.550 OA
ENDBRANCH  13  14
ENDBRANCH  12  13
ENDBRANCH  11  12
ENDBRANCH  10  11
ENDBRANCH   9  10
ENDBRANCH   8   9
ENDBRANCH   7   8
ENDBRANCH   6   7
ENDBRANCH   5   6
ENDBRANCH   4   5
ENDBRANCH   3   4
ENDBRANCH   2   3
ENDBRANCH   1   2
BRANCH   1  17
ATOM     17  C   UNL     1     165.746 179.398 180.226  1.00  0.00     0.000 C 
BRANCH  17  18
ATOM     18  C   UNL     1     167.024 178.787 179.625  1.00  0.00     0.000 C 
BRANCH  18  19
ATOM     19  C   UNL     1     168.138 178.610 180.671  1.00  0.00     0.000 C 
BRANCH  19  20
ATOM     20  C   UNL     1     168.589 177.147 180.817  1.00  0.00     0.000 C 
BRANCH  20  21
ATOM     21  C   UNL     1     169.762 176.967 181.804  1.00  0.00     0.000 C 
BRANCH  21  22
ATOM     22  C   UNL     1     170.570 178.264 181.996  1.00  0.00    -0.000 C 
BRANCH  22  23
ATOM     23  C   UNL     1     171.628 178.467 180.899  1.00  0.00    -0.000 C 
BRANCH  23  24
ATOM     24  C   UNL     1     172.482 179.727 181.125  1.00  0.00    -0.000 C 
BRANCH  24  25
ATOM     25  C   UNL     1     173.989 179.424 181.124  1.00  0.00    -0.000 C 
BRANCH  25  26
ATOM     26  C   UNL     1     174.286 177.917 181.192  1.00  0.00    -0.000 C 
BRANCH  26  27
ATOM     27  C   UNL     1     175.764 177.612 181.488  1.00  0.00    -0.000 C 
BRANCH  27  28
ATOM     28  C   UNL     1     176.679 178.852 181.403  1.00  0.00    -0.000 C 
BRANCH  28  29
ATOM     29  C   UNL     1     177.458 178.913 180.081  1.00  0.00    -0.003 C 
ATOM     30  C   UNL     1     176.975 180.069 179.210  1.00  0.00     0.004 C 
ENDBRANCH  28  29
ENDBRANCH  27  28
ENDBRANCH  26  27
ENDBRANCH  25  26
ENDBRANCH  24  25
ENDBRANCH  23  24
ENDBRANCH  22  23
ENDBRANCH  21  22
ENDBRANCH  20  21
ENDBRANCH  19  20
ENDBRANCH  18  19
ENDBRANCH  17  18
ENDBRANCH   1  17
TORSDOF 26
ENDMDL
MODEL 9
REMARK VINA RESULT:    -4.306      1.709      2.800
REMARK INTER + INTRA:         -14.703
REMARK INTER:                 -10.969
REMARK INTRA:                  -3.734
REMARK UNBOUND:                -3.853
REMARK SMILES CCCCCCCCCCCCCCCCCCCCCCCCCCCC(=O)[O-]
REMARK SMILES IDX 15 1 16 2 17 3 18 4 19 5 20 6 21 7 22 8 23 9 24 10 25 11
REMARK SMILES IDX 26 12 27 13 28 14 29 15 30 16 14 17 13 18 12 19 11 20 10 21
REMARK SMILES IDX 9 22 8 23 7 24 6 25 5 26 4 27 3 28 2 29 1 30
REMARK H PARENT
REMARK Flexibility Score: inf
ROOT
ATOM      1  C   UNL     1     169.850 178.257 179.706  1.00  0.00     0.000 C 
ENDROOT
BRANCH   1   2
ATOM      2  C   UNL     1     169.675 176.743 179.518  1.00  0.00     0.000 C 
BRANCH   2   3
ATOM      3  C   UNL     1     168.821 176.100 180.623  1.00  0.00     0.000 C 
BRANCH   3   4
ATOM      4  C   UNL     1     167.423 175.618 180.182  1.00  0.00     0.000 C 
BRANCH   4   5
ATOM      5  C   UNL     1     166.487 176.747 179.701  1.00  0.00     0.000 C 
BRANCH   5   6
ATOM      6  C   UNL     1     166.313 177.861 180.748  1.00  0.00     0.000 C 
BRANCH   6   7
ATOM      7  C   UNL     1     166.087 179.219 180.075  1.00  0.00     0.000 C 
BRANCH   7   8
ATOM      8  C   UNL     1     164.774 179.856 180.554  1.00  0.00     0.000 C 
BRANCH   8   9
ATOM      9  C   UNL     1     164.031 178.973 181.572  1.00  0.00     0.000 C 
BRANCH   9  10
ATOM     10  C   UNL     1     162.494 179.159 181.543  1.00  0.00     0.000 C 
BRANCH  10  11
ATOM     11  C   UNL     1     161.729 177.852 181.278  1.00  0.00     0.000 C 
BRANCH  11  12
ATOM     12  C   UNL     1     162.631 176.654 180.916  1.00  0.00     0.006 C 
BRANCH  12  13
ATOM     13  C   UNL     1     161.899 175.299 180.926  1.00  0.00     0.053 C 
BRANCH  13  14
ATOM     14  C   UNL     1     160.989 175.127 179.751  1.00  0.00     0.041 C 
ATOM     15  O   UNL     1     159.875 174.555 179.891  1.00  0.00    -0.550 OA
ATOM     16  O   UNL     1     161.360 175.615 178.503  1.00  0.00    -0.550 OA
ENDBRANCH  13  14
ENDBRANCH  12  13
ENDBRANCH  11  12
ENDBRANCH  10  11
ENDBRANCH   9  10
ENDBRANCH   8   9
ENDBRANCH   7   8
ENDBRANCH   6   7
ENDBRANCH   5   6
ENDBRANCH   4   5
ENDBRANCH   3   4
ENDBRANCH   2   3
ENDBRANCH   1   2
BRANCH   1  17
ATOM     17  C   UNL     1     169.806 178.638 181.192  1.00  0.00     0.000 C 
BRANCH  17  18
ATOM     18  C   UNL     1     171.200 178.613 181.842  1.00  0.00     0.000 C 
BRANCH  18  19
ATOM     19  C   UNL     1     172.068 179.810 181.415  1.00  0.00     0.000 C 
BRANCH  19  20
ATOM     20  C   UNL     1     173.383 179.380 180.744  1.00  0.00     0.000 C 
BRANCH  20  21
ATOM     21  C   UNL     1     173.560 177.848 180.676  1.00  0.00     0.000 C 
BRANCH  21  22
ATOM     22  C   UNL     1     174.988 177.407 181.047  1.00  0.00    -0.000 C 
BRANCH  22  23
ATOM     23  C   UNL     1     175.751 178.483 181.837  1.00  0.00    -0.000 C 
BRANCH  23  24
ATOM     24  C   UNL     1     177.144 178.774 181.250  1.00  0.00    -0.000 C 
BRANCH  24  25
ATOM     25  C   UNL     1     177.148 180.000 180.324  1.00  0.00    -0.000 C 
BRANCH  25  26
ATOM     26  C   UNL     1     177.063 179.616 178.838  1.00  0.00    -0.000 C 
BRANCH  26  27
ATOM     27  C   UNL     1     175.750 180.070 178.177  1.00  0.00    -0.000 C 
BRANCH  27  28
ATOM     28  C   UNL     1     175.025 178.943 177.411  1.00  0.00    -0.000 C 
BRANCH  28  29
ATOM     29  C   UNL     1     173.710 179.421 176.777  1.00  0.00    -0.003 C 
ATOM     30  C   UNL     1     172.551 178.501 177.152  1.00  0.00     0.004 C 
ENDBRANCH  28  29
ENDBRANCH  27  28
ENDBRANCH  26  27
ENDBRANCH  25  26
ENDBRANCH  24  25
ENDBRANCH  23  24
ENDBRANCH  22  23
ENDBRANCH  21  22
ENDBRANCH  20  21
ENDBRANCH  19  20
ENDBRANCH  18  19
ENDBRANCH  17  18
ENDBRANCH   1  17
TORSDOF 26
ENDMDL
