MODEL 1
REMARK VINA RESULT:    -4.135      0.000      0.000
REMARK INTER + INTRA:          -8.295
REMARK INTER:                  -7.035
REMARK INTRA:                  -1.260
REMARK UNBOUND:                -1.260
REMARK SMILES CCCCCCCCCCCCCC(=O)[O-]
REMARK SMILES IDX 8 1 9 2 10 3 11 4 12 5 13 6 14 7 15 8 16 9 7 10 6 11 5 12
REMARK SMILES IDX 4 13 3 14 2 15 1 16
REMARK H PARENT
REMARK Flexibility Score: inf
ROOT
ATOM      1  C   UNL     1      13.719  35.824  20.390  1.00  0.00     0.000 C 
ENDROOT
BRANCH   1   2
ATOM      2  C   UNL     1      14.177  34.357  20.313  1.00  0.00     0.000 C 
BRANCH   2   3
ATOM      3  C   UNL     1      13.125  33.325  20.769  1.00  0.00     0.000 C 
BRANCH   3   4
ATOM      4  C   UNL     1      13.667  32.186  21.654  1.00  0.00     0.000 C 
BRANCH   4   5
ATOM      5  C   UNL     1      15.189  31.959  21.567  1.00  0.00     0.006 C 
BRANCH   5   6
ATOM      6  C   UNL     1      15.763  31.073  22.685  1.00  0.00     0.053 C 
BRANCH   6   7
ATOM      7  C   UNL     1      17.223  31.322  22.904  1.00  0.00     0.041 C 
ATOM      8  O   UNL     1      17.771  30.970  23.982  1.00  0.00    -0.550 OA
ATOM      9  O   UNL     1      17.987  31.913  21.905  1.00  0.00    -0.550 OA
ENDBRANCH   6   7
ENDBRANCH   5   6
ENDBRANCH   4   5
ENDBRANCH   3   4
ENDBRANCH   2   3
ENDBRANCH   1   2
BRANCH   1  10
ATOM     10  C   UNL     1      12.877  36.250  19.175  1.00  0.00     0.000 C 
BRANCH  10  11
ATOM     11  C   UNL     1      11.460  36.698  19.567  1.00  0.00    -0.000 C 
BRANCH  11  12
ATOM     12  C   UNL     1      10.441  35.551  19.505  1.00  0.00    -0.000 C 
BRANCH  12  13
ATOM     13  C   UNL     1       9.786  35.323  20.874  1.00  0.00    -0.000 C 
BRANCH  13  14
ATOM     14  C   UNL     1      10.396  36.249  21.937  1.00  0.00    -0.000 C 
BRANCH  14  15
ATOM     15  C   UNL     1      11.112  35.475  23.054  1.00  0.00    -0.003 C 
ATOM     16  C   UNL     1      11.076  36.204  24.396  1.00  0.00     0.004 C 
ENDBRANCH  14  15
ENDBRANCH  13  14
ENDBRANCH  12  13
ENDBRANCH  11  12
ENDBRANCH  10  11
ENDBRANCH   1  10
TORSDOF 12
ENDMDL
MODEL 2
REMARK VINA RESULT:    -4.021      2.774      6.249
REMARK INTER + INTRA:          -8.102
REMARK INTER:                  -7.176
REMARK INTRA:                  -0.926
REMARK UNBOUND:                -1.260
REMARK SMILES CCCCCCCCCCCCCC(=O)[O-]
REMARK SMILES IDX 8 1 9 2 10 3 11 4 12 5 13 6 14 7 15 8 16 9 7 10 6 11 5 12
REMARK SMILES IDX 4 13 3 14 2 15 1 16
REMARK H PARENT
REMARK Flexibility Score: inf
ROOT
ATOM      1  C   UNL     1      13.556  35.734  20.038  1.00  0.00     0.000 C 
ENDROOT
BRANCH   1   2
ATOM      2  C   UNL     1      12.828  36.589  18.986  1.00  0.00     0.000 C 
BRANCH   2   3
ATOM      3  C   UNL     1      11.342  36.866  19.292  1.00  0.00     0.000 C 
BRANCH   3   4
ATOM      4  C   UNL     1      10.460  35.611  19.440  1.00  0.00     0.000 C 
BRANCH   4   5
ATOM      5  C   UNL     1       9.725  35.485  20.791  1.00  0.00     0.006 C 
BRANCH   5   6
ATOM      6  C   UNL     1      10.293  36.377  21.906  1.00  0.00     0.053 C 
BRANCH   6   7
ATOM      7  C   UNL     1      11.089  35.593  22.902  1.00  0.00     0.041 C 
ATOM      8  O   UNL     1      11.284  36.050  24.059  1.00  0.00    -0.550 OA
ATOM      9  O   UNL     1      11.589  34.342  22.564  1.00  0.00    -0.550 OA
ENDBRANCH   6   7
ENDBRANCH   5   6
ENDBRANCH   4   5
ENDBRANCH   3   4
ENDBRANCH   2   3
ENDBRANCH   1   2
BRANCH   1  10
ATOM     10  C   UNL     1      14.308  34.543  19.419  1.00  0.00     0.000 C 
BRANCH  10  11
ATOM     11  C   UNL     1      15.249  33.855  20.421  1.00  0.00    -0.000 C 
BRANCH  11  12
ATOM     12  C   UNL     1      14.561  32.718  21.191  1.00  0.00    -0.000 C 
BRANCH  12  13
ATOM     13  C   UNL     1      15.593  31.821  21.886  1.00  0.00    -0.000 C 
BRANCH  13  14
ATOM     14  C   UNL     1      17.008  32.096  21.355  1.00  0.00    -0.000 C 
BRANCH  14  15
ATOM     15  C   UNL     1      18.101  31.480  22.243  1.00  0.00    -0.003 C 
ATOM     16  C   UNL     1      17.593  31.111  23.636  1.00  0.00     0.004 C 
ENDBRANCH  14  15
ENDBRANCH  13  14
ENDBRANCH  12  13
ENDBRANCH  11  12
ENDBRANCH  10  11
ENDBRANCH   1  10
TORSDOF 12
ENDMDL
MODEL 3
REMARK VINA RESULT:    -3.960      4.341      7.419
REMARK INTER + INTRA:          -7.998
REMARK INTER:                  -7.240
REMARK INTRA:                  -0.758
REMARK UNBOUND:                -1.260
REMARK SMILES CCCCCCCCCCCCCC(=O)[O-]
REMARK SMILES IDX 8 1 9 2 10 3 11 4 12 5 13 6 14 7 15 8 16 9 7 10 6 11 5 12
REMARK SMILES IDX 4 13 3 14 2 15 1 16
REMARK H PARENT
REMARK Flexibility Score: inf
ROOT
ATOM      1  C   UNL     1      13.080  34.493  20.992  1.00  0.00     0.000 C 
ENDROOT
BRANCH   1   2
ATOM      2  C   UNL     1      12.647  35.894  21.461  1.00  0.00     0.000 C 
BRANCH   2   3
ATOM      3  C   UNL     1      11.613  35.902  22.606  1.00  0.00     0.000 C 
BRANCH   3   4
ATOM      4  C   UNL     1      10.195  36.353  22.204  1.00  0.00     0.000 C 
BRANCH   4   5
ATOM      5  C   UNL     1       9.853  36.178  20.711  1.00  0.00     0.006 C 
BRANCH   5   6
ATOM      6  C   UNL     1       9.113  34.872  20.379  1.00  0.00     0.053 C 
BRANCH   6   7
ATOM      7  C   UNL     1       7.682  35.117  20.010  1.00  0.00     0.041 C 
ATOM      8  O   UNL     1       6.782  34.331  20.407  1.00  0.00    -0.550 OA
ATOM      9  O   UNL     1       7.338  36.232  19.257  1.00  0.00    -0.550 OA
ENDBRANCH   6   7
ENDBRANCH   5   6
ENDBRANCH   4   5
ENDBRANCH   3   4
ENDBRANCH   2   3
ENDBRANCH   1   2
BRANCH   1  10
ATOM     10  C   UNL     1      14.583  34.410  20.677  1.00  0.00     0.000 C 
BRANCH  10  11
ATOM     11  C   UNL     1      15.102  32.963  20.655  1.00  0.00    -0.000 C 
BRANCH  11  12
ATOM     12  C   UNL     1      14.427  32.080  21.715  1.00  0.00    -0.000 C 
BRANCH  12  13
ATOM     13  C   UNL     1      15.463  31.228  22.461  1.00  0.00    -0.000 C 
BRANCH  13  14
ATOM     14  C   UNL     1      16.799  31.197  21.704  1.00  0.00    -0.000 C 
BRANCH  14  15
ATOM     15  C   UNL     1      17.999  31.504  22.613  1.00  0.00    -0.003 C 
ATOM     16  C   UNL     1      17.742  31.140  24.075  1.00  0.00     0.004 C 
ENDBRANCH  14  15
ENDBRANCH  13  14
ENDBRANCH  12  13
ENDBRANCH  11  12
ENDBRANCH  10  11
ENDBRANCH   1  10
TORSDOF 12
ENDMDL
MODEL 4
REMARK VINA RESULT:    -3.946      2.122      2.495
REMARK INTER + INTRA:          -7.974
REMARK INTER:                  -6.874
REMARK INTRA:                  -1.100
REMARK UNBOUND:                -1.260
REMARK SMILES CCCCCCCCCCCCCC(=O)[O-]
REMARK SMILES IDX 8 1 9 2 10 3 11 4 12 5 13 6 14 7 15 8 16 9 7 10 6 11 5 12
REMARK SMILES IDX 4 13 3 14 2 15 1 16
REMARK H PARENT
REMARK Flexibility Score: inf
ROOT
ATOM      1  C   UNL     1      13.775  35.517  20.472  1.00  0.00     0.000 C 
ENDROOT
BRANCH   1   2
ATOM      2  C   UNL     1      14.182  34.079  20.102  1.00  0.00     0.000 C 
BRANCH   2   3
ATOM      3  C   UNL     1      15.583  33.658  20.590  1.00  0.00     0.000 C 
BRANCH   3   4
ATOM      4  C   UNL     1      15.779  32.141  20.785  1.00  0.00     0.000 C 
BRANCH   4   5
ATOM      5  C   UNL     1      15.573  31.637  22.228  1.00  0.00     0.006 C 
BRANCH   5   6
ATOM      6  C   UNL     1      14.470  30.577  22.377  1.00  0.00     0.053 C 
BRANCH   6   7
ATOM      7  C   UNL     1      13.177  31.024  21.768  1.00  0.00     0.041 C 
ATOM      8  O   UNL     1      12.737  30.462  20.731  1.00  0.00    -0.550 OA
ATOM      9  O   UNL     1      12.440  32.039  22.365  1.00  0.00    -0.550 OA
ENDBRANCH   6   7
ENDBRANCH   5   6
ENDBRANCH   4   5
ENDBRANCH   3   4
ENDBRANCH   2   3
ENDBRANCH   1   2
BRANCH   1  10
ATOM     10  C   UNL     1      13.166  36.286  19.286  1.00  0.00     0.000 C 
BRANCH  10  11
ATOM     11  C   UNL     1      11.723  36.741  19.557  1.00  0.00    -0.000 C 
BRANCH  11  12
ATOM     12  C   UNL     1      10.727  35.573  19.557  1.00  0.00    -0.000 C 
BRANCH  12  13
ATOM     13  C   UNL     1       9.878  35.574  20.836  1.00  0.00    -0.000 C 
BRANCH  13  14
ATOM     14  C   UNL     1      10.563  36.379  21.951  1.00  0.00    -0.000 C 
BRANCH  14  15
ATOM     15  C   UNL     1      11.118  35.484  23.069  1.00  0.00    -0.003 C 
ATOM     16  C   UNL     1      11.061  36.150  24.443  1.00  0.00     0.004 C 
ENDBRANCH  14  15
ENDBRANCH  13  14
ENDBRANCH  12  13
ENDBRANCH  11  12
ENDBRANCH  10  11
ENDBRANCH   1  10
TORSDOF 12
ENDMDL
MODEL 5
REMARK VINA RESULT:    -3.939      4.899      7.151
REMARK INTER + INTRA:          -7.962
REMARK INTER:                  -6.775
REMARK INTRA:                  -1.188
REMARK UNBOUND:                -1.260
REMARK SMILES CCCCCCCCCCCCCC(=O)[O-]
REMARK SMILES IDX 8 1 9 2 10 3 11 4 12 5 13 6 14 7 15 8 16 9 7 10 6 11 5 12
REMARK SMILES IDX 4 13 3 14 2 15 1 16
REMARK H PARENT
REMARK Flexibility Score: inf
ROOT
ATOM      1  C   UNL     1      10.875  35.717  22.129  1.00  0.00     0.000 C 
ENDROOT
BRANCH   1   2
ATOM      2  C   UNL     1       9.968  36.428  21.110  1.00  0.00     0.000 C 
BRANCH   2   3
ATOM      3  C   UNL     1       8.827  35.559  20.541  1.00  0.00     0.000 C 
BRANCH   3   4
ATOM      4  C   UNL     1       9.259  34.177  20.012  1.00  0.00     0.000 C 
BRANCH   4   5
ATOM      5  C   UNL     1       8.107  33.180  19.773  1.00  0.00     0.006 C 
BRANCH   5   6
ATOM      6  C   UNL     1       6.777  33.581  20.432  1.00  0.00     0.053 C 
BRANCH   6   7
ATOM      7  C   UNL     1       5.806  32.441  20.471  1.00  0.00     0.041 C 
ATOM      8  O   UNL     1       5.885  31.512  19.626  1.00  0.00    -0.550 OA
ATOM      9  O   UNL     1       4.834  32.388  21.462  1.00  0.00    -0.550 OA
ENDBRANCH   6   7
ENDBRANCH   5   6
ENDBRANCH   4   5
ENDBRANCH   3   4
ENDBRANCH   2   3
ENDBRANCH   1   2
BRANCH   1  10
ATOM     10  C   UNL     1      12.371  35.882  21.811  1.00  0.00     0.000 C 
BRANCH  10  11
ATOM     11  C   UNL     1      12.624  36.273  20.347  1.00  0.00    -0.000 C 
BRANCH  11  12
ATOM     12  C   UNL     1      13.755  35.457  19.705  1.00  0.00    -0.000 C 
BRANCH  12  13
ATOM     13  C   UNL     1      13.541  33.954  19.923  1.00  0.00    -0.000 C 
BRANCH  13  14
ATOM     14  C   UNL     1      14.766  33.314  20.595  1.00  0.00    -0.000 C 
BRANCH  14  15
ATOM     15  C   UNL     1      14.383  32.203  21.584  1.00  0.00    -0.003 C 
ATOM     16  C   UNL     1      12.886  32.172  21.888  1.00  0.00     0.004 C 
ENDBRANCH  14  15
ENDBRANCH  13  14
ENDBRANCH  12  13
ENDBRANCH  11  12
ENDBRANCH  10  11
ENDBRANCH   1  10
TORSDOF 12
ENDMDL
MODEL 6
REMARK VINA RESULT:    -3.898      4.969      6.860
REMARK INTER + INTRA:          -7.892
REMARK INTER:                  -6.558
REMARK INTRA:                  -1.335
REMARK UNBOUND:                -1.260
REMARK SMILES CCCCCCCCCCCCCC(=O)[O-]
REMARK SMILES IDX 8 1 9 2 10 3 11 4 12 5 13 6 14 7 15 8 16 9 7 10 6 11 5 12
REMARK SMILES IDX 4 13 3 14 2 15 1 16
REMARK H PARENT
REMARK Flexibility Score: inf
ROOT
ATOM      1  C   UNL     1      10.335  36.595  18.875  1.00  0.00     0.000 C 
ENDROOT
BRANCH   1   2
ATOM      2  C   UNL     1       9.426  36.609  20.117  1.00  0.00     0.000 C 
BRANCH   2   3
ATOM      3  C   UNL     1       8.275  35.584  20.089  1.00  0.00     0.000 C 
BRANCH   3   4
ATOM      4  C   UNL     1       8.713  34.109  19.994  1.00  0.00     0.000 C 
BRANCH   4   5
ATOM      5  C   UNL     1       7.608  33.126  19.558  1.00  0.00     0.006 C 
BRANCH   5   6
ATOM      6  C   UNL     1       6.313  33.224  20.381  1.00  0.00     0.053 C 
BRANCH   6   7
ATOM      7  C   UNL     1       5.716  31.878  20.649  1.00  0.00     0.041 C 
ATOM      8  O   UNL     1       6.460  30.876  20.820  1.00  0.00    -0.550 OA
ATOM      9  O   UNL     1       4.338  31.733  20.742  1.00  0.00    -0.550 OA
ENDBRANCH   6   7
ENDBRANCH   5   6
ENDBRANCH   4   5
ENDBRANCH   3   4
ENDBRANCH   2   3
ENDBRANCH   1   2
BRANCH   1  10
ATOM     10  C   UNL     1      11.782  37.010  19.191  1.00  0.00     0.000 C 
BRANCH  10  11
ATOM     11  C   UNL     1      12.671  35.813  19.565  1.00  0.00    -0.000 C 
BRANCH  11  12
ATOM     12  C   UNL     1      12.910  35.706  21.078  1.00  0.00    -0.000 C 
BRANCH  12  13
ATOM     13  C   UNL     1      12.406  34.363  21.621  1.00  0.00    -0.000 C 
BRANCH  13  14
ATOM     14  C   UNL     1      11.265  34.569  22.628  1.00  0.00    -0.000 C 
BRANCH  14  15
ATOM     15  C   UNL     1      11.112  36.037  23.054  1.00  0.00    -0.003 C 
ATOM     16  C   UNL     1      11.129  36.218  24.571  1.00  0.00     0.004 C 
ENDBRANCH  14  15
ENDBRANCH  13  14
ENDBRANCH  12  13
ENDBRANCH  11  12
ENDBRANCH  10  11
ENDBRANCH   1  10
TORSDOF 12
ENDMDL
MODEL 7
REMARK VINA RESULT:    -3.869     18.401     20.424
REMARK INTER + INTRA:          -7.843
REMARK INTER:                  -6.922
REMARK INTRA:                  -0.920
REMARK UNBOUND:                -1.260
REMARK SMILES CCCCCCCCCCCCCC(=O)[O-]
REMARK SMILES IDX 8 1 9 2 10 3 11 4 12 5 13 6 14 7 15 8 16 9 7 10 6 11 5 12
REMARK SMILES IDX 4 13 3 14 2 15 1 16
REMARK H PARENT
REMARK Flexibility Score: inf
ROOT
ATOM      1  C   UNL     1       7.782  47.888  33.821  1.00  0.00     0.000 C 
ENDROOT
BRANCH   1   2
ATOM      2  C   UNL     1       8.866  48.909  33.433  1.00  0.00     0.000 C 
BRANCH   2   3
ATOM      3  C   UNL     1       9.420  48.753  32.002  1.00  0.00     0.000 C 
BRANCH   3   4
ATOM      4  C   UNL     1       9.263  49.994  31.100  1.00  0.00     0.000 C 
BRANCH   4   5
ATOM      5  C   UNL     1       8.411  49.776  29.834  1.00  0.00     0.006 C 
BRANCH   5   6
ATOM      6  C   UNL     1       6.894  49.802  30.079  1.00  0.00     0.053 C 
BRANCH   6   7
ATOM      7  C   UNL     1       6.258  48.476  29.794  1.00  0.00     0.041 C 
ATOM      8  O   UNL     1       6.309  47.552  30.648  1.00  0.00    -0.550 OA
ATOM      9  O   UNL     1       5.580  48.271  28.599  1.00  0.00    -0.550 OA
ENDBRANCH   6   7
ENDBRANCH   5   6
ENDBRANCH   4   5
ENDBRANCH   3   4
ENDBRANCH   2   3
ENDBRANCH   1   2
BRANCH   1  10
ATOM     10  C   UNL     1       6.413  48.541  34.075  1.00  0.00     0.000 C 
BRANCH  10  11
ATOM     11  C   UNL     1       6.200  48.911  35.552  1.00  0.00    -0.000 C 
BRANCH  11  12
ATOM     12  C   UNL     1       6.975  47.991  36.507  1.00  0.00    -0.000 C 
BRANCH  12  13
ATOM     13  C   UNL     1       6.356  48.009  37.911  1.00  0.00    -0.000 C 
BRANCH  13  14
ATOM     14  C   UNL     1       6.720  46.735  38.689  1.00  0.00    -0.000 C 
BRANCH  14  15
ATOM     15  C   UNL     1       7.912  45.987  38.072  1.00  0.00    -0.003 C 
ATOM     16  C   UNL     1       8.191  44.651  38.759  1.00  0.00     0.004 C 
ENDBRANCH  14  15
ENDBRANCH  13  14
ENDBRANCH  12  13
ENDBRANCH  11  12
ENDBRANCH  10  11
ENDBRANCH   1  10
TORSDOF 12
ENDMDL
MODEL 8
REMARK VINA RESULT:    -3.852     18.589     20.585
REMARK INTER + INTRA:          -7.814
REMARK INTER:                  -6.284
REMARK INTRA:                  -1.530
REMARK UNBOUND:                -1.260
REMARK SMILES CCCCCCCCCCCCCC(=O)[O-]
REMARK SMILES IDX 8 1 9 2 10 3 11 4 12 5 13 6 14 7 15 8 16 9 7 10 6 11 5 12
REMARK SMILES IDX 4 13 3 14 2 15 1 16
REMARK H PARENT
REMARK Flexibility Score: inf
ROOT
ATOM      1  C   UNL     1       8.173  47.779  33.744  1.00  0.00     0.000 C 
ENDROOT
BRANCH   1   2
ATOM      2  C   UNL     1       6.839  48.093  34.444  1.00  0.00     0.000 C 
BRANCH   2   3
ATOM      3  C   UNL     1       6.635  49.576  34.814  1.00  0.00     0.000 C 
BRANCH   3   4
ATOM      4  C   UNL     1       6.581  49.872  36.326  1.00  0.00     0.000 C 
BRANCH   4   5
ATOM      5  C   UNL     1       6.236  48.662  37.216  1.00  0.00     0.006 C 
BRANCH   5   6
ATOM      6  C   UNL     1       7.426  48.103  38.014  1.00  0.00     0.053 C 
BRANCH   6   7
ATOM      7  C   UNL     1       7.407  46.607  38.074  1.00  0.00     0.041 C 
ATOM      8  O   UNL     1       7.997  45.930  37.192  1.00  0.00    -0.550 OA
ATOM      9  O   UNL     1       6.767  45.960  39.124  1.00  0.00    -0.550 OA
ENDBRANCH   6   7
ENDBRANCH   5   6
ENDBRANCH   4   5
ENDBRANCH   3   4
ENDBRANCH   2   3
ENDBRANCH   1   2
BRANCH   1  10
ATOM     10  C   UNL     1       8.867  49.037  33.195  1.00  0.00     0.000 C 
BRANCH  10  11
ATOM     11  C   UNL     1       9.588  48.779  31.862  1.00  0.00    -0.000 C 
BRANCH  11  12
ATOM     12  C   UNL     1       9.183  49.780  30.770  1.00  0.00    -0.000 C 
BRANCH  12  13
ATOM     13  C   UNL     1       7.659  49.943  30.711  1.00  0.00    -0.000 C 
BRANCH  13  14
ATOM     14  C   UNL     1       7.021  48.845  29.847  1.00  0.00    -0.000 C 
BRANCH  14  15
ATOM     15  C   UNL     1       6.139  47.888  30.664  1.00  0.00    -0.003 C 
ATOM     16  C   UNL     1       4.980  48.601  31.360  1.00  0.00     0.004 C 
ENDBRANCH  14  15
ENDBRANCH  13  14
ENDBRANCH  12  13
ENDBRANCH  11  12
ENDBRANCH  10  11
ENDBRANCH   1  10
TORSDOF 12
ENDMDL
MODEL 9
REMARK VINA RESULT:    -3.839      2.949      4.324
REMARK INTER + INTRA:          -7.793
REMARK INTER:                  -6.482
REMARK INTRA:                  -1.311
REMARK UNBOUND:                -1.260
REMARK SMILES CCCCCCCCCCCCCC(=O)[O-]
REMARK SMILES IDX 8 1 9 2 10 3 11 4 12 5 13 6 14 7 15 8 16 9 7 10 6 11 5 12
REMARK SMILES IDX 4 13 3 14 2 15 1 16
REMARK H PARENT
REMARK Flexibility Score: inf
ROOT
ATOM      1  C   UNL     1      11.011  35.531  22.255  1.00  0.00     0.000 C 
ENDROOT
BRANCH   1   2
ATOM      2  C   UNL     1      12.470  35.952  22.006  1.00  0.00     0.000 C 
BRANCH   2   3
ATOM      3  C   UNL     1      12.850  36.121  20.521  1.00  0.00     0.000 C 
BRANCH   3   4
ATOM      4  C   UNL     1      13.517  34.892  19.872  1.00  0.00     0.000 C 
BRANCH   4   5
ATOM      5  C   UNL     1      14.511  34.135  20.776  1.00  0.00     0.006 C 
BRANCH   5   6
ATOM      6  C   UNL     1      14.346  32.607  20.760  1.00  0.00     0.053 C 
BRANCH   6   7
ATOM      7  C   UNL     1      12.937  32.192  21.049  1.00  0.00     0.041 C 
ATOM      8  O   UNL     1      12.214  31.720  20.132  1.00  0.00    -0.550 OA
ATOM      9  O   UNL     1      12.432  32.294  22.339  1.00  0.00    -0.550 OA
ENDBRANCH   6   7
ENDBRANCH   5   6
ENDBRANCH   4   5
ENDBRANCH   3   4
ENDBRANCH   2   3
ENDBRANCH   1   2
BRANCH   1  10
ATOM     10  C   UNL     1       9.996  36.465  21.574  1.00  0.00     0.000 C 
BRANCH  10  11
ATOM     11  C   UNL     1       9.127  35.737  20.537  1.00  0.00    -0.000 C 
BRANCH  11  12
ATOM     12  C   UNL     1       9.586  34.292  20.294  1.00  0.00    -0.000 C 
BRANCH  12  13
ATOM     13  C   UNL     1       8.520  33.498  19.527  1.00  0.00    -0.000 C 
BRANCH  13  14
ATOM     14  C   UNL     1       7.108  33.871  20.002  1.00  0.00    -0.000 C 
BRANCH  14  15
ATOM     15  C   UNL     1       6.247  32.638  20.316  1.00  0.00    -0.003 C 
ATOM     16  C   UNL     1       7.041  31.333  20.268  1.00  0.00     0.004 C 
ENDBRANCH  14  15
ENDBRANCH  13  14
ENDBRANCH  12  13
ENDBRANCH  11  12
ENDBRANCH  10  11
ENDBRANCH   1  10
TORSDOF 12
ENDMDL
