MODEL 1
REMARK VINA RESULT:    -3.747      0.000      0.000
REMARK INTER + INTRA:          -8.636
REMARK INTER:                  -6.814
REMARK INTRA:                  -1.822
REMARK UNBOUND:                -1.822
REMARK SMILES CCCCCCCCCCCCCCCC(=O)[O-]
REMARK SMILES IDX 9 1 10 2 11 3 12 4 13 5 14 6 15 7 16 8 17 9 18 10 8 11 7 12
REMARK SMILES IDX 6 13 5 14 4 15 3 16 2 17 1 18
REMARK H PARENT
REMARK Flexibility Score: inf
ROOT
ATOM      1  C   UNL     1      25.912  32.940  36.902  1.00  0.00     0.000 C 
ENDROOT
BRANCH   1   2
ATOM      2  C   UNL     1      24.940  33.268  35.756  1.00  0.00     0.000 C 
BRANCH   2   3
ATOM      3  C   UNL     1      25.649  33.429  34.402  1.00  0.00     0.000 C 
BRANCH   3   4
ATOM      4  C   UNL     1      26.723  34.531  34.426  1.00  0.00     0.000 C 
BRANCH   4   5
ATOM      5  C   UNL     1      26.620  35.477  33.220  1.00  0.00     0.000 C 
BRANCH   5   6
ATOM      6  C   UNL     1      27.772  35.286  32.217  1.00  0.00     0.006 C 
BRANCH   6   7
ATOM      7  C   UNL     1      27.619  33.998  31.399  1.00  0.00     0.053 C 
BRANCH   7   8
ATOM      8  C   UNL     1      26.290  33.936  30.710  1.00  0.00     0.041 C 
ATOM      9  O   UNL     1      25.982  34.798  29.845  1.00  0.00    -0.550 OA
ATOM     10  O   UNL     1      25.378  32.945  31.051  1.00  0.00    -0.550 OA
ENDBRANCH   7   8
ENDBRANCH   6   7
ENDBRANCH   5   6
ENDBRANCH   4   5
ENDBRANCH   3   4
ENDBRANCH   2   3
ENDBRANCH   1   2
BRANCH   1  11
ATOM     11  C   UNL     1      26.723  31.657  36.645  1.00  0.00     0.000 C 
BRANCH  11  12
ATOM     12  C   UNL     1      28.193  31.717  37.108  1.00  0.00    -0.000 C 
BRANCH  12  13
ATOM     13  C   UNL     1      28.922  33.042  36.806  1.00  0.00    -0.000 C 
BRANCH  13  14
ATOM     14  C   UNL     1      29.917  32.990  35.632  1.00  0.00    -0.000 C 
BRANCH  14  15
ATOM     15  C   UNL     1      29.407  32.146  34.452  1.00  0.00    -0.000 C 
BRANCH  15  16
ATOM     16  C   UNL     1      30.420  31.083  33.992  1.00  0.00    -0.000 C 
BRANCH  16  17
ATOM     17  C   UNL     1      29.901  29.633  34.014  1.00  0.00    -0.003 C 
ATOM     18  C   UNL     1      30.019  28.975  35.387  1.00  0.00     0.004 C 
ENDBRANCH  16  17
ENDBRANCH  15  16
ENDBRANCH  14  15
ENDBRANCH  13  14
ENDBRANCH  12  13
ENDBRANCH  11  12
ENDBRANCH   1  11
TORSDOF 14
ENDMDL
MODEL 2
REMARK VINA RESULT:    -3.720      2.563      5.171
REMARK INTER + INTRA:          -8.587
REMARK INTER:                  -7.185
REMARK INTRA:                  -1.402
REMARK UNBOUND:                -1.822
REMARK SMILES CCCCCCCCCCCCCCCC(=O)[O-]
REMARK SMILES IDX 9 1 10 2 11 3 12 4 13 5 14 6 15 7 16 8 17 9 18 10 8 11 7 12
REMARK SMILES IDX 6 13 5 14 4 15 3 16 2 17 1 18
REMARK H PARENT
REMARK Flexibility Score: inf
ROOT
ATOM      1  C   UNL     1      25.318  32.940  36.969  1.00  0.00     0.000 C 
ENDROOT
BRANCH   1   2
ATOM      2  C   UNL     1      26.850  32.805  36.994  1.00  0.00     0.000 C 
BRANCH   2   3
ATOM      3  C   UNL     1      27.321  31.344  36.915  1.00  0.00     0.000 C 
BRANCH   3   4
ATOM      4  C   UNL     1      28.172  31.065  35.664  1.00  0.00     0.000 C 
BRANCH   4   5
ATOM      5  C   UNL     1      29.407  31.976  35.579  1.00  0.00     0.000 C 
BRANCH   5   6
ATOM      6  C   UNL     1      30.570  31.325  34.808  1.00  0.00     0.006 C 
BRANCH   6   7
ATOM      7  C   UNL     1      30.201  31.026  33.349  1.00  0.00     0.053 C 
BRANCH   7   8
ATOM      8  C   UNL     1      30.384  29.576  33.020  1.00  0.00     0.041 C 
ATOM      9  O   UNL     1      30.721  29.226  31.858  1.00  0.00    -0.550 OA
ATOM     10  O   UNL     1      30.146  28.609  33.989  1.00  0.00    -0.550 OA
ENDBRANCH   7   8
ENDBRANCH   6   7
ENDBRANCH   5   6
ENDBRANCH   4   5
ENDBRANCH   3   4
ENDBRANCH   2   3
ENDBRANCH   1   2
BRANCH   1  11
ATOM     11  C   UNL     1      24.798  33.577  35.667  1.00  0.00     0.000 C 
BRANCH  11  12
ATOM     12  C   UNL     1      25.758  33.467  34.465  1.00  0.00    -0.000 C 
BRANCH  12  13
ATOM     13  C   UNL     1      26.683  34.682  34.252  1.00  0.00    -0.000 C 
BRANCH  13  14
ATOM     14  C   UNL     1      27.902  34.428  33.346  1.00  0.00    -0.000 C 
BRANCH  14  15
ATOM     15  C   UNL     1      27.749  35.051  31.949  1.00  0.00    -0.000 C 
BRANCH  15  16
ATOM     16  C   UNL     1      27.427  34.012  30.860  1.00  0.00    -0.000 C 
BRANCH  16  17
ATOM     17  C   UNL     1      25.942  33.618  30.752  1.00  0.00    -0.003 C 
ATOM     18  C   UNL     1      25.142  34.543  29.836  1.00  0.00     0.004 C 
ENDBRANCH  16  17
ENDBRANCH  15  16
ENDBRANCH  14  15
ENDBRANCH  13  14
ENDBRANCH  12  13
ENDBRANCH  11  12
ENDBRANCH   1  11
TORSDOF 14
ENDMDL
MODEL 3
REMARK VINA RESULT:    -3.669      1.053      1.614
REMARK INTER + INTRA:          -8.494
REMARK INTER:                  -7.296
REMARK INTRA:                  -1.198
REMARK UNBOUND:                -1.822
REMARK SMILES CCCCCCCCCCCCCCCC(=O)[O-]
REMARK SMILES IDX 9 1 10 2 11 3 12 4 13 5 14 6 15 7 16 8 17 9 18 10 8 11 7 12
REMARK SMILES IDX 6 13 5 14 4 15 3 16 2 17 1 18
REMARK H PARENT
REMARK Flexibility Score: inf
ROOT
ATOM      1  C   UNL     1      25.365  33.164  36.643  1.00  0.00     0.000 C 
ENDROOT
BRANCH   1   2
ATOM      2  C   UNL     1      25.207  33.486  35.147  1.00  0.00     0.000 C 
BRANCH   2   3
ATOM      3  C   UNL     1      26.541  33.841  34.470  1.00  0.00     0.000 C 
BRANCH   3   4
ATOM      4  C   UNL     1      26.647  35.335  34.120  1.00  0.00     0.000 C 
BRANCH   4   5
ATOM      5  C   UNL     1      27.178  35.568  32.697  1.00  0.00     0.000 C 
BRANCH   5   6
ATOM      6  C   UNL     1      27.934  34.348  32.140  1.00  0.00     0.006 C 
BRANCH   6   7
ATOM      7  C   UNL     1      27.476  33.980  30.723  1.00  0.00     0.053 C 
BRANCH   7   8
ATOM      8  C   UNL     1      25.986  33.854  30.640  1.00  0.00     0.041 C 
ATOM      9  O   UNL     1      25.371  33.062  31.404  1.00  0.00    -0.550 OA
ATOM     10  O   UNL     1      25.279  34.585  29.693  1.00  0.00    -0.550 OA
ENDBRANCH   7   8
ENDBRANCH   6   7
ENDBRANCH   5   6
ENDBRANCH   4   5
ENDBRANCH   3   4
ENDBRANCH   2   3
ENDBRANCH   1   2
BRANCH   1  11
ATOM     11  C   UNL     1      26.808  32.777  37.018  1.00  0.00     0.000 C 
BRANCH  11  12
ATOM     12  C   UNL     1      27.172  31.303  36.753  1.00  0.00    -0.000 C 
BRANCH  12  13
ATOM     13  C   UNL     1      28.682  31.013  36.623  1.00  0.00    -0.000 C 
BRANCH  13  14
ATOM     14  C   UNL     1      29.115  30.377  35.290  1.00  0.00    -0.000 C 
BRANCH  14  15
ATOM     15  C   UNL     1      29.734  31.393  34.316  1.00  0.00    -0.000 C 
BRANCH  15  16
ATOM     16  C   UNL     1      30.395  30.729  33.095  1.00  0.00    -0.000 C 
BRANCH  16  17
ATOM     17  C   UNL     1      30.270  29.196  33.038  1.00  0.00    -0.003 C 
ATOM     18  C   UNL     1      30.567  28.621  31.654  1.00  0.00     0.004 C 
ENDBRANCH  16  17
ENDBRANCH  15  16
ENDBRANCH  14  15
ENDBRANCH  13  14
ENDBRANCH  12  13
ENDBRANCH  11  12
ENDBRANCH   1  11
TORSDOF 14
ENDMDL
MODEL 4
REMARK VINA RESULT:    -3.629      3.090      5.685
REMARK INTER + INTRA:          -8.421
REMARK INTER:                  -6.966
REMARK INTRA:                  -1.455
REMARK UNBOUND:                -1.822
REMARK SMILES CCCCCCCCCCCCCCCC(=O)[O-]
REMARK SMILES IDX 9 1 10 2 11 3 12 4 13 5 14 6 15 7 16 8 17 9 18 10 8 11 7 12
REMARK SMILES IDX 6 13 5 14 4 15 3 16 2 17 1 18
REMARK H PARENT
REMARK Flexibility Score: inf
ROOT
ATOM      1  C   UNL     1      25.820  32.564  36.969  1.00  0.00     0.000 C 
ENDROOT
BRANCH   1   2
ATOM      2  C   UNL     1      27.148  31.993  36.441  1.00  0.00     0.000 C 
BRANCH   2   3
ATOM      3  C   UNL     1      28.359  32.862  36.814  1.00  0.00     0.000 C 
BRANCH   3   4
ATOM      4  C   UNL     1      29.598  32.548  35.957  1.00  0.00     0.000 C 
BRANCH   4   5
ATOM      5  C   UNL     1      29.249  31.741  34.696  1.00  0.00     0.000 C 
BRANCH   5   6
ATOM      6  C   UNL     1      30.420  30.868  34.210  1.00  0.00     0.006 C 
BRANCH   6   7
ATOM      7  C   UNL     1      29.995  29.415  33.965  1.00  0.00     0.053 C 
BRANCH   7   8
ATOM      8  C   UNL     1      30.235  28.558  35.169  1.00  0.00     0.041 C 
ATOM      9  O   UNL     1      29.905  27.342  35.161  1.00  0.00    -0.550 OA
ATOM     10  O   UNL     1      30.794  29.112  36.315  1.00  0.00    -0.550 OA
ENDBRANCH   7   8
ENDBRANCH   6   7
ENDBRANCH   5   6
ENDBRANCH   4   5
ENDBRANCH   3   4
ENDBRANCH   2   3
ENDBRANCH   1   2
BRANCH   1  11
ATOM     11  C   UNL     1      25.047  33.359  35.901  1.00  0.00     0.000 C 
BRANCH  11  12
ATOM     12  C   UNL     1      25.736  33.429  34.523  1.00  0.00    -0.000 C 
BRANCH  12  13
ATOM     13  C   UNL     1      26.467  34.753  34.221  1.00  0.00    -0.000 C 
BRANCH  13  14
ATOM     14  C   UNL     1      27.761  34.615  33.398  1.00  0.00    -0.000 C 
BRANCH  14  15
ATOM     15  C   UNL     1      27.631  35.191  31.979  1.00  0.00    -0.000 C 
BRANCH  15  16
ATOM     16  C   UNL     1      27.383  34.109  30.912  1.00  0.00    -0.000 C 
BRANCH  16  17
ATOM     17  C   UNL     1      25.921  33.647  30.778  1.00  0.00    -0.003 C 
ATOM     18  C   UNL     1      25.123  34.469  29.765  1.00  0.00     0.004 C 
ENDBRANCH  16  17
ENDBRANCH  15  16
ENDBRANCH  14  15
ENDBRANCH  13  14
ENDBRANCH  12  13
ENDBRANCH  11  12
ENDBRANCH   1  11
TORSDOF 14
ENDMDL
MODEL 5
REMARK VINA RESULT:    -3.578      1.103      1.644
REMARK INTER + INTRA:          -8.328
REMARK INTER:                  -6.766
REMARK INTRA:                  -1.561
REMARK UNBOUND:                -1.822
REMARK SMILES CCCCCCCCCCCCCCCC(=O)[O-]
REMARK SMILES IDX 9 1 10 2 11 3 12 4 13 5 14 6 15 7 16 8 17 9 18 10 8 11 7 12
REMARK SMILES IDX 6 13 5 14 4 15 3 16 2 17 1 18
REMARK H PARENT
REMARK Flexibility Score: inf
ROOT
ATOM      1  C   UNL     1      26.623  31.892  36.214  1.00  0.00     0.000 C 
ENDROOT
BRANCH   1   2
ATOM      2  C   UNL     1      25.479  32.875  36.517  1.00  0.00     0.000 C 
BRANCH   2   3
ATOM      3  C   UNL     1      24.886  33.507  35.248  1.00  0.00     0.000 C 
BRANCH   3   4
ATOM      4  C   UNL     1      25.921  33.645  34.118  1.00  0.00     0.000 C 
BRANCH   4   5
ATOM      5  C   UNL     1      26.638  35.004  34.141  1.00  0.00     0.000 C 
BRANCH   5   6
ATOM      6  C   UNL     1      27.259  35.368  32.780  1.00  0.00     0.006 C 
BRANCH   6   7
ATOM      7  C   UNL     1      26.282  35.142  31.619  1.00  0.00     0.053 C 
BRANCH   7   8
ATOM      8  C   UNL     1      26.714  34.003  30.748  1.00  0.00     0.041 C 
ATOM      9  O   UNL     1      25.857  33.297  30.153  1.00  0.00    -0.550 OA
ATOM     10  O   UNL     1      28.064  33.698  30.622  1.00  0.00    -0.550 OA
ENDBRANCH   7   8
ENDBRANCH   6   7
ENDBRANCH   5   6
ENDBRANCH   4   5
ENDBRANCH   3   4
ENDBRANCH   2   3
ENDBRANCH   1   2
BRANCH   1  11
ATOM     11  C   UNL     1      27.849  32.111  37.120  1.00  0.00     0.000 C 
BRANCH  11  12
ATOM     12  C   UNL     1      28.884  33.117  36.577  1.00  0.00    -0.000 C 
BRANCH  12  13
ATOM     13  C   UNL     1      29.520  32.739  35.224  1.00  0.00    -0.000 C 
BRANCH  13  14
ATOM     14  C   UNL     1      30.889  32.037  35.316  1.00  0.00    -0.000 C 
BRANCH  14  15
ATOM     15  C   UNL     1      30.770  30.537  35.629  1.00  0.00    -0.000 C 
BRANCH  15  16
ATOM     16  C   UNL     1      29.616  29.855  34.873  1.00  0.00    -0.000 C 
BRANCH  16  17
ATOM     17  C   UNL     1      30.040  28.721  33.921  1.00  0.00    -0.003 C 
ATOM     18  C   UNL     1      30.376  29.214  32.514  1.00  0.00     0.004 C 
ENDBRANCH  16  17
ENDBRANCH  15  16
ENDBRANCH  14  15
ENDBRANCH  13  14
ENDBRANCH  12  13
ENDBRANCH  11  12
ENDBRANCH   1  11
TORSDOF 14
ENDMDL
MODEL 6
REMARK VINA RESULT:    -3.444      2.527      5.499
REMARK INTER + INTRA:          -8.084
REMARK INTER:                  -6.690
REMARK INTRA:                  -1.395
REMARK UNBOUND:                -1.822
REMARK SMILES CCCCCCCCCCCCCCCC(=O)[O-]
REMARK SMILES IDX 9 1 10 2 11 3 12 4 13 5 14 6 15 7 16 8 17 9 18 10 8 11 7 12
REMARK SMILES IDX 6 13 5 14 4 15 3 16 2 17 1 18
REMARK H PARENT
REMARK Flexibility Score: inf
ROOT
ATOM      1  C   UNL     1      26.355  32.194  37.116  1.00  0.00     0.000 C 
ENDROOT
BRANCH   1   2
ATOM      2  C   UNL     1      27.891  32.100  37.082  1.00  0.00     0.000 C 
BRANCH   2   3
ATOM      3  C   UNL     1      28.537  33.227  36.261  1.00  0.00     0.000 C 
BRANCH   3   4
ATOM      4  C   UNL     1      30.025  32.966  35.969  1.00  0.00     0.000 C 
BRANCH   4   5
ATOM      5  C   UNL     1      30.445  31.526  36.301  1.00  0.00     0.000 C 
BRANCH   5   6
ATOM      6  C   UNL     1      30.849  30.725  35.050  1.00  0.00     0.006 C 
BRANCH   6   7
ATOM      7  C   UNL     1      29.713  29.824  34.548  1.00  0.00     0.053 C 
BRANCH   7   8
ATOM      8  C   UNL     1      30.189  28.872  33.494  1.00  0.00     0.041 C 
ATOM      9  O   UNL     1      30.340  29.263  32.306  1.00  0.00    -0.550 OA
ATOM     10  O   UNL     1      30.430  27.542  33.817  1.00  0.00    -0.550 OA
ENDBRANCH   7   8
ENDBRANCH   6   7
ENDBRANCH   5   6
ENDBRANCH   4   5
ENDBRANCH   3   4
ENDBRANCH   2   3
ENDBRANCH   1   2
BRANCH   1  11
ATOM     11  C   UNL     1      25.849  33.648  37.125  1.00  0.00     0.000 C 
BRANCH  11  12
ATOM     12  C   UNL     1      25.156  34.100  35.824  1.00  0.00    -0.000 C 
BRANCH  12  13
ATOM     13  C   UNL     1      25.124  33.046  34.698  1.00  0.00    -0.000 C 
BRANCH  13  14
ATOM     14  C   UNL     1      26.004  33.365  33.475  1.00  0.00    -0.000 C 
BRANCH  14  15
ATOM     15  C   UNL     1      26.606  34.779  33.525  1.00  0.00    -0.000 C 
BRANCH  15  16
ATOM     16  C   UNL     1      26.967  35.327  32.133  1.00  0.00    -0.000 C 
BRANCH  16  17
ATOM     17  C   UNL     1      26.853  34.312  30.981  1.00  0.00    -0.003 C 
ATOM     18  C   UNL     1      25.603  34.515  30.126  1.00  0.00     0.004 C 
ENDBRANCH  16  17
ENDBRANCH  15  16
ENDBRANCH  14  15
ENDBRANCH  13  14
ENDBRANCH  12  13
ENDBRANCH  11  12
ENDBRANCH   1  11
TORSDOF 14
ENDMDL
MODEL 7
REMARK VINA RESULT:    -3.273      1.388      2.488
REMARK INTER + INTRA:          -7.774
REMARK INTER:                  -6.502
REMARK INTRA:                  -1.272
REMARK UNBOUND:                -1.822
REMARK SMILES CCCCCCCCCCCCCCCC(=O)[O-]
REMARK SMILES IDX 9 1 10 2 11 3 12 4 13 5 14 6 15 7 16 8 17 9 18 10 8 11 7 12
REMARK SMILES IDX 6 13 5 14 4 15 3 16 2 17 1 18
REMARK H PARENT
REMARK Flexibility Score: inf
ROOT
ATOM      1  C   UNL     1      26.609  31.745  36.744  1.00  0.00     0.000 C 
ENDROOT
BRANCH   1   2
ATOM      2  C   UNL     1      26.544  33.244  37.087  1.00  0.00     0.000 C 
BRANCH   2   3
ATOM      3  C   UNL     1      25.674  34.042  36.103  1.00  0.00     0.000 C 
BRANCH   3   4
ATOM      4  C   UNL     1      25.026  33.150  35.030  1.00  0.00     0.000 C 
BRANCH   4   5
ATOM      5  C   UNL     1      25.704  33.295  33.658  1.00  0.00     0.000 C 
BRANCH   5   6
ATOM      6  C   UNL     1      26.881  34.287  33.682  1.00  0.00     0.006 C 
BRANCH   6   7
ATOM      7  C   UNL     1      26.845  35.257  32.495  1.00  0.00     0.053 C 
BRANCH   7   8
ATOM      8  C   UNL     1      26.898  34.531  31.186  1.00  0.00     0.041 C 
ATOM      9  O   UNL     1      27.951  33.937  30.831  1.00  0.00    -0.550 OA
ATOM     10  O   UNL     1      25.794  34.539  30.343  1.00  0.00    -0.550 OA
ENDBRANCH   7   8
ENDBRANCH   6   7
ENDBRANCH   5   6
ENDBRANCH   4   5
ENDBRANCH   3   4
ENDBRANCH   2   3
ENDBRANCH   1   2
BRANCH   1  11
ATOM     11  C   UNL     1      28.052  31.213  36.675  1.00  0.00     0.000 C 
BRANCH  11  12
ATOM     12  C   UNL     1      28.811  31.568  35.380  1.00  0.00    -0.000 C 
BRANCH  12  13
ATOM     13  C   UNL     1      30.165  30.853  35.197  1.00  0.00    -0.000 C 
BRANCH  13  14
ATOM     14  C   UNL     1      30.340  30.114  33.857  1.00  0.00    -0.000 C 
BRANCH  14  15
ATOM     15  C   UNL     1      30.048  28.608  33.963  1.00  0.00    -0.000 C 
BRANCH  15  16
ATOM     16  C   UNL     1      30.215  28.064  35.393  1.00  0.00    -0.000 C 
BRANCH  16  17
ATOM     17  C   UNL     1      30.071  26.537  35.532  1.00  0.00    -0.003 C 
ATOM     18  C   UNL     1      30.603  25.773  34.321  1.00  0.00     0.004 C 
ENDBRANCH  16  17
ENDBRANCH  15  16
ENDBRANCH  14  15
ENDBRANCH  13  14
ENDBRANCH  12  13
ENDBRANCH  11  12
ENDBRANCH   1  11
TORSDOF 14
ENDMDL
MODEL 8
REMARK VINA RESULT:    -3.206      3.336      5.937
REMARK INTER + INTRA:          -7.651
REMARK INTER:                  -6.243
REMARK INTRA:                  -1.408
REMARK UNBOUND:                -1.822
REMARK SMILES CCCCCCCCCCCCCCCC(=O)[O-]
REMARK SMILES IDX 9 1 10 2 11 3 12 4 13 5 14 6 15 7 16 8 17 9 18 10 8 11 7 12
REMARK SMILES IDX 6 13 5 14 4 15 3 16 2 17 1 18
REMARK H PARENT
REMARK Flexibility Score: inf
ROOT
ATOM      1  C   UNL     1      26.478  31.989  37.116  1.00  0.00     0.000 C 
ENDROOT
BRANCH   1   2
ATOM      2  C   UNL     1      27.989  31.776  36.920  1.00  0.00     0.000 C 
BRANCH   2   3
ATOM      3  C   UNL     1      28.323  31.057  35.604  1.00  0.00     0.000 C 
BRANCH   3   4
ATOM      4  C   UNL     1      29.267  31.875  34.706  1.00  0.00     0.000 C 
BRANCH   4   5
ATOM      5  C   UNL     1      30.614  31.172  34.475  1.00  0.00     0.000 C 
BRANCH   5   6
ATOM      6  C   UNL     1      30.692  29.802  35.172  1.00  0.00     0.006 C 
BRANCH   6   7
ATOM      7  C   UNL     1      30.649  28.641  34.170  1.00  0.00     0.053 C 
BRANCH   7   8
ATOM      8  C   UNL     1      30.296  27.347  34.838  1.00  0.00     0.041 C 
ATOM      9  O   UNL     1      30.274  26.276  34.176  1.00  0.00    -0.550 OA
ATOM     10  O   UNL     1      29.957  27.332  36.185  1.00  0.00    -0.550 OA
ENDBRANCH   7   8
ENDBRANCH   6   7
ENDBRANCH   5   6
ENDBRANCH   4   5
ENDBRANCH   3   4
ENDBRANCH   2   3
ENDBRANCH   1   2
BRANCH   1  11
ATOM     11  C   UNL     1      26.084  33.478  37.124  1.00  0.00     0.000 C 
BRANCH  11  12
ATOM     12  C   UNL     1      25.166  33.911  35.964  1.00  0.00    -0.000 C 
BRANCH  12  13
ATOM     13  C   UNL     1      25.129  32.945  34.762  1.00  0.00    -0.000 C 
BRANCH  13  14
ATOM     14  C   UNL     1      25.989  33.366  33.555  1.00  0.00    -0.000 C 
BRANCH  14  15
ATOM     15  C   UNL     1      26.788  34.654  33.812  1.00  0.00    -0.000 C 
BRANCH  15  16
ATOM     16  C   UNL     1      27.572  35.130  32.576  1.00  0.00    -0.000 C 
BRANCH  16  17
ATOM     17  C   UNL     1      27.570  34.154  31.385  1.00  0.00    -0.003 C 
ATOM     18  C   UNL     1      26.483  34.465  30.357  1.00  0.00     0.004 C 
ENDBRANCH  16  17
ENDBRANCH  15  16
ENDBRANCH  14  15
ENDBRANCH  13  14
ENDBRANCH  12  13
ENDBRANCH  11  12
ENDBRANCH   1  11
TORSDOF 14
ENDMDL
MODEL 9
REMARK VINA RESULT:    -3.201      1.150      2.192
REMARK INTER + INTRA:          -7.643
REMARK INTER:                  -6.344
REMARK INTRA:                  -1.300
REMARK UNBOUND:                -1.822
REMARK SMILES CCCCCCCCCCCCCCCC(=O)[O-]
REMARK SMILES IDX 9 1 10 2 11 3 12 4 13 5 14 6 15 7 16 8 17 9 18 10 8 11 7 12
REMARK SMILES IDX 6 13 5 14 4 15 3 16 2 17 1 18
REMARK H PARENT
REMARK Flexibility Score: inf
ROOT
ATOM      1  C   UNL     1      26.873  33.391  36.187  1.00  0.00     0.000 C 
ENDROOT
BRANCH   1   2
ATOM      2  C   UNL     1      26.283  33.743  34.810  1.00  0.00     0.000 C 
BRANCH   2   3
ATOM      3  C   UNL     1      26.298  35.253  34.526  1.00  0.00     0.000 C 
BRANCH   3   4
ATOM      4  C   UNL     1      27.006  35.598  33.204  1.00  0.00     0.000 C 
BRANCH   4   5
ATOM      5  C   UNL     1      28.244  34.723  32.955  1.00  0.00     0.000 C 
BRANCH   5   6
ATOM      6  C   UNL     1      28.005  33.653  31.874  1.00  0.00     0.006 C 
BRANCH   6   7
ATOM      7  C   UNL     1      27.346  34.238  30.618  1.00  0.00     0.053 C 
BRANCH   7   8
ATOM      8  C   UNL     1      25.886  33.911  30.558  1.00  0.00     0.041 C 
ATOM      9  O   UNL     1      25.158  34.417  29.663  1.00  0.00    -0.550 OA
ATOM     10  O   UNL     1      25.322  33.074  31.513  1.00  0.00    -0.550 OA
ENDBRANCH   7   8
ENDBRANCH   6   7
ENDBRANCH   5   6
ENDBRANCH   4   5
ENDBRANCH   3   4
ENDBRANCH   2   3
ENDBRANCH   1   2
BRANCH   1  11
ATOM     11  C   UNL     1      26.123  32.236  36.877  1.00  0.00     0.000 C 
BRANCH  11  12
ATOM     12  C   UNL     1      26.966  30.967  37.113  1.00  0.00    -0.000 C 
BRANCH  12  13
ATOM     13  C   UNL     1      28.493  31.186  37.124  1.00  0.00    -0.000 C 
BRANCH  13  14
ATOM     14  C   UNL     1      29.307  30.174  36.297  1.00  0.00    -0.000 C 
BRANCH  14  15
ATOM     15  C   UNL     1      30.466  30.827  35.527  1.00  0.00    -0.000 C 
BRANCH  15  16
ATOM     16  C   UNL     1      30.179  32.288  35.135  1.00  0.00    -0.000 C 
BRANCH  16  17
ATOM     17  C   UNL     1      31.125  33.330  35.758  1.00  0.00    -0.003 C 
ATOM     18  C   UNL     1      30.654  33.826  37.125  1.00  0.00     0.004 C 
ENDBRANCH  16  17
ENDBRANCH  15  16
ENDBRANCH  14  15
ENDBRANCH  13  14
ENDBRANCH  12  13
ENDBRANCH  11  12
ENDBRANCH   1  11
TORSDOF 14
ENDMDL
