MODEL 1
REMARK VINA RESULT:    -4.450      0.000      0.000
REMARK INTER + INTRA:          -6.185
REMARK INTER:                  -6.011
REMARK INTRA:                  -0.174
REMARK UNBOUND:                -0.174
REMARK SMILES [NH3+]CCCC[C@@H]([NH3+])C(=O)[O-]
REMARK SMILES IDX 4 1 3 2 2 3 1 4 5 8 6 9 7 10 8 14 9 15 10 16
REMARK H PARENT 1 5 1 6 1 7 7 11 7 12 7 13
REMARK Flexibility Score: inf
ROOT
ATOM      1  C   UNL     1      65.384  28.995  36.620  1.00  0.00     0.012 C 
ENDROOT
BRANCH   1   2
ATOM      2  C   UNL     1      64.023  29.529  36.156  1.00  0.00     0.061 C 
BRANCH   2   3
ATOM      3  C   UNL     1      62.999  28.395  36.032  1.00  0.00     0.258 C 
BRANCH   3   4
ATOM      4  N   UNL     1      62.212  28.263  37.259  1.00  0.00    -0.358 N 
ATOM      5  H   UNL     1      61.905  27.271  37.382  1.00  0.00     0.344 HD
ATOM      6  H   UNL     1      62.781  28.563  38.083  1.00  0.00     0.344 HD
ATOM      7  H   UNL     1      61.367  28.873  37.190  1.00  0.00     0.344 HD
ENDBRANCH   3   4
ENDBRANCH   2   3
ENDBRANCH   1   2
BRANCH   1   8
ATOM      8  C   UNL     1      65.828  27.800  35.761  1.00  0.00     0.072 C 
BRANCH   8   9
ATOM      9  C   UNL     1      66.398  26.640  36.606  1.00  0.00     0.227 C 
BRANCH   9  10
ATOM     10  N   UNL     1      65.545  25.445  36.536  1.00  0.00    -0.350 N 
ATOM     11  H   UNL     1      65.894  24.802  35.789  1.00  0.00     0.345 HD
ATOM     12  H   UNL     1      64.554  25.707  36.323  1.00  0.00     0.345 HD
ATOM     13  H   UNL     1      65.579  24.924  37.440  1.00  0.00     0.345 HD
ENDBRANCH   9  10
BRANCH   9  14
ATOM     14  C   UNL     1      67.787  26.308  36.130  1.00  0.00     0.099 C 
ATOM     15  O   UNL     1      68.759  27.044  36.448  1.00  0.00    -0.544 OA
ATOM     16  O   UNL     1      68.005  25.200  35.320  1.00  0.00    -0.544 OA
ENDBRANCH   9  14
ENDBRANCH   8   9
ENDBRANCH   1   8
TORSDOF 7
ENDMDL
MODEL 2
REMARK VINA RESULT:    -4.284      2.947      4.926
REMARK INTER + INTRA:          -5.961
REMARK INTER:                  -5.884
REMARK INTRA:                  -0.077
REMARK UNBOUND:                -0.174
REMARK SMILES [NH3+]CCCC[C@@H]([NH3+])C(=O)[O-]
REMARK SMILES IDX 4 1 3 2 2 3 1 4 5 8 6 9 7 10 8 14 9 15 10 16
REMARK H PARENT 1 5 1 6 1 7 7 11 7 12 7 13
REMARK Flexibility Score: inf
ROOT
ATOM      1  C   UNL     1      66.667  26.061  35.793  1.00  0.00     0.012 C 
ENDROOT
BRANCH   1   2
ATOM      2  C   UNL     1      68.198  25.982  35.810  1.00  0.00     0.061 C 
BRANCH   2   3
ATOM      3  C   UNL     1      68.753  25.742  34.400  1.00  0.00     0.258 C 
BRANCH   3   4
ATOM      4  N   UNL     1      68.306  24.452  33.874  1.00  0.00    -0.358 N 
ATOM      5  H   UNL     1      69.105  23.777  33.856  1.00  0.00     0.344 HD
ATOM      6  H   UNL     1      67.533  24.071  34.466  1.00  0.00     0.344 HD
ATOM      7  H   UNL     1      67.954  24.584  32.899  1.00  0.00     0.344 HD
ENDBRANCH   3   4
ENDBRANCH   2   3
ENDBRANCH   1   2
BRANCH   1   8
ATOM      8  C   UNL     1      66.173  27.310  36.540  1.00  0.00     0.072 C 
BRANCH   8   9
ATOM      9  C   UNL     1      65.275  28.211  35.663  1.00  0.00     0.227 C 
BRANCH   9  10
ATOM     10  N   UNL     1      64.167  27.456  35.062  1.00  0.00    -0.350 N 
ATOM     11  H   UNL     1      63.347  28.087  34.909  1.00  0.00     0.345 HD
ATOM     12  H   UNL     1      63.876  26.665  35.682  1.00  0.00     0.345 HD
ATOM     13  H   UNL     1      64.451  27.080  34.130  1.00  0.00     0.345 HD
ENDBRANCH   9  10
BRANCH   9  14
ATOM     14  C   UNL     1      64.735  29.343  36.496  1.00  0.00     0.099 C 
ATOM     15  O   UNL     1      65.346  29.716  37.531  1.00  0.00    -0.544 OA
ATOM     16  O   UNL     1      63.546  29.970  36.140  1.00  0.00    -0.544 OA
ENDBRANCH   9  14
ENDBRANCH   8   9
ENDBRANCH   1   8
TORSDOF 7
ENDMDL
MODEL 3
REMARK VINA RESULT:    -4.178      2.893      4.822
REMARK INTER + INTRA:          -5.817
REMARK INTER:                  -5.701
REMARK INTRA:                  -0.117
REMARK UNBOUND:                -0.174
REMARK SMILES [NH3+]CCCC[C@@H]([NH3+])C(=O)[O-]
REMARK SMILES IDX 4 1 3 2 2 3 1 4 5 8 6 9 7 10 8 14 9 15 10 16
REMARK H PARENT 1 5 1 6 1 7 7 11 7 12 7 13
REMARK Flexibility Score: inf
ROOT
ATOM      1  C   UNL     1      68.178  25.783  36.004  1.00  0.00     0.012 C 
ENDROOT
BRANCH   1   2
ATOM      2  C   UNL     1      68.742  25.953  34.588  1.00  0.00     0.061 C 
BRANCH   2   3
ATOM      3  C   UNL     1      68.355  24.768  33.694  1.00  0.00     0.258 C 
BRANCH   3   4
ATOM      4  N   UNL     1      68.354  25.155  32.283  1.00  0.00    -0.358 N 
ATOM      5  H   UNL     1      69.221  25.695  32.059  1.00  0.00     0.344 HD
ATOM      6  H   UNL     1      68.299  24.304  31.678  1.00  0.00     0.344 HD
ATOM      7  H   UNL     1      67.522  25.759  32.095  1.00  0.00     0.344 HD
ENDBRANCH   3   4
ENDBRANCH   2   3
ENDBRANCH   1   2
BRANCH   1   8
ATOM      8  C   UNL     1      67.087  26.827  36.291  1.00  0.00     0.072 C 
BRANCH   8   9
ATOM      9  C   UNL     1      65.709  26.419  35.722  1.00  0.00     0.227 C 
BRANCH   9  10
ATOM     10  N   UNL     1      64.996  25.507  36.626  1.00  0.00    -0.350 N 
ATOM     11  H   UNL     1      64.136  25.140  36.157  1.00  0.00     0.345 HD
ATOM     12  H   UNL     1      64.717  25.998  37.508  1.00  0.00     0.345 HD
ATOM     13  H   UNL     1      65.599  24.687  36.862  1.00  0.00     0.345 HD
ENDBRANCH   9  10
BRANCH   9  14
ATOM     14  C   UNL     1      64.882  27.653  35.480  1.00  0.00     0.099 C 
ATOM     15  O   UNL     1      65.433  28.722  35.103  1.00  0.00    -0.544 OA
ATOM     16  O   UNL     1      63.508  27.629  35.689  1.00  0.00    -0.544 OA
ENDBRANCH   9  14
ENDBRANCH   8   9
ENDBRANCH   1   8
TORSDOF 7
ENDMDL
MODEL 4
REMARK VINA RESULT:    -4.174     15.356     16.039
REMARK INTER + INTRA:          -5.812
REMARK INTER:                  -5.674
REMARK INTRA:                  -0.139
REMARK UNBOUND:                -0.174
REMARK SMILES [NH3+]CCCC[C@@H]([NH3+])C(=O)[O-]
REMARK SMILES IDX 4 1 3 2 2 3 1 4 5 8 6 9 7 10 8 14 9 15 10 16
REMARK H PARENT 1 5 1 6 1 7 7 11 7 12 7 13
REMARK Flexibility Score: inf
ROOT
ATOM      1  C   UNL     1      58.153  13.828  32.775  1.00  0.00     0.012 C 
ENDROOT
BRANCH   1   2
ATOM      2  C   UNL     1      57.201  12.634  32.638  1.00  0.00     0.061 C 
BRANCH   2   3
ATOM      3  C   UNL     1      55.912  13.036  31.910  1.00  0.00     0.258 C 
BRANCH   3   4
ATOM      4  N   UNL     1      55.888  14.475  31.644  1.00  0.00    -0.358 N 
ATOM      5  H   UNL     1      55.405  14.663  30.735  1.00  0.00     0.344 HD
ATOM      6  H   UNL     1      55.395  14.974  32.418  1.00  0.00     0.344 HD
ATOM      7  H   UNL     1      56.870  14.827  31.584  1.00  0.00     0.344 HD
ENDBRANCH   3   4
ENDBRANCH   2   3
ENDBRANCH   1   2
BRANCH   1   8
ATOM      8  C   UNL     1      59.405  13.636  31.905  1.00  0.00     0.072 C 
BRANCH   8   9
ATOM      9  C   UNL     1      59.647  14.819  30.942  1.00  0.00     0.227 C 
BRANCH   9  10
ATOM     10  N   UNL     1      60.497  15.852  31.550  1.00  0.00    -0.350 N 
ATOM     11  H   UNL     1      60.111  16.801  31.341  1.00  0.00     0.345 HD
ATOM     12  H   UNL     1      61.476  15.794  31.181  1.00  0.00     0.345 HD
ATOM     13  H   UNL     1      60.512  15.741  32.589  1.00  0.00     0.345 HD
ENDBRANCH   9  10
BRANCH   9  14
ATOM     14  C   UNL     1      60.282  14.312  29.675  1.00  0.00     0.099 C 
ATOM     15  O   UNL     1      60.903  15.102  28.916  1.00  0.00    -0.544 OA
ATOM     16  O   UNL     1      60.170  12.971  29.322  1.00  0.00    -0.544 OA
ENDBRANCH   9  14
ENDBRANCH   8   9
ENDBRANCH   1   8
TORSDOF 7
ENDMDL
MODEL 5
REMARK VINA RESULT:    -4.160     15.397     16.084
REMARK INTER + INTRA:          -5.792
REMARK INTER:                  -5.609
REMARK INTRA:                  -0.184
REMARK UNBOUND:                -0.174
REMARK SMILES [NH3+]CCCC[C@@H]([NH3+])C(=O)[O-]
REMARK SMILES IDX 4 1 3 2 2 3 1 4 5 8 6 9 7 10 8 14 9 15 10 16
REMARK H PARENT 1 5 1 6 1 7 7 11 7 12 7 13
REMARK Flexibility Score: inf
ROOT
ATOM      1  C   UNL     1      57.950  13.805  32.861  1.00  0.00     0.012 C 
ENDROOT
BRANCH   1   2
ATOM      2  C   UNL     1      56.857  14.038  31.811  1.00  0.00     0.061 C 
BRANCH   2   3
ATOM      3  C   UNL     1      55.815  12.914  31.840  1.00  0.00     0.258 C 
BRANCH   3   4
ATOM      4  N   UNL     1      54.505  13.402  31.408  1.00  0.00    -0.358 N 
ATOM      5  H   UNL     1      54.550  13.713  30.410  1.00  0.00     0.344 HD
ATOM      6  H   UNL     1      53.788  12.648  31.513  1.00  0.00     0.344 HD
ATOM      7  H   UNL     1      54.231  14.216  32.003  1.00  0.00     0.344 HD
ENDBRANCH   3   4
ENDBRANCH   2   3
ENDBRANCH   1   2
BRANCH   1   8
ATOM      8  C   UNL     1      59.109  14.798  32.679  1.00  0.00     0.072 C 
BRANCH   8   9
ATOM      9  C   UNL     1      59.864  14.593  31.347  1.00  0.00     0.227 C 
BRANCH   9  10
ATOM     10  N   UNL     1      60.832  15.671  31.098  1.00  0.00    -0.350 N 
ATOM     11  H   UNL     1      61.473  15.771  31.917  1.00  0.00     0.345 HD
ATOM     12  H   UNL     1      60.341  16.582  30.937  1.00  0.00     0.345 HD
ATOM     13  H   UNL     1      61.419  15.443  30.265  1.00  0.00     0.345 HD
ENDBRANCH   9  10
BRANCH   9  14
ATOM     14  C   UNL     1      60.570  13.264  31.370  1.00  0.00     0.099 C 
ATOM     15  O   UNL     1      60.273  12.374  30.529  1.00  0.00    -0.544 OA
ATOM     16  O   UNL     1      61.540  13.001  32.331  1.00  0.00    -0.544 OA
ENDBRANCH   9  14
ENDBRANCH   8   9
ENDBRANCH   1   8
TORSDOF 7
ENDMDL
MODEL 6
REMARK VINA RESULT:    -3.998     15.920     16.735
REMARK INTER + INTRA:          -5.574
REMARK INTER:                  -5.378
REMARK INTRA:                  -0.196
REMARK UNBOUND:                -0.174
REMARK SMILES [NH3+]CCCC[C@@H]([NH3+])C(=O)[O-]
REMARK SMILES IDX 4 1 3 2 2 3 1 4 5 8 6 9 7 10 8 14 9 15 10 16
REMARK H PARENT 1 5 1 6 1 7 7 11 7 12 7 13
REMARK Flexibility Score: inf
ROOT
ATOM      1  C   UNL     1      59.510  13.628  32.445  1.00  0.00     0.012 C 
ENDROOT
BRANCH   1   2
ATOM      2  C   UNL     1      59.237  14.377  31.136  1.00  0.00     0.061 C 
BRANCH   2   3
ATOM      3  C   UNL     1      60.500  15.089  30.633  1.00  0.00     0.258 C 
BRANCH   3   4
ATOM      4  N   UNL     1      60.527  15.136  29.171  1.00  0.00    -0.358 N 
ATOM      5  H   UNL     1      60.991  16.017  28.851  1.00  0.00     0.344 HD
ATOM      6  H   UNL     1      61.041  14.307  28.795  1.00  0.00     0.344 HD
ATOM      7  H   UNL     1      59.547  15.120  28.810  1.00  0.00     0.344 HD
ENDBRANCH   3   4
ENDBRANCH   2   3
ENDBRANCH   1   2
BRANCH   1   8
ATOM      8  C   UNL     1      60.775  12.762  32.331  1.00  0.00     0.072 C 
BRANCH   8   9
ATOM      9  C   UNL     1      60.458  11.283  32.019  1.00  0.00     0.227 C 
BRANCH   9  10
ATOM     10  N   UNL     1      59.011  11.044  31.932  1.00  0.00    -0.350 N 
ATOM     11  H   UNL     1      58.592  11.654  31.193  1.00  0.00     0.345 HD
ATOM     12  H   UNL     1      58.543  11.248  32.846  1.00  0.00     0.345 HD
ATOM     13  H   UNL     1      58.825  10.052  31.661  1.00  0.00     0.345 HD
ENDBRANCH   9  10
BRANCH   9  14
ATOM     14  C   UNL     1      61.123  10.889  30.728  1.00  0.00     0.099 C 
ATOM     15  O   UNL     1      60.611  11.216  29.625  1.00  0.00    -0.544 OA
ATOM     16  O   UNL     1      62.297  10.143  30.743  1.00  0.00    -0.544 OA
ENDBRANCH   9  14
ENDBRANCH   8   9
ENDBRANCH   1   8
TORSDOF 7
ENDMDL
MODEL 7
REMARK VINA RESULT:    -3.981     13.610     14.373
REMARK INTER + INTRA:          -5.551
REMARK INTER:                  -5.423
REMARK INTRA:                  -0.128
REMARK UNBOUND:                -0.174
REMARK SMILES [NH3+]CCCC[C@@H]([NH3+])C(=O)[O-]
REMARK SMILES IDX 4 1 3 2 2 3 1 4 5 8 6 9 7 10 8 14 9 15 10 16
REMARK H PARENT 1 5 1 6 1 7 7 11 7 12 7 13
REMARK Flexibility Score: inf
ROOT
ATOM      1  C   UNL     1      57.420  26.723  23.961  1.00  0.00     0.012 C 
ENDROOT
BRANCH   1   2
ATOM      2  C   UNL     1      57.585  28.086  23.277  1.00  0.00     0.061 C 
BRANCH   2   3
ATOM      3  C   UNL     1      56.322  28.941  23.439  1.00  0.00     0.258 C 
BRANCH   3   4
ATOM      4  N   UNL     1      55.557  28.528  24.616  1.00  0.00    -0.358 N 
ATOM      5  H   UNL     1      56.082  28.773  25.487  1.00  0.00     0.344 HD
ATOM      6  H   UNL     1      54.623  28.999  24.620  1.00  0.00     0.344 HD
ATOM      7  H   UNL     1      55.416  27.493  24.586  1.00  0.00     0.344 HD
ENDBRANCH   3   4
ENDBRANCH   2   3
ENDBRANCH   1   2
BRANCH   1   8
ATOM      8  C   UNL     1      58.765  26.213  24.503  1.00  0.00     0.072 C 
BRANCH   8   9
ATOM      9  C   UNL     1      58.632  24.870  25.254  1.00  0.00     0.227 C 
BRANCH   9  10
ATOM     10  N   UNL     1      57.229  24.452  25.380  1.00  0.00    -0.350 N 
ATOM     11  H   UNL     1      56.751  24.524  24.452  1.00  0.00     0.345 HD
ATOM     12  H   UNL     1      56.722  25.053  26.071  1.00  0.00     0.345 HD
ATOM     13  H   UNL     1      57.176  23.454  25.684  1.00  0.00     0.345 HD
ENDBRANCH   9  10
BRANCH   9  14
ATOM     14  C   UNL     1      59.421  23.812  24.531  1.00  0.00     0.099 C 
ATOM     15  O   UNL     1      59.841  22.799  25.151  1.00  0.00    -0.544 OA
ATOM     16  O   UNL     1      59.710  23.953  23.178  1.00  0.00    -0.544 OA
ENDBRANCH   9  14
ENDBRANCH   8   9
ENDBRANCH   1   8
TORSDOF 7
ENDMDL
MODEL 8
REMARK VINA RESULT:    -3.979     13.670     14.384
REMARK INTER + INTRA:          -5.549
REMARK INTER:                  -5.432
REMARK INTRA:                  -0.117
REMARK UNBOUND:                -0.174
REMARK SMILES [NH3+]CCCC[C@@H]([NH3+])C(=O)[O-]
REMARK SMILES IDX 4 1 3 2 2 3 1 4 5 8 6 9 7 10 8 14 9 15 10 16
REMARK H PARENT 1 5 1 6 1 7 7 11 7 12 7 13
REMARK Flexibility Score: inf
ROOT
ATOM      1  C   UNL     1      57.454  26.766  24.134  1.00  0.00     0.012 C 
ENDROOT
BRANCH   1   2
ATOM      2  C   UNL     1      57.642  28.060  23.332  1.00  0.00     0.061 C 
BRANCH   2   3
ATOM      3  C   UNL     1      56.364  28.906  23.340  1.00  0.00     0.258 C 
BRANCH   3   4
ATOM      4  N   UNL     1      55.568  28.642  24.540  1.00  0.00    -0.358 N 
ATOM      5  H   UNL     1      55.733  29.391  25.250  1.00  0.00     0.344 HD
ATOM      6  H   UNL     1      54.553  28.601  24.295  1.00  0.00     0.344 HD
ATOM      7  H   UNL     1      55.857  27.723  24.945  1.00  0.00     0.344 HD
ENDBRANCH   3   4
ENDBRANCH   2   3
ENDBRANCH   1   2
BRANCH   1   8
ATOM      8  C   UNL     1      58.810  26.131  24.482  1.00  0.00     0.072 C 
BRANCH   8   9
ATOM      9  C   UNL     1      58.663  24.776  25.207  1.00  0.00     0.227 C 
BRANCH   9  10
ATOM     10  N   UNL     1      57.254  24.380  25.344  1.00  0.00    -0.350 N 
ATOM     11  H   UNL     1      56.734  25.100  25.897  1.00  0.00     0.345 HD
ATOM     12  H   UNL     1      57.172  23.455  25.827  1.00  0.00     0.345 HD
ATOM     13  H   UNL     1      56.804  24.321  24.403  1.00  0.00     0.345 HD
ENDBRANCH   9  10
BRANCH   9  14
ATOM     14  C   UNL     1      59.423  23.718  24.452  1.00  0.00     0.099 C 
ATOM     15  O   UNL     1      59.696  23.883  23.233  1.00  0.00    -0.544 OA
ATOM     16  O   UNL     1      59.810  22.544  25.087  1.00  0.00    -0.544 OA
ENDBRANCH   9  14
ENDBRANCH   8   9
ENDBRANCH   1   8
TORSDOF 7
ENDMDL
MODEL 9
REMARK VINA RESULT:    -3.969     14.150     14.826
REMARK INTER + INTRA:          -5.535
REMARK INTER:                  -5.065
REMARK INTRA:                  -0.469
REMARK UNBOUND:                -0.174
REMARK SMILES [NH3+]CCCC[C@@H]([NH3+])C(=O)[O-]
REMARK SMILES IDX 4 1 3 2 2 3 1 4 5 8 6 9 7 10 8 14 9 15 10 16
REMARK H PARENT 1 5 1 6 1 7 7 11 7 12 7 13
REMARK Flexibility Score: inf
ROOT
ATOM      1  C   UNL     1      59.451  25.349  24.607  1.00  0.00     0.012 C 
ENDROOT
BRANCH   1   2
ATOM      2  C   UNL     1      59.038  26.723  24.065  1.00  0.00     0.061 C 
BRANCH   2   3
ATOM      3  C   UNL     1      58.794  26.668  22.552  1.00  0.00     0.258 C 
BRANCH   3   4
ATOM      4  N   UNL     1      59.551  25.577  21.938  1.00  0.00    -0.358 N 
ATOM      5  H   UNL     1      59.889  25.864  20.991  1.00  0.00     0.344 HD
ATOM      6  H   UNL     1      60.365  25.320  22.543  1.00  0.00     0.344 HD
ATOM      7  H   UNL     1      58.928  24.744  21.837  1.00  0.00     0.344 HD
ENDBRANCH   3   4
ENDBRANCH   2   3
ENDBRANCH   1   2
BRANCH   1   8
ATOM      8  C   UNL     1      58.265  24.645  25.286  1.00  0.00     0.072 C 
BRANCH   8   9
ATOM      9  C   UNL     1      57.817  23.373  24.532  1.00  0.00     0.227 C 
BRANCH   9  10
ATOM     10  N   UNL     1      56.928  23.692  23.407  1.00  0.00    -0.350 N 
ATOM     11  H   UNL     1      57.494  23.916  22.557  1.00  0.00     0.345 HD
ATOM     12  H   UNL     1      56.318  24.512  23.635  1.00  0.00     0.345 HD
ATOM     13  H   UNL     1      56.329  22.868  23.176  1.00  0.00     0.345 HD
ENDBRANCH   9  10
BRANCH   9  14
ATOM     14  C   UNL     1      59.030  22.632  24.035  1.00  0.00     0.099 C 
ATOM     15  O   UNL     1      59.778  22.025  24.846  1.00  0.00    -0.544 OA
ATOM     16  O   UNL     1      59.345  22.630  22.681  1.00  0.00    -0.544 OA
ENDBRANCH   9  14
ENDBRANCH   8   9
ENDBRANCH   1   8
TORSDOF 7
ENDMDL
