MODEL 1
REMARK VINA RESULT:    -3.721      0.000      0.000
REMARK INTER + INTRA:          -3.999
REMARK INTER:                  -3.938
REMARK INTRA:                  -0.061
REMARK UNBOUND:                -0.061
REMARK SMILES CC(=O)c1ccccc1
REMARK SMILES IDX 4 1 5 2 6 3 7 4 8 5 9 6 2 7 1 8 3 9
REMARK H PARENT
REMARK Flexibility Score: inf
ROOT
ATOM      1  C   UNL     1      49.633 -28.547 -31.616  1.00  0.00     0.017 A 
ATOM      2  C   UNL     1      48.584 -28.352 -32.538  1.00  0.00     0.012 A 
ATOM      3  C   UNL     1      47.276 -28.721 -32.212  1.00  0.00     0.001 A 
ATOM      4  C   UNL     1      46.995 -29.289 -30.969  1.00  0.00     0.000 A 
ATOM      5  C   UNL     1      48.023 -29.489 -30.046  1.00  0.00     0.001 A 
ATOM      6  C   UNL     1      49.334 -29.121 -30.364  1.00  0.00     0.012 A 
ENDROOT
BRANCH   1   7
ATOM      7  C   UNL     1      51.033 -28.161 -31.941  1.00  0.00     0.159 C 
ATOM      8  C   UNL     1      52.124 -29.180 -32.082  1.00  0.00     0.093 C 
ATOM      9  O   UNL     1      51.325 -26.945 -32.106  1.00  0.00    -0.295 OA
ENDBRANCH   1   7
TORSDOF 1
ENDMDL
MODEL 2
REMARK VINA RESULT:    -3.717      2.062      4.043
REMARK INTER + INTRA:          -3.995
REMARK INTER:                  -3.926
REMARK INTRA:                  -0.069
REMARK UNBOUND:                -0.061
REMARK SMILES CC(=O)c1ccccc1
REMARK SMILES IDX 4 1 5 2 6 3 7 4 8 5 9 6 2 7 1 8 3 9
REMARK H PARENT
REMARK Flexibility Score: inf
ROOT
ATOM      1  C   UNL     1      48.285 -28.727 -31.554  1.00  0.00     0.017 A 
ATOM      2  C   UNL     1      49.315 -29.116 -30.673  1.00  0.00     0.012 A 
ATOM      3  C   UNL     1      50.655 -28.886 -31.001  1.00  0.00     0.001 A 
ATOM      4  C   UNL     1      50.986 -28.269 -32.208  1.00  0.00     0.000 A 
ATOM      5  C   UNL     1      49.978 -27.879 -33.091  1.00  0.00     0.001 A 
ATOM      6  C   UNL     1      48.636 -28.104 -32.769  1.00  0.00     0.012 A 
ENDROOT
BRANCH   1   7
ATOM      7  C   UNL     1      46.853 -28.962 -31.224  1.00  0.00     0.159 C 
ATOM      8  C   UNL     1      46.436 -29.898 -30.130  1.00  0.00     0.093 C 
ATOM      9  O   UNL     1      45.954 -28.363 -31.876  1.00  0.00    -0.295 OA
ENDBRANCH   1   7
TORSDOF 1
ENDMDL
MODEL 3
REMARK VINA RESULT:    -3.711      0.058      1.614
REMARK INTER + INTRA:          -3.989
REMARK INTER:                  -3.929
REMARK INTRA:                  -0.060
REMARK UNBOUND:                -0.061
REMARK SMILES CC(=O)c1ccccc1
REMARK SMILES IDX 4 1 5 2 6 3 7 4 8 5 9 6 2 7 1 8 3 9
REMARK H PARENT
REMARK Flexibility Score: inf
ROOT
ATOM      1  C   UNL     1      49.640 -28.564 -31.572  1.00  0.00     0.017 A 
ATOM      2  C   UNL     1      49.299 -29.163 -30.341  1.00  0.00     0.012 A 
ATOM      3  C   UNL     1      47.975 -29.516 -30.066  1.00  0.00     0.001 A 
ATOM      4  C   UNL     1      46.974 -29.277 -31.010  1.00  0.00     0.000 A 
ATOM      5  C   UNL     1      47.295 -28.686 -32.232  1.00  0.00     0.001 A 
ATOM      6  C   UNL     1      48.618 -28.331 -32.515  1.00  0.00     0.012 A 
ENDROOT
BRANCH   1   7
ATOM      7  C   UNL     1      51.044 -28.182 -31.886  1.00  0.00     0.159 C 
ATOM      8  C   UNL     1      52.124 -29.208 -32.059  1.00  0.00     0.093 C 
ATOM      9  O   UNL     1      51.348 -26.965 -32.012  1.00  0.00    -0.295 OA
ENDBRANCH   1   7
TORSDOF 1
ENDMDL
MODEL 4
REMARK VINA RESULT:    -3.711      2.089      3.715
REMARK INTER + INTRA:          -3.988
REMARK INTER:                  -3.918
REMARK INTRA:                  -0.070
REMARK UNBOUND:                -0.061
REMARK SMILES CC(=O)c1ccccc1
REMARK SMILES IDX 4 1 5 2 6 3 7 4 8 5 9 6 2 7 1 8 3 9
REMARK H PARENT
REMARK Flexibility Score: inf
ROOT
ATOM      1  C   UNL     1      48.236 -28.717 -31.554  1.00  0.00     0.017 A 
ATOM      2  C   UNL     1      48.569 -28.078 -32.766  1.00  0.00     0.012 A 
ATOM      3  C   UNL     1      49.906 -27.844 -33.100  1.00  0.00     0.001 A 
ATOM      4  C   UNL     1      50.926 -28.240 -32.234  1.00  0.00     0.000 A 
ATOM      5  C   UNL     1      50.612 -28.873 -31.031  1.00  0.00     0.001 A 
ATOM      6  C   UNL     1      49.277 -29.112 -30.690  1.00  0.00     0.012 A 
ENDROOT
BRANCH   1   7
ATOM      7  C   UNL     1      46.819 -28.977 -31.179  1.00  0.00     0.159 C 
ATOM      8  C   UNL     1      46.451 -29.963 -30.111  1.00  0.00     0.093 C 
ATOM      9  O   UNL     1      45.891 -28.358 -31.768  1.00  0.00    -0.295 OA
ENDBRANCH   1   7
TORSDOF 1
ENDMDL
MODEL 5
REMARK VINA RESULT:    -3.656     15.309     16.826
REMARK INTER + INTRA:          -3.930
REMARK INTER:                  -3.865
REMARK INTRA:                  -0.065
REMARK UNBOUND:                -0.061
REMARK SMILES CC(=O)c1ccccc1
REMARK SMILES IDX 4 1 5 2 6 3 7 4 8 5 9 6 2 7 1 8 3 9
REMARK H PARENT
REMARK Flexibility Score: inf
ROOT
ATOM      1  C   UNL     1      38.667 -40.815 -28.793  1.00  0.00     0.017 A 
ATOM      2  C   UNL     1      39.090 -41.363 -30.021  1.00  0.00     0.012 A 
ATOM      3  C   UNL     1      38.963 -42.734 -30.268  1.00  0.00     0.001 A 
ATOM      4  C   UNL     1      38.415 -43.574 -29.297  1.00  0.00     0.000 A 
ATOM      5  C   UNL     1      37.992 -43.046 -28.077  1.00  0.00     0.001 A 
ATOM      6  C   UNL     1      38.115 -41.676 -27.824  1.00  0.00     0.012 A 
ENDROOT
BRANCH   1   7
ATOM      7  C   UNL     1      38.792 -39.359 -28.510  1.00  0.00     0.159 C 
ATOM      8  C   UNL     1      39.261 -38.848 -27.181  1.00  0.00     0.093 C 
ATOM      9  O   UNL     1      38.498 -38.520 -29.405  1.00  0.00    -0.295 OA
ENDBRANCH   1   7
TORSDOF 1
ENDMDL
MODEL 6
REMARK VINA RESULT:    -3.588      1.473      1.847
REMARK INTER + INTRA:          -3.858
REMARK INTER:                  -3.792
REMARK INTRA:                  -0.067
REMARK UNBOUND:                -0.061
REMARK SMILES CC(=O)c1ccccc1
REMARK SMILES IDX 4 1 5 2 6 3 7 4 8 5 9 6 2 7 1 8 3 9
REMARK H PARENT
REMARK Flexibility Score: inf
ROOT
ATOM      1  C   UNL     1      50.853 -28.611 -31.646  1.00  0.00     0.017 A 
ATOM      2  C   UNL     1      50.335 -28.048 -32.831  1.00  0.00     0.012 A 
ATOM      3  C   UNL     1      48.953 -27.951 -33.025  1.00  0.00     0.001 A 
ATOM      4  C   UNL     1      48.073 -28.414 -32.047  1.00  0.00     0.000 A 
ATOM      5  C   UNL     1      48.570 -28.974 -30.869  1.00  0.00     0.001 A 
ATOM      6  C   UNL     1      49.950 -29.072 -30.667  1.00  0.00     0.012 A 
ENDROOT
BRANCH   1   7
ATOM      7  C   UNL     1      52.319 -28.722 -31.418  1.00  0.00     0.159 C 
ATOM      8  C   UNL     1      53.289 -27.742 -32.007  1.00  0.00     0.093 C 
ATOM      9  O   UNL     1      52.774 -29.662 -30.711  1.00  0.00    -0.295 OA
ENDBRANCH   1   7
TORSDOF 1
ENDMDL
MODEL 7
REMARK VINA RESULT:    -3.583     13.002     13.514
REMARK INTER + INTRA:          -3.853
REMARK INTER:                  -3.795
REMARK INTRA:                  -0.058
REMARK UNBOUND:                -0.061
REMARK SMILES CC(=O)c1ccccc1
REMARK SMILES IDX 4 1 5 2 6 3 7 4 8 5 9 6 2 7 1 8 3 9
REMARK H PARENT
REMARK Flexibility Score: inf
ROOT
ATOM      1  C   UNL     1      51.871 -41.788 -30.687  1.00  0.00     0.017 A 
ATOM      2  C   UNL     1      51.046 -40.839 -30.047  1.00  0.00     0.012 A 
ATOM      3  C   UNL     1      49.753 -41.183 -29.641  1.00  0.00     0.001 A 
ATOM      4  C   UNL     1      49.265 -42.471 -29.867  1.00  0.00     0.000 A 
ATOM      5  C   UNL     1      50.069 -43.420 -30.499  1.00  0.00     0.001 A 
ATOM      6  C   UNL     1      51.364 -43.084 -30.906  1.00  0.00     0.012 A 
ENDROOT
BRANCH   1   7
ATOM      7  C   UNL     1      53.251 -41.443 -31.126  1.00  0.00     0.159 C 
ATOM      8  C   UNL     1      53.516 -40.744 -32.426  1.00  0.00     0.093 C 
ATOM      9  O   UNL     1      54.234 -41.742 -30.395  1.00  0.00    -0.295 OA
ENDBRANCH   1   7
TORSDOF 1
ENDMDL
MODEL 8
REMARK VINA RESULT:    -3.408     15.000     15.474
REMARK INTER + INTRA:          -3.668
REMARK INTER:                  -3.605
REMARK INTRA:                  -0.063
REMARK UNBOUND:                -0.061
REMARK SMILES CC(=O)c1ccccc1
REMARK SMILES IDX 4 1 5 2 6 3 7 4 8 5 9 6 2 7 1 8 3 9
REMARK H PARENT
REMARK Flexibility Score: inf
ROOT
ATOM      1  C   UNL     1      55.836 -40.722 -24.751  1.00  0.00     0.017 A 
ATOM      2  C   UNL     1      54.701 -40.836 -23.922  1.00  0.00     0.012 A 
ATOM      3  C   UNL     1      54.505 -39.947 -22.860  1.00  0.00     0.001 A 
ATOM      4  C   UNL     1      55.435 -38.936 -22.611  1.00  0.00     0.000 A 
ATOM      5  C   UNL     1      56.564 -38.810 -23.422  1.00  0.00     0.001 A 
ATOM      6  C   UNL     1      56.765 -39.695 -24.486  1.00  0.00     0.012 A 
ENDROOT
BRANCH   1   7
ATOM      7  C   UNL     1      56.064 -41.657 -25.886  1.00  0.00     0.159 C 
ATOM      8  C   UNL     1      55.984 -43.144 -25.715  1.00  0.00     0.093 C 
ATOM      9  O   UNL     1      56.331 -41.199 -27.030  1.00  0.00    -0.295 OA
ENDBRANCH   1   7
TORSDOF 1
ENDMDL
MODEL 9
REMARK VINA RESULT:    -3.398     14.714     15.000
REMARK INTER + INTRA:          -3.657
REMARK INTER:                  -3.588
REMARK INTRA:                  -0.069
REMARK UNBOUND:                -0.061
REMARK SMILES CC(=O)c1ccccc1
REMARK SMILES IDX 4 1 5 2 6 3 7 4 8 5 9 6 2 7 1 8 3 9
REMARK H PARENT
REMARK Flexibility Score: inf
ROOT
ATOM      1  C   UNL     1      55.413 -39.355 -23.063  1.00  0.00     0.017 A 
ATOM      2  C   UNL     1      55.469 -38.148 -22.337  1.00  0.00     0.012 A 
ATOM      3  C   UNL     1      54.378 -37.730 -21.569  1.00  0.00     0.001 A 
ATOM      4  C   UNL     1      53.219 -38.506 -21.516  1.00  0.00     0.000 A 
ATOM      5  C   UNL     1      53.148 -39.704 -22.230  1.00  0.00     0.001 A 
ATOM      6  C   UNL     1      54.236 -40.128 -22.998  1.00  0.00     0.012 A 
ENDROOT
BRANCH   1   7
ATOM      7  C   UNL     1      56.564 -39.819 -23.885  1.00  0.00     0.159 C 
ATOM      8  C   UNL     1      57.689 -38.902 -24.262  1.00  0.00     0.093 C 
ATOM      9  O   UNL     1      56.608 -41.015 -24.283  1.00  0.00    -0.295 OA
ENDBRANCH   1   7
TORSDOF 1
ENDMDL
