MODEL 1
REMARK VINA RESULT:    10.007      0.000      0.000
REMARK INTER + INTRA:          11.717
REMARK INTER:                  11.177
REMARK INTRA:                   0.540
REMARK UNBOUND:                 0.540
REMARK SMILES O=C([O-])c1ccccc1C(=O)[O-]
REMARK SMILES IDX 4 1 9 2 5 3 8 4 6 5 7 6 2 7 1 8 3 9 10 10 11 11 12 12
REMARK H PARENT
REMARK Flexibility Score: inf
ROOT
ATOM      1  C   UNL     1     -17.482  19.615  21.938  1.00  0.00     0.006 A 
ATOM      2  C   UNL     1     -18.418  19.280  20.921  1.00  0.00     0.006 A 
ATOM      3  C   UNL     1     -17.241  20.971  22.229  1.00  0.00     0.010 A 
ATOM      4  C   UNL     1     -19.125  20.313  20.277  1.00  0.00     0.010 A 
ATOM      5  C   UNL     1     -17.938  21.979  21.561  1.00  0.00     0.001 A 
ATOM      6  C   UNL     1     -18.887  21.650  20.595  1.00  0.00     0.001 A 
ENDROOT
BRANCH   1   7
ATOM      7  C   UNL     1     -16.797  18.592  22.763  1.00  0.00     0.072 C 
ATOM      8  O   UNL     1     -17.255  18.281  23.894  1.00  0.00    -0.545 OA
ATOM      9  O   UNL     1     -15.684  17.919  22.277  1.00  0.00    -0.545 OA
ENDBRANCH   1   7
BRANCH   2  10
ATOM     10  C   UNL     1     -18.638  17.893  20.452  1.00  0.00     0.072 C 
ATOM     11  O   UNL     1     -18.338  16.911  21.181  1.00  0.00    -0.545 OA
ATOM     12  O   UNL     1     -19.116  17.659  19.167  1.00  0.00    -0.545 OA
ENDBRANCH   2  10
TORSDOF 2
ENDMDL
MODEL 2
REMARK VINA RESULT:    11.298      2.230      4.110
REMARK INTER + INTRA:          13.160
REMARK INTER:                  11.610
REMARK INTRA:                   1.549
REMARK UNBOUND:                 0.540
REMARK SMILES O=C([O-])c1ccccc1C(=O)[O-]
REMARK SMILES IDX 4 1 9 2 5 3 8 4 6 5 7 6 2 7 1 8 3 9 10 10 11 11 12 12
REMARK H PARENT
REMARK Flexibility Score: inf
ROOT
ATOM      1  C   UNL     1     -18.790  19.766  20.020  1.00  0.00     0.006 A 
ATOM      2  C   UNL     1     -18.406  18.899  21.082  1.00  0.00     0.006 A 
ATOM      3  C   UNL     1     -19.125  19.212  18.770  1.00  0.00     0.010 A 
ATOM      4  C   UNL     1     -18.434  17.508  20.872  1.00  0.00     0.010 A 
ATOM      5  C   UNL     1     -19.123  17.829  18.579  1.00  0.00     0.001 A 
ATOM      6  C   UNL     1     -18.790  16.979  19.631  1.00  0.00     0.001 A 
ENDROOT
BRANCH   1   7
ATOM      7  C   UNL     1     -18.925  21.231  20.193  1.00  0.00     0.072 C 
ATOM      8  O   UNL     1     -19.048  21.724  21.345  1.00  0.00    -0.545 OA
ATOM      9  O   UNL     1     -18.853  22.083  19.098  1.00  0.00    -0.545 OA
ENDBRANCH   1   7
BRANCH   2  10
ATOM     10  C   UNL     1     -17.908  19.394  22.386  1.00  0.00     0.072 C 
ATOM     11  O   UNL     1     -18.602  20.178  23.085  1.00  0.00    -0.545 OA
ATOM     12  O   UNL     1     -16.634  19.048  22.821  1.00  0.00    -0.545 OA
ENDBRANCH   2  10
TORSDOF 2
ENDMDL
MODEL 3
REMARK VINA RESULT:    11.484      7.585      9.295
REMARK INTER + INTRA:          13.367
REMARK INTER:                  12.989
REMARK INTRA:                   0.378
REMARK UNBOUND:                 0.540
REMARK SMILES O=C([O-])c1ccccc1C(=O)[O-]
REMARK SMILES IDX 4 1 9 2 5 3 8 4 6 5 7 6 2 7 1 8 3 9 10 10 11 11 12 12
REMARK H PARENT
REMARK Flexibility Score: inf
ROOT
ATOM      1  C   UNL     1     -18.307  17.528  12.982  1.00  0.00     0.006 A 
ATOM      2  C   UNL     1     -16.980  17.923  12.653  1.00  0.00     0.006 A 
ATOM      3  C   UNL     1     -19.124  16.971  11.981  1.00  0.00     0.010 A 
ATOM      4  C   UNL     1     -16.500  17.688  11.352  1.00  0.00     0.010 A 
ATOM      5  C   UNL     1     -18.633  16.768  10.690  1.00  0.00     0.001 A 
ATOM      6  C   UNL     1     -17.321  17.115  10.379  1.00  0.00     0.001 A 
ENDROOT
BRANCH   1   7
ATOM      7  C   UNL     1     -18.847  17.608  14.360  1.00  0.00     0.072 C 
ATOM      8  O   UNL     1     -19.125  18.727  14.867  1.00  0.00    -0.545 OA
ATOM      9  O   UNL     1     -19.115  16.454  15.084  1.00  0.00    -0.545 OA
ENDBRANCH   1   7
BRANCH   2  10
ATOM     10  C   UNL     1     -16.095  18.639  13.599  1.00  0.00     0.072 C 
ATOM     11  O   UNL     1     -15.318  19.545  13.196  1.00  0.00    -0.545 OA
ATOM     12  O   UNL     1     -16.062  18.270  14.940  1.00  0.00    -0.545 OA
ENDBRANCH   2  10
TORSDOF 2
ENDMDL
MODEL 4
REMARK VINA RESULT:    11.752      7.682      9.234
REMARK INTER + INTRA:          13.667
REMARK INTER:                  13.272
REMARK INTRA:                   0.394
REMARK UNBOUND:                 0.540
REMARK SMILES O=C([O-])c1ccccc1C(=O)[O-]
REMARK SMILES IDX 4 1 9 2 5 3 8 4 6 5 7 6 2 7 1 8 3 9 10 10 11 11 12 12
REMARK H PARENT
REMARK Flexibility Score: inf
ROOT
ATOM      1  C   UNL     1     -17.093  18.023  13.339  1.00  0.00     0.006 A 
ATOM      2  C   UNL     1     -17.908  17.149  12.567  1.00  0.00     0.006 A 
ATOM      3  C   UNL     1     -17.346  18.158  14.717  1.00  0.00     0.010 A 
ATOM      4  C   UNL     1     -18.905  16.395  13.215  1.00  0.00     0.010 A 
ATOM      5  C   UNL     1     -18.355  17.416  15.333  1.00  0.00     0.001 A 
ATOM      6  C   UNL     1     -19.125  16.528  14.586  1.00  0.00     0.001 A 
ENDROOT
BRANCH   1   7
ATOM      7  C   UNL     1     -15.933  18.747  12.768  1.00  0.00     0.072 C 
ATOM      8  O   UNL     1     -15.430  19.723  13.385  1.00  0.00    -0.545 OA
ATOM      9  O   UNL     1     -15.347  18.324  11.582  1.00  0.00    -0.545 OA
ENDBRANCH   1   7
BRANCH   2  10
ATOM     10  C   UNL     1     -17.808  17.043  11.094  1.00  0.00     0.072 C 
ATOM     11  O   UNL     1     -18.376  17.884  10.347  1.00  0.00    -0.545 OA
ATOM     12  O   UNL     1     -17.138  15.971  10.516  1.00  0.00    -0.545 OA
ENDBRANCH   2  10
TORSDOF 2
ENDMDL
