MODEL 1
REMARK VINA RESULT:    -3.187      0.000      0.000
REMARK INTER + INTRA:          -7.974
REMARK INTER:                  -5.609
REMARK INTRA:                  -2.365
REMARK UNBOUND:                -2.365
REMARK SMILES CCCCCCCCCCCCCCC(=O)[O-]
REMARK SMILES IDX 9 1 10 2 11 3 12 4 13 5 14 6 15 7 16 8 17 9 8 10 7 11 6 12
REMARK SMILES IDX 5 13 4 14 3 15 2 16 1 17
REMARK H PARENT
REMARK Flexibility Score: inf
ROOT
ATOM      1  C   UNL     1     150.047 156.530 161.453  1.00  0.00     0.000 C 
ENDROOT
BRANCH   1   2
ATOM      2  C   UNL     1     150.643 156.871 162.829  1.00  0.00     0.000 C 
BRANCH   2   3
ATOM      3  C   UNL     1     152.019 156.221 163.054  1.00  0.00     0.000 C 
BRANCH   3   4
ATOM      4  C   UNL     1     152.823 156.075 161.751  1.00  0.00     0.000 C 
BRANCH   4   5
ATOM      5  C   UNL     1     154.342 156.187 161.976  1.00  0.00     0.006 C 
BRANCH   5   6
ATOM      6  C   UNL     1     154.724 155.978 163.447  1.00  0.00     0.053 C 
BRANCH   6   7
ATOM      7  C   UNL     1     155.158 154.570 163.715  1.00  0.00     0.041 C 
ATOM      8  O   UNL     1     154.303 153.680 163.968  1.00  0.00    -0.550 OA
ATOM      9  O   UNL     1     156.508 154.246 163.714  1.00  0.00    -0.550 OA
ENDBRANCH   6   7
ENDBRANCH   5   6
ENDBRANCH   4   5
ENDBRANCH   3   4
ENDBRANCH   2   3
ENDBRANCH   1   2
BRANCH   1  10
ATOM     10  C   UNL     1     149.647 157.783 160.655  1.00  0.00     0.000 C 
BRANCH  10  11
ATOM     11  C   UNL     1     150.399 159.041 161.117  1.00  0.00    -0.000 C 
BRANCH  11  12
ATOM     12  C   UNL     1     151.420 159.539 160.078  1.00  0.00    -0.000 C 
BRANCH  12  13
ATOM     13  C   UNL     1     152.842 159.639 160.652  1.00  0.00    -0.000 C 
BRANCH  13  14
ATOM     14  C   UNL     1     152.851 159.789 162.183  1.00  0.00    -0.000 C 
BRANCH  14  15
ATOM     15  C   UNL     1     154.258 160.046 162.743  1.00  0.00    -0.000 C 
BRANCH  15  16
ATOM     16  C   UNL     1     154.419 159.543 164.186  1.00  0.00    -0.003 C 
ATOM     17  C   UNL     1     153.061 159.328 164.847  1.00  0.00     0.004 C 
ENDBRANCH  15  16
ENDBRANCH  14  15
ENDBRANCH  13  14
ENDBRANCH  12  13
ENDBRANCH  11  12
ENDBRANCH  10  11
ENDBRANCH   1  10
TORSDOF 13
ENDMDL
MODEL 2
REMARK VINA RESULT:    -3.132      8.540     12.043
REMARK INTER + INTRA:          -7.877
REMARK INTER:                  -6.243
REMARK INTRA:                  -1.634
REMARK UNBOUND:                -2.365
REMARK SMILES CCCCCCCCCCCCCCC(=O)[O-]
REMARK SMILES IDX 9 1 10 2 11 3 12 4 13 5 14 6 15 7 16 8 17 9 8 10 7 11 6 12
REMARK SMILES IDX 5 13 4 14 3 15 2 16 1 17
REMARK H PARENT
REMARK Flexibility Score: inf
ROOT
ATOM      1  C   UNL     1     165.369 155.167 164.918  1.00  0.00     0.000 C 
ENDROOT
BRANCH   1   2
ATOM      2  C   UNL     1     164.431 156.385 164.891  1.00  0.00     0.000 C 
BRANCH   2   3
ATOM      3  C   UNL     1     163.312 156.292 165.942  1.00  0.00     0.000 C 
BRANCH   3   4
ATOM      4  C   UNL     1     162.820 157.673 166.406  1.00  0.00     0.000 C 
BRANCH   4   5
ATOM      5  C   UNL     1     162.738 158.692 165.255  1.00  0.00     0.006 C 
BRANCH   5   6
ATOM      6  C   UNL     1     161.703 159.791 165.529  1.00  0.00     0.053 C 
BRANCH   6   7
ATOM      7  C   UNL     1     160.326 159.376 165.111  1.00  0.00     0.041 C 
ATOM      8  O   UNL     1     159.317 159.975 165.568  1.00  0.00    -0.550 OA
ATOM      9  O   UNL     1     160.157 158.310 164.237  1.00  0.00    -0.550 OA
ENDBRANCH   6   7
ENDBRANCH   5   6
ENDBRANCH   4   5
ENDBRANCH   3   4
ENDBRANCH   2   3
ENDBRANCH   1   2
BRANCH   1  10
ATOM     10  C   UNL     1     165.721 154.661 163.508  1.00  0.00     0.000 C 
BRANCH  10  11
ATOM     11  C   UNL     1     165.800 153.128 163.434  1.00  0.00    -0.000 C 
BRANCH  11  12
ATOM     12  C   UNL     1     165.109 152.439 164.625  1.00  0.00    -0.000 C 
BRANCH  12  13
ATOM     13  C   UNL     1     163.892 151.605 164.196  1.00  0.00    -0.000 C 
BRANCH  13  14
ATOM     14  C   UNL     1     162.989 152.349 163.197  1.00  0.00    -0.000 C 
BRANCH  14  15
ATOM     15  C   UNL     1     162.042 153.344 163.884  1.00  0.00    -0.000 C 
BRANCH  15  16
ATOM     16  C   UNL     1     161.213 154.159 162.880  1.00  0.00    -0.003 C 
ATOM     17  C   UNL     1     162.039 155.289 162.274  1.00  0.00     0.004 C 
ENDBRANCH  15  16
ENDBRANCH  14  15
ENDBRANCH  13  14
ENDBRANCH  12  13
ENDBRANCH  11  12
ENDBRANCH  10  11
ENDBRANCH   1  10
TORSDOF 13
ENDMDL
MODEL 3
REMARK VINA RESULT:    -3.088     12.151     13.365
REMARK INTER + INTRA:          -7.800
REMARK INTER:                  -6.855
REMARK INTRA:                  -0.946
REMARK UNBOUND:                -2.365
REMARK SMILES CCCCCCCCCCCCCCC(=O)[O-]
REMARK SMILES IDX 9 1 10 2 11 3 12 4 13 5 14 6 15 7 16 8 17 9 8 10 7 11 6 12
REMARK SMILES IDX 5 13 4 14 3 15 2 16 1 17
REMARK H PARENT
REMARK Flexibility Score: inf
ROOT
ATOM      1  C   UNL     1     157.782 158.600 150.695  1.00  0.00     0.000 C 
ENDROOT
BRANCH   1   2
ATOM      2  C   UNL     1     157.555 157.083 150.591  1.00  0.00     0.000 C 
BRANCH   2   3
ATOM      3  C   UNL     1     156.928 156.492 151.865  1.00  0.00     0.000 C 
BRANCH   3   4
ATOM      4  C   UNL     1     156.687 154.977 151.758  1.00  0.00     0.000 C 
BRANCH   4   5
ATOM      5  C   UNL     1     157.291 154.195 152.938  1.00  0.00     0.006 C 
BRANCH   5   6
ATOM      6  C   UNL     1     158.120 155.095 153.863  1.00  0.00     0.053 C 
BRANCH   6   7
ATOM      7  C   UNL     1     159.585 154.796 153.765  1.00  0.00     0.041 C 
ATOM      8  O   UNL     1     160.225 154.425 154.784  1.00  0.00    -0.550 OA
ATOM      9  O   UNL     1     160.247 154.953 152.555  1.00  0.00    -0.550 OA
ENDBRANCH   6   7
ENDBRANCH   5   6
ENDBRANCH   4   5
ENDBRANCH   3   4
ENDBRANCH   2   3
ENDBRANCH   1   2
BRANCH   1  10
ATOM     10  C   UNL     1     159.266 158.987 150.556  1.00  0.00     0.000 C 
BRANCH  10  11
ATOM     11  C   UNL     1     160.194 157.763 150.527  1.00  0.00    -0.000 C 
BRANCH  11  12
ATOM     12  C   UNL     1     161.679 158.138 150.683  1.00  0.00    -0.000 C 
BRANCH  12  13
ATOM     13  C   UNL     1     161.956 159.605 150.321  1.00  0.00    -0.000 C 
BRANCH  13  14
ATOM     14  C   UNL     1     163.269 160.125 150.933  1.00  0.00    -0.000 C 
BRANCH  14  15
ATOM     15  C   UNL     1     164.134 158.999 151.519  1.00  0.00    -0.000 C 
BRANCH  15  16
ATOM     16  C   UNL     1     165.436 159.522 152.145  1.00  0.00    -0.003 C 
ATOM     17  C   UNL     1     165.926 158.593 153.251  1.00  0.00     0.004 C 
ENDBRANCH  15  16
ENDBRANCH  14  15
ENDBRANCH  13  14
ENDBRANCH  12  13
ENDBRANCH  11  12
ENDBRANCH  10  11
ENDBRANCH   1  10
TORSDOF 13
ENDMDL
MODEL 4
REMARK VINA RESULT:    -3.069     10.794     12.325
REMARK INTER + INTRA:          -7.766
REMARK INTER:                  -5.540
REMARK INTRA:                  -2.226
REMARK UNBOUND:                -2.365
REMARK SMILES CCCCCCCCCCCCCCC(=O)[O-]
REMARK SMILES IDX 9 1 10 2 11 3 12 4 13 5 14 6 15 7 16 8 17 9 8 10 7 11 6 12
REMARK SMILES IDX 5 13 4 14 3 15 2 16 1 17
REMARK H PARENT
REMARK Flexibility Score: inf
ROOT
ATOM      1  C   UNL     1     159.913 156.700 150.693  1.00  0.00     0.000 C 
ENDROOT
BRANCH   1   2
ATOM      2  C   UNL     1     159.529 155.246 150.371  1.00  0.00     0.000 C 
BRANCH   2   3
ATOM      3  C   UNL     1     159.434 154.368 151.630  1.00  0.00     0.000 C 
BRANCH   3   4
ATOM      4  C   UNL     1     159.311 155.195 152.920  1.00  0.00     0.000 C 
BRANCH   4   5
ATOM      5  C   UNL     1     157.892 155.161 153.514  1.00  0.00     0.006 C 
BRANCH   5   6
ATOM      6  C   UNL     1     157.853 154.460 154.878  1.00  0.00     0.053 C 
BRANCH   6   7
ATOM      7  C   UNL     1     158.275 153.026 154.778  1.00  0.00     0.041 C 
ATOM      8  O   UNL     1     159.260 152.607 155.440  1.00  0.00    -0.550 OA
ATOM      9  O   UNL     1     157.595 152.159 153.932  1.00  0.00    -0.550 OA
ENDBRANCH   6   7
ENDBRANCH   5   6
ENDBRANCH   4   5
ENDBRANCH   3   4
ENDBRANCH   2   3
ENDBRANCH   1   2
BRANCH   1  10
ATOM     10  C   UNL     1     159.083 157.721 149.895  1.00  0.00     0.000 C 
BRANCH  10  11
ATOM     11  C   UNL     1     158.227 158.621 150.800  1.00  0.00    -0.000 C 
BRANCH  11  12
ATOM     12  C   UNL     1     156.984 157.899 151.353  1.00  0.00    -0.000 C 
BRANCH  12  13
ATOM     13  C   UNL     1     156.237 157.103 150.273  1.00  0.00    -0.000 C 
BRANCH  13  14
ATOM     14  C   UNL     1     155.509 155.873 150.844  1.00  0.00    -0.000 C 
BRANCH  14  15
ATOM     15  C   UNL     1     156.008 154.555 150.233  1.00  0.00    -0.000 C 
BRANCH  15  16
ATOM     16  C   UNL     1     155.332 153.324 150.854  1.00  0.00    -0.003 C 
ATOM     17  C   UNL     1     154.805 153.634 152.252  1.00  0.00     0.004 C 
ENDBRANCH  15  16
ENDBRANCH  14  15
ENDBRANCH  13  14
ENDBRANCH  12  13
ENDBRANCH  11  12
ENDBRANCH  10  11
ENDBRANCH   1  10
TORSDOF 13
ENDMDL
MODEL 5
REMARK VINA RESULT:    -3.063      7.269     10.314
REMARK INTER + INTRA:          -7.756
REMARK INTER:                  -6.285
REMARK INTRA:                  -1.471
REMARK UNBOUND:                -2.365
REMARK SMILES CCCCCCCCCCCCCCC(=O)[O-]
REMARK SMILES IDX 9 1 10 2 11 3 12 4 13 5 14 6 15 7 16 8 17 9 8 10 7 11 6 12
REMARK SMILES IDX 5 13 4 14 3 15 2 16 1 17
REMARK H PARENT
REMARK Flexibility Score: inf
ROOT
ATOM      1  C   UNL     1     164.688 155.465 165.228  1.00  0.00     0.000 C 
ENDROOT
BRANCH   1   2
ATOM      2  C   UNL     1     165.182 154.029 164.986  1.00  0.00     0.000 C 
BRANCH   2   3
ATOM      3  C   UNL     1     164.635 153.429 163.679  1.00  0.00     0.000 C 
BRANCH   3   4
ATOM      4  C   UNL     1     163.183 152.941 163.816  1.00  0.00     0.000 C 
BRANCH   4   5
ATOM      5  C   UNL     1     162.281 153.432 162.669  1.00  0.00     0.006 C 
BRANCH   5   6
ATOM      6  C   UNL     1     160.791 153.298 163.009  1.00  0.00     0.053 C 
BRANCH   6   7
ATOM      7  C   UNL     1     159.992 152.828 161.832  1.00  0.00     0.041 C 
ATOM      8  O   UNL     1     159.105 151.947 161.979  1.00  0.00    -0.550 OA
ATOM      9  O   UNL     1     160.246 153.345 160.568  1.00  0.00    -0.550 OA
ENDBRANCH   6   7
ENDBRANCH   5   6
ENDBRANCH   4   5
ENDBRANCH   3   4
ENDBRANCH   2   3
ENDBRANCH   1   2
BRANCH   1  10
ATOM     10  C   UNL     1     163.986 155.626 166.589  1.00  0.00     0.000 C 
BRANCH  10  11
ATOM     11  C   UNL     1     162.713 156.482 166.498  1.00  0.00    -0.000 C 
BRANCH  11  12
ATOM     12  C   UNL     1     161.732 155.977 165.424  1.00  0.00    -0.000 C 
BRANCH  12  13
ATOM     13  C   UNL     1     161.274 157.094 164.474  1.00  0.00    -0.000 C 
BRANCH  13  14
ATOM     14  C   UNL     1     161.804 158.477 164.891  1.00  0.00    -0.000 C 
BRANCH  14  15
ATOM     15  C   UNL     1     160.676 159.477 165.190  1.00  0.00    -0.000 C 
BRANCH  15  16
ATOM     16  C   UNL     1     159.287 158.918 164.848  1.00  0.00    -0.003 C 
ATOM     17  C   UNL     1     158.626 159.728 163.737  1.00  0.00     0.004 C 
ENDBRANCH  15  16
ENDBRANCH  14  15
ENDBRANCH  13  14
ENDBRANCH  12  13
ENDBRANCH  11  12
ENDBRANCH  10  11
ENDBRANCH   1  10
TORSDOF 13
ENDMDL
MODEL 6
REMARK VINA RESULT:    -3.048      1.606      3.745
REMARK INTER + INTRA:          -7.729
REMARK INTER:                  -5.436
REMARK INTRA:                  -2.293
REMARK UNBOUND:                -2.365
REMARK SMILES CCCCCCCCCCCCCCC(=O)[O-]
REMARK SMILES IDX 9 1 10 2 11 3 12 4 13 5 14 6 15 7 16 8 17 9 8 10 7 11 6 12
REMARK SMILES IDX 5 13 4 14 3 15 2 16 1 17
REMARK H PARENT
REMARK Flexibility Score: inf
ROOT
ATOM      1  C   UNL     1     153.986 159.531 163.781  1.00  0.00     0.000 C 
ENDROOT
BRANCH   1   2
ATOM      2  C   UNL     1     152.501 159.637 164.169  1.00  0.00     0.000 C 
BRANCH   2   3
ATOM      3  C   UNL     1     151.788 158.274 164.150  1.00  0.00     0.000 C 
BRANCH   3   4
ATOM      4  C   UNL     1     152.748 157.101 164.410  1.00  0.00     0.000 C 
BRANCH   4   5
ATOM      5  C   UNL     1     152.168 155.749 163.959  1.00  0.00     0.006 C 
BRANCH   5   6
ATOM      6  C   UNL     1     152.223 155.576 162.435  1.00  0.00     0.053 C 
BRANCH   6   7
ATOM      7  C   UNL     1     153.309 154.631 162.022  1.00  0.00     0.041 C 
ATOM      8  O   UNL     1     153.111 153.388 162.047  1.00  0.00    -0.550 OA
ATOM      9  O   UNL     1     154.549 155.123 161.634  1.00  0.00    -0.550 OA
ENDBRANCH   6   7
ENDBRANCH   5   6
ENDBRANCH   4   5
ENDBRANCH   3   4
ENDBRANCH   2   3
ENDBRANCH   1   2
BRANCH   1  10
ATOM     10  C   UNL     1     154.232 159.840 162.293  1.00  0.00     0.000 C 
BRANCH  10  11
ATOM     11  C   UNL     1     154.234 158.576 161.421  1.00  0.00    -0.000 C 
BRANCH  11  12
ATOM     12  C   UNL     1     153.087 158.559 160.394  1.00  0.00    -0.000 C 
BRANCH  12  13
ATOM     13  C   UNL     1     152.330 159.895 160.336  1.00  0.00    -0.000 C 
BRANCH  13  14
ATOM     14  C   UNL     1     150.805 159.706 160.248  1.00  0.00    -0.000 C 
BRANCH  14  15
ATOM     15  C   UNL     1     150.356 158.310 160.706  1.00  0.00    -0.000 C 
BRANCH  15  16
ATOM     16  C   UNL     1     148.961 158.322 161.350  1.00  0.00    -0.003 C 
ATOM     17  C   UNL     1     148.826 157.214 162.390  1.00  0.00     0.004 C 
ENDBRANCH  15  16
ENDBRANCH  14  15
ENDBRANCH  13  14
ENDBRANCH  12  13
ENDBRANCH  11  12
ENDBRANCH  10  11
ENDBRANCH   1  10
TORSDOF 13
ENDMDL
MODEL 7
REMARK VINA RESULT:    -3.031      3.103      5.716
REMARK INTER + INTRA:          -7.700
REMARK INTER:                  -5.767
REMARK INTRA:                  -1.933
REMARK UNBOUND:                -2.365
REMARK SMILES CCCCCCCCCCCCCCC(=O)[O-]
REMARK SMILES IDX 9 1 10 2 11 3 12 4 13 5 14 6 15 7 16 8 17 9 8 10 7 11 6 12
REMARK SMILES IDX 5 13 4 14 3 15 2 16 1 17
REMARK H PARENT
REMARK Flexibility Score: inf
ROOT
ATOM      1  C   UNL     1     154.672 159.337 163.132  1.00  0.00     0.000 C 
ENDROOT
BRANCH   1   2
ATOM      2  C   UNL     1     154.262 159.147 161.662  1.00  0.00     0.000 C 
BRANCH   2   3
ATOM      3  C   UNL     1     153.101 160.067 161.249  1.00  0.00     0.000 C 
BRANCH   3   4
ATOM      4  C   UNL     1     152.320 159.527 160.039  1.00  0.00     0.000 C 
BRANCH   4   5
ATOM      5  C   UNL     1     150.805 159.767 160.155  1.00  0.00     0.006 C 
BRANCH   5   6
ATOM      6  C   UNL     1     150.124 158.735 161.063  1.00  0.00     0.053 C 
BRANCH   6   7
ATOM      7  C   UNL     1     148.816 158.274 160.498  1.00  0.00     0.041 C 
ATOM      8  O   UNL     1     148.142 157.394 161.095  1.00  0.00    -0.550 OA
ATOM      9  O   UNL     1     148.354 158.796 159.297  1.00  0.00    -0.550 OA
ENDBRANCH   6   7
ENDBRANCH   5   6
ENDBRANCH   4   5
ENDBRANCH   3   4
ENDBRANCH   2   3
ENDBRANCH   1   2
BRANCH   1  10
ATOM     10  C   UNL     1     153.534 159.913 163.993  1.00  0.00     0.000 C 
BRANCH  10  11
ATOM     11  C   UNL     1     152.881 158.853 164.893  1.00  0.00    -0.000 C 
BRANCH  11  12
ATOM     12  C   UNL     1     151.875 157.967 164.135  1.00  0.00    -0.000 C 
BRANCH  12  13
ATOM     13  C   UNL     1     152.355 156.514 164.001  1.00  0.00    -0.000 C 
BRANCH  13  14
ATOM     14  C   UNL     1     152.501 156.074 162.533  1.00  0.00    -0.000 C 
BRANCH  14  15
ATOM     15  C   UNL     1     153.865 155.431 162.242  1.00  0.00    -0.000 C 
BRANCH  15  16
ATOM     16  C   UNL     1     154.891 155.695 163.355  1.00  0.00    -0.003 C 
ATOM     17  C   UNL     1     155.663 154.426 163.703  1.00  0.00     0.004 C 
ENDBRANCH  15  16
ENDBRANCH  14  15
ENDBRANCH  13  14
ENDBRANCH  12  13
ENDBRANCH  11  12
ENDBRANCH  10  11
ENDBRANCH   1  10
TORSDOF 13
ENDMDL
MODEL 8
REMARK VINA RESULT:    -3.028     10.934     12.520
REMARK INTER + INTRA:          -7.695
REMARK INTER:                  -5.753
REMARK INTRA:                  -1.942
REMARK UNBOUND:                -2.365
REMARK SMILES CCCCCCCCCCCCCCC(=O)[O-]
REMARK SMILES IDX 9 1 10 2 11 3 12 4 13 5 14 6 15 7 16 8 17 9 8 10 7 11 6 12
REMARK SMILES IDX 5 13 4 14 3 15 2 16 1 17
REMARK H PARENT
REMARK Flexibility Score: inf
ROOT
ATOM      1  C   UNL     1     160.150 157.368 150.517  1.00  0.00     0.000 C 
ENDROOT
BRANCH   1   2
ATOM      2  C   UNL     1     159.696 155.957 150.109  1.00  0.00     0.000 C 
BRANCH   2   3
ATOM      3  C   UNL     1     159.865 154.931 151.243  1.00  0.00     0.000 C 
BRANCH   3   4
ATOM      4  C   UNL     1     160.087 155.594 152.612  1.00  0.00     0.000 C 
BRANCH   4   5
ATOM      5  C   UNL     1     159.932 154.607 153.782  1.00  0.00     0.006 C 
BRANCH   5   6
ATOM      6  C   UNL     1     161.241 154.426 154.562  1.00  0.00     0.053 C 
BRANCH   6   7
ATOM      7  C   UNL     1     161.014 154.444 156.042  1.00  0.00     0.041 C 
ATOM      8  O   UNL     1     161.919 154.851 156.818  1.00  0.00    -0.550 OA
ATOM      9  O   UNL     1     159.813 153.985 156.567  1.00  0.00    -0.550 OA
ENDBRANCH   6   7
ENDBRANCH   5   6
ENDBRANCH   4   5
ENDBRANCH   3   4
ENDBRANCH   2   3
ENDBRANCH   1   2
BRANCH   1  10
ATOM     10  C   UNL     1     159.042 158.421 150.337  1.00  0.00     0.000 C 
BRANCH  10  11
ATOM     11  C   UNL     1     157.879 158.228 151.323  1.00  0.00    -0.000 C 
BRANCH  11  12
ATOM     12  C   UNL     1     156.537 157.968 150.615  1.00  0.00    -0.000 C 
BRANCH  12  13
ATOM     13  C   UNL     1     156.134 156.486 150.643  1.00  0.00    -0.000 C 
BRANCH  13  14
ATOM     14  C   UNL     1     156.420 155.823 152.002  1.00  0.00    -0.000 C 
BRANCH  14  15
ATOM     15  C   UNL     1     156.284 154.293 151.952  1.00  0.00    -0.000 C 
BRANCH  15  16
ATOM     16  C   UNL     1     156.334 153.742 150.519  1.00  0.00    -0.003 C 
ATOM     17  C   UNL     1     157.215 152.500 150.438  1.00  0.00     0.004 C 
ENDBRANCH  15  16
ENDBRANCH  14  15
ENDBRANCH  13  14
ENDBRANCH  12  13
ENDBRANCH  11  12
ENDBRANCH  10  11
ENDBRANCH   1  10
TORSDOF 13
ENDMDL
MODEL 9
REMARK VINA RESULT:    -3.020      4.723      6.805
REMARK INTER + INTRA:          -7.681
REMARK INTER:                  -6.954
REMARK INTRA:                  -0.726
REMARK UNBOUND:                -2.365
REMARK SMILES CCCCCCCCCCCCCCC(=O)[O-]
REMARK SMILES IDX 9 1 10 2 11 3 12 4 13 5 14 6 15 7 16 8 17 9 8 10 7 11 6 12
REMARK SMILES IDX 5 13 4 14 3 15 2 16 1 17
REMARK H PARENT
REMARK Flexibility Score: inf
ROOT
ATOM      1  C   UNL     1     156.707 160.125 163.303  1.00  0.00     0.000 C 
ENDROOT
BRANCH   1   2
ATOM      2  C   UNL     1     157.497 159.578 164.504  1.00  0.00     0.000 C 
BRANCH   2   3
ATOM      3  C   UNL     1     158.967 159.286 164.159  1.00  0.00     0.000 C 
BRANCH   3   4
ATOM      4  C   UNL     1     159.935 159.737 165.266  1.00  0.00     0.000 C 
BRANCH   4   5
ATOM      5  C   UNL     1     161.366 159.214 165.052  1.00  0.00     0.006 C 
BRANCH   5   6
ATOM      6  C   UNL     1     161.472 157.703 165.296  1.00  0.00     0.053 C 
BRANCH   6   7
ATOM      7  C   UNL     1     162.894 157.266 165.471  1.00  0.00     0.041 C 
ATOM      8  O   UNL     1     163.820 157.862 164.861  1.00  0.00    -0.550 OA
ATOM      9  O   UNL     1     163.193 156.183 166.287  1.00  0.00    -0.550 OA
ENDBRANCH   6   7
ENDBRANCH   5   6
ENDBRANCH   4   5
ENDBRANCH   3   4
ENDBRANCH   2   3
ENDBRANCH   1   2
BRANCH   1  10
ATOM     10  C   UNL     1     155.222 159.723 163.340  1.00  0.00     0.000 C 
BRANCH  10  11
ATOM     11  C   UNL     1     154.560 160.032 164.692  1.00  0.00    -0.000 C 
BRANCH  11  12
ATOM     12  C   UNL     1     153.447 159.031 165.052  1.00  0.00    -0.000 C 
BRANCH  12  13
ATOM     13  C   UNL     1     153.539 157.731 164.239  1.00  0.00    -0.000 C 
BRANCH  13  14
ATOM     14  C   UNL     1     152.158 157.199 163.817  1.00  0.00    -0.000 C 
BRANCH  14  15
ATOM     15  C   UNL     1     151.525 158.029 162.689  1.00  0.00    -0.000 C 
BRANCH  15  16
ATOM     16  C   UNL     1     149.992 157.928 162.672  1.00  0.00    -0.003 C 
ATOM     17  C   UNL     1     149.371 158.817 163.745  1.00  0.00     0.004 C 
ENDBRANCH  15  16
ENDBRANCH  14  15
ENDBRANCH  13  14
ENDBRANCH  12  13
ENDBRANCH  11  12
ENDBRANCH  10  11
ENDBRANCH   1  10
TORSDOF 13
ENDMDL
