MODEL 1
REMARK VINA RESULT:    -3.971      0.000      0.000
REMARK INTER + INTRA:          -5.089
REMARK INTER:                  -4.900
REMARK INTRA:                  -0.189
REMARK UNBOUND:                -0.189
REMARK SMILES CCCCCC(=O)[O-]
REMARK SMILES IDX 4 1 5 2 6 3 7 4 8 5 3 6 2 7 1 8
REMARK H PARENT
REMARK Flexibility Score: inf
ROOT
ATOM      1  C   UNL     1       9.914  23.251  -9.054  1.00  0.00     0.006 C 
ENDROOT
BRANCH   1   2
ATOM      2  C   UNL     1       9.510  21.785  -8.883  1.00  0.00     0.053 C 
BRANCH   2   3
ATOM      3  C   UNL     1      10.178  21.194  -7.682  1.00  0.00     0.041 C 
ATOM      4  O   UNL     1      10.695  21.943  -6.813  1.00  0.00    -0.550 OA
ATOM      5  O   UNL     1      10.185  19.817  -7.496  1.00  0.00    -0.550 OA
ENDBRANCH   2   3
ENDBRANCH   1   2
BRANCH   1   6
ATOM      6  C   UNL     1      11.037  23.395 -10.089  1.00  0.00     0.000 C 
BRANCH   6   7
ATOM      7  C   UNL     1      11.961  24.568  -9.738  1.00  0.00    -0.003 C 
ATOM      8  C   UNL     1      12.816  24.248  -8.515  1.00  0.00     0.004 C 
ENDBRANCH   6   7
ENDBRANCH   1   6
TORSDOF 4
ENDMDL
MODEL 2
REMARK VINA RESULT:    -3.844      3.559      4.525
REMARK INTER + INTRA:          -4.932
REMARK INTER:                  -4.796
REMARK INTRA:                  -0.136
REMARK UNBOUND:                -0.189
REMARK SMILES CCCCCC(=O)[O-]
REMARK SMILES IDX 4 1 5 2 6 3 7 4 8 5 3 6 2 7 1 8
REMARK H PARENT
REMARK Flexibility Score: inf
ROOT
ATOM      1  C   UNL     1       7.120  24.058  -8.461  1.00  0.00     0.006 C 
ENDROOT
BRANCH   1   2
ATOM      2  C   UNL     1       6.922  24.661  -7.067  1.00  0.00     0.053 C 
BRANCH   2   3
ATOM      3  C   UNL     1       6.568  23.593  -6.080  1.00  0.00     0.041 C 
ATOM      4  O   UNL     1       7.421  23.200  -5.241  1.00  0.00    -0.550 OA
ATOM      5  O   UNL     1       5.283  23.068  -6.053  1.00  0.00    -0.550 OA
ENDBRANCH   2   3
ENDBRANCH   1   2
BRANCH   1   6
ATOM      6  C   UNL     1       8.525  23.459  -8.605  1.00  0.00     0.000 C 
BRANCH   6   7
ATOM      7  C   UNL     1       8.548  22.366  -9.681  1.00  0.00    -0.003 C 
ATOM      8  C   UNL     1       7.209  22.281 -10.409  1.00  0.00     0.004 C 
ENDBRANCH   6   7
ENDBRANCH   1   6
TORSDOF 4
ENDMDL
MODEL 3
REMARK VINA RESULT:    -3.841      2.150      3.138
REMARK INTER + INTRA:          -4.929
REMARK INTER:                  -4.697
REMARK INTRA:                  -0.232
REMARK UNBOUND:                -0.189
REMARK SMILES CCCCCC(=O)[O-]
REMARK SMILES IDX 4 1 5 2 6 3 7 4 8 5 3 6 2 7 1 8
REMARK H PARENT
REMARK Flexibility Score: inf
ROOT
ATOM      1  C   UNL     1       9.347  22.846  -9.358  1.00  0.00     0.006 C 
ENDROOT
BRANCH   1   2
ATOM      2  C   UNL     1       9.915  21.659  -8.575  1.00  0.00     0.053 C 
BRANCH   2   3
ATOM      3  C   UNL     1      10.117  22.027  -7.139  1.00  0.00     0.041 C 
ATOM      4  O   UNL     1      11.278  22.079  -6.656  1.00  0.00    -0.550 OA
ATOM      5  O   UNL     1       9.026  22.362  -6.347  1.00  0.00    -0.550 OA
ENDBRANCH   2   3
ENDBRANCH   1   2
BRANCH   1   6
ATOM      6  C   UNL     1       7.980  22.500  -9.964  1.00  0.00     0.000 C 
BRANCH   6   7
ATOM      7  C   UNL     1       6.859  23.287  -9.274  1.00  0.00    -0.003 C 
ATOM      8  C   UNL     1       7.405  24.532  -8.581  1.00  0.00     0.004 C 
ENDBRANCH   6   7
ENDBRANCH   1   6
TORSDOF 4
ENDMDL
MODEL 4
REMARK VINA RESULT:    -3.801      2.613      3.888
REMARK INTER + INTRA:          -4.879
REMARK INTER:                  -4.740
REMARK INTRA:                  -0.139
REMARK UNBOUND:                -0.189
REMARK SMILES CCCCCC(=O)[O-]
REMARK SMILES IDX 4 1 5 2 6 3 7 4 8 5 3 6 2 7 1 8
REMARK H PARENT
REMARK Flexibility Score: inf
ROOT
ATOM      1  C   UNL     1      10.344  22.633  -9.770  1.00  0.00     0.006 C 
ENDROOT
BRANCH   1   2
ATOM      2  C   UNL     1      11.060  23.259  -8.571  1.00  0.00     0.053 C 
BRANCH   2   3
ATOM      3  C   UNL     1      12.169  24.152  -9.030  1.00  0.00     0.041 C 
ATOM      4  O   UNL     1      13.218  24.262  -8.342  1.00  0.00    -0.550 OA
ATOM      5  O   UNL     1      12.067  24.823 -10.241  1.00  0.00    -0.550 OA
ENDBRANCH   2   3
ENDBRANCH   1   2
BRANCH   1   6
ATOM      6  C   UNL     1       8.837  22.515  -9.511  1.00  0.00     0.000 C 
BRANCH   6   7
ATOM      7  C   UNL     1       8.435  23.285  -8.247  1.00  0.00    -0.003 C 
ATOM      8  C   UNL     1       7.513  24.454  -8.584  1.00  0.00     0.004 C 
ENDBRANCH   6   7
ENDBRANCH   1   6
TORSDOF 4
ENDMDL
MODEL 5
REMARK VINA RESULT:    -3.781      4.567      5.451
REMARK INTER + INTRA:          -4.855
REMARK INTER:                  -4.709
REMARK INTRA:                  -0.146
REMARK UNBOUND:                -0.189
REMARK SMILES CCCCCC(=O)[O-]
REMARK SMILES IDX 4 1 5 2 6 3 7 4 8 5 3 6 2 7 1 8
REMARK H PARENT
REMARK Flexibility Score: inf
ROOT
ATOM      1  C   UNL     1       6.908  24.068  -8.812  1.00  0.00     0.006 C 
ENDROOT
BRANCH   1   2
ATOM      2  C   UNL     1       7.478  23.713  -7.436  1.00  0.00     0.053 C 
BRANCH   2   3
ATOM      3  C   UNL     1       6.521  24.106  -6.355  1.00  0.00     0.041 C 
ATOM      4  O   UNL     1       6.677  25.191  -5.735  1.00  0.00    -0.550 OA
ATOM      5  O   UNL     1       5.428  23.299  -6.066  1.00  0.00    -0.550 OA
ENDBRANCH   2   3
ENDBRANCH   1   2
BRANCH   1   6
ATOM      6  C   UNL     1       7.095  22.909  -9.800  1.00  0.00     0.000 C 
BRANCH   6   7
ATOM      7  C   UNL     1       5.753  22.482 -10.406  1.00  0.00    -0.003 C 
ATOM      8  C   UNL     1       4.599  22.775  -9.452  1.00  0.00     0.004 C 
ENDBRANCH   6   7
ENDBRANCH   1   6
TORSDOF 4
ENDMDL
MODEL 6
REMARK VINA RESULT:    -3.773      3.615      4.567
REMARK INTER + INTRA:          -4.844
REMARK INTER:                  -4.699
REMARK INTRA:                  -0.146
REMARK UNBOUND:                -0.189
REMARK SMILES CCCCCC(=O)[O-]
REMARK SMILES IDX 4 1 5 2 6 3 7 4 8 5 3 6 2 7 1 8
REMARK H PARENT
REMARK Flexibility Score: inf
ROOT
ATOM      1  C   UNL     1       7.591  24.173  -8.273  1.00  0.00     0.006 C 
ENDROOT
BRANCH   1   2
ATOM      2  C   UNL     1       6.832  24.680  -7.044  1.00  0.00     0.053 C 
BRANCH   2   3
ATOM      3  C   UNL     1       6.557  23.555  -6.097  1.00  0.00     0.041 C 
ATOM      4  O   UNL     1       5.405  23.051  -6.030  1.00  0.00    -0.550 OA
ATOM      5  O   UNL     1       7.584  23.028  -5.324  1.00  0.00    -0.550 OA
ENDBRANCH   2   3
ENDBRANCH   1   2
BRANCH   1   6
ATOM      6  C   UNL     1       6.625  23.612  -9.324  1.00  0.00     0.000 C 
BRANCH   6   7
ATOM      7  C   UNL     1       7.294  22.508 -10.151  1.00  0.00    -0.003 C 
ATOM      8  C   UNL     1       8.734  22.279  -9.703  1.00  0.00     0.004 C 
ENDBRANCH   6   7
ENDBRANCH   1   6
TORSDOF 4
ENDMDL
MODEL 7
REMARK VINA RESULT:    -3.736      2.247      3.833
REMARK INTER + INTRA:          -4.799
REMARK INTER:                  -4.606
REMARK INTRA:                  -0.193
REMARK UNBOUND:                -0.189
REMARK SMILES CCCCCC(=O)[O-]
REMARK SMILES IDX 4 1 5 2 6 3 7 4 8 5 3 6 2 7 1 8
REMARK H PARENT
REMARK Flexibility Score: inf
ROOT
ATOM      1  C   UNL     1       9.764  23.098  -8.845  1.00  0.00     0.006 C 
ENDROOT
BRANCH   1   2
ATOM      2  C   UNL     1      10.748  23.238 -10.008  1.00  0.00     0.053 C 
BRANCH   2   3
ATOM      3  C   UNL     1      11.823  24.221  -9.670  1.00  0.00     0.041 C 
ATOM      4  O   UNL     1      12.152  25.110 -10.499  1.00  0.00    -0.550 OA
ATOM      5  O   UNL     1      12.428  24.189  -8.419  1.00  0.00    -0.550 OA
ENDBRANCH   2   3
ENDBRANCH   1   2
BRANCH   1   6
ATOM      6  C   UNL     1       9.557  21.623  -8.475  1.00  0.00     0.000 C 
BRANCH   6   7
ATOM      7  C   UNL     1      10.633  21.147  -7.492  1.00  0.00    -0.003 C 
ATOM      8  C   UNL     1      11.497  20.051  -8.109  1.00  0.00     0.004 C 
ENDBRANCH   6   7
ENDBRANCH   1   6
TORSDOF 4
ENDMDL
MODEL 8
REMARK VINA RESULT:    -3.704      2.576      3.936
REMARK INTER + INTRA:          -4.759
REMARK INTER:                  -4.687
REMARK INTRA:                  -0.073
REMARK UNBOUND:                -0.189
REMARK SMILES CCCCCC(=O)[O-]
REMARK SMILES IDX 4 1 5 2 6 3 7 4 8 5 3 6 2 7 1 8
REMARK H PARENT
REMARK Flexibility Score: inf
ROOT
ATOM      1  C   UNL     1       9.611  22.802  -8.670  1.00  0.00     0.006 C 
ENDROOT
BRANCH   1   2
ATOM      2  C   UNL     1      10.626  22.997  -9.798  1.00  0.00     0.053 C 
BRANCH   2   3
ATOM      3  C   UNL     1      11.729  23.908  -9.359  1.00  0.00     0.041 C 
ATOM      4  O   UNL     1      12.085  24.869 -10.091  1.00  0.00    -0.550 OA
ATOM      5  O   UNL     1      12.330  23.726  -8.121  1.00  0.00    -0.550 OA
ENDBRANCH   2   3
ENDBRANCH   1   2
BRANCH   1   6
ATOM      6  C   UNL     1       8.184  23.076  -9.162  1.00  0.00     0.000 C 
BRANCH   6   7
ATOM      7  C   UNL     1       7.633  24.372  -8.556  1.00  0.00    -0.003 C 
ATOM      8  C   UNL     1       6.908  24.102  -7.240  1.00  0.00     0.004 C 
ENDBRANCH   6   7
ENDBRANCH   1   6
TORSDOF 4
ENDMDL
MODEL 9
REMARK VINA RESULT:    -3.655      2.755      4.187
REMARK INTER + INTRA:          -4.699
REMARK INTER:                  -4.557
REMARK INTRA:                  -0.143
REMARK UNBOUND:                -0.189
REMARK SMILES CCCCCC(=O)[O-]
REMARK SMILES IDX 4 1 5 2 6 3 7 4 8 5 3 6 2 7 1 8
REMARK H PARENT
REMARK Flexibility Score: inf
ROOT
ATOM      1  C   UNL     1       8.586  23.216  -8.440  1.00  0.00     0.006 C 
ENDROOT
BRANCH   1   2
ATOM      2  C   UNL     1       9.269  22.207  -9.367  1.00  0.00     0.053 C 
BRANCH   2   3
ATOM      3  C   UNL     1      10.701  22.581  -9.585  1.00  0.00     0.041 C 
ATOM      4  O   UNL     1      11.008  23.419 -10.473  1.00  0.00    -0.550 OA
ATOM      5  O   UNL     1      11.692  22.043  -8.774  1.00  0.00    -0.550 OA
ENDBRANCH   2   3
ENDBRANCH   1   2
BRANCH   1   6
ATOM      6  C   UNL     1       7.230  23.654  -9.007  1.00  0.00     0.000 C 
BRANCH   6   7
ATOM      7  C   UNL     1       6.827  22.781 -10.202  1.00  0.00    -0.003 C 
ATOM      8  C   UNL     1       5.350  22.403 -10.135  1.00  0.00     0.004 C 
ENDBRANCH   6   7
ENDBRANCH   1   6
TORSDOF 4
ENDMDL
