MODEL 1
REMARK VINA RESULT:    -3.726      0.000      0.000
REMARK INTER + INTRA:          -4.082
REMARK INTER:                  -4.053
REMARK INTRA:                  -0.029
REMARK UNBOUND:                -0.029
REMARK SMILES O=C([O-])c1ccc(O)cc1
REMARK SMILES IDX 4 1 5 2 10 3 6 4 9 5 7 6 2 7 1 8 3 9 8 10
REMARK H PARENT 8 11
REMARK Flexibility Score: inf
ROOT
ATOM      1  C   UNL     1    -106.145  31.844   3.374  1.00  0.00    -0.003 A 
ATOM      2  C   UNL     1    -107.002  30.798   2.990  1.00  0.00     0.014 A 
ATOM      3  C   UNL     1    -104.825  31.538   3.756  1.00  0.00     0.014 A 
ATOM      4  C   UNL     1    -106.551  29.475   2.989  1.00  0.00     0.047 A 
ATOM      5  C   UNL     1    -104.377  30.213   3.755  1.00  0.00     0.047 A 
ATOM      6  C   UNL     1    -105.236  29.180   3.372  1.00  0.00     0.115 A 
ENDROOT
BRANCH   1   7
ATOM      7  C   UNL     1    -106.626  33.243   3.374  1.00  0.00     0.071 C 
ATOM      8  O   UNL     1    -107.576  33.593   4.124  1.00  0.00    -0.545 OA
ATOM      9  O   UNL     1    -106.036  34.191   2.546  1.00  0.00    -0.545 OA
ENDBRANCH   1   7
BRANCH   6  10
ATOM     10  O   UNL     1    -104.775  27.865   3.375  1.00  0.00    -0.508 OA
ATOM     11  H   UNL     1    -104.126  27.532   4.079  1.00  0.00     0.293 HD
ENDBRANCH   6  10
TORSDOF 2
ENDMDL
MODEL 2
REMARK VINA RESULT:    -3.599     12.726     14.710
REMARK INTER + INTRA:          -3.943
REMARK INTER:                  -3.916
REMARK INTRA:                  -0.027
REMARK UNBOUND:                -0.029
REMARK SMILES O=C([O-])c1ccc(O)cc1
REMARK SMILES IDX 4 1 5 2 10 3 6 4 9 5 7 6 2 7 1 8 3 9 8 10
REMARK H PARENT 8 11
REMARK Flexibility Score: inf
ROOT
ATOM      1  C   UNL     1    -109.322  43.727  -1.057  1.00  0.00    -0.003 A 
ATOM      2  C   UNL     1    -109.179  44.675  -2.085  1.00  0.00     0.014 A 
ATOM      3  C   UNL     1    -110.606  43.236  -0.756  1.00  0.00     0.014 A 
ATOM      4  C   UNL     1    -110.297  45.125  -2.795  1.00  0.00     0.047 A 
ATOM      5  C   UNL     1    -111.721  43.688  -1.467  1.00  0.00     0.047 A 
ATOM      6  C   UNL     1    -111.571  44.631  -2.487  1.00  0.00     0.115 A 
ENDROOT
BRANCH   1   7
ATOM      7  C   UNL     1    -108.137  43.253  -0.308  1.00  0.00     0.071 C 
ATOM      8  O   UNL     1    -107.748  43.860   0.726  1.00  0.00    -0.545 OA
ATOM      9  O   UNL     1    -107.435  42.131  -0.735  1.00  0.00    -0.545 OA
ENDBRANCH   1   7
BRANCH   6  10
ATOM     10  O   UNL     1    -112.692  45.072  -3.188  1.00  0.00    -0.508 OA
ATOM     11  H   UNL     1    -112.971  46.046  -3.183  1.00  0.00     0.293 HD
ENDBRANCH   6  10
TORSDOF 2
ENDMDL
MODEL 3
REMARK VINA RESULT:    -3.473      2.254      3.802
REMARK INTER + INTRA:          -3.806
REMARK INTER:                  -3.779
REMARK INTRA:                  -0.027
REMARK UNBOUND:                -0.029
REMARK SMILES O=C([O-])c1ccc(O)cc1
REMARK SMILES IDX 4 1 5 2 10 3 6 4 9 5 7 6 2 7 1 8 3 9 8 10
REMARK H PARENT 8 11
REMARK Flexibility Score: inf
ROOT
ATOM      1  C   UNL     1    -106.613  32.116   3.172  1.00  0.00    -0.003 A 
ATOM      2  C   UNL     1    -106.573  33.323   2.451  1.00  0.00     0.014 A 
ATOM      3  C   UNL     1    -105.509  31.761   3.969  1.00  0.00     0.014 A 
ATOM      4  C   UNL     1    -105.452  34.156   2.526  1.00  0.00     0.047 A 
ATOM      5  C   UNL     1    -104.390  32.595   4.041  1.00  0.00     0.047 A 
ATOM      6  C   UNL     1    -104.357  33.793   3.322  1.00  0.00     0.115 A 
ENDROOT
BRANCH   1   7
ATOM      7  C   UNL     1    -107.801  31.237   3.091  1.00  0.00     0.071 C 
ATOM      8  O   UNL     1    -107.892  30.366   2.184  1.00  0.00    -0.545 OA
ATOM      9  O   UNL     1    -108.833  31.359   4.014  1.00  0.00    -0.545 OA
ENDBRANCH   1   7
BRANCH   6  10
ATOM     10  O   UNL     1    -103.235  34.615   3.404  1.00  0.00    -0.508 OA
ATOM     11  H   UNL     1    -102.849  34.897   4.297  1.00  0.00     0.293 HD
ENDBRANCH   6  10
TORSDOF 2
ENDMDL
MODEL 4
REMARK VINA RESULT:    -3.229     12.996     14.787
REMARK INTER + INTRA:          -3.541
REMARK INTER:                  -3.510
REMARK INTRA:                  -0.031
REMARK UNBOUND:                -0.029
REMARK SMILES O=C([O-])c1ccc(O)cc1
REMARK SMILES IDX 4 1 5 2 10 3 6 4 9 5 7 6 2 7 1 8 3 9 8 10
REMARK H PARENT 8 11
REMARK Flexibility Score: inf
ROOT
ATOM      1  C   UNL     1    -111.010  44.374  -2.028  1.00  0.00    -0.003 A 
ATOM      2  C   UNL     1    -111.163  43.282  -1.156  1.00  0.00     0.014 A 
ATOM      3  C   UNL     1    -109.769  45.036  -2.079  1.00  0.00     0.014 A 
ATOM      4  C   UNL     1    -110.099  42.862  -0.351  1.00  0.00     0.047 A 
ATOM      5  C   UNL     1    -108.708  44.615  -1.273  1.00  0.00     0.047 A 
ATOM      6  C   UNL     1    -108.868  43.529  -0.409  1.00  0.00     0.115 A 
ENDROOT
BRANCH   1   7
ATOM      7  C   UNL     1    -112.138  44.815  -2.878  1.00  0.00     0.071 C 
ATOM      8  O   UNL     1    -113.299  44.915  -2.400  1.00  0.00    -0.545 OA
ATOM      9  O   UNL     1    -111.932  45.125  -4.218  1.00  0.00    -0.545 OA
ENDBRANCH   1   7
BRANCH   6  10
ATOM     10  O   UNL     1    -107.801  43.120   0.388  1.00  0.00    -0.508 OA
ATOM     11  H   UNL     1    -107.434  43.710   1.126  1.00  0.00     0.293 HD
ENDBRANCH   6  10
TORSDOF 2
ENDMDL
MODEL 5
REMARK VINA RESULT:    -3.126     15.647     16.494
REMARK INTER + INTRA:          -3.429
REMARK INTER:                  -3.402
REMARK INTRA:                  -0.027
REMARK UNBOUND:                -0.029
REMARK SMILES O=C([O-])c1ccc(O)cc1
REMARK SMILES IDX 4 1 5 2 10 3 6 4 9 5 7 6 2 7 1 8 3 9 8 10
REMARK H PARENT 8 11
REMARK Flexibility Score: inf
ROOT
ATOM      1  C   UNL     1    -115.602  36.927  -8.808  1.00  0.00    -0.003 A 
ATOM      2  C   UNL     1    -115.995  36.427 -10.062  1.00  0.00     0.014 A 
ATOM      3  C   UNL     1    -115.255  36.019  -7.791  1.00  0.00     0.014 A 
ATOM      4  C   UNL     1    -116.039  35.048 -10.293  1.00  0.00     0.047 A 
ATOM      5  C   UNL     1    -115.301  34.642  -8.024  1.00  0.00     0.047 A 
ATOM      6  C   UNL     1    -115.692  34.152  -9.273  1.00  0.00     0.115 A 
ENDROOT
BRANCH   1   7
ATOM      7  C   UNL     1    -115.556  38.386  -8.567  1.00  0.00     0.071 C 
ATOM      8  O   UNL     1    -116.435  38.946  -7.857  1.00  0.00    -0.545 OA
ATOM      9  O   UNL     1    -114.543  39.160  -9.121  1.00  0.00    -0.545 OA
ENDBRANCH   1   7
BRANCH   6  10
ATOM     10  O   UNL     1    -115.733  32.776  -9.492  1.00  0.00    -0.508 OA
ATOM     11  H   UNL     1    -116.271  32.377 -10.252  1.00  0.00     0.293 HD
ENDBRANCH   6  10
TORSDOF 2
ENDMDL
MODEL 6
REMARK VINA RESULT:    -3.113     15.619     16.541
REMARK INTER + INTRA:          -3.414
REMARK INTER:                  -3.387
REMARK INTRA:                  -0.027
REMARK UNBOUND:                -0.029
REMARK SMILES O=C([O-])c1ccc(O)cc1
REMARK SMILES IDX 4 1 5 2 10 3 6 4 9 5 7 6 2 7 1 8 3 9 8 10
REMARK H PARENT 8 11
REMARK Flexibility Score: inf
ROOT
ATOM      1  C   UNL     1    -115.618  36.941  -8.832  1.00  0.00    -0.003 A 
ATOM      2  C   UNL     1    -115.240  36.064  -7.800  1.00  0.00     0.014 A 
ATOM      3  C   UNL     1    -116.022  36.404 -10.069  1.00  0.00     0.014 A 
ATOM      4  C   UNL     1    -115.263  34.680  -8.001  1.00  0.00     0.047 A 
ATOM      5  C   UNL     1    -116.044  35.020 -10.267  1.00  0.00     0.047 A 
ATOM      6  C   UNL     1    -115.666  34.156  -9.236  1.00  0.00     0.115 A 
ENDROOT
BRANCH   1   7
ATOM      7  C   UNL     1    -115.592  38.404  -8.617  1.00  0.00     0.071 C 
ATOM      8  O   UNL     1    -116.529  38.977  -7.997  1.00  0.00    -0.545 OA
ATOM      9  O   UNL     1    -114.534  39.169  -9.094  1.00  0.00    -0.545 OA
ENDBRANCH   1   7
BRANCH   6  10
ATOM     10  O   UNL     1    -115.694  32.778  -9.447  1.00  0.00    -0.508 OA
ATOM     11  H   UNL     1    -116.248  32.164  -8.862  1.00  0.00     0.293 HD
ENDBRANCH   6  10
TORSDOF 2
ENDMDL
MODEL 7
REMARK VINA RESULT:    -3.104     16.072     17.184
REMARK INTER + INTRA:          -3.405
REMARK INTER:                  -3.374
REMARK INTRA:                  -0.031
REMARK UNBOUND:                -0.029
REMARK SMILES O=C([O-])c1ccc(O)cc1
REMARK SMILES IDX 4 1 5 2 10 3 6 4 9 5 7 6 2 7 1 8 3 9 8 10
REMARK H PARENT 8 11
REMARK Flexibility Score: inf
ROOT
ATOM      1  C   UNL     1    -115.772  34.672 -10.404  1.00  0.00    -0.003 A 
ATOM      2  C   UNL     1    -116.452  35.848 -10.043  1.00  0.00     0.014 A 
ATOM      3  C   UNL     1    -115.205  33.875  -9.392  1.00  0.00     0.014 A 
ATOM      4  C   UNL     1    -116.564  36.219  -8.700  1.00  0.00     0.047 A 
ATOM      5  C   UNL     1    -115.318  34.249  -8.049  1.00  0.00     0.047 A 
ATOM      6  C   UNL     1    -115.996  35.419  -7.699  1.00  0.00     0.115 A 
ENDROOT
BRANCH   1   7
ATOM      7  C   UNL     1    -115.656  34.282 -11.826  1.00  0.00     0.071 C 
ATOM      8  O   UNL     1    -115.884  33.095 -12.186  1.00  0.00    -0.545 OA
ATOM      9  O   UNL     1    -115.292  35.218 -12.787  1.00  0.00    -0.545 OA
ENDBRANCH   1   7
BRANCH   6  10
ATOM     10  O   UNL     1    -116.101  35.780  -6.357  1.00  0.00    -0.508 OA
ATOM     11  H   UNL     1    -115.507  35.364  -5.649  1.00  0.00     0.293 HD
ENDBRANCH   6  10
TORSDOF 2
ENDMDL
MODEL 8
REMARK VINA RESULT:    -3.102      1.256      2.090
REMARK INTER + INTRA:          -3.402
REMARK INTER:                  -3.367
REMARK INTRA:                  -0.036
REMARK UNBOUND:                -0.029
REMARK SMILES O=C([O-])c1ccc(O)cc1
REMARK SMILES IDX 4 1 5 2 10 3 6 4 9 5 7 6 2 7 1 8 3 9 8 10
REMARK H PARENT 8 11
REMARK Flexibility Score: inf
ROOT
ATOM      1  C   UNL     1    -105.719  32.276   3.314  1.00  0.00    -0.003 A 
ATOM      2  C   UNL     1    -104.744  31.419   3.854  1.00  0.00     0.014 A 
ATOM      3  C   UNL     1    -107.004  31.766   3.051  1.00  0.00     0.014 A 
ATOM      4  C   UNL     1    -105.047  30.081   4.125  1.00  0.00     0.047 A 
ATOM      5  C   UNL     1    -107.304  30.427   3.322  1.00  0.00     0.047 A 
ATOM      6  C   UNL     1    -106.329  29.583   3.859  1.00  0.00     0.115 A 
ENDROOT
BRANCH   1   7
ATOM      7  C   UNL     1    -105.395  33.691   3.029  1.00  0.00     0.071 C 
ATOM      8  O   UNL     1    -104.343  34.212   3.488  1.00  0.00    -0.545 OA
ATOM      9  O   UNL     1    -106.247  34.467   2.251  1.00  0.00    -0.545 OA
ENDBRANCH   1   7
BRANCH   6  10
ATOM     10  O   UNL     1    -106.642  28.251   4.125  1.00  0.00    -0.508 OA
ATOM     11  H   UNL     1    -106.209  27.492   3.611  1.00  0.00     0.293 HD
ENDBRANCH   6  10
TORSDOF 2
ENDMDL
