MODEL 1
REMARK VINA RESULT:    -5.994      0.000      0.000
REMARK INTER + INTRA:          -9.339
REMARK INTER:                  -8.096
REMARK INTRA:                  -1.243
REMARK UNBOUND:                -1.243
REMARK SMILES CC[C@H](CC[C@@H](C)[C@H]1CC[C@@H]2[C@@H]3CC(=O)C4=CC(=O)CC[C@@]4(C)[C@H]3CC[C@@]21C)C(C)C
REMARK SMILES IDX 4 1 3 2 2 3 1 4 29 5 30 6 31 7 5 8 6 9 7 10 8 11 9 12 27 13
REMARK SMILES IDX 10 14 11 15 26 16 28 17 12 18 25 19 24 20 13 21 22 22 14 23
REMARK SMILES IDX 16 24 21 25 23 26 15 27 17 28 20 29 18 30 19 31
REMARK H PARENT
REMARK Flexibility Score: inf
ROOT
ATOM      1  C   UNL     1      -7.606  30.949  47.023  1.00  0.00     0.004 C 
ENDROOT
BRANCH   1   2
ATOM      2  C   UNL     1      -7.525  32.209  46.104  1.00  0.00    -0.009 C 
BRANCH   2   3
ATOM      3  C   UNL     1      -8.747  32.285  45.149  1.00  0.00     0.000 C 
ATOM      4  C   UNL     1      -8.774  31.145  44.127  1.00  0.00     0.004 C 
ENDBRANCH   2   3
BRANCH   2   5
ATOM      5  C   UNL     1      -7.344  33.554  46.884  1.00  0.00    -0.014 C 
ATOM      6  C   UNL     1      -8.032  34.735  46.184  1.00  0.00     0.007 C 
ATOM      7  C   UNL     1      -5.879  33.904  47.202  1.00  0.00     0.007 C 
ENDBRANCH   2   5
ENDBRANCH   1   2
BRANCH   1   8
ATOM      8  C   UNL     1      -6.283  30.167  47.226  1.00  0.00     0.004 C 
BRANCH   8   9
ATOM      9  C   UNL     1      -5.302  30.177  46.006  1.00  0.00    -0.011 C 
ATOM     10  C   UNL     1      -3.895  29.726  46.468  1.00  0.00     0.008 C 
BRANCH   9  11
ATOM     11  C   UNL     1      -5.717  29.300  44.766  1.00  0.00    -0.002 C 
ATOM     12  C   UNL     1      -4.907  29.501  43.487  1.00  0.00     0.005 C 
ATOM     13  C   UNL     1      -5.855  27.757  44.927  1.00  0.00    -0.026 C 
ATOM     14  C   UNL     1      -5.357  28.381  42.562  1.00  0.00     0.005 C 
ATOM     15  C   UNL     1      -5.832  27.210  43.457  1.00  0.00    -0.001 C 
ATOM     16  C   UNL     1      -7.160  27.372  45.692  1.00  0.00     0.007 C 
ATOM     17  C   UNL     1      -4.664  27.141  45.697  1.00  0.00     0.012 C 
ATOM     18  C   UNL     1      -7.189  26.580  43.013  1.00  0.00     0.004 C 
ATOM     19  C   UNL     1      -8.490  27.589  44.930  1.00  0.00     0.005 C 
ATOM     20  C   UNL     1      -8.379  27.512  43.376  1.00  0.00     0.003 C 
ATOM     21  C   UNL     1      -7.180  26.148  41.541  1.00  0.00     0.085 C 
ATOM     22  C   UNL     1      -9.740  27.242  42.563  1.00  0.00    -0.000 C 
ATOM     23  C   UNL     1      -8.441  25.411  41.246  1.00  0.00     0.159 C 
ATOM     24  C   UNL     1      -9.721  25.900  41.810  1.00  0.00     0.005 C 
ATOM     25  C   UNL     1     -11.005  27.293  43.485  1.00  0.00     0.020 C 
ATOM     26  C   UNL     1      -9.880  28.354  41.485  1.00  0.00     0.017 C 
ATOM     27  O   UNL     1      -8.404  24.399  40.493  1.00  0.00    -0.295 OA
ATOM     28  C   UNL     1     -10.867  25.254  41.508  1.00  0.00     0.055 C 
ATOM     29  C   UNL     1     -12.312  27.011  42.735  1.00  0.00     0.081 C 
ATOM     30  C   UNL     1     -12.187  25.753  41.932  1.00  0.00     0.156 C 
ATOM     31  O   UNL     1     -13.226  25.130  41.587  1.00  0.00    -0.295 OA
ENDBRANCH   9  11
ENDBRANCH   8   9
ENDBRANCH   1   8
TORSDOF 6
ENDMDL
MODEL 2
REMARK VINA RESULT:    -5.922      1.174      1.816
REMARK INTER + INTRA:          -9.242
REMARK INTER:                  -7.772
REMARK INTRA:                  -1.471
REMARK UNBOUND:                -1.243
REMARK SMILES CC[C@H](CC[C@@H](C)[C@H]1CC[C@@H]2[C@@H]3CC(=O)C4=CC(=O)CC[C@@]4(C)[C@H]3CC[C@@]21C)C(C)C
REMARK SMILES IDX 4 1 3 2 2 3 1 4 29 5 30 6 31 7 5 8 6 9 7 10 8 11 9 12 27 13
REMARK SMILES IDX 10 14 11 15 26 16 28 17 12 18 25 19 24 20 13 21 22 22 14 23
REMARK SMILES IDX 16 24 21 25 23 26 15 27 17 28 20 29 18 30 19 31
REMARK H PARENT
REMARK Flexibility Score: inf
ROOT
ATOM      1  C   UNL     1      -4.600  32.355  47.561  1.00  0.00     0.004 C 
ENDROOT
BRANCH   1   2
ATOM      2  C   UNL     1      -5.010  33.779  47.070  1.00  0.00    -0.009 C 
BRANCH   2   3
ATOM      3  C   UNL     1      -5.715  33.714  45.688  1.00  0.00     0.000 C 
ATOM      4  C   UNL     1      -4.895  34.366  44.571  1.00  0.00     0.004 C 
ENDBRANCH   2   3
BRANCH   2   5
ATOM      5  C   UNL     1      -5.876  34.581  48.098  1.00  0.00    -0.014 C 
ATOM      6  C   UNL     1      -5.819  33.979  49.509  1.00  0.00     0.007 C 
ATOM      7  C   UNL     1      -7.340  34.784  47.664  1.00  0.00     0.007 C 
ENDBRANCH   2   5
ENDBRANCH   1   2
BRANCH   1   8
ATOM      8  C   UNL     1      -4.446  31.272  46.462  1.00  0.00     0.004 C 
BRANCH   8   9
ATOM      9  C   UNL     1      -5.473  30.093  46.531  1.00  0.00    -0.011 C 
ATOM     10  C   UNL     1      -6.759  30.567  47.249  1.00  0.00     0.008 C 
BRANCH   9  11
ATOM     11  C   UNL     1      -5.886  29.444  45.157  1.00  0.00    -0.002 C 
ATOM     12  C   UNL     1      -5.180  29.977  43.912  1.00  0.00     0.005 C 
ATOM     13  C   UNL     1      -5.875  27.894  45.004  1.00  0.00    -0.026 C 
ATOM     14  C   UNL     1      -5.586  29.025  42.797  1.00  0.00     0.005 C 
ATOM     15  C   UNL     1      -5.896  27.657  43.454  1.00  0.00    -0.001 C 
ATOM     16  C   UNL     1      -7.088  27.234  45.731  1.00  0.00     0.007 C 
ATOM     17  C   UNL     1      -4.587  27.260  45.579  1.00  0.00     0.012 C 
ATOM     18  C   UNL     1      -7.216  26.995  42.950  1.00  0.00     0.004 C 
ATOM     19  C   UNL     1      -8.479  27.464  45.088  1.00  0.00     0.005 C 
ATOM     20  C   UNL     1      -8.459  27.711  43.549  1.00  0.00     0.003 C 
ATOM     21  C   UNL     1      -7.261  26.868  41.422  1.00  0.00     0.085 C 
ATOM     22  C   UNL     1      -9.839  27.473  42.757  1.00  0.00    -0.000 C 
ATOM     23  C   UNL     1      -8.468  26.082  41.037  1.00  0.00     0.159 C 
ATOM     24  C   UNL     1      -9.748  26.318  41.746  1.00  0.00     0.005 C 
ATOM     25  C   UNL     1     -11.044  27.211  43.725  1.00  0.00     0.020 C 
ATOM     26  C   UNL     1     -10.147  28.758  41.938  1.00  0.00     0.017 C 
ATOM     27  O   UNL     1      -8.388  25.250  40.093  1.00  0.00    -0.295 OA
ATOM     28  C   UNL     1     -10.848  25.632  41.368  1.00  0.00     0.055 C 
ATOM     29  C   UNL     1     -12.365  26.954  42.991  1.00  0.00     0.081 C 
ATOM     30  C   UNL     1     -12.178  25.902  41.943  1.00  0.00     0.156 C 
ATOM     31  O   UNL     1     -13.176  25.258  41.524  1.00  0.00    -0.295 OA
ENDBRANCH   9  11
ENDBRANCH   8   9
ENDBRANCH   1   8
TORSDOF 6
ENDMDL
MODEL 3
REMARK VINA RESULT:    -5.881      1.953      4.031
REMARK INTER + INTRA:          -9.187
REMARK INTER:                  -7.286
REMARK INTRA:                  -1.900
REMARK UNBOUND:                -1.243
REMARK SMILES CC[C@H](CC[C@@H](C)[C@H]1CC[C@@H]2[C@@H]3CC(=O)C4=CC(=O)CC[C@@]4(C)[C@H]3CC[C@@]21C)C(C)C
REMARK SMILES IDX 4 1 3 2 2 3 1 4 29 5 30 6 31 7 5 8 6 9 7 10 8 11 9 12 27 13
REMARK SMILES IDX 10 14 11 15 26 16 28 17 12 18 25 19 24 20 13 21 22 22 14 23
REMARK SMILES IDX 16 24 21 25 23 26 15 27 17 28 20 29 18 30 19 31
REMARK H PARENT
REMARK Flexibility Score: inf
ROOT
ATOM      1  C   UNL     1      -5.093  28.285  46.654  1.00  0.00     0.004 C 
ENDROOT
BRANCH   1   2
ATOM      2  C   UNL     1      -5.624  29.683  46.208  1.00  0.00    -0.009 C 
BRANCH   2   3
ATOM      3  C   UNL     1      -6.636  30.253  47.238  1.00  0.00     0.000 C 
ATOM      4  C   UNL     1      -7.886  30.842  46.579  1.00  0.00     0.004 C 
ENDBRANCH   2   3
BRANCH   2   5
ATOM      5  C   UNL     1      -4.495  30.724  45.904  1.00  0.00    -0.014 C 
ATOM      6  C   UNL     1      -4.275  31.708  47.062  1.00  0.00     0.007 C 
ATOM      7  C   UNL     1      -4.686  31.492  44.583  1.00  0.00     0.007 C 
ENDBRANCH   2   5
ENDBRANCH   1   2
BRANCH   1   8
ATOM      8  C   UNL     1      -5.892  27.058  46.144  1.00  0.00     0.004 C 
BRANCH   8   9
ATOM      9  C   UNL     1      -6.126  27.002  44.597  1.00  0.00    -0.011 C 
ATOM     10  C   UNL     1      -5.601  25.658  44.041  1.00  0.00     0.008 C 
BRANCH   9  11
ATOM     11  C   UNL     1      -7.611  27.192  44.107  1.00  0.00    -0.002 C 
ATOM     12  C   UNL     1      -8.615  27.678  45.149  1.00  0.00     0.005 C 
ATOM     13  C   UNL     1      -7.897  28.041  42.832  1.00  0.00    -0.026 C 
ATOM     14  C   UNL     1      -9.874  27.998  44.356  1.00  0.00     0.005 C 
ATOM     15  C   UNL     1      -9.429  28.366  42.920  1.00  0.00    -0.001 C 
ATOM     16  C   UNL     1      -7.519  27.269  41.530  1.00  0.00     0.007 C 
ATOM     17  C   UNL     1      -7.112  29.373  42.829  1.00  0.00     0.012 C 
ATOM     18  C   UNL     1     -10.269  27.680  41.798  1.00  0.00     0.004 C 
ATOM     19  C   UNL     1      -8.429  26.073  41.153  1.00  0.00     0.005 C 
ATOM     20  C   UNL     1      -9.897  26.176  41.667  1.00  0.00     0.003 C 
ATOM     21  C   UNL     1     -11.774  27.925  41.962  1.00  0.00     0.085 C 
ATOM     22  C   UNL     1     -10.991  25.257  40.930  1.00  0.00    -0.000 C 
ATOM     23  C   UNL     1     -12.486  27.382  40.769  1.00  0.00     0.159 C 
ATOM     24  C   UNL     1     -12.058  26.086  40.193  1.00  0.00     0.005 C 
ATOM     25  C   UNL     1     -10.341  24.250  39.921  1.00  0.00     0.020 C 
ATOM     26  C   UNL     1     -11.739  24.438  42.019  1.00  0.00     0.017 C 
ATOM     27  O   UNL     1     -13.460  28.021  40.288  1.00  0.00    -0.295 OA
ATOM     28  C   UNL     1     -12.730  25.579  39.138  1.00  0.00     0.055 C 
ATOM     29  C   UNL     1     -11.368  23.382  39.185  1.00  0.00     0.081 C 
ATOM     30  C   UNL     1     -12.440  24.241  38.591  1.00  0.00     0.156 C 
ATOM     31  O   UNL     1     -13.126  23.803  37.629  1.00  0.00    -0.295 OA
ENDBRANCH   9  11
ENDBRANCH   8   9
ENDBRANCH   1   8
TORSDOF 6
ENDMDL
MODEL 4
REMARK VINA RESULT:    -5.800      1.769      3.235
REMARK INTER + INTRA:          -9.077
REMARK INTER:                  -7.201
REMARK INTRA:                  -1.876
REMARK UNBOUND:                -1.243
REMARK SMILES CC[C@H](CC[C@@H](C)[C@H]1CC[C@@H]2[C@@H]3CC(=O)C4=CC(=O)CC[C@@]4(C)[C@H]3CC[C@@]21C)C(C)C
REMARK SMILES IDX 4 1 3 2 2 3 1 4 29 5 30 6 31 7 5 8 6 9 7 10 8 11 9 12 27 13
REMARK SMILES IDX 10 14 11 15 26 16 28 17 12 18 25 19 24 20 13 21 22 22 14 23
REMARK SMILES IDX 16 24 21 25 23 26 15 27 17 28 20 29 18 30 19 31
REMARK H PARENT
REMARK Flexibility Score: inf
ROOT
ATOM      1  C   UNL     1      -4.703  30.106  46.713  1.00  0.00     0.004 C 
ENDROOT
BRANCH   1   2
ATOM      2  C   UNL     1      -4.981  31.639  46.609  1.00  0.00    -0.009 C 
BRANCH   2   3
ATOM      3  C   UNL     1      -5.206  32.069  45.135  1.00  0.00     0.000 C 
ATOM      4  C   UNL     1      -3.899  32.191  44.345  1.00  0.00     0.004 C 
ENDBRANCH   2   3
BRANCH   2   5
ATOM      5  C   UNL     1      -6.156  32.134  47.518  1.00  0.00    -0.014 C 
ATOM      6  C   UNL     1      -7.239  32.879  46.724  1.00  0.00     0.007 C 
ATOM      7  C   UNL     1      -5.704  32.979  48.724  1.00  0.00     0.007 C 
ENDBRANCH   2   5
ENDBRANCH   1   2
BRANCH   1   8
ATOM      8  C   UNL     1      -5.948  29.195  46.864  1.00  0.00     0.004 C 
BRANCH   8   9
ATOM      9  C   UNL     1      -6.243  28.251  45.651  1.00  0.00    -0.011 C 
ATOM     10  C   UNL     1      -6.488  26.812  46.161  1.00  0.00     0.008 C 
BRANCH   9  11
ATOM     11  C   UNL     1      -7.450  28.658  44.724  1.00  0.00    -0.002 C 
ATOM     12  C   UNL     1      -8.175  29.954  45.081  1.00  0.00     0.005 C 
ATOM     13  C   UNL     1      -7.251  28.709  43.181  1.00  0.00    -0.026 C 
ATOM     14  C   UNL     1      -9.107  30.214  43.907  1.00  0.00     0.005 C 
ATOM     15  C   UNL     1      -8.469  29.551  42.661  1.00  0.00    -0.001 C 
ATOM     16  C   UNL     1      -7.200  27.278  42.559  1.00  0.00     0.007 C 
ATOM     17  C   UNL     1      -5.947  29.437  42.783  1.00  0.00     0.012 C 
ATOM     18  C   UNL     1      -9.470  28.720  41.801  1.00  0.00     0.004 C 
ATOM     19  C   UNL     1      -8.534  26.492  42.540  1.00  0.00     0.005 C 
ATOM     20  C   UNL     1      -9.818  27.375  42.499  1.00  0.00     0.003 C 
ATOM     21  C   UNL     1     -10.705  29.532  41.390  1.00  0.00     0.085 C 
ATOM     22  C   UNL     1     -11.172  26.667  41.995  1.00  0.00    -0.000 C 
ATOM     23  C   UNL     1     -11.522  28.724  40.441  1.00  0.00     0.159 C 
ATOM     24  C   UNL     1     -11.704  27.275  40.686  1.00  0.00     0.005 C 
ATOM     25  C   UNL     1     -11.001  25.120  41.808  1.00  0.00     0.020 C 
ATOM     26  C   UNL     1     -12.266  26.906  43.074  1.00  0.00     0.017 C 
ATOM     27  O   UNL     1     -12.072  29.295  39.460  1.00  0.00    -0.295 OA
ATOM     28  C   UNL     1     -12.477  26.554  39.846  1.00  0.00     0.055 C 
ATOM     29  C   UNL     1     -12.271  24.428  41.301  1.00  0.00     0.081 C 
ATOM     30  C   UNL     1     -12.801  25.139  40.095  1.00  0.00     0.156 C 
ATOM     31  O   UNL     1     -13.561  24.527  39.298  1.00  0.00    -0.295 OA
ENDBRANCH   9  11
ENDBRANCH   8   9
ENDBRANCH   1   8
TORSDOF 6
ENDMDL
MODEL 5
REMARK VINA RESULT:    -5.796      1.049      1.689
REMARK INTER + INTRA:          -9.071
REMARK INTER:                  -7.159
REMARK INTRA:                  -1.913
REMARK UNBOUND:                -1.243
REMARK SMILES CC[C@H](CC[C@@H](C)[C@H]1CC[C@@H]2[C@@H]3CC(=O)C4=CC(=O)CC[C@@]4(C)[C@H]3CC[C@@]21C)C(C)C
REMARK SMILES IDX 4 1 3 2 2 3 1 4 29 5 30 6 31 7 5 8 6 9 7 10 8 11 9 12 27 13
REMARK SMILES IDX 10 14 11 15 26 16 28 17 12 18 25 19 24 20 13 21 22 22 14 23
REMARK SMILES IDX 16 24 21 25 23 26 15 27 17 28 20 29 18 30 19 31
REMARK H PARENT
REMARK Flexibility Score: inf
ROOT
ATOM      1  C   UNL     1      -6.168  32.831  46.463  1.00  0.00     0.004 C 
ENDROOT
BRANCH   1   2
ATOM      2  C   UNL     1      -6.998  33.450  45.295  1.00  0.00    -0.009 C 
BRANCH   2   3
ATOM      3  C   UNL     1      -6.298  33.222  43.928  1.00  0.00     0.000 C 
ATOM      4  C   UNL     1      -6.116  34.517  43.130  1.00  0.00     0.004 C 
ENDBRANCH   2   3
BRANCH   2   5
ATOM      5  C   UNL     1      -8.485  32.966  45.246  1.00  0.00    -0.014 C 
ATOM      6  C   UNL     1      -8.648  31.644  44.482  1.00  0.00     0.007 C 
ATOM      7  C   UNL     1      -9.472  34.017  44.704  1.00  0.00     0.007 C 
ENDBRANCH   2   5
ENDBRANCH   1   2
BRANCH   1   8
ATOM      8  C   UNL     1      -5.081  31.803  46.058  1.00  0.00     0.004 C 
BRANCH   8   9
ATOM      9  C   UNL     1      -5.475  30.299  46.244  1.00  0.00    -0.011 C 
ATOM     10  C   UNL     1      -6.639  30.190  47.258  1.00  0.00     0.008 C 
BRANCH   9  11
ATOM     11  C   UNL     1      -5.880  29.514  44.940  1.00  0.00    -0.002 C 
ATOM     12  C   UNL     1      -5.138  29.891  43.661  1.00  0.00     0.005 C 
ATOM     13  C   UNL     1      -5.908  27.957  44.958  1.00  0.00    -0.026 C 
ATOM     14  C   UNL     1      -5.549  28.833  42.647  1.00  0.00     0.005 C 
ATOM     15  C   UNL     1      -5.908  27.553  43.442  1.00  0.00    -0.001 C 
ATOM     16  C   UNL     1      -7.152  27.412  45.726  1.00  0.00     0.007 C 
ATOM     17  C   UNL     1      -4.649  27.357  45.625  1.00  0.00     0.012 C 
ATOM     18  C   UNL     1      -7.236  26.874  42.986  1.00  0.00     0.004 C 
ATOM     19  C   UNL     1      -8.524  27.605  45.033  1.00  0.00     0.005 C 
ATOM     20  C   UNL     1      -8.471  27.682  43.477  1.00  0.00     0.003 C 
ATOM     21  C   UNL     1      -7.258  26.582  41.480  1.00  0.00     0.085 C 
ATOM     22  C   UNL     1      -9.842  27.394  42.687  1.00  0.00    -0.000 C 
ATOM     23  C   UNL     1      -8.479  25.789  41.158  1.00  0.00     0.159 C 
ATOM     24  C   UNL     1      -9.764  26.133  41.810  1.00  0.00     0.005 C 
ATOM     25  C   UNL     1     -11.070  27.270  43.652  1.00  0.00     0.020 C 
ATOM     26  C   UNL     1     -10.100  28.589  41.727  1.00  0.00     0.017 C 
ATOM     27  O   UNL     1      -8.404  24.857  40.311  1.00  0.00    -0.295 OA
ATOM     28  C   UNL     1     -10.875  25.438  41.486  1.00  0.00     0.055 C 
ATOM     29  C   UNL     1     -12.384  26.967  42.924  1.00  0.00     0.081 C 
ATOM     30  C   UNL     1     -12.208  25.802  42.000  1.00  0.00     0.156 C 
ATOM     31  O   UNL     1     -13.216  25.142  41.633  1.00  0.00    -0.295 OA
ENDBRANCH   9  11
ENDBRANCH   8   9
ENDBRANCH   1   8
TORSDOF 6
ENDMDL
MODEL 6
REMARK VINA RESULT:    -5.707      3.356      8.160
REMARK INTER + INTRA:          -8.952
REMARK INTER:                  -7.291
REMARK INTRA:                  -1.662
REMARK UNBOUND:                -1.243
REMARK SMILES CC[C@H](CC[C@@H](C)[C@H]1CC[C@@H]2[C@@H]3CC(=O)C4=CC(=O)CC[C@@]4(C)[C@H]3CC[C@@]21C)C(C)C
REMARK SMILES IDX 4 1 3 2 2 3 1 4 29 5 30 6 31 7 5 8 6 9 7 10 8 11 9 12 27 13
REMARK SMILES IDX 10 14 11 15 26 16 28 17 12 18 25 19 24 20 13 21 22 22 14 23
REMARK SMILES IDX 16 24 21 25 23 26 15 27 17 28 20 29 18 30 19 31
REMARK H PARENT
REMARK Flexibility Score: inf
ROOT
ATOM      1  C   UNL     1      -9.597  25.143  40.491  1.00  0.00     0.004 C 
ENDROOT
BRANCH   1   2
ATOM      2  C   UNL     1     -10.899  25.607  41.216  1.00  0.00    -0.009 C 
BRANCH   2   3
ATOM      3  C   UNL     1     -11.356  27.002  40.710  1.00  0.00     0.000 C 
ATOM      4  C   UNL     1     -12.720  27.419  41.268  1.00  0.00     0.004 C 
ENDBRANCH   2   3
BRANCH   2   5
ATOM      5  C   UNL     1     -12.073  24.575  41.137  1.00  0.00    -0.014 C 
ATOM      6  C   UNL     1     -11.852  23.362  42.052  1.00  0.00     0.007 C 
ATOM      7  C   UNL     1     -12.405  24.109  39.707  1.00  0.00     0.007 C 
ENDBRANCH   2   5
ENDBRANCH   1   2
BRANCH   1   8
ATOM      8  C   UNL     1      -8.318  25.964  40.794  1.00  0.00     0.004 C 
BRANCH   8   9
ATOM      9  C   UNL     1      -8.080  26.308  42.303  1.00  0.00    -0.011 C 
ATOM     10  C   UNL     1      -6.704  25.760  42.749  1.00  0.00     0.008 C 
BRANCH   9  11
ATOM     11  C   UNL     1      -8.156  27.831  42.694  1.00  0.00    -0.002 C 
ATOM     12  C   UNL     1      -8.632  28.791  41.606  1.00  0.00     0.005 C 
ATOM     13  C   UNL     1      -8.920  28.257  43.983  1.00  0.00    -0.026 C 
ATOM     14  C   UNL     1      -8.835  30.118  42.321  1.00  0.00     0.005 C 
ATOM     15  C   UNL     1      -9.156  29.797  43.802  1.00  0.00    -0.001 C 
ATOM     16  C   UNL     1      -8.107  27.920  45.272  1.00  0.00     0.007 C 
ATOM     17  C   UNL     1     -10.295  27.561  44.104  1.00  0.00     0.012 C 
ATOM     18  C   UNL     1      -8.365  30.667  44.827  1.00  0.00     0.004 C 
ATOM     19  C   UNL     1      -6.841  28.776  45.527  1.00  0.00     0.005 C 
ATOM     20  C   UNL     1      -6.882  30.209  44.915  1.00  0.00     0.003 C 
ATOM     21  C   UNL     1      -8.526  32.170  44.568  1.00  0.00     0.085 C 
ATOM     22  C   UNL     1      -5.862  31.291  45.529  1.00  0.00    -0.000 C 
ATOM     23  C   UNL     1      -7.882  32.925  45.681  1.00  0.00     0.159 C 
ATOM     24  C   UNL     1      -6.586  32.456  46.225  1.00  0.00     0.005 C 
ATOM     25  C   UNL     1      -4.846  30.648  46.534  1.00  0.00     0.020 C 
ATOM     26  C   UNL     1      -5.055  31.908  44.353  1.00  0.00     0.017 C 
ATOM     27  O   UNL     1      -8.436  33.969  46.120  1.00  0.00    -0.295 OA
ATOM     28  C   UNL     1      -5.987  33.165  47.205  1.00  0.00     0.055 C 
ATOM     29  C   UNL     1      -3.882  31.666  47.154  1.00  0.00     0.081 C 
ATOM     30  C   UNL     1      -4.643  32.829  47.709  1.00  0.00     0.156 C 
ATOM     31  O   UNL     1      -4.116  33.549  48.598  1.00  0.00    -0.295 OA
ENDBRANCH   9  11
ENDBRANCH   8   9
ENDBRANCH   1   8
TORSDOF 6
ENDMDL
MODEL 7
REMARK VINA RESULT:    -5.603      6.653     12.638
REMARK INTER + INTRA:          -8.812
REMARK INTER:                  -7.175
REMARK INTRA:                  -1.637
REMARK UNBOUND:                -1.243
REMARK SMILES CC[C@H](CC[C@@H](C)[C@H]1CC[C@@H]2[C@@H]3CC(=O)C4=CC(=O)CC[C@@]4(C)[C@H]3CC[C@@]21C)C(C)C
REMARK SMILES IDX 4 1 3 2 2 3 1 4 29 5 30 6 31 7 5 8 6 9 7 10 8 11 9 12 27 13
REMARK SMILES IDX 10 14 11 15 26 16 28 17 12 18 25 19 24 20 13 21 22 22 14 23
REMARK SMILES IDX 16 24 21 25 23 26 15 27 17 28 20 29 18 30 19 31
REMARK H PARENT
REMARK Flexibility Score: inf
ROOT
ATOM      1  C   UNL     1     -18.909  25.306  34.117  1.00  0.00     0.004 C 
ENDROOT
BRANCH   1   2
ATOM      2  C   UNL     1     -18.706  23.763  33.990  1.00  0.00    -0.009 C 
BRANCH   2   3
ATOM      3  C   UNL     1     -20.058  23.038  33.755  1.00  0.00     0.000 C 
ATOM      4  C   UNL     1     -20.364  21.990  34.829  1.00  0.00     0.004 C 
ENDBRANCH   2   3
BRANCH   2   5
ATOM      5  C   UNL     1     -17.656  23.347  32.907  1.00  0.00    -0.014 C 
ATOM      6  C   UNL     1     -16.950  22.027  33.249  1.00  0.00     0.007 C 
ATOM      7  C   UNL     1     -16.617  24.438  32.586  1.00  0.00     0.007 C 
ENDBRANCH   2   5
ENDBRANCH   1   2
BRANCH   1   8
ATOM      8  C   UNL     1     -18.652  25.916  35.519  1.00  0.00     0.004 C 
BRANCH   8   9
ATOM      9  C   UNL     1     -17.158  26.258  35.840  1.00  0.00    -0.011 C 
ATOM     10  C   UNL     1     -16.973  27.794  35.866  1.00  0.00     0.008 C 
BRANCH   9  11
ATOM     11  C   UNL     1     -16.577  25.669  37.180  1.00  0.00    -0.002 C 
ATOM     12  C   UNL     1     -17.532  24.828  38.024  1.00  0.00     0.005 C 
ATOM     13  C   UNL     1     -15.240  24.872  37.153  1.00  0.00    -0.026 C 
ATOM     14  C   UNL     1     -16.654  24.206  39.100  1.00  0.00     0.005 C 
ATOM     15  C   UNL     1     -15.224  24.097  38.516  1.00  0.00    -0.001 C 
ATOM     16  C   UNL     1     -14.009  25.817  36.984  1.00  0.00     0.007 C 
ATOM     17  C   UNL     1     -15.197  23.841  36.002  1.00  0.00     0.012 C 
ATOM     18  C   UNL     1     -14.103  24.580  39.488  1.00  0.00     0.004 C 
ATOM     19  C   UNL     1     -13.659  26.709  38.200  1.00  0.00     0.005 C 
ATOM     20  C   UNL     1     -14.085  26.132  39.584  1.00  0.00     0.003 C 
ATOM     21  C   UNL     1     -14.170  23.884  40.853  1.00  0.00     0.085 C 
ATOM     22  C   UNL     1     -13.347  26.733  40.881  1.00  0.00    -0.000 C 
ATOM     23  C   UNL     1     -12.976  24.276  41.655  1.00  0.00     0.159 C 
ATOM     24  C   UNL     1     -12.504  25.681  41.622  1.00  0.00     0.005 C 
ATOM     25  C   UNL     1     -12.439  27.962  40.534  1.00  0.00     0.020 C 
ATOM     26  C   UNL     1     -14.442  27.207  41.877  1.00  0.00     0.017 C 
ATOM     27  O   UNL     1     -12.404  23.412  42.374  1.00  0.00    -0.295 OA
ATOM     28  C   UNL     1     -11.447  26.040  42.380  1.00  0.00     0.055 C 
ATOM     29  C   UNL     1     -11.703  28.534  41.750  1.00  0.00     0.081 C 
ATOM     30  C   UNL     1     -11.000  27.440  42.491  1.00  0.00     0.156 C 
ATOM     31  O   UNL     1     -10.031  27.723  43.246  1.00  0.00    -0.295 OA
ENDBRANCH   9  11
ENDBRANCH   8   9
ENDBRANCH   1   8
TORSDOF 6
ENDMDL
MODEL 8
REMARK VINA RESULT:    -5.589      2.137      4.558
REMARK INTER + INTRA:          -8.792
REMARK INTER:                  -6.762
REMARK INTRA:                  -2.030
REMARK UNBOUND:                -1.243
REMARK SMILES CC[C@H](CC[C@@H](C)[C@H]1CC[C@@H]2[C@@H]3CC(=O)C4=CC(=O)CC[C@@]4(C)[C@H]3CC[C@@]21C)C(C)C
REMARK SMILES IDX 4 1 3 2 2 3 1 4 29 5 30 6 31 7 5 8 6 9 7 10 8 11 9 12 27 13
REMARK SMILES IDX 10 14 11 15 26 16 28 17 12 18 25 19 24 20 13 21 22 22 14 23
REMARK SMILES IDX 16 24 21 25 23 26 15 27 17 28 20 29 18 30 19 31
REMARK H PARENT
REMARK Flexibility Score: inf
ROOT
ATOM      1  C   UNL     1      -5.250  29.371  43.855  1.00  0.00     0.004 C 
ENDROOT
BRANCH   1   2
ATOM      2  C   UNL     1      -5.730  30.533  44.781  1.00  0.00    -0.009 C 
BRANCH   2   3
ATOM      3  C   UNL     1      -6.091  31.796  43.954  1.00  0.00     0.000 C 
ATOM      4  C   UNL     1      -5.310  31.890  42.641  1.00  0.00     0.004 C 
ENDBRANCH   2   3
BRANCH   2   5
ATOM      5  C   UNL     1      -6.905  30.140  45.738  1.00  0.00    -0.014 C 
ATOM      6  C   UNL     1      -8.188  30.932  45.448  1.00  0.00     0.007 C 
ATOM      7  C   UNL     1      -6.553  30.226  47.235  1.00  0.00     0.007 C 
ENDBRANCH   2   5
ENDBRANCH   1   2
BRANCH   1   8
ATOM      8  C   UNL     1      -5.798  27.961  44.192  1.00  0.00     0.004 C 
BRANCH   8   9
ATOM      9  C   UNL     1      -6.547  27.234  43.025  1.00  0.00    -0.011 C 
ATOM     10  C   UNL     1      -6.024  25.784  42.896  1.00  0.00     0.008 C 
BRANCH   9  11
ATOM     11  C   UNL     1      -8.118  27.184  43.125  1.00  0.00    -0.002 C 
ATOM     12  C   UNL     1      -8.719  27.408  44.511  1.00  0.00     0.005 C 
ATOM     13  C   UNL     1      -8.978  28.052  42.159  1.00  0.00    -0.026 C 
ATOM     14  C   UNL     1     -10.215  27.546  44.268  1.00  0.00     0.005 C 
ATOM     15  C   UNL     1     -10.396  28.087  42.828  1.00  0.00    -0.001 C 
ATOM     16  C   UNL     1      -9.008  27.452  40.718  1.00  0.00     0.007 C 
ATOM     17  C   UNL     1      -8.452  29.501  42.049  1.00  0.00     0.012 C 
ATOM     18  C   UNL     1     -11.487  27.338  42.002  1.00  0.00     0.004 C 
ATOM     19  C   UNL     1      -9.811  26.140  40.539  1.00  0.00     0.005 C 
ATOM     20  C   UNL     1     -10.979  25.939  41.552  1.00  0.00     0.003 C 
ATOM     21  C   UNL     1     -12.840  27.293  42.722  1.00  0.00     0.085 C 
ATOM     22  C   UNL     1     -12.125  24.889  41.140  1.00  0.00    -0.000 C 
ATOM     23  C   UNL     1     -13.860  26.713  41.801  1.00  0.00     0.159 C 
ATOM     24  C   UNL     1     -13.497  25.558  40.947  1.00  0.00     0.005 C 
ATOM     25  C   UNL     1     -11.762  24.087  39.843  1.00  0.00     0.020 C 
ATOM     26  C   UNL     1     -12.285  23.875  42.307  1.00  0.00     0.017 C 
ATOM     27  O   UNL     1     -15.025  27.196  41.787  1.00  0.00    -0.295 OA
ATOM     28  C   UNL     1     -14.434  25.011  40.144  1.00  0.00     0.055 C 
ATOM     29  C   UNL     1     -12.853  23.100  39.416  1.00  0.00     0.081 C 
ATOM     30  C   UNL     1     -14.181  23.788  39.361  1.00  0.00     0.156 C 
ATOM     31  O   UNL     1     -15.106  23.300  38.658  1.00  0.00    -0.295 OA
ENDBRANCH   9  11
ENDBRANCH   8   9
ENDBRANCH   1   8
TORSDOF 6
ENDMDL
MODEL 9
REMARK VINA RESULT:    -5.422      1.729      2.619
REMARK INTER + INTRA:          -8.566
REMARK INTER:                  -7.122
REMARK INTRA:                  -1.444
REMARK UNBOUND:                -1.243
REMARK SMILES CC[C@H](CC[C@@H](C)[C@H]1CC[C@@H]2[C@@H]3CC(=O)C4=CC(=O)CC[C@@]4(C)[C@H]3CC[C@@]21C)C(C)C
REMARK SMILES IDX 4 1 3 2 2 3 1 4 29 5 30 6 31 7 5 8 6 9 7 10 8 11 9 12 27 13
REMARK SMILES IDX 10 14 11 15 26 16 28 17 12 18 25 19 24 20 13 21 22 22 14 23
REMARK SMILES IDX 16 24 21 25 23 26 15 27 17 28 20 29 18 30 19 31
REMARK H PARENT
REMARK Flexibility Score: inf
ROOT
ATOM      1  C   UNL     1      -6.297  33.523  45.969  1.00  0.00     0.004 C 
ENDROOT
BRANCH   1   2
ATOM      2  C   UNL     1      -4.955  32.875  45.505  1.00  0.00    -0.009 C 
BRANCH   2   3
ATOM      3  C   UNL     1      -4.246  33.755  44.441  1.00  0.00     0.000 C 
ATOM      4  C   UNL     1      -5.209  34.299  43.381  1.00  0.00     0.004 C 
ENDBRANCH   2   3
BRANCH   2   5
ATOM      5  C   UNL     1      -3.979  32.525  46.677  1.00  0.00    -0.014 C 
ATOM      6  C   UNL     1      -3.875  31.013  46.924  1.00  0.00     0.007 C 
ATOM      7  C   UNL     1      -4.291  33.259  47.995  1.00  0.00     0.007 C 
ENDBRANCH   2   5
ENDBRANCH   1   2
BRANCH   1   8
ATOM      8  C   UNL     1      -7.558  32.626  45.871  1.00  0.00     0.004 C 
BRANCH   8   9
ATOM      9  C   UNL     1      -7.283  31.087  45.782  1.00  0.00    -0.011 C 
ATOM     10  C   UNL     1      -8.089  30.352  46.880  1.00  0.00     0.008 C 
BRANCH   9  11
ATOM     11  C   UNL     1      -7.594  30.399  44.399  1.00  0.00    -0.002 C 
ATOM     12  C   UNL     1      -7.111  31.133  43.150  1.00  0.00     0.005 C 
ATOM     13  C   UNL     1      -7.203  28.908  44.177  1.00  0.00    -0.026 C 
ATOM     14  C   UNL     1      -7.325  30.146  42.013  1.00  0.00     0.005 C 
ATOM     15  C   UNL     1      -7.248  28.724  42.620  1.00  0.00    -0.001 C 
ATOM     16  C   UNL     1      -8.173  27.941  44.926  1.00  0.00     0.007 C 
ATOM     17  C   UNL     1      -5.769  28.600  44.667  1.00  0.00     0.012 C 
ATOM     18  C   UNL     1      -8.385  27.767  42.145  1.00  0.00     0.004 C 
ATOM     19  C   UNL     1      -9.609  27.834  44.355  1.00  0.00     0.005 C 
ATOM     20  C   UNL     1      -9.734  28.127  42.829  1.00  0.00     0.003 C 
ATOM     21  C   UNL     1      -8.479  27.682  40.617  1.00  0.00     0.085 C 
ATOM     22  C   UNL     1     -11.051  27.575  42.089  1.00  0.00    -0.000 C 
ATOM     23  C   UNL     1      -9.470  26.630  40.250  1.00  0.00     0.159 C 
ATOM     24  C   UNL     1     -10.728  26.513  41.024  1.00  0.00     0.005 C 
ATOM     25  C   UNL     1     -12.098  26.988  43.095  1.00  0.00     0.020 C 
ATOM     26  C   UNL     1     -11.714  28.767  41.342  1.00  0.00     0.017 C 
ATOM     27  O   UNL     1      -9.235  25.876  39.267  1.00  0.00    -0.295 OA
ATOM     28  C   UNL     1     -11.641  25.586  40.664  1.00  0.00     0.055 C 
ATOM     29  C   UNL     1     -13.350  26.430  42.409  1.00  0.00     0.081 C 
ATOM     30  C   UNL     1     -12.963  25.493  41.308  1.00  0.00     0.156 C 
ATOM     31  O   UNL     1     -13.790  24.632  40.904  1.00  0.00    -0.295 OA
ENDBRANCH   9  11
ENDBRANCH   8   9
ENDBRANCH   1   8
TORSDOF 6
ENDMDL
