MODEL 1
REMARK VINA RESULT:    -4.201      0.000      0.000
REMARK INTER + INTRA:         -17.251
REMARK INTER:                 -11.079
REMARK INTRA:                  -6.172
REMARK UNBOUND:                -6.172
REMARK SMILES CCCCCCCCCCCCCCCCCCCCCCCCCCCCCC(=O)[O-]
REMARK SMILES IDX 16 1 17 2 18 3 19 4 20 5 21 6 22 7 23 8 24 9 25 10 26 11
REMARK SMILES IDX 27 12 28 13 29 14 30 15 31 16 32 17 15 18 14 19 13 20 12 21
REMARK SMILES IDX 11 22 10 23 9 24 8 25 7 26 6 27 5 28 4 29 3 30 2 31 1 32
REMARK H PARENT
REMARK Flexibility Score: inf
ROOT
ATOM      1  C   UNL     1      46.384   4.598  21.475  1.00  0.00     0.000 C 
ENDROOT
BRANCH   1   2
ATOM      2  C   UNL     1      45.975   3.547  20.434  1.00  0.00     0.000 C 
BRANCH   2   3
ATOM      3  C   UNL     1      47.031   2.443  20.247  1.00  0.00     0.000 C 
BRANCH   3   4
ATOM      4  C   UNL     1      46.593   1.036  20.705  1.00  0.00     0.000 C 
BRANCH   4   5
ATOM      5  C   UNL     1      47.739   0.080  21.085  1.00  0.00     0.000 C 
BRANCH   5   6
ATOM      6  C   UNL     1      47.707  -0.449  22.533  1.00  0.00     0.000 C 
BRANCH   6   7
ATOM      7  C   UNL     1      46.500   0.036  23.361  1.00  0.00     0.000 C 
BRANCH   7   8
ATOM      8  C   UNL     1      46.893   1.015  24.485  1.00  0.00     0.000 C 
BRANCH   8   9
ATOM      9  C   UNL     1      48.360   1.458  24.401  1.00  0.00     0.000 C 
BRANCH   9  10
ATOM     10  C   UNL     1      48.518   2.947  24.046  1.00  0.00     0.000 C 
BRANCH  10  11
ATOM     11  C   UNL     1      49.547   3.160  22.923  1.00  0.00     0.000 C 
BRANCH  11  12
ATOM     12  C   UNL     1      50.514   1.970  22.787  1.00  0.00     0.000 C 
BRANCH  12  13
ATOM     13  C   UNL     1      51.062   1.823  21.354  1.00  0.00     0.006 C 
BRANCH  13  14
ATOM     14  C   UNL     1      50.756   3.033  20.457  1.00  0.00     0.053 C 
BRANCH  14  15
ATOM     15  C   UNL     1      51.718   3.156  19.317  1.00  0.00     0.041 C 
ATOM     16  O   UNL     1      52.504   2.210  19.046  1.00  0.00    -0.550 OA
ATOM     17  O   UNL     1      51.720   4.303  18.530  1.00  0.00    -0.550 OA
ENDBRANCH  14  15
ENDBRANCH  13  14
ENDBRANCH  12  13
ENDBRANCH  11  12
ENDBRANCH  10  11
ENDBRANCH   9  10
ENDBRANCH   8   9
ENDBRANCH   7   8
ENDBRANCH   6   7
ENDBRANCH   5   6
ENDBRANCH   4   5
ENDBRANCH   3   4
ENDBRANCH   2   3
ENDBRANCH   1   2
BRANCH   1  18
ATOM     18  C   UNL     1      45.198   4.945  22.386  1.00  0.00     0.000 C 
BRANCH  18  19
ATOM     19  C   UNL     1      44.625   3.717  23.112  1.00  0.00     0.000 C 
BRANCH  19  20
ATOM     20  C   UNL     1      44.633   3.882  24.641  1.00  0.00     0.000 C 
BRANCH  20  21
ATOM     21  C   UNL     1      45.773   4.787  25.144  1.00  0.00     0.000 C 
BRANCH  21  22
ATOM     22  C   UNL     1      45.922   4.858  26.675  1.00  0.00     0.000 C 
BRANCH  22  23
ATOM     23  C   UNL     1      47.383   4.732  27.143  1.00  0.00     0.000 C 
BRANCH  23  24
ATOM     24  C   UNL     1      47.828   5.923  28.006  1.00  0.00    -0.000 C 
BRANCH  24  25
ATOM     25  C   UNL     1      49.134   6.561  27.500  1.00  0.00    -0.000 C 
BRANCH  25  26
ATOM     26  C   UNL     1      50.054   5.547  26.800  1.00  0.00    -0.000 C 
BRANCH  26  27
ATOM     27  C   UNL     1      50.439   5.983  25.379  1.00  0.00    -0.000 C 
BRANCH  27  28
ATOM     28  C   UNL     1      49.523   7.114  24.887  1.00  0.00    -0.000 C 
BRANCH  28  29
ATOM     29  C   UNL     1      48.634   6.693  23.706  1.00  0.00    -0.000 C 
BRANCH  29  30
ATOM     30  C   UNL     1      49.383   6.630  22.359  1.00  0.00    -0.000 C 
BRANCH  30  31
ATOM     31  C   UNL     1      49.346   7.971  21.611  1.00  0.00    -0.003 C 
ATOM     32  C   UNL     1      49.920   7.833  20.204  1.00  0.00     0.004 C 
ENDBRANCH  30  31
ENDBRANCH  29  30
ENDBRANCH  28  29
ENDBRANCH  27  28
ENDBRANCH  26  27
ENDBRANCH  25  26
ENDBRANCH  24  25
ENDBRANCH  23  24
ENDBRANCH  22  23
ENDBRANCH  21  22
ENDBRANCH  20  21
ENDBRANCH  19  20
ENDBRANCH  18  19
ENDBRANCH   1  18
TORSDOF 28
ENDMDL
MODEL 2
REMARK VINA RESULT:    -4.120      2.086      6.081
REMARK INTER + INTRA:         -17.036
REMARK INTER:                 -11.785
REMARK INTRA:                  -5.250
REMARK UNBOUND:                -6.172
REMARK SMILES CCCCCCCCCCCCCCCCCCCCCCCCCCCCCC(=O)[O-]
REMARK SMILES IDX 16 1 17 2 18 3 19 4 20 5 21 6 22 7 23 8 24 9 25 10 26 11
REMARK SMILES IDX 27 12 28 13 29 14 30 15 31 16 32 17 15 18 14 19 13 20 12 21
REMARK SMILES IDX 11 22 10 23 9 24 8 25 7 26 6 27 5 28 4 29 3 30 2 31 1 32
REMARK H PARENT
REMARK Flexibility Score: inf
ROOT
ATOM      1  C   UNL     1      48.992   4.118  22.287  1.00  0.00     0.000 C 
ENDROOT
BRANCH   1   2
ATOM      2  C   UNL     1      49.623   4.045  23.685  1.00  0.00     0.000 C 
BRANCH   2   3
ATOM      3  C   UNL     1      48.614   3.654  24.779  1.00  0.00     0.000 C 
BRANCH   3   4
ATOM      4  C   UNL     1      49.241   3.251  26.131  1.00  0.00     0.000 C 
BRANCH   4   5
ATOM      5  C   UNL     1      49.209   4.337  27.222  1.00  0.00     0.000 C 
BRANCH   5   6
ATOM      6  C   UNL     1      50.074   5.583  26.943  1.00  0.00     0.000 C 
BRANCH   6   7
ATOM      7  C   UNL     1      49.290   6.911  26.933  1.00  0.00     0.000 C 
BRANCH   7   8
ATOM      8  C   UNL     1      49.069   7.472  25.516  1.00  0.00     0.000 C 
BRANCH   8   9
ATOM      9  C   UNL     1      47.670   7.159  24.964  1.00  0.00     0.000 C 
BRANCH   9  10
ATOM     10  C   UNL     1      47.476   7.639  23.515  1.00  0.00     0.000 C 
BRANCH  10  11
ATOM     11  C   UNL     1      48.708   8.397  22.995  1.00  0.00     0.000 C 
BRANCH  11  12
ATOM     12  C   UNL     1      49.669   7.479  22.218  1.00  0.00     0.000 C 
BRANCH  12  13
ATOM     13  C   UNL     1      49.280   7.348  20.733  1.00  0.00     0.006 C 
BRANCH  13  14
ATOM     14  C   UNL     1      48.958   8.695  20.066  1.00  0.00     0.053 C 
BRANCH  14  15
ATOM     15  C   UNL     1      49.931   9.042  18.982  1.00  0.00     0.041 C 
ATOM     16  O   UNL     1      50.940   8.316  18.780  1.00  0.00    -0.550 OA
ATOM     17  O   UNL     1      49.702  10.148  18.170  1.00  0.00    -0.550 OA
ENDBRANCH  14  15
ENDBRANCH  13  14
ENDBRANCH  12  13
ENDBRANCH  11  12
ENDBRANCH  10  11
ENDBRANCH   9  10
ENDBRANCH   8   9
ENDBRANCH   7   8
ENDBRANCH   6   7
ENDBRANCH   5   6
ENDBRANCH   4   5
ENDBRANCH   3   4
ENDBRANCH   2   3
ENDBRANCH   1   2
BRANCH   1  18
ATOM     18  C   UNL     1      47.462   4.049  22.382  1.00  0.00     0.000 C 
BRANCH  18  19
ATOM     19  C   UNL     1      46.792   3.780  21.025  1.00  0.00     0.000 C 
BRANCH  19  20
ATOM     20  C   UNL     1      47.464   2.632  20.253  1.00  0.00     0.000 C 
BRANCH  20  21
ATOM     21  C   UNL     1      46.723   1.291  20.404  1.00  0.00     0.000 C 
BRANCH  21  22
ATOM     22  C   UNL     1      45.376   1.370  21.145  1.00  0.00     0.000 C 
BRANCH  22  23
ATOM     23  C   UNL     1      45.433   0.768  22.560  1.00  0.00     0.000 C 
BRANCH  23  24
ATOM     24  C   UNL     1      46.658  -0.135  22.767  1.00  0.00    -0.000 C 
BRANCH  24  25
ATOM     25  C   UNL     1      47.655   0.449  23.784  1.00  0.00    -0.000 C 
BRANCH  25  26
ATOM     26  C   UNL     1      49.087  -0.068  23.571  1.00  0.00    -0.000 C 
BRANCH  26  27
ATOM     27  C   UNL     1      49.701   0.424  22.252  1.00  0.00    -0.000 C 
BRANCH  27  28
ATOM     28  C   UNL     1      51.234   0.380  22.313  1.00  0.00    -0.000 C 
BRANCH  28  29
ATOM     29  C   UNL     1      51.875   1.778  22.286  1.00  0.00    -0.000 C 
BRANCH  29  30
ATOM     30  C   UNL     1      52.500   2.145  20.924  1.00  0.00    -0.000 C 
BRANCH  30  31
ATOM     31  C   UNL     1      51.436   2.373  19.839  1.00  0.00    -0.003 C 
ATOM     32  C   UNL     1      51.630   3.721  19.151  1.00  0.00     0.004 C 
ENDBRANCH  30  31
ENDBRANCH  29  30
ENDBRANCH  28  29
ENDBRANCH  27  28
ENDBRANCH  26  27
ENDBRANCH  25  26
ENDBRANCH  24  25
ENDBRANCH  23  24
ENDBRANCH  22  23
ENDBRANCH  21  22
ENDBRANCH  20  21
ENDBRANCH  19  20
ENDBRANCH  18  19
ENDBRANCH   1  18
TORSDOF 28
ENDMDL
MODEL 3
REMARK VINA RESULT:    -4.052      1.765      6.045
REMARK INTER + INTRA:         -16.856
REMARK INTER:                 -11.332
REMARK INTRA:                  -5.524
REMARK UNBOUND:                -6.172
REMARK SMILES CCCCCCCCCCCCCCCCCCCCCCCCCCCCCC(=O)[O-]
REMARK SMILES IDX 16 1 17 2 18 3 19 4 20 5 21 6 22 7 23 8 24 9 25 10 26 11
REMARK SMILES IDX 27 12 28 13 29 14 30 15 31 16 32 17 15 18 14 19 13 20 12 21
REMARK SMILES IDX 11 22 10 23 9 24 8 25 7 26 6 27 5 28 4 29 3 30 2 31 1 32
REMARK H PARENT
REMARK Flexibility Score: inf
ROOT
ATOM      1  C   UNL     1      44.732   4.081  21.458  1.00  0.00     0.000 C 
ENDROOT
BRANCH   1   2
ATOM      2  C   UNL     1      45.591   5.260  21.937  1.00  0.00     0.000 C 
BRANCH   2   3
ATOM      3  C   UNL     1      45.849   5.239  23.453  1.00  0.00     0.000 C 
BRANCH   3   4
ATOM      4  C   UNL     1      46.923   4.233  23.919  1.00  0.00     0.000 C 
BRANCH   4   5
ATOM      5  C   UNL     1      47.692   4.633  25.191  1.00  0.00     0.000 C 
BRANCH   5   6
ATOM      6  C   UNL     1      49.230   4.583  25.079  1.00  0.00     0.000 C 
BRANCH   6   7
ATOM      7  C   UNL     1      49.961   5.662  25.904  1.00  0.00     0.000 C 
BRANCH   7   8
ATOM      8  C   UNL     1      49.370   7.071  25.715  1.00  0.00     0.000 C 
BRANCH   8   9
ATOM      9  C   UNL     1      50.057   7.859  24.590  1.00  0.00     0.000 C 
BRANCH   9  10
ATOM     10  C   UNL     1      49.136   8.909  23.944  1.00  0.00     0.000 C 
BRANCH  10  11
ATOM     11  C   UNL     1      48.596   8.436  22.585  1.00  0.00     0.000 C 
BRANCH  11  12
ATOM     12  C   UNL     1      48.911   6.953  22.319  1.00  0.00     0.000 C 
BRANCH  12  13
ATOM     13  C   UNL     1      49.643   6.743  20.978  1.00  0.00     0.006 C 
BRANCH  13  14
ATOM     14  C   UNL     1      50.025   8.058  20.280  1.00  0.00     0.053 C 
BRANCH  14  15
ATOM     15  C   UNL     1      50.761   7.829  18.996  1.00  0.00     0.041 C 
ATOM     16  O   UNL     1      51.865   7.223  18.998  1.00  0.00    -0.550 OA
ATOM     17  O   UNL     1      50.208   8.254  17.793  1.00  0.00    -0.550 OA
ENDBRANCH  14  15
ENDBRANCH  13  14
ENDBRANCH  12  13
ENDBRANCH  11  12
ENDBRANCH  10  11
ENDBRANCH   9  10
ENDBRANCH   8   9
ENDBRANCH   7   8
ENDBRANCH   6   7
ENDBRANCH   5   6
ENDBRANCH   4   5
ENDBRANCH   3   4
ENDBRANCH   2   3
ENDBRANCH   1   2
BRANCH   1  18
ATOM     18  C   UNL     1      45.445   3.316  20.334  1.00  0.00     0.000 C 
BRANCH  18  19
ATOM     19  C   UNL     1      46.011   1.965  20.799  1.00  0.00     0.000 C 
BRANCH  19  20
ATOM     20  C   UNL     1      47.479   1.768  20.385  1.00  0.00     0.000 C 
BRANCH  20  21
ATOM     21  C   UNL     1      48.343   3.022  20.614  1.00  0.00     0.000 C 
BRANCH  21  22
ATOM     22  C   UNL     1      49.843   2.750  20.827  1.00  0.00     0.000 C 
BRANCH  22  23
ATOM     23  C   UNL     1      50.299   2.996  22.276  1.00  0.00     0.000 C 
BRANCH  23  24
ATOM     24  C   UNL     1      51.289   1.929  22.770  1.00  0.00    -0.000 C 
BRANCH  24  25
ATOM     25  C   UNL     1      50.583   0.738  23.442  1.00  0.00    -0.000 C 
BRANCH  25  26
ATOM     26  C   UNL     1      50.171   1.038  24.892  1.00  0.00    -0.000 C 
BRANCH  26  27
ATOM     27  C   UNL     1      48.652   0.951  25.103  1.00  0.00    -0.000 C 
BRANCH  27  28
ATOM     28  C   UNL     1      47.928   0.716  23.769  1.00  0.00    -0.000 C 
BRANCH  28  29
ATOM     29  C   UNL     1      46.819  -0.344  23.869  1.00  0.00    -0.000 C 
BRANCH  29  30
ATOM     30  C   UNL     1      46.968  -1.493  22.849  1.00  0.00    -0.000 C 
BRANCH  30  31
ATOM     31  C   UNL     1      48.266  -1.381  22.035  1.00  0.00    -0.003 C 
ATOM     32  C   UNL     1      49.175  -2.582  22.280  1.00  0.00     0.004 C 
ENDBRANCH  30  31
ENDBRANCH  29  30
ENDBRANCH  28  29
ENDBRANCH  27  28
ENDBRANCH  26  27
ENDBRANCH  25  26
ENDBRANCH  24  25
ENDBRANCH  23  24
ENDBRANCH  22  23
ENDBRANCH  21  22
ENDBRANCH  20  21
ENDBRANCH  19  20
ENDBRANCH  18  19
ENDBRANCH   1  18
TORSDOF 28
ENDMDL
MODEL 4
REMARK VINA RESULT:    -4.038      1.914      4.480
REMARK INTER + INTRA:         -16.821
REMARK INTER:                 -11.645
REMARK INTRA:                  -5.176
REMARK UNBOUND:                -6.172
REMARK SMILES CCCCCCCCCCCCCCCCCCCCCCCCCCCCCC(=O)[O-]
REMARK SMILES IDX 16 1 17 2 18 3 19 4 20 5 21 6 22 7 23 8 24 9 25 10 26 11
REMARK SMILES IDX 27 12 28 13 29 14 30 15 31 16 32 17 15 18 14 19 13 20 12 21
REMARK SMILES IDX 11 22 10 23 9 24 8 25 7 26 6 27 5 28 4 29 3 30 2 31 1 32
REMARK H PARENT
REMARK Flexibility Score: inf
ROOT
ATOM      1  C   UNL     1      48.352   5.536  21.844  1.00  0.00     0.000 C 
ENDROOT
BRANCH   1   2
ATOM      2  C   UNL     1      47.537   4.820  22.930  1.00  0.00     0.000 C 
BRANCH   2   3
ATOM      3  C   UNL     1      46.175   5.486  23.196  1.00  0.00     0.000 C 
BRANCH   3   4
ATOM      4  C   UNL     1      44.964   4.531  23.163  1.00  0.00     0.000 C 
BRANCH   4   5
ATOM      5  C   UNL     1      44.104   4.601  21.888  1.00  0.00     0.000 C 
BRANCH   5   6
ATOM      6  C   UNL     1      44.304   3.443  20.890  1.00  0.00     0.000 C 
BRANCH   6   7
ATOM      7  C   UNL     1      45.687   3.424  20.208  1.00  0.00     0.000 C 
BRANCH   7   8
ATOM      8  C   UNL     1      46.388   2.055  20.301  1.00  0.00     0.000 C 
BRANCH   8   9
ATOM      9  C   UNL     1      46.204   1.385  21.669  1.00  0.00     0.000 C 
BRANCH   9  10
ATOM     10  C   UNL     1      47.504   1.328  22.490  1.00  0.00     0.000 C 
BRANCH  10  11
ATOM     11  C   UNL     1      48.491   0.294  21.924  1.00  0.00     0.000 C 
BRANCH  11  12
ATOM     12  C   UNL     1      49.957   0.709  22.144  1.00  0.00     0.000 C 
BRANCH  12  13
ATOM     13  C   UNL     1      50.168   2.225  21.967  1.00  0.00     0.006 C 
BRANCH  13  14
ATOM     14  C   UNL     1      50.331   2.651  20.499  1.00  0.00     0.053 C 
BRANCH  14  15
ATOM     15  C   UNL     1      51.766   2.692  20.073  1.00  0.00     0.041 C 
ATOM     16  O   UNL     1      52.661   2.205  20.814  1.00  0.00    -0.550 OA
ATOM     17  O   UNL     1      52.110   3.237  18.841  1.00  0.00    -0.550 OA
ENDBRANCH  14  15
ENDBRANCH  13  14
ENDBRANCH  12  13
ENDBRANCH  11  12
ENDBRANCH  10  11
ENDBRANCH   9  10
ENDBRANCH   8   9
ENDBRANCH   7   8
ENDBRANCH   6   7
ENDBRANCH   5   6
ENDBRANCH   4   5
ENDBRANCH   3   4
ENDBRANCH   2   3
ENDBRANCH   1   2
BRANCH   1  18
ATOM     18  C   UNL     1      49.087   6.748  22.433  1.00  0.00     0.000 C 
BRANCH  18  19
ATOM     19  C   UNL     1      49.747   6.445  23.788  1.00  0.00     0.000 C 
BRANCH  19  20
ATOM     20  C   UNL     1      49.776   7.671  24.716  1.00  0.00     0.000 C 
BRANCH  20  21
ATOM     21  C   UNL     1      48.536   7.770  25.623  1.00  0.00     0.000 C 
BRANCH  21  22
ATOM     22  C   UNL     1      47.468   8.776  25.159  1.00  0.00     0.000 C 
BRANCH  22  23
ATOM     23  C   UNL     1      48.012   9.813  24.159  1.00  0.00     0.000 C 
BRANCH  23  24
ATOM     24  C   UNL     1      46.962  10.235  23.120  1.00  0.00    -0.000 C 
BRANCH  24  25
ATOM     25  C   UNL     1      45.991   9.094  22.768  1.00  0.00    -0.000 C 
BRANCH  25  26
ATOM     26  C   UNL     1      46.063   8.694  21.285  1.00  0.00    -0.000 C 
BRANCH  26  27
ATOM     27  C   UNL     1      47.034   9.574  20.484  1.00  0.00    -0.000 C 
BRANCH  27  28
ATOM     28  C   UNL     1      48.114   8.720  19.806  1.00  0.00    -0.000 C 
BRANCH  28  29
ATOM     29  C   UNL     1      49.101   9.553  18.972  1.00  0.00    -0.000 C 
BRANCH  29  30
ATOM     30  C   UNL     1      50.527   8.966  18.933  1.00  0.00    -0.000 C 
BRANCH  30  31
ATOM     31  C   UNL     1      50.552   7.476  19.309  1.00  0.00    -0.003 C 
ATOM     32  C   UNL     1      51.840   6.809  18.833  1.00  0.00     0.004 C 
ENDBRANCH  30  31
ENDBRANCH  29  30
ENDBRANCH  28  29
ENDBRANCH  27  28
ENDBRANCH  26  27
ENDBRANCH  25  26
ENDBRANCH  24  25
ENDBRANCH  23  24
ENDBRANCH  22  23
ENDBRANCH  21  22
ENDBRANCH  20  21
ENDBRANCH  19  20
ENDBRANCH  18  19
ENDBRANCH   1  18
TORSDOF 28
ENDMDL
MODEL 5
REMARK VINA RESULT:    -4.033      1.992      6.039
REMARK INTER + INTRA:         -16.806
REMARK INTER:                 -11.585
REMARK INTRA:                  -5.222
REMARK UNBOUND:                -6.172
REMARK SMILES CCCCCCCCCCCCCCCCCCCCCCCCCCCCCC(=O)[O-]
REMARK SMILES IDX 16 1 17 2 18 3 19 4 20 5 21 6 22 7 23 8 24 9 25 10 26 11
REMARK SMILES IDX 27 12 28 13 29 14 30 15 31 16 32 17 15 18 14 19 13 20 12 21
REMARK SMILES IDX 11 22 10 23 9 24 8 25 7 26 6 27 5 28 4 29 3 30 2 31 1 32
REMARK H PARENT
REMARK Flexibility Score: inf
ROOT
ATOM      1  C   UNL     1      47.087   4.254  21.666  1.00  0.00     0.000 C 
ENDROOT
BRANCH   1   2
ATOM      2  C   UNL     1      47.023   4.745  23.119  1.00  0.00     0.000 C 
BRANCH   2   3
ATOM      3  C   UNL     1      48.260   4.346  23.943  1.00  0.00     0.000 C 
BRANCH   3   4
ATOM      4  C   UNL     1      49.599   4.913  23.426  1.00  0.00     0.000 C 
BRANCH   4   5
ATOM      5  C   UNL     1      50.333   5.857  24.397  1.00  0.00     0.000 C 
BRANCH   5   6
ATOM      6  C   UNL     1      49.572   6.195  25.695  1.00  0.00     0.000 C 
BRANCH   6   7
ATOM      7  C   UNL     1      49.126   7.667  25.804  1.00  0.00     0.000 C 
BRANCH   7   8
ATOM      8  C   UNL     1      49.510   8.508  24.572  1.00  0.00     0.000 C 
BRANCH   8   9
ATOM      9  C   UNL     1      48.310   9.242  23.956  1.00  0.00     0.000 C 
BRANCH   9  10
ATOM     10  C   UNL     1      47.154   8.297  23.586  1.00  0.00     0.000 C 
BRANCH  10  11
ATOM     11  C   UNL     1      46.709   8.482  22.126  1.00  0.00     0.000 C 
BRANCH  11  12
ATOM     12  C   UNL     1      47.898   8.759  21.188  1.00  0.00     0.000 C 
BRANCH  12  13
ATOM     13  C   UNL     1      48.600   7.463  20.737  1.00  0.00     0.006 C 
BRANCH  13  14
ATOM     14  C   UNL     1      50.133   7.543  20.808  1.00  0.00     0.053 C 
BRANCH  14  15
ATOM     15  C   UNL     1      50.750   7.858  19.481  1.00  0.00     0.041 C 
ATOM     16  O   UNL     1      51.765   7.225  19.088  1.00  0.00    -0.550 OA
ATOM     17  O   UNL     1      50.180   8.827  18.662  1.00  0.00    -0.550 OA
ENDBRANCH  14  15
ENDBRANCH  13  14
ENDBRANCH  12  13
ENDBRANCH  11  12
ENDBRANCH  10  11
ENDBRANCH   9  10
ENDBRANCH   8   9
ENDBRANCH   7   8
ENDBRANCH   6   7
ENDBRANCH   5   6
ENDBRANCH   4   5
ENDBRANCH   3   4
ENDBRANCH   2   3
ENDBRANCH   1   2
BRANCH   1  18
ATOM     18  C   UNL     1      45.713   4.381  20.993  1.00  0.00     0.000 C 
BRANCH  18  19
ATOM     19  C   UNL     1      44.548   4.143  21.967  1.00  0.00     0.000 C 
BRANCH  19  20
ATOM     20  C   UNL     1      43.304   3.570  21.268  1.00  0.00     0.000 C 
BRANCH  20  21
ATOM     21  C   UNL     1      43.390   2.050  21.037  1.00  0.00     0.000 C 
BRANCH  21  22
ATOM     22  C   UNL     1      43.031   1.184  22.259  1.00  0.00     0.000 C 
BRANCH  22  23
ATOM     23  C   UNL     1      44.066   0.079  22.537  1.00  0.00     0.000 C 
BRANCH  23  24
ATOM     24  C   UNL     1      45.016   0.440  23.689  1.00  0.00    -0.000 C 
BRANCH  24  25
ATOM     25  C   UNL     1      46.336   1.057  23.191  1.00  0.00    -0.000 C 
BRANCH  25  26
ATOM     26  C   UNL     1      46.680   0.633  21.754  1.00  0.00    -0.000 C 
BRANCH  26  27
ATOM     27  C   UNL     1      48.043  -0.068  21.657  1.00  0.00    -0.000 C 
BRANCH  27  28
ATOM     28  C   UNL     1      49.173   0.869  22.105  1.00  0.00    -0.000 C 
BRANCH  28  29
ATOM     29  C   UNL     1      49.646   1.814  20.989  1.00  0.00    -0.000 C 
BRANCH  29  30
ATOM     30  C   UNL     1      50.969   2.540  21.312  1.00  0.00    -0.000 C 
BRANCH  30  31
ATOM     31  C   UNL     1      52.141   2.012  20.470  1.00  0.00    -0.003 C 
ATOM     32  C   UNL     1      52.296   2.812  19.179  1.00  0.00     0.004 C 
ENDBRANCH  30  31
ENDBRANCH  29  30
ENDBRANCH  28  29
ENDBRANCH  27  28
ENDBRANCH  26  27
ENDBRANCH  25  26
ENDBRANCH  24  25
ENDBRANCH  23  24
ENDBRANCH  22  23
ENDBRANCH  21  22
ENDBRANCH  20  21
ENDBRANCH  19  20
ENDBRANCH  18  19
ENDBRANCH   1  18
TORSDOF 28
ENDMDL
MODEL 6
REMARK VINA RESULT:    -4.013      2.946      6.834
REMARK INTER + INTRA:         -16.754
REMARK INTER:                 -11.011
REMARK INTRA:                  -5.744
REMARK UNBOUND:                -6.172
REMARK SMILES CCCCCCCCCCCCCCCCCCCCCCCCCCCCCC(=O)[O-]
REMARK SMILES IDX 16 1 17 2 18 3 19 4 20 5 21 6 22 7 23 8 24 9 25 10 26 11
REMARK SMILES IDX 27 12 28 13 29 14 30 15 31 16 32 17 15 18 14 19 13 20 12 21
REMARK SMILES IDX 11 22 10 23 9 24 8 25 7 26 6 27 5 28 4 29 3 30 2 31 1 32
REMARK H PARENT
REMARK Flexibility Score: inf
ROOT
ATOM      1  C   UNL     1      46.445   6.097  25.936  1.00  0.00     0.000 C 
ENDROOT
BRANCH   1   2
ATOM      2  C   UNL     1      46.340   7.628  25.973  1.00  0.00     0.000 C 
BRANCH   2   3
ATOM      3  C   UNL     1      47.284   8.270  27.005  1.00  0.00     0.000 C 
BRANCH   3   4
ATOM      4  C   UNL     1      47.861   7.298  28.056  1.00  0.00     0.000 C 
BRANCH   4   5
ATOM      5  C   UNL     1      49.387   7.104  28.006  1.00  0.00     0.000 C 
BRANCH   5   6
ATOM      6  C   UNL     1      49.868   5.812  27.315  1.00  0.00     0.000 C 
BRANCH   6   7
ATOM      7  C   UNL     1      50.715   6.047  26.048  1.00  0.00     0.000 C 
BRANCH   7   8
ATOM      8  C   UNL     1      49.870   6.427  24.817  1.00  0.00     0.000 C 
BRANCH   8   9
ATOM      9  C   UNL     1      50.018   7.905  24.427  1.00  0.00     0.000 C 
BRANCH   9  10
ATOM     10  C   UNL     1      49.141   8.299  23.226  1.00  0.00     0.000 C 
BRANCH  10  11
ATOM     11  C   UNL     1      49.645   7.666  21.919  1.00  0.00     0.000 C 
BRANCH  11  12
ATOM     12  C   UNL     1      48.500   7.395  20.925  1.00  0.00     0.000 C 
BRANCH  12  13
ATOM     13  C   UNL     1      48.130   8.648  20.106  1.00  0.00     0.006 C 
BRANCH  13  14
ATOM     14  C   UNL     1      46.715   9.172  20.401  1.00  0.00     0.053 C 
BRANCH  14  15
ATOM     15  C   UNL     1      46.731  10.481  21.127  1.00  0.00     0.041 C 
ATOM     16  O   UNL     1      46.508  10.520  22.366  1.00  0.00    -0.550 OA
ATOM     17  O   UNL     1      47.029  11.653  20.441  1.00  0.00    -0.550 OA
ENDBRANCH  14  15
ENDBRANCH  13  14
ENDBRANCH  12  13
ENDBRANCH  11  12
ENDBRANCH  10  11
ENDBRANCH   9  10
ENDBRANCH   8   9
ENDBRANCH   7   8
ENDBRANCH   6   7
ENDBRANCH   5   6
ENDBRANCH   4   5
ENDBRANCH   3   4
ENDBRANCH   2   3
ENDBRANCH   1   2
BRANCH   1  18
ATOM     18  C   UNL     1      45.746   5.539  24.689  1.00  0.00     0.000 C 
BRANCH  18  19
ATOM     19  C   UNL     1      45.980   6.400  23.438  1.00  0.00     0.000 C 
BRANCH  19  20
ATOM     20  C   UNL     1      45.361   5.782  22.173  1.00  0.00     0.000 C 
BRANCH  20  21
ATOM     21  C   UNL     1      44.429   4.594  22.478  1.00  0.00     0.000 C 
BRANCH  21  22
ATOM     22  C   UNL     1      44.123   3.681  21.277  1.00  0.00     0.000 C 
BRANCH  22  23
ATOM     23  C   UNL     1      45.225   3.712  20.202  1.00  0.00     0.000 C 
BRANCH  23  24
ATOM     24  C   UNL     1      46.128   2.469  20.250  1.00  0.00    -0.000 C 
BRANCH  24  25
ATOM     25  C   UNL     1      47.181   2.550  21.370  1.00  0.00    -0.000 C 
BRANCH  25  26
ATOM     26  C   UNL     1      48.238   3.634  21.108  1.00  0.00    -0.000 C 
BRANCH  26  27
ATOM     27  C   UNL     1      48.984   4.049  22.385  1.00  0.00    -0.000 C 
BRANCH  27  28
ATOM     28  C   UNL     1      48.499   3.234  23.592  1.00  0.00    -0.000 C 
BRANCH  28  29
ATOM     29  C   UNL     1      49.587   2.316  24.171  1.00  0.00    -0.000 C 
BRANCH  29  30
ATOM     30  C   UNL     1      50.220   1.372  23.128  1.00  0.00    -0.000 C 
BRANCH  30  31
ATOM     31  C   UNL     1      51.689   1.722  22.845  1.00  0.00    -0.003 C 
ATOM     32  C   UNL     1      51.963   1.782  21.345  1.00  0.00     0.004 C 
ENDBRANCH  30  31
ENDBRANCH  29  30
ENDBRANCH  28  29
ENDBRANCH  27  28
ENDBRANCH  26  27
ENDBRANCH  25  26
ENDBRANCH  24  25
ENDBRANCH  23  24
ENDBRANCH  22  23
ENDBRANCH  21  22
ENDBRANCH  20  21
ENDBRANCH  19  20
ENDBRANCH  18  19
ENDBRANCH   1  18
TORSDOF 28
ENDMDL
MODEL 7
REMARK VINA RESULT:    -4.013      3.392      7.120
REMARK INTER + INTRA:         -16.754
REMARK INTER:                 -10.800
REMARK INTRA:                  -5.954
REMARK UNBOUND:                -6.172
REMARK SMILES CCCCCCCCCCCCCCCCCCCCCCCCCCCCCC(=O)[O-]
REMARK SMILES IDX 16 1 17 2 18 3 19 4 20 5 21 6 22 7 23 8 24 9 25 10 26 11
REMARK SMILES IDX 27 12 28 13 29 14 30 15 31 16 32 17 15 18 14 19 13 20 12 21
REMARK SMILES IDX 11 22 10 23 9 24 8 25 7 26 6 27 5 28 4 29 3 30 2 31 1 32
REMARK H PARENT
REMARK Flexibility Score: inf
ROOT
ATOM      1  C   UNL     1      47.602   6.982  21.566  1.00  0.00     0.000 C 
ENDROOT
BRANCH   1   2
ATOM      2  C   UNL     1      48.991   6.764  22.183  1.00  0.00     0.000 C 
BRANCH   2   3
ATOM      3  C   UNL     1      49.461   7.952  23.040  1.00  0.00     0.000 C 
BRANCH   3   4
ATOM      4  C   UNL     1      50.182   7.567  24.349  1.00  0.00     0.000 C 
BRANCH   4   5
ATOM      5  C   UNL     1      50.014   6.101  24.787  1.00  0.00     0.000 C 
BRANCH   5   6
ATOM      6  C   UNL     1      50.264   5.824  26.284  1.00  0.00     0.000 C 
BRANCH   6   7
ATOM      7  C   UNL     1      49.183   4.956  26.958  1.00  0.00     0.000 C 
BRANCH   7   8
ATOM      8  C   UNL     1      48.224   5.769  27.848  1.00  0.00     0.000 C 
BRANCH   8   9
ATOM      9  C   UNL     1      48.730   7.192  28.124  1.00  0.00     0.000 C 
BRANCH   9  10
ATOM     10  C   UNL     1      47.631   8.259  27.977  1.00  0.00     0.000 C 
BRANCH  10  11
ATOM     11  C   UNL     1      46.344   7.673  27.374  1.00  0.00     0.000 C 
BRANCH  11  12
ATOM     12  C   UNL     1      45.825   8.508  26.190  1.00  0.00     0.000 C 
BRANCH  12  13
ATOM     13  C   UNL     1      46.953   9.293  25.490  1.00  0.00     0.006 C 
BRANCH  13  14
ATOM     14  C   UNL     1      46.541   9.866  24.125  1.00  0.00     0.053 C 
BRANCH  14  15
ATOM     15  C   UNL     1      46.169  11.314  24.202  1.00  0.00     0.041 C 
ATOM     16  O   UNL     1      45.126  11.669  24.812  1.00  0.00    -0.550 OA
ATOM     17  O   UNL     1      46.996  12.275  23.631  1.00  0.00    -0.550 OA
ENDBRANCH  14  15
ENDBRANCH  13  14
ENDBRANCH  12  13
ENDBRANCH  11  12
ENDBRANCH  10  11
ENDBRANCH   9  10
ENDBRANCH   8   9
ENDBRANCH   7   8
ENDBRANCH   6   7
ENDBRANCH   5   6
ENDBRANCH   4   5
ENDBRANCH   3   4
ENDBRANCH   2   3
ENDBRANCH   1   2
BRANCH   1  18
ATOM     18  C   UNL     1      46.644   5.857  21.983  1.00  0.00     0.000 C 
BRANCH  18  19
ATOM     19  C   UNL     1      46.042   6.074  23.381  1.00  0.00     0.000 C 
BRANCH  19  20
ATOM     20  C   UNL     1      46.490   5.002  24.388  1.00  0.00     0.000 C 
BRANCH  20  21
ATOM     21  C   UNL     1      47.275   3.850  23.732  1.00  0.00     0.000 C 
BRANCH  21  22
ATOM     22  C   UNL     1      47.640   2.690  24.676  1.00  0.00     0.000 C 
BRANCH  22  23
ATOM     23  C   UNL     1      49.102   2.233  24.529  1.00  0.00     0.000 C 
BRANCH  23  24
ATOM     24  C   UNL     1      49.337   1.419  23.247  1.00  0.00    -0.000 C 
BRANCH  24  25
ATOM     25  C   UNL     1      50.068   2.230  22.160  1.00  0.00    -0.000 C 
BRANCH  25  26
ATOM     26  C   UNL     1      49.447   2.041  20.767  1.00  0.00    -0.000 C 
BRANCH  26  27
ATOM     27  C   UNL     1      48.144   2.834  20.590  1.00  0.00    -0.000 C 
BRANCH  27  28
ATOM     28  C   UNL     1      46.997   1.912  20.154  1.00  0.00    -0.000 C 
BRANCH  28  29
ATOM     29  C   UNL     1      46.251   1.281  21.341  1.00  0.00    -0.000 C 
BRANCH  29  30
ATOM     30  C   UNL     1      44.718   1.432  21.259  1.00  0.00    -0.000 C 
BRANCH  30  31
ATOM     31  C   UNL     1      44.211   2.655  22.038  1.00  0.00    -0.003 C 
ATOM     32  C   UNL     1      43.570   3.677  21.103  1.00  0.00     0.004 C 
ENDBRANCH  30  31
ENDBRANCH  29  30
ENDBRANCH  28  29
ENDBRANCH  27  28
ENDBRANCH  26  27
ENDBRANCH  25  26
ENDBRANCH  24  25
ENDBRANCH  23  24
ENDBRANCH  22  23
ENDBRANCH  21  22
ENDBRANCH  20  21
ENDBRANCH  19  20
ENDBRANCH  18  19
ENDBRANCH   1  18
TORSDOF 28
ENDMDL
MODEL 8
REMARK VINA RESULT:    -3.980      2.020      6.882
REMARK INTER + INTRA:         -16.668
REMARK INTER:                 -10.712
REMARK INTRA:                  -5.955
REMARK UNBOUND:                -6.172
REMARK SMILES CCCCCCCCCCCCCCCCCCCCCCCCCCCCCC(=O)[O-]
REMARK SMILES IDX 16 1 17 2 18 3 19 4 20 5 21 6 22 7 23 8 24 9 25 10 26 11
REMARK SMILES IDX 27 12 28 13 29 14 30 15 31 16 32 17 15 18 14 19 13 20 12 21
REMARK SMILES IDX 11 22 10 23 9 24 8 25 7 26 6 27 5 28 4 29 3 30 2 31 1 32
REMARK H PARENT
REMARK Flexibility Score: inf
ROOT
ATOM      1  C   UNL     1      49.125   3.099  24.021  1.00  0.00     0.000 C 
ENDROOT
BRANCH   1   2
ATOM      2  C   UNL     1      49.224   4.078  25.199  1.00  0.00     0.000 C 
BRANCH   2   3
ATOM      3  C   UNL     1      49.107   5.551  24.768  1.00  0.00     0.000 C 
BRANCH   3   4
ATOM      4  C   UNL     1      50.212   6.480  25.313  1.00  0.00     0.000 C 
BRANCH   4   5
ATOM      5  C   UNL     1      50.228   7.902  24.721  1.00  0.00     0.000 C 
BRANCH   5   6
ATOM      6  C   UNL     1      48.931   8.339  24.011  1.00  0.00     0.000 C 
BRANCH   6   7
ATOM      7  C   UNL     1      47.823   8.836  24.961  1.00  0.00     0.000 C 
BRANCH   7   8
ATOM      8  C   UNL     1      46.406   8.463  24.485  1.00  0.00     0.000 C 
BRANCH   8   9
ATOM      9  C   UNL     1      46.285   6.986  24.081  1.00  0.00     0.000 C 
BRANCH   9  10
ATOM     10  C   UNL     1      45.858   6.799  22.614  1.00  0.00     0.000 C 
BRANCH  10  11
ATOM     11  C   UNL     1      46.897   5.993  21.817  1.00  0.00     0.000 C 
BRANCH  11  12
ATOM     12  C   UNL     1      47.664   6.869  20.811  1.00  0.00     0.000 C 
BRANCH  12  13
ATOM     13  C   UNL     1      49.192   6.722  20.954  1.00  0.00     0.006 C 
BRANCH  13  14
ATOM     14  C   UNL     1      49.964   8.003  20.601  1.00  0.00     0.053 C 
BRANCH  14  15
ATOM     15  C   UNL     1      50.622   7.921  19.259  1.00  0.00     0.041 C 
ATOM     16  O   UNL     1      51.597   7.144  19.079  1.00  0.00    -0.550 OA
ATOM     17  O   UNL     1      50.135   8.676  18.198  1.00  0.00    -0.550 OA
ENDBRANCH  14  15
ENDBRANCH  13  14
ENDBRANCH  12  13
ENDBRANCH  11  12
ENDBRANCH  10  11
ENDBRANCH   9  10
ENDBRANCH   8   9
ENDBRANCH   7   8
ENDBRANCH   6   7
ENDBRANCH   5   6
ENDBRANCH   4   5
ENDBRANCH   3   4
ENDBRANCH   2   3
ENDBRANCH   1   2
BRANCH   1  18
ATOM     18  C   UNL     1      49.988   3.580  22.846  1.00  0.00     0.000 C 
BRANCH  18  19
ATOM     19  C   UNL     1      49.495   3.053  21.489  1.00  0.00     0.000 C 
BRANCH  19  20
ATOM     20  C   UNL     1      48.169   2.281  21.604  1.00  0.00     0.000 C 
BRANCH  20  21
ATOM     21  C   UNL     1      47.190   2.593  20.458  1.00  0.00     0.000 C 
BRANCH  21  22
ATOM     22  C   UNL     1      45.783   1.990  20.621  1.00  0.00     0.000 C 
BRANCH  22  23
ATOM     23  C   UNL     1      44.727   3.030  21.036  1.00  0.00     0.000 C 
BRANCH  23  24
ATOM     24  C   UNL     1      43.451   2.381  21.597  1.00  0.00    -0.000 C 
BRANCH  24  25
ATOM     25  C   UNL     1      43.247   0.944  21.084  1.00  0.00    -0.000 C 
BRANCH  25  26
ATOM     26  C   UNL     1      42.999  -0.058  22.223  1.00  0.00    -0.000 C 
BRANCH  26  27
ATOM     27  C   UNL     1      43.656   0.374  23.542  1.00  0.00    -0.000 C 
BRANCH  27  28
ATOM     28  C   UNL     1      45.079  -0.190  23.655  1.00  0.00    -0.000 C 
BRANCH  28  29
ATOM     29  C   UNL     1      46.094   0.845  24.167  1.00  0.00    -0.000 C 
BRANCH  29  30
ATOM     30  C   UNL     1      45.487   1.880  25.136  1.00  0.00    -0.000 C 
BRANCH  30  31
ATOM     31  C   UNL     1      45.566   3.311  24.582  1.00  0.00    -0.003 C 
ATOM     32  C   UNL     1      44.237   4.042  24.753  1.00  0.00     0.004 C 
ENDBRANCH  30  31
ENDBRANCH  29  30
ENDBRANCH  28  29
ENDBRANCH  27  28
ENDBRANCH  26  27
ENDBRANCH  25  26
ENDBRANCH  24  25
ENDBRANCH  23  24
ENDBRANCH  22  23
ENDBRANCH  21  22
ENDBRANCH  20  21
ENDBRANCH  19  20
ENDBRANCH  18  19
ENDBRANCH   1  18
TORSDOF 28
ENDMDL
MODEL 9
REMARK VINA RESULT:    -3.969      1.592      4.959
REMARK INTER + INTRA:         -16.639
REMARK INTER:                 -10.773
REMARK INTRA:                  -5.865
REMARK UNBOUND:                -6.172
REMARK SMILES CCCCCCCCCCCCCCCCCCCCCCCCCCCCCC(=O)[O-]
REMARK SMILES IDX 16 1 17 2 18 3 19 4 20 5 21 6 22 7 23 8 24 9 25 10 26 11
REMARK SMILES IDX 27 12 28 13 29 14 30 15 31 16 32 17 15 18 14 19 13 20 12 21
REMARK SMILES IDX 11 22 10 23 9 24 8 25 7 26 6 27 5 28 4 29 3 30 2 31 1 32
REMARK H PARENT
REMARK Flexibility Score: inf
ROOT
ATOM      1  C   UNL     1      48.671   0.529  22.660  1.00  0.00     0.000 C 
ENDROOT
BRANCH   1   2
ATOM      2  C   UNL     1      50.098   0.328  22.133  1.00  0.00     0.000 C 
BRANCH   2   3
ATOM      3  C   UNL     1      50.897   1.640  22.045  1.00  0.00     0.000 C 
BRANCH   3   4
ATOM      4  C   UNL     1      50.727   2.419  20.723  1.00  0.00     0.000 C 
BRANCH   4   5
ATOM      5  C   UNL     1      49.949   3.743  20.834  1.00  0.00     0.000 C 
BRANCH   5   6
ATOM      6  C   UNL     1      49.619   4.200  22.270  1.00  0.00     0.000 C 
BRANCH   6   7
ATOM      7  C   UNL     1      48.116   4.178  22.613  1.00  0.00     0.000 C 
BRANCH   7   8
ATOM      8  C   UNL     1      47.227   4.706  21.471  1.00  0.00     0.000 C 
BRANCH   8   9
ATOM      9  C   UNL     1      46.257   5.804  21.933  1.00  0.00     0.000 C 
BRANCH   9  10
ATOM     10  C   UNL     1      46.874   6.749  22.978  1.00  0.00     0.000 C 
BRANCH  10  11
ATOM     11  C   UNL     1      46.782   8.221  22.542  1.00  0.00     0.000 C 
BRANCH  11  12
ATOM     12  C   UNL     1      48.146   8.783  22.103  1.00  0.00     0.000 C 
BRANCH  12  13
ATOM     13  C   UNL     1      48.567   8.273  20.711  1.00  0.00     0.006 C 
BRANCH  13  14
ATOM     14  C   UNL     1      49.918   7.539  20.713  1.00  0.00     0.053 C 
BRANCH  14  15
ATOM     15  C   UNL     1      50.761   7.893  19.528  1.00  0.00     0.041 C 
ATOM     16  O   UNL     1      51.513   7.028  19.005  1.00  0.00    -0.550 OA
ATOM     17  O   UNL     1      50.689   9.168  18.979  1.00  0.00    -0.550 OA
ENDBRANCH  14  15
ENDBRANCH  13  14
ENDBRANCH  12  13
ENDBRANCH  11  12
ENDBRANCH  10  11
ENDBRANCH   9  10
ENDBRANCH   8   9
ENDBRANCH   7   8
ENDBRANCH   6   7
ENDBRANCH   5   6
ENDBRANCH   4   5
ENDBRANCH   3   4
ENDBRANCH   2   3
ENDBRANCH   1   2
BRANCH   1  18
ATOM     18  C   UNL     1      47.650  -0.111  21.709  1.00  0.00     0.000 C 
BRANCH  18  19
ATOM     19  C   UNL     1      47.382   0.743  20.459  1.00  0.00     0.000 C 
BRANCH  19  20
ATOM     20  C   UNL     1      46.146   1.644  20.615  1.00  0.00     0.000 C 
BRANCH  20  21
ATOM     21  C   UNL     1      45.159   1.132  21.680  1.00  0.00     0.000 C 
BRANCH  21  22
ATOM     22  C   UNL     1      44.899   2.102  22.848  1.00  0.00     0.000 C 
BRANCH  22  23
ATOM     23  C   UNL     1      45.500   1.615  24.178  1.00  0.00     0.000 C 
BRANCH  23  24
ATOM     24  C   UNL     1      45.738   2.764  25.172  1.00  0.00    -0.000 C 
BRANCH  24  25
ATOM     25  C   UNL     1      44.851   3.988  24.878  1.00  0.00    -0.000 C 
BRANCH  25  26
ATOM     26  C   UNL     1      45.271   5.227  25.685  1.00  0.00    -0.000 C 
BRANCH  26  27
ATOM     27  C   UNL     1      46.348   4.910  26.733  1.00  0.00    -0.000 C 
BRANCH  27  28
ATOM     28  C   UNL     1      47.611   5.747  26.489  1.00  0.00    -0.000 C 
BRANCH  28  29
ATOM     29  C   UNL     1      48.806   5.291  27.341  1.00  0.00    -0.000 C 
BRANCH  29  30
ATOM     30  C   UNL     1      50.161   5.845  26.853  1.00  0.00    -0.000 C 
BRANCH  30  31
ATOM     31  C   UNL     1      50.299   5.780  25.324  1.00  0.00    -0.003 C 
ATOM     32  C   UNL     1      50.221   7.173  24.704  1.00  0.00     0.004 C 
ENDBRANCH  30  31
ENDBRANCH  29  30
ENDBRANCH  28  29
ENDBRANCH  27  28
ENDBRANCH  26  27
ENDBRANCH  25  26
ENDBRANCH  24  25
ENDBRANCH  23  24
ENDBRANCH  22  23
ENDBRANCH  21  22
ENDBRANCH  20  21
ENDBRANCH  19  20
ENDBRANCH  18  19
ENDBRANCH   1  18
TORSDOF 28
ENDMDL
