MODEL 1
REMARK VINA RESULT:    -4.057      0.000      0.000
REMARK INTER + INTRA:          -7.551
REMARK INTER:                  -6.191
REMARK INTRA:                  -1.360
REMARK UNBOUND:                -1.360
REMARK SMILES CCCCCCCCCC=CC(=O)[O-]
REMARK SMILES IDX 7 1 8 2 9 3 10 4 11 5 12 6 13 7 14 8 6 9 5 10 4 11 3 12 2 13
REMARK SMILES IDX 1 14
REMARK H PARENT
REMARK Flexibility Score: inf
ROOT
ATOM      1  C   UNL     1      -4.764   6.141  -9.355  1.00  0.00     0.000 C 
ENDROOT
BRANCH   1   2
ATOM      2  C   UNL     1      -5.457   5.183  -8.373  1.00  0.00     0.004 C 
BRANCH   2   3
ATOM      3  C   UNL     1      -4.521   4.738  -7.240  1.00  0.00     0.027 C 
BRANCH   3   4
ATOM      4  C   UNL     1      -5.243   3.971  -6.167  1.00  0.00    -0.025 C 
ATOM      5  C   UNL     1      -5.009   4.195  -4.871  1.00  0.00     0.020 C 
BRANCH   5   6
ATOM      6  C   UNL     1      -5.713   3.457  -3.811  1.00  0.00     0.064 C 
ATOM      7  O   UNL     1      -6.889   3.780  -3.503  1.00  0.00    -0.545 OA
ATOM      8  O   UNL     1      -5.096   2.406  -3.142  1.00  0.00    -0.545 OA
ENDBRANCH   5   6
ENDBRANCH   3   4
ENDBRANCH   2   3
ENDBRANCH   1   2
BRANCH   1   9
ATOM      9  C   UNL     1      -4.831   7.587  -8.851  1.00  0.00     0.000 C 
BRANCH   9  10
ATOM     10  C   UNL     1      -6.232   8.180  -9.070  1.00  0.00     0.000 C 
BRANCH  10  11
ATOM     11  C   UNL     1      -6.978   8.434  -7.750  1.00  0.00    -0.000 C 
BRANCH  11  12
ATOM     12  C   UNL     1      -6.087   8.213  -6.515  1.00  0.00    -0.000 C 
BRANCH  12  13
ATOM     13  C   UNL     1      -6.762   7.331  -5.453  1.00  0.00    -0.003 C 
ATOM     14  C   UNL     1      -8.055   6.690  -5.953  1.00  0.00     0.004 C 
ENDBRANCH  12  13
ENDBRANCH  11  12
ENDBRANCH  10  11
ENDBRANCH   9  10
ENDBRANCH   1   9
TORSDOF 9
ENDMDL
MODEL 2
REMARK VINA RESULT:    -4.034      0.922      2.959
REMARK INTER + INTRA:          -7.516
REMARK INTER:                  -6.237
REMARK INTRA:                  -1.279
REMARK UNBOUND:                -1.360
REMARK SMILES CCCCCCCCCC=CC(=O)[O-]
REMARK SMILES IDX 7 1 8 2 9 3 10 4 11 5 12 6 13 7 14 8 6 9 5 10 4 11 3 12 2 13
REMARK SMILES IDX 1 14
REMARK H PARENT
REMARK Flexibility Score: inf
ROOT
ATOM      1  C   UNL     1      -7.294   6.739  -6.332  1.00  0.00     0.000 C 
ENDROOT
BRANCH   1   2
ATOM      2  C   UNL     1      -6.190   7.619  -5.726  1.00  0.00     0.004 C 
BRANCH   2   3
ATOM      3  C   UNL     1      -5.137   6.792  -4.975  1.00  0.00     0.027 C 
BRANCH   3   4
ATOM      4  C   UNL     1      -5.722   5.565  -4.332  1.00  0.00    -0.025 C 
ATOM      5  C   UNL     1      -5.181   4.357  -4.512  1.00  0.00     0.020 C 
BRANCH   5   6
ATOM      6  C   UNL     1      -5.738   3.150  -3.884  1.00  0.00     0.064 C 
ATOM      7  O   UNL     1      -5.098   2.068  -3.938  1.00  0.00    -0.545 OA
ATOM      8  O   UNL     1      -6.966   3.185  -3.232  1.00  0.00    -0.545 OA
ENDBRANCH   5   6
ENDBRANCH   3   4
ENDBRANCH   2   3
ENDBRANCH   1   2
BRANCH   1   9
ATOM      9  C   UNL     1      -7.767   7.299  -7.679  1.00  0.00     0.000 C 
BRANCH   9  10
ATOM     10  C   UNL     1      -6.858   8.447  -8.145  1.00  0.00     0.000 C 
BRANCH  10  11
ATOM     11  C   UNL     1      -6.083   8.103  -9.428  1.00  0.00    -0.000 C 
BRANCH  11  12
ATOM     12  C   UNL     1      -4.743   7.404  -9.141  1.00  0.00    -0.000 C 
BRANCH  12  13
ATOM     13  C   UNL     1      -4.791   5.896  -9.434  1.00  0.00    -0.003 C 
ATOM     14  C   UNL     1      -4.511   5.045  -8.197  1.00  0.00     0.004 C 
ENDBRANCH  12  13
ENDBRANCH  11  12
ENDBRANCH  10  11
ENDBRANCH   9  10
ENDBRANCH   1   9
TORSDOF 9
ENDMDL
MODEL 3
REMARK VINA RESULT:    -3.999      1.329      2.450
REMARK INTER + INTRA:          -7.463
REMARK INTER:                  -6.587
REMARK INTRA:                  -0.876
REMARK UNBOUND:                -1.360
REMARK SMILES CCCCCCCCCC=CC(=O)[O-]
REMARK SMILES IDX 7 1 8 2 9 3 10 4 11 5 12 6 13 7 14 8 6 9 5 10 4 11 3 12 2 13
REMARK SMILES IDX 1 14
REMARK H PARENT
REMARK Flexibility Score: inf
ROOT
ATOM      1  C   UNL     1      -5.422   4.651  -7.303  1.00  0.00     0.000 C 
ENDROOT
BRANCH   1   2
ATOM      2  C   UNL     1      -4.850   4.023  -6.023  1.00  0.00     0.004 C 
BRANCH   2   3
ATOM      3  C   UNL     1      -4.973   4.960  -4.812  1.00  0.00     0.027 C 
BRANCH   3   4
ATOM      4  C   UNL     1      -5.979   4.472  -3.808  1.00  0.00    -0.025 C 
ATOM      5  C   UNL     1      -5.931   3.230  -3.318  1.00  0.00     0.020 C 
BRANCH   5   6
ATOM      6  C   UNL     1      -6.905   2.742  -2.331  1.00  0.00     0.064 C 
ATOM      7  O   UNL     1      -6.883   3.196  -1.157  1.00  0.00    -0.545 OA
ATOM      8  O   UNL     1      -7.851   1.781  -2.673  1.00  0.00    -0.545 OA
ENDBRANCH   5   6
ENDBRANCH   3   4
ENDBRANCH   2   3
ENDBRANCH   1   2
BRANCH   1   9
ATOM      9  C   UNL     1      -4.317   4.891  -8.339  1.00  0.00     0.000 C 
BRANCH   9  10
ATOM     10  C   UNL     1      -4.619   6.139  -9.183  1.00  0.00     0.000 C 
BRANCH  10  11
ATOM     11  C   UNL     1      -4.762   7.409  -8.329  1.00  0.00    -0.000 C 
BRANCH  11  12
ATOM     12  C   UNL     1      -6.117   8.108  -8.533  1.00  0.00    -0.000 C 
BRANCH  12  13
ATOM     13  C   UNL     1      -6.909   8.248  -7.223  1.00  0.00    -0.003 C 
ATOM     14  C   UNL     1      -6.029   8.105  -5.983  1.00  0.00     0.004 C 
ENDBRANCH  12  13
ENDBRANCH  11  12
ENDBRANCH  10  11
ENDBRANCH   9  10
ENDBRANCH   1   9
TORSDOF 9
ENDMDL
MODEL 4
REMARK VINA RESULT:    -3.964      1.616      2.892
REMARK INTER + INTRA:          -7.410
REMARK INTER:                  -6.596
REMARK INTRA:                  -0.814
REMARK UNBOUND:                -1.360
REMARK SMILES CCCCCCCCCC=CC(=O)[O-]
REMARK SMILES IDX 7 1 8 2 9 3 10 4 11 5 12 6 13 7 14 8 6 9 5 10 4 11 3 12 2 13
REMARK SMILES IDX 1 14
REMARK H PARENT
REMARK Flexibility Score: inf
ROOT
ATOM      1  C   UNL     1      -4.346   5.859  -8.782  1.00  0.00     0.000 C 
ENDROOT
BRANCH   1   2
ATOM      2  C   UNL     1      -5.321   5.010  -7.951  1.00  0.00     0.004 C 
BRANCH   2   3
ATOM      3  C   UNL     1      -5.263   5.359  -6.457  1.00  0.00     0.027 C 
BRANCH   3   4
ATOM      4  C   UNL     1      -5.156   4.139  -5.586  1.00  0.00    -0.025 C 
ATOM      5  C   UNL     1      -5.714   4.096  -4.372  1.00  0.00     0.020 C 
BRANCH   5   6
ATOM      6  C   UNL     1      -5.622   2.907  -3.512  1.00  0.00     0.064 C 
ATOM      7  O   UNL     1      -5.914   2.997  -2.291  1.00  0.00    -0.545 OA
ATOM      8  O   UNL     1      -5.215   1.681  -4.027  1.00  0.00    -0.545 OA
ENDBRANCH   5   6
ENDBRANCH   3   4
ENDBRANCH   2   3
ENDBRANCH   1   2
BRANCH   1   9
ATOM      9  C   UNL     1      -4.441   7.339  -8.397  1.00  0.00     0.000 C 
BRANCH   9  10
ATOM     10  C   UNL     1      -5.590   8.029  -9.149  1.00  0.00     0.000 C 
BRANCH  10  11
ATOM     11  C   UNL     1      -5.160   8.562 -10.525  1.00  0.00    -0.000 C 
BRANCH  11  12
ATOM     12  C   UNL     1      -6.005   7.983 -11.673  1.00  0.00    -0.000 C 
BRANCH  12  13
ATOM     13  C   UNL     1      -6.990   6.906 -11.193  1.00  0.00    -0.003 C 
ATOM     14  C   UNL     1      -6.687   5.527 -11.777  1.00  0.00     0.004 C 
ENDBRANCH  12  13
ENDBRANCH  11  12
ENDBRANCH  10  11
ENDBRANCH   9  10
ENDBRANCH   1   9
TORSDOF 9
ENDMDL
MODEL 5
REMARK VINA RESULT:    -3.811      1.882      3.663
REMARK INTER + INTRA:          -7.176
REMARK INTER:                  -6.342
REMARK INTRA:                  -0.833
REMARK UNBOUND:                -1.360
REMARK SMILES CCCCCCCCCC=CC(=O)[O-]
REMARK SMILES IDX 7 1 8 2 9 3 10 4 11 5 12 6 13 7 14 8 6 9 5 10 4 11 3 12 2 13
REMARK SMILES IDX 1 14
REMARK H PARENT
REMARK Flexibility Score: inf
ROOT
ATOM      1  C   UNL     1      -5.961   5.519  -5.051  1.00  0.00     0.000 C 
ENDROOT
BRANCH   1   2
ATOM      2  C   UNL     1      -4.990   4.329  -5.067  1.00  0.00     0.004 C 
BRANCH   2   3
ATOM      3  C   UNL     1      -5.486   3.164  -4.199  1.00  0.00     0.027 C 
BRANCH   3   4
ATOM      4  C   UNL     1      -6.522   3.594  -3.199  1.00  0.00    -0.025 C 
ATOM      5  C   UNL     1      -6.437   3.246  -1.912  1.00  0.00     0.020 C 
BRANCH   5   6
ATOM      6  C   UNL     1      -7.440   3.666  -0.922  1.00  0.00     0.064 C 
ATOM      7  O   UNL     1      -8.001   2.801  -0.199  1.00  0.00    -0.545 OA
ATOM      8  O   UNL     1      -7.781   5.005  -0.772  1.00  0.00    -0.545 OA
ENDBRANCH   5   6
ENDBRANCH   3   4
ENDBRANCH   2   3
ENDBRANCH   1   2
BRANCH   1   9
ATOM      9  C   UNL     1      -5.201   6.849  -4.993  1.00  0.00     0.000 C 
BRANCH   9  10
ATOM     10  C   UNL     1      -5.912   7.925  -5.829  1.00  0.00     0.000 C 
BRANCH  10  11
ATOM     11  C   UNL     1      -6.036   7.534  -7.311  1.00  0.00    -0.000 C 
BRANCH  11  12
ATOM     12  C   UNL     1      -4.671   7.449  -8.016  1.00  0.00    -0.000 C 
BRANCH  12  13
ATOM     13  C   UNL     1      -4.655   6.404  -9.143  1.00  0.00    -0.003 C 
ATOM     14  C   UNL     1      -4.227   5.020  -8.658  1.00  0.00     0.004 C 
ENDBRANCH  12  13
ENDBRANCH  11  12
ENDBRANCH  10  11
ENDBRANCH   9  10
ENDBRANCH   1   9
TORSDOF 9
ENDMDL
MODEL 6
REMARK VINA RESULT:    -3.729      1.393      3.456
REMARK INTER + INTRA:          -7.050
REMARK INTER:                  -6.031
REMARK INTRA:                  -1.019
REMARK UNBOUND:                -1.360
REMARK SMILES CCCCCCCCCC=CC(=O)[O-]
REMARK SMILES IDX 7 1 8 2 9 3 10 4 11 5 12 6 13 7 14 8 6 9 5 10 4 11 3 12 2 13
REMARK SMILES IDX 1 14
REMARK H PARENT
REMARK Flexibility Score: inf
ROOT
ATOM      1  C   UNL     1      -7.489   6.937  -6.466  1.00  0.00     0.000 C 
ENDROOT
BRANCH   1   2
ATOM      2  C   UNL     1      -8.073   7.339  -5.102  1.00  0.00     0.004 C 
BRANCH   2   3
ATOM      3  C   UNL     1      -7.944   6.216  -4.063  1.00  0.00     0.027 C 
BRANCH   3   4
ATOM      4  C   UNL     1      -6.667   5.437  -4.215  1.00  0.00    -0.025 C 
ATOM      5  C   UNL     1      -6.616   4.125  -3.968  1.00  0.00     0.020 C 
BRANCH   5   6
ATOM      6  C   UNL     1      -5.375   3.350  -4.118  1.00  0.00     0.064 C 
ATOM      7  O   UNL     1      -5.283   2.213  -3.587  1.00  0.00    -0.545 OA
ATOM      8  O   UNL     1      -4.299   3.856  -4.839  1.00  0.00    -0.545 OA
ENDBRANCH   5   6
ENDBRANCH   3   4
ENDBRANCH   2   3
ENDBRANCH   1   2
BRANCH   1   9
ATOM      9  C   UNL     1      -6.523   8.007  -6.988  1.00  0.00     0.000 C 
BRANCH   9  10
ATOM     10  C   UNL     1      -5.104   7.437  -7.140  1.00  0.00     0.000 C 
BRANCH  10  11
ATOM     11  C   UNL     1      -5.103   5.930  -7.443  1.00  0.00    -0.000 C 
BRANCH  11  12
ATOM     12  C   UNL     1      -4.524   5.607  -8.831  1.00  0.00    -0.000 C 
BRANCH  12  13
ATOM     13  C   UNL     1      -5.185   6.428  -9.950  1.00  0.00    -0.003 C 
ATOM     14  C   UNL     1      -6.553   5.882 -10.353  1.00  0.00     0.004 C 
ENDBRANCH  12  13
ENDBRANCH  11  12
ENDBRANCH  10  11
ENDBRANCH   9  10
ENDBRANCH   1   9
TORSDOF 9
ENDMDL
MODEL 7
REMARK VINA RESULT:    -3.601      1.174      2.906
REMARK INTER + INTRA:          -6.856
REMARK INTER:                  -5.978
REMARK INTRA:                  -0.878
REMARK UNBOUND:                -1.360
REMARK SMILES CCCCCCCCCC=CC(=O)[O-]
REMARK SMILES IDX 7 1 8 2 9 3 10 4 11 5 12 6 13 7 14 8 6 9 5 10 4 11 3 12 2 13
REMARK SMILES IDX 1 14
REMARK H PARENT
REMARK Flexibility Score: inf
ROOT
ATOM      1  C   UNL     1      -5.578   7.915  -6.165  1.00  0.00     0.000 C 
ENDROOT
BRANCH   1   2
ATOM      2  C   UNL     1      -5.237   6.656  -5.354  1.00  0.00     0.004 C 
BRANCH   2   3
ATOM      3  C   UNL     1      -5.254   5.387  -6.220  1.00  0.00     0.027 C 
BRANCH   3   4
ATOM      4  C   UNL     1      -5.193   4.130  -5.398  1.00  0.00    -0.025 C 
ATOM      5  C   UNL     1      -5.797   4.043  -4.209  1.00  0.00     0.020 C 
BRANCH   5   6
ATOM      6  C   UNL     1      -5.752   2.818  -3.397  1.00  0.00     0.064 C 
ATOM      7  O   UNL     1      -5.145   1.805  -3.833  1.00  0.00    -0.545 OA
ATOM      8  O   UNL     1      -6.371   2.760  -2.154  1.00  0.00    -0.545 OA
ENDBRANCH   5   6
ENDBRANCH   3   4
ENDBRANCH   2   3
ENDBRANCH   1   2
BRANCH   1   9
ATOM      9  C   UNL     1      -7.081   8.216  -6.107  1.00  0.00     0.000 C 
BRANCH   9  10
ATOM     10  C   UNL     1      -7.585   8.752  -7.456  1.00  0.00     0.000 C 
BRANCH  10  11
ATOM     11  C   UNL     1      -7.167   7.864  -8.638  1.00  0.00    -0.000 C 
BRANCH  11  12
ATOM     12  C   UNL     1      -6.432   8.650  -9.737  1.00  0.00    -0.000 C 
BRANCH  12  13
ATOM     13  C   UNL     1      -5.268   7.856 -10.351  1.00  0.00    -0.003 C 
ATOM     14  C   UNL     1      -4.976   6.560  -9.597  1.00  0.00     0.004 C 
ENDBRANCH  12  13
ENDBRANCH  11  12
ENDBRANCH  10  11
ENDBRANCH   9  10
ENDBRANCH   1   9
TORSDOF 9
ENDMDL
MODEL 8
REMARK VINA RESULT:    -3.419      4.166      6.004
REMARK INTER + INTRA:          -6.578
REMARK INTER:                  -5.525
REMARK INTRA:                  -1.053
REMARK UNBOUND:                -1.360
REMARK SMILES CCCCCCCCCC=CC(=O)[O-]
REMARK SMILES IDX 7 1 8 2 9 3 10 4 11 5 12 6 13 7 14 8 6 9 5 10 4 11 3 12 2 13
REMARK SMILES IDX 1 14
REMARK H PARENT
REMARK Flexibility Score: inf
ROOT
ATOM      1  C   UNL     1      -5.691   7.608  -7.893  1.00  0.00     0.000 C 
ENDROOT
BRANCH   1   2
ATOM      2  C   UNL     1      -6.529   7.988  -9.123  1.00  0.00     0.004 C 
BRANCH   2   3
ATOM      3  C   UNL     1      -5.656   8.442 -10.302  1.00  0.00     0.027 C 
BRANCH   3   4
ATOM      4  C   UNL     1      -5.973   7.702 -11.571  1.00  0.00    -0.025 C 
ATOM      5  C   UNL     1      -6.549   6.497 -11.551  1.00  0.00     0.020 C 
BRANCH   5   6
ATOM      6  C   UNL     1      -6.871   5.764 -12.784  1.00  0.00     0.064 C 
ATOM      7  O   UNL     1      -6.406   6.162 -13.884  1.00  0.00    -0.545 OA
ATOM      8  O   UNL     1      -7.686   4.638 -12.756  1.00  0.00    -0.545 OA
ENDBRANCH   5   6
ENDBRANCH   3   4
ENDBRANCH   2   3
ENDBRANCH   1   2
BRANCH   1   9
ATOM      9  C   UNL     1      -4.360   6.971  -8.310  1.00  0.00     0.000 C 
BRANCH   9  10
ATOM     10  C   UNL     1      -4.502   5.447  -8.449  1.00  0.00     0.000 C 
BRANCH  10  11
ATOM     11  C   UNL     1      -5.459   4.845  -7.407  1.00  0.00    -0.000 C 
BRANCH  11  12
ATOM     12  C   UNL     1      -4.719   4.285  -6.180  1.00  0.00    -0.000 C 
BRANCH  12  13
ATOM     13  C   UNL     1      -5.382   4.696  -4.856  1.00  0.00    -0.003 C 
ATOM     14  C   UNL     1      -5.134   6.162  -4.502  1.00  0.00     0.004 C 
ENDBRANCH  12  13
ENDBRANCH  11  12
ENDBRANCH  10  11
ENDBRANCH   9  10
ENDBRANCH   1   9
TORSDOF 9
ENDMDL
MODEL 9
REMARK VINA RESULT:    -3.398     16.214     17.107
REMARK INTER + INTRA:          -6.545
REMARK INTER:                  -5.855
REMARK INTRA:                  -0.690
REMARK UNBOUND:                -1.360
REMARK SMILES CCCCCCCCCC=CC(=O)[O-]
REMARK SMILES IDX 7 1 8 2 9 3 10 4 11 5 12 6 13 7 14 8 6 9 5 10 4 11 3 12 2 13
REMARK SMILES IDX 1 14
REMARK H PARENT
REMARK Flexibility Score: inf
ROOT
ATOM      1  C   UNL     1      10.268   5.581  -6.521  1.00  0.00     0.000 C 
ENDROOT
BRANCH   1   2
ATOM      2  C   UNL     1      11.568   4.821  -6.827  1.00  0.00     0.004 C 
BRANCH   2   3
ATOM      3  C   UNL     1      11.896   4.814  -8.327  1.00  0.00     0.027 C 
BRANCH   3   4
ATOM      4  C   UNL     1      11.784   3.444  -8.933  1.00  0.00    -0.025 C 
ATOM      5  C   UNL     1      11.225   2.428  -8.268  1.00  0.00     0.020 C 
BRANCH   5   6
ATOM      6  C   UNL     1      11.103   1.084  -8.851  1.00  0.00     0.064 C 
ATOM      7  O   UNL     1      10.654   0.140  -8.151  1.00  0.00    -0.545 OA
ATOM      8  O   UNL     1      11.480   0.839 -10.167  1.00  0.00    -0.545 OA
ENDBRANCH   5   6
ENDBRANCH   3   4
ENDBRANCH   2   3
ENDBRANCH   1   2
BRANCH   1   9
ATOM      9  C   UNL     1      10.364   7.041  -6.980  1.00  0.00     0.000 C 
BRANCH   9  10
ATOM     10  C   UNL     1       9.944   7.998  -5.854  1.00  0.00     0.000 C 
BRANCH  10  11
ATOM     11  C   UNL     1      10.802   7.834  -4.589  1.00  0.00    -0.000 C 
BRANCH  11  12
ATOM     12  C   UNL     1       9.956   7.574  -3.331  1.00  0.00    -0.000 C 
BRANCH  12  13
ATOM     13  C   UNL     1      10.567   6.492  -2.426  1.00  0.00    -0.003 C 
ATOM     14  C   UNL     1       9.665   5.267  -2.280  1.00  0.00     0.004 C 
ENDBRANCH  12  13
ENDBRANCH  11  12
ENDBRANCH  10  11
ENDBRANCH   9  10
ENDBRANCH   1   9
TORSDOF 9
ENDMDL
