MODEL 1
REMARK VINA RESULT:    -4.142      0.000      0.000
REMARK INTER + INTRA:          -7.186
REMARK INTER:                  -6.563
REMARK INTRA:                  -0.623
REMARK UNBOUND:                -0.623
REMARK SMILES CCCCCCCCCCCC(=O)[O-]
REMARK SMILES IDX 7 1 8 2 9 3 10 4 11 5 12 6 13 7 14 8 6 9 5 10 4 11 3 12 2 13
REMARK SMILES IDX 1 14
REMARK H PARENT
REMARK Flexibility Score: inf
ROOT
ATOM      1  C   UNL     1      -1.612  -5.280   0.504  1.00  0.00     0.000 C 
ENDROOT
BRANCH   1   2
ATOM      2  C   UNL     1      -1.993  -4.730   1.895  1.00  0.00     0.000 C 
BRANCH   2   3
ATOM      3  C   UNL     1      -2.801  -5.719   2.749  1.00  0.00     0.000 C 
BRANCH   3   4
ATOM      4  C   UNL     1      -2.056  -6.157   4.022  1.00  0.00     0.006 C 
BRANCH   4   5
ATOM      5  C   UNL     1      -1.450  -7.560   3.885  1.00  0.00     0.053 C 
BRANCH   5   6
ATOM      6  C   UNL     1       0.013  -7.567   4.207  1.00  0.00     0.041 C 
ATOM      7  O   UNL     1       0.764  -6.657   3.768  1.00  0.00    -0.550 OA
ATOM      8  O   UNL     1       0.542  -8.565   5.015  1.00  0.00    -0.550 OA
ENDBRANCH   5   6
ENDBRANCH   4   5
ENDBRANCH   3   4
ENDBRANCH   2   3
ENDBRANCH   1   2
BRANCH   1   9
ATOM      9  C   UNL     1      -2.677  -4.962  -0.558  1.00  0.00     0.000 C 
BRANCH   9  10
ATOM     10  C   UNL     1      -2.214  -5.403  -1.951  1.00  0.00    -0.000 C 
BRANCH  10  11
ATOM     11  C   UNL     1      -3.109  -6.519  -2.502  1.00  0.00    -0.000 C 
BRANCH  11  12
ATOM     12  C   UNL     1      -4.452  -6.566  -1.758  1.00  0.00    -0.000 C 
BRANCH  12  13
ATOM     13  C   UNL     1      -5.655  -6.400  -2.699  1.00  0.00    -0.003 C 
ATOM     14  C   UNL     1      -5.383  -5.421  -3.840  1.00  0.00     0.004 C 
ENDBRANCH  12  13
ENDBRANCH  11  12
ENDBRANCH  10  11
ENDBRANCH   9  10
ENDBRANCH   1   9
TORSDOF 10
ENDMDL
MODEL 2
REMARK VINA RESULT:    -4.131      4.891      6.841
REMARK INTER + INTRA:          -7.169
REMARK INTER:                  -6.182
REMARK INTRA:                  -0.987
REMARK UNBOUND:                -0.623
REMARK SMILES CCCCCCCCCCCC(=O)[O-]
REMARK SMILES IDX 7 1 8 2 9 3 10 4 11 5 12 6 13 7 14 8 6 9 5 10 4 11 3 12 2 13
REMARK SMILES IDX 1 14
REMARK H PARENT
REMARK Flexibility Score: inf
ROOT
ATOM      1  C   UNL     1      -1.549  -6.406   6.513  1.00  0.00     0.000 C 
ENDROOT
BRANCH   1   2
ATOM      2  C   UNL     1      -2.389  -6.126   7.777  1.00  0.00     0.000 C 
BRANCH   2   3
ATOM      3  C   UNL     1      -3.465  -5.046   7.577  1.00  0.00     0.000 C 
BRANCH   3   4
ATOM      4  C   UNL     1      -3.278  -4.250   6.274  1.00  0.00     0.006 C 
BRANCH   4   5
ATOM      5  C   UNL     1      -4.616  -3.924   5.598  1.00  0.00     0.053 C 
BRANCH   5   6
ATOM      6  C   UNL     1      -5.385  -2.887   6.356  1.00  0.00     0.041 C 
ATOM      7  O   UNL     1      -6.498  -3.171   6.870  1.00  0.00    -0.550 OA
ATOM      8  O   UNL     1      -4.858  -1.611   6.519  1.00  0.00    -0.550 OA
ENDBRANCH   5   6
ENDBRANCH   4   5
ENDBRANCH   3   4
ENDBRANCH   2   3
ENDBRANCH   1   2
BRANCH   1   9
ATOM      9  C   UNL     1      -0.850  -7.773   6.570  1.00  0.00     0.000 C 
BRANCH   9  10
ATOM     10  C   UNL     1      -0.268  -8.152   5.204  1.00  0.00    -0.000 C 
BRANCH  10  11
ATOM     11  C   UNL     1      -1.228  -7.770   4.071  1.00  0.00    -0.000 C 
BRANCH  11  12
ATOM     12  C   UNL     1      -0.537  -6.854   3.050  1.00  0.00    -0.000 C 
BRANCH  12  13
ATOM     13  C   UNL     1      -1.418  -5.666   2.632  1.00  0.00    -0.003 C 
ATOM     14  C   UNL     1      -2.900  -5.895   2.928  1.00  0.00     0.004 C 
ENDBRANCH  12  13
ENDBRANCH  11  12
ENDBRANCH  10  11
ENDBRANCH   9  10
ENDBRANCH   1   9
TORSDOF 10
ENDMDL
MODEL 3
REMARK VINA RESULT:    -4.105      4.340      7.076
REMARK INTER + INTRA:          -7.129
REMARK INTER:                  -6.216
REMARK INTRA:                  -0.913
REMARK UNBOUND:                -0.623
REMARK SMILES CCCCCCCCCCCC(=O)[O-]
REMARK SMILES IDX 7 1 8 2 9 3 10 4 11 5 12 6 13 7 14 8 6 9 5 10 4 11 3 12 2 13
REMARK SMILES IDX 1 14
REMARK H PARENT
REMARK Flexibility Score: inf
ROOT
ATOM      1  C   UNL     1      -1.513  -4.752  -1.347  1.00  0.00     0.000 C 
ENDROOT
BRANCH   1   2
ATOM      2  C   UNL     1      -2.508  -5.134  -2.463  1.00  0.00     0.000 C 
BRANCH   2   3
ATOM      3  C   UNL     1      -3.041  -6.572  -2.349  1.00  0.00     0.000 C 
BRANCH   3   4
ATOM      4  C   UNL     1      -4.514  -6.632  -1.910  1.00  0.00     0.006 C 
BRANCH   4   5
ATOM      5  C   UNL     1      -5.293  -5.378  -2.326  1.00  0.00     0.053 C 
BRANCH   5   6
ATOM      6  C   UNL     1      -6.031  -5.583  -3.614  1.00  0.00     0.041 C 
ATOM      7  O   UNL     1      -7.224  -5.983  -3.605  1.00  0.00    -0.550 OA
ATOM      8  O   UNL     1      -5.407  -5.305  -4.824  1.00  0.00    -0.550 OA
ENDBRANCH   5   6
ENDBRANCH   4   5
ENDBRANCH   3   4
ENDBRANCH   2   3
ENDBRANCH   1   2
BRANCH   1   9
ATOM      9  C   UNL     1      -2.072  -3.663  -0.418  1.00  0.00     0.000 C 
BRANCH   9  10
ATOM     10  C   UNL     1      -2.923  -4.276   0.700  1.00  0.00    -0.000 C 
BRANCH  10  11
ATOM     11  C   UNL     1      -2.134  -5.342   1.471  1.00  0.00    -0.000 C 
BRANCH  11  12
ATOM     12  C   UNL     1      -2.914  -5.817   2.706  1.00  0.00    -0.000 C 
BRANCH  12  13
ATOM     13  C   UNL     1      -1.998  -6.139   3.896  1.00  0.00    -0.003 C 
ATOM     14  C   UNL     1      -1.542  -7.597   3.915  1.00  0.00     0.004 C 
ENDBRANCH  12  13
ENDBRANCH  11  12
ENDBRANCH  10  11
ENDBRANCH   9  10
ENDBRANCH   1   9
TORSDOF 10
ENDMDL
MODEL 4
REMARK VINA RESULT:    -4.093     12.483     14.349
REMARK INTER + INTRA:          -7.109
REMARK INTER:                  -5.959
REMARK INTRA:                  -1.150
REMARK UNBOUND:                -0.623
REMARK SMILES CCCCCCCCCCCC(=O)[O-]
REMARK SMILES IDX 7 1 8 2 9 3 10 4 11 5 12 6 13 7 14 8 6 9 5 10 4 11 3 12 2 13
REMARK SMILES IDX 1 14
REMARK H PARENT
REMARK Flexibility Score: inf
ROOT
ATOM      1  C   UNL     1       1.472   4.927  -2.406  1.00  0.00     0.000 C 
ENDROOT
BRANCH   1   2
ATOM      2  C   UNL     1       2.898   5.331  -2.838  1.00  0.00     0.000 C 
BRANCH   2   3
ATOM      3  C   UNL     1       3.362   6.675  -2.254  1.00  0.00     0.000 C 
BRANCH   3   4
ATOM      4  C   UNL     1       4.885   6.745  -2.050  1.00  0.00     0.006 C 
BRANCH   4   5
ATOM      5  C   UNL     1       5.542   5.360  -2.111  1.00  0.00     0.053 C 
BRANCH   5   6
ATOM      6  C   UNL     1       6.966   5.440  -2.570  1.00  0.00     0.041 C 
ATOM      7  O   UNL     1       7.889   4.963  -1.860  1.00  0.00    -0.550 OA
ATOM      8  O   UNL     1       7.270   6.017  -3.797  1.00  0.00    -0.550 OA
ENDBRANCH   5   6
ENDBRANCH   4   5
ENDBRANCH   3   4
ENDBRANCH   2   3
ENDBRANCH   1   2
BRANCH   1   9
ATOM      9  C   UNL     1       1.334   4.830  -0.878  1.00  0.00     0.000 C 
BRANCH   9  10
ATOM     10  C   UNL     1       2.051   3.588  -0.338  1.00  0.00    -0.000 C 
BRANCH  10  11
ATOM     11  C   UNL     1       3.145   3.975   0.664  1.00  0.00    -0.000 C 
BRANCH  11  12
ATOM     12  C   UNL     1       2.877   5.363   1.263  1.00  0.00    -0.000 C 
BRANCH  12  13
ATOM     13  C   UNL     1       2.986   5.375   2.796  1.00  0.00    -0.003 C 
ATOM     14  C   UNL     1       2.266   6.565   3.431  1.00  0.00     0.004 C 
ENDBRANCH  12  13
ENDBRANCH  11  12
ENDBRANCH  10  11
ENDBRANCH   9  10
ENDBRANCH   1   9
TORSDOF 10
ENDMDL
MODEL 5
REMARK VINA RESULT:    -4.088     13.094     14.960
REMARK INTER + INTRA:          -7.101
REMARK INTER:                  -6.552
REMARK INTRA:                  -0.548
REMARK UNBOUND:                -0.623
REMARK SMILES CCCCCCCCCCCC(=O)[O-]
REMARK SMILES IDX 7 1 8 2 9 3 10 4 11 5 12 6 13 7 14 8 6 9 5 10 4 11 3 12 2 13
REMARK SMILES IDX 1 14
REMARK H PARENT
REMARK Flexibility Score: inf
ROOT
ATOM      1  C   UNL     1       3.354   5.199   0.009  1.00  0.00     0.000 C 
ENDROOT
BRANCH   1   2
ATOM      2  C   UNL     1       2.424   5.584  -1.161  1.00  0.00     0.000 C 
BRANCH   2   3
ATOM      3  C   UNL     1       3.120   6.409  -2.256  1.00  0.00     0.000 C 
BRANCH   3   4
ATOM      4  C   UNL     1       4.395   5.738  -2.792  1.00  0.00     0.006 C 
BRANCH   4   5
ATOM      5  C   UNL     1       5.636   6.620  -2.606  1.00  0.00     0.053 C 
BRANCH   5   6
ATOM      6  C   UNL     1       6.902   5.860  -2.857  1.00  0.00     0.041 C 
ATOM      7  O   UNL     1       7.336   5.048  -1.999  1.00  0.00    -0.550 OA
ATOM      8  O   UNL     1       7.589   6.029  -4.053  1.00  0.00    -0.550 OA
ENDBRANCH   5   6
ENDBRANCH   4   5
ENDBRANCH   3   4
ENDBRANCH   2   3
ENDBRANCH   1   2
BRANCH   1   9
ATOM      9  C   UNL     1       2.612   5.162   1.354  1.00  0.00     0.000 C 
BRANCH   9  10
ATOM     10  C   UNL     1       1.121   5.465   1.168  1.00  0.00    -0.000 C 
BRANCH  10  11
ATOM     11  C   UNL     1       0.515   6.057   2.447  1.00  0.00    -0.000 C 
BRANCH  11  12
ATOM     12  C   UNL     1       1.614   6.470   3.436  1.00  0.00    -0.000 C 
BRANCH  12  13
ATOM     13  C   UNL     1       1.483   7.934   3.886  1.00  0.00    -0.003 C 
ATOM     14  C   UNL     1       0.414   8.129   4.960  1.00  0.00     0.004 C 
ENDBRANCH  12  13
ENDBRANCH  11  12
ENDBRANCH  10  11
ENDBRANCH   9  10
ENDBRANCH   1   9
TORSDOF 10
ENDMDL
MODEL 6
REMARK VINA RESULT:    -4.082      3.975      6.992
REMARK INTER + INTRA:          -7.092
REMARK INTER:                  -6.394
REMARK INTRA:                  -0.697
REMARK UNBOUND:                -0.623
REMARK SMILES CCCCCCCCCCCC(=O)[O-]
REMARK SMILES IDX 7 1 8 2 9 3 10 4 11 5 12 6 13 7 14 8 6 9 5 10 4 11 3 12 2 13
REMARK SMILES IDX 1 14
REMARK H PARENT
REMARK Flexibility Score: inf
ROOT
ATOM      1  C   UNL     1      -2.715  -3.774   1.103  1.00  0.00     0.000 C 
ENDROOT
BRANCH   1   2
ATOM      2  C   UNL     1      -3.385  -4.359  -0.158  1.00  0.00     0.000 C 
BRANCH   2   3
ATOM      3  C   UNL     1      -2.439  -5.210  -1.021  1.00  0.00     0.000 C 
BRANCH   3   4
ATOM      4  C   UNL     1      -3.176  -6.007  -2.111  1.00  0.00     0.006 C 
BRANCH   4   5
ATOM      5  C   UNL     1      -4.578  -6.439  -1.664  1.00  0.00     0.053 C 
BRANCH   5   6
ATOM      6  C   UNL     1      -5.528  -6.526  -2.819  1.00  0.00     0.041 C 
ATOM      7  O   UNL     1      -6.546  -7.264  -2.749  1.00  0.00    -0.550 OA
ATOM      8  O   UNL     1      -5.303  -5.770  -3.962  1.00  0.00    -0.550 OA
ENDBRANCH   5   6
ENDBRANCH   4   5
ENDBRANCH   3   4
ENDBRANCH   2   3
ENDBRANCH   1   2
BRANCH   1   9
ATOM      9  C   UNL     1      -3.264  -4.399   2.395  1.00  0.00     0.000 C 
BRANCH   9  10
ATOM     10  C   UNL     1      -2.548  -5.715   2.718  1.00  0.00    -0.000 C 
BRANCH  10  11
ATOM     11  C   UNL     1      -1.048  -5.616   2.411  1.00  0.00    -0.000 C 
BRANCH  11  12
ATOM     12  C   UNL     1      -0.292  -6.832   2.966  1.00  0.00    -0.000 C 
BRANCH  12  13
ATOM     13  C   UNL     1      -1.147  -7.669   3.931  1.00  0.00    -0.003 C 
ATOM     14  C   UNL     1      -0.320  -8.329   5.034  1.00  0.00     0.004 C 
ENDBRANCH  12  13
ENDBRANCH  11  12
ENDBRANCH  10  11
ENDBRANCH   9  10
ENDBRANCH   1   9
TORSDOF 10
ENDMDL
MODEL 7
REMARK VINA RESULT:    -4.075     13.150     14.599
REMARK INTER + INTRA:          -7.080
REMARK INTER:                  -5.971
REMARK INTRA:                  -1.109
REMARK UNBOUND:                -0.623
REMARK SMILES CCCCCCCCCCCC(=O)[O-]
REMARK SMILES IDX 7 1 8 2 9 3 10 4 11 5 12 6 13 7 14 8 6 9 5 10 4 11 3 12 2 13
REMARK SMILES IDX 1 14
REMARK H PARENT
REMARK Flexibility Score: inf
ROOT
ATOM      1  C   UNL     1       1.338   6.754   3.230  1.00  0.00     0.000 C 
ENDROOT
BRANCH   1   2
ATOM      2  C   UNL     1       2.633   5.913   3.207  1.00  0.00     0.000 C 
BRANCH   2   3
ATOM      3  C   UNL     1       2.752   4.932   4.385  1.00  0.00     0.000 C 
BRANCH   3   4
ATOM      4  C   UNL     1       4.211   4.616   4.755  1.00  0.00     0.006 C 
BRANCH   4   5
ATOM      5  C   UNL     1       4.315   3.779   6.036  1.00  0.00     0.053 C 
BRANCH   5   6
ATOM      6  C   UNL     1       5.712   3.759   6.576  1.00  0.00     0.041 C 
ATOM      7  O   UNL     1       6.587   3.025   6.046  1.00  0.00    -0.550 OA
ATOM      8  O   UNL     1       6.055   4.573   7.649  1.00  0.00    -0.550 OA
ENDBRANCH   5   6
ENDBRANCH   4   5
ENDBRANCH   3   4
ENDBRANCH   2   3
ENDBRANCH   1   2
BRANCH   1   9
ATOM      9  C   UNL     1       1.379   7.853   4.303  1.00  0.00     0.000 C 
BRANCH   9  10
ATOM     10  C   UNL     1       0.021   7.994   5.000  1.00  0.00    -0.000 C 
BRANCH  10  11
ATOM     11  C   UNL     1       0.158   7.812   6.517  1.00  0.00    -0.000 C 
BRANCH  11  12
ATOM     12  C   UNL     1       1.586   7.395   6.894  1.00  0.00    -0.000 C 
BRANCH  12  13
ATOM     13  C   UNL     1       1.628   6.071   7.673  1.00  0.00    -0.003 C 
ATOM     14  C   UNL     1       2.863   5.948   8.565  1.00  0.00     0.004 C 
ENDBRANCH  12  13
ENDBRANCH  11  12
ENDBRANCH  10  11
ENDBRANCH   9  10
ENDBRANCH   1   9
TORSDOF 10
ENDMDL
MODEL 8
REMARK VINA RESULT:    -4.061      3.899      4.670
REMARK INTER + INTRA:          -7.059
REMARK INTER:                  -6.512
REMARK INTRA:                  -0.546
REMARK UNBOUND:                -0.623
REMARK SMILES CCCCCCCCCCCC(=O)[O-]
REMARK SMILES IDX 7 1 8 2 9 3 10 4 11 5 12 6 13 7 14 8 6 9 5 10 4 11 3 12 2 13
REMARK SMILES IDX 1 14
REMARK H PARENT
REMARK Flexibility Score: inf
ROOT
ATOM      1  C   UNL     1      -2.722  -5.851   2.846  1.00  0.00     0.000 C 
ENDROOT
BRANCH   1   2
ATOM      2  C   UNL     1      -3.203  -5.206   4.164  1.00  0.00     0.000 C 
BRANCH   2   3
ATOM      3  C   UNL     1      -2.896  -3.703   4.263  1.00  0.00     0.000 C 
BRANCH   3   4
ATOM      4  C   UNL     1      -4.133  -2.862   4.622  1.00  0.00     0.006 C 
BRANCH   4   5
ATOM      5  C   UNL     1      -5.325  -3.734   5.037  1.00  0.00     0.053 C 
BRANCH   5   6
ATOM      6  C   UNL     1      -5.920  -3.282   6.336  1.00  0.00     0.041 C 
ATOM      7  O   UNL     1      -6.347  -2.105   6.463  1.00  0.00    -0.550 OA
ATOM      8  O   UNL     1      -6.028  -4.171   7.398  1.00  0.00    -0.550 OA
ENDBRANCH   5   6
ENDBRANCH   4   5
ENDBRANCH   3   4
ENDBRANCH   2   3
ENDBRANCH   1   2
BRANCH   1   9
ATOM      9  C   UNL     1      -2.194  -4.808   1.848  1.00  0.00     0.000 C 
BRANCH   9  10
ATOM     10  C   UNL     1      -2.941  -4.896   0.513  1.00  0.00    -0.000 C 
BRANCH  10  11
ATOM     11  C   UNL     1      -1.997  -5.319  -0.620  1.00  0.00    -0.000 C 
BRANCH  11  12
ATOM     12  C   UNL     1      -2.687  -5.194  -1.986  1.00  0.00    -0.000 C 
BRANCH  12  13
ATOM     13  C   UNL     1      -3.344  -6.507  -2.438  1.00  0.00    -0.003 C 
ATOM     14  C   UNL     1      -4.856  -6.518  -2.222  1.00  0.00     0.004 C 
ENDBRANCH  12  13
ENDBRANCH  11  12
ENDBRANCH  10  11
ENDBRANCH   9  10
ENDBRANCH   1   9
TORSDOF 10
ENDMDL
MODEL 9
REMARK VINA RESULT:    -4.041     13.047     14.304
REMARK INTER + INTRA:          -7.027
REMARK INTER:                  -6.315
REMARK INTRA:                  -0.711
REMARK UNBOUND:                -0.623
REMARK SMILES CCCCCCCCCCCC(=O)[O-]
REMARK SMILES IDX 7 1 8 2 9 3 10 4 11 5 12 6 13 7 14 8 6 9 5 10 4 11 3 12 2 13
REMARK SMILES IDX 1 14
REMARK H PARENT
REMARK Flexibility Score: inf
ROOT
ATOM      1  C   UNL     1       1.483   6.572   3.399  1.00  0.00     0.000 C 
ENDROOT
BRANCH   1   2
ATOM      2  C   UNL     1       2.976   6.201   3.274  1.00  0.00     0.000 C 
BRANCH   2   3
ATOM      3  C   UNL     1       3.298   4.772   3.740  1.00  0.00     0.000 C 
BRANCH   3   4
ATOM      4  C   UNL     1       3.753   4.709   5.208  1.00  0.00     0.006 C 
BRANCH   4   5
ATOM      5  C   UNL     1       4.585   3.454   5.502  1.00  0.00     0.053 C 
BRANCH   5   6
ATOM      6  C   UNL     1       5.583   3.691   6.594  1.00  0.00     0.041 C 
ATOM      7  O   UNL     1       5.335   4.515   7.512  1.00  0.00    -0.550 OA
ATOM      8  O   UNL     1       6.777   2.981   6.610  1.00  0.00    -0.550 OA
ENDBRANCH   5   6
ENDBRANCH   4   5
ENDBRANCH   3   4
ENDBRANCH   2   3
ENDBRANCH   1   2
BRANCH   1   9
ATOM      9  C   UNL     1       1.268   7.840   4.239  1.00  0.00     0.000 C 
BRANCH   9  10
ATOM     10  C   UNL     1       1.163   7.502   5.730  1.00  0.00    -0.000 C 
BRANCH  10  11
ATOM     11  C   UNL     1       0.076   8.343   6.411  1.00  0.00    -0.000 C 
BRANCH  11  12
ATOM     12  C   UNL     1      -0.877   8.954   5.374  1.00  0.00    -0.000 C 
BRANCH  12  13
ATOM     13  C   UNL     1      -2.327   8.477   5.550  1.00  0.00    -0.003 C 
ATOM     14  C   UNL     1      -2.493   6.980   5.287  1.00  0.00     0.004 C 
ENDBRANCH  12  13
ENDBRANCH  11  12
ENDBRANCH  10  11
ENDBRANCH   9  10
ENDBRANCH   1   9
TORSDOF 10
ENDMDL
