MODEL 1
REMARK VINA RESULT:    -3.077      0.000      0.000
REMARK INTER + INTRA:          -4.369
REMARK INTER:                  -3.976
REMARK INTRA:                  -0.393
REMARK UNBOUND:                -0.393
REMARK SMILES CCCCCCC(=O)[O-]
REMARK SMILES IDX 5 1 6 2 7 3 8 4 9 5 4 6 3 7 2 8 1 9
REMARK H PARENT
REMARK Flexibility Score: inf
ROOT
ATOM      1  C   UNL     1      10.449  20.966  16.087  1.00  0.00     0.006 C 
ENDROOT
BRANCH   1   2
ATOM      2  C   UNL     1       9.521  19.996  16.837  1.00  0.00     0.053 C 
BRANCH   2   3
ATOM      3  C   UNL     1      10.174  19.431  18.061  1.00  0.00     0.041 C 
ATOM      4  O   UNL     1      10.405  18.196  18.143  1.00  0.00    -0.550 OA
ATOM      5  O   UNL     1      10.499  20.264  19.123  1.00  0.00    -0.550 OA
ENDBRANCH   2   3
ENDBRANCH   1   2
BRANCH   1   6
ATOM      6  C   UNL     1      11.880  20.438  15.875  1.00  0.00     0.000 C 
BRANCH   6   7
ATOM      7  C   UNL     1      12.954  21.494  16.178  1.00  0.00    -0.000 C 
BRANCH   7   8
ATOM      8  C   UNL     1      12.346  22.702  16.899  1.00  0.00    -0.003 C 
ATOM      9  C   UNL     1      12.903  22.838  18.313  1.00  0.00     0.004 C 
ENDBRANCH   7   8
ENDBRANCH   6   7
ENDBRANCH   1   6
TORSDOF 5
ENDMDL
MODEL 2
REMARK VINA RESULT:    -3.049      1.190      1.730
REMARK INTER + INTRA:          -4.334
REMARK INTER:                  -3.949
REMARK INTRA:                  -0.385
REMARK UNBOUND:                -0.393
REMARK SMILES CCCCCCC(=O)[O-]
REMARK SMILES IDX 5 1 6 2 7 3 8 4 9 5 4 6 3 7 2 8 1 9
REMARK H PARENT
REMARK Flexibility Score: inf
ROOT
ATOM      1  C   UNL     1      11.923  20.497  15.875  1.00  0.00     0.006 C 
ENDROOT
BRANCH   1   2
ATOM      2  C   UNL     1      10.467  20.945  16.084  1.00  0.00     0.053 C 
BRANCH   2   3
ATOM      3  C   UNL     1       9.736  20.048  17.035  1.00  0.00     0.041 C 
ATOM      4  O   UNL     1      10.375  19.253  17.774  1.00  0.00    -0.550 OA
ATOM      5  O   UNL     1       8.349  20.067  17.083  1.00  0.00    -0.550 OA
ENDBRANCH   2   3
ENDBRANCH   1   2
BRANCH   1   6
ATOM      6  C   UNL     1      12.973  21.555  16.261  1.00  0.00     0.000 C 
BRANCH   6   7
ATOM      7  C   UNL     1      12.365  22.752  17.008  1.00  0.00    -0.000 C 
BRANCH   7   8
ATOM      8  C   UNL     1      12.924  22.851  18.432  1.00  0.00    -0.003 C 
ATOM      9  C   UNL     1      12.064  22.068  19.418  1.00  0.00     0.004 C 
ENDBRANCH   7   8
ENDBRANCH   6   7
ENDBRANCH   1   6
TORSDOF 5
ENDMDL
MODEL 3
REMARK VINA RESULT:    -2.988      1.319      2.397
REMARK INTER + INTRA:          -4.255
REMARK INTER:                  -3.914
REMARK INTRA:                  -0.341
REMARK UNBOUND:                -0.393
REMARK SMILES CCCCCCC(=O)[O-]
REMARK SMILES IDX 5 1 6 2 7 3 8 4 9 5 4 6 3 7 2 8 1 9
REMARK H PARENT
REMARK Flexibility Score: inf
ROOT
ATOM      1  C   UNL     1      11.028  21.829  19.104  1.00  0.00     0.006 C 
ENDROOT
BRANCH   1   2
ATOM      2  C   UNL     1      10.792  20.398  19.614  1.00  0.00     0.053 C 
BRANCH   2   3
ATOM      3  C   UNL     1      10.275  19.498  18.535  1.00  0.00     0.041 C 
ATOM      4  O   UNL     1      10.357  18.247  18.659  1.00  0.00    -0.550 OA
ATOM      5  O   UNL     1       9.730  20.040  17.378  1.00  0.00    -0.550 OA
ENDBRANCH   2   3
ENDBRANCH   1   2
BRANCH   1   6
ATOM      6  C   UNL     1      12.489  22.304  19.202  1.00  0.00     0.000 C 
BRANCH   6   7
ATOM      7  C   UNL     1      12.995  22.943  17.900  1.00  0.00    -0.000 C 
BRANCH   7   8
ATOM      8  C   UNL     1      12.216  22.413  16.691  1.00  0.00    -0.003 C 
ATOM      9  C   UNL     1      12.927  21.224  16.054  1.00  0.00     0.004 C 
ENDBRANCH   7   8
ENDBRANCH   6   7
ENDBRANCH   1   6
TORSDOF 5
ENDMDL
MODEL 4
REMARK VINA RESULT:    -2.921     11.496     12.660
REMARK INTER + INTRA:          -4.168
REMARK INTER:                  -3.962
REMARK INTRA:                  -0.206
REMARK UNBOUND:                -0.393
REMARK SMILES CCCCCCC(=O)[O-]
REMARK SMILES IDX 5 1 6 2 7 3 8 4 9 5 4 6 3 7 2 8 1 9
REMARK H PARENT
REMARK Flexibility Score: inf
ROOT
ATOM      1  C   UNL     1      10.073  21.721  27.915  1.00  0.00     0.006 C 
ENDROOT
BRANCH   1   2
ATOM      2  C   UNL     1      11.156  22.744  28.294  1.00  0.00     0.053 C 
BRANCH   2   3
ATOM      3  C   UNL     1      11.731  22.474  29.650  1.00  0.00     0.041 C 
ATOM      4  O   UNL     1      11.002  22.013  30.568  1.00  0.00    -0.550 OA
ATOM      5  O   UNL     1      13.066  22.758  29.910  1.00  0.00    -0.550 OA
ENDBRANCH   2   3
ENDBRANCH   1   2
BRANCH   1   6
ATOM      6  C   UNL     1       8.659  22.316  27.781  1.00  0.00     0.000 C 
BRANCH   6   7
ATOM      7  C   UNL     1       7.565  21.374  28.308  1.00  0.00    -0.000 C 
BRANCH   7   8
ATOM      8  C   UNL     1       7.795  21.040  29.786  1.00  0.00    -0.003 C 
ATOM      9  C   UNL     1       6.473  20.910  30.535  1.00  0.00     0.004 C 
ENDBRANCH   7   8
ENDBRANCH   6   7
ENDBRANCH   1   6
TORSDOF 5
ENDMDL
MODEL 5
REMARK VINA RESULT:    -2.878     22.524     23.821
REMARK INTER + INTRA:          -4.112
REMARK INTER:                  -3.738
REMARK INTRA:                  -0.373
REMARK UNBOUND:                -0.393
REMARK SMILES CCCCCCC(=O)[O-]
REMARK SMILES IDX 5 1 6 2 7 3 8 4 9 5 4 6 3 7 2 8 1 9
REMARK H PARENT
REMARK Flexibility Score: inf
ROOT
ATOM      1  C   UNL     1      11.585   5.051  36.125  1.00  0.00     0.006 C 
ENDROOT
BRANCH   1   2
ATOM      2  C   UNL     1      10.140   4.722  35.713  1.00  0.00     0.053 C 
BRANCH   2   3
ATOM      3  C   UNL     1       9.547   5.793  34.850  1.00  0.00     0.041 C 
ATOM      4  O   UNL     1       8.300   5.856  34.684  1.00  0.00    -0.550 OA
ATOM      5  O   UNL     1      10.374   6.703  34.203  1.00  0.00    -0.550 OA
ENDBRANCH   2   3
ENDBRANCH   1   2
BRANCH   1   6
ATOM      6  C   UNL     1      12.625   4.010  35.672  1.00  0.00     0.000 C 
BRANCH   6   7
ATOM      7  C   UNL     1      12.052   2.991  34.675  1.00  0.00    -0.000 C 
BRANCH   7   8
ATOM      8  C   UNL     1      12.629   3.213  33.272  1.00  0.00    -0.003 C 
ATOM      9  C   UNL     1      11.653   3.986  32.390  1.00  0.00     0.004 C 
ENDBRANCH   7   8
ENDBRANCH   6   7
ENDBRANCH   1   6
TORSDOF 5
ENDMDL
MODEL 6
REMARK VINA RESULT:    -2.878     11.834     13.073
REMARK INTER + INTRA:          -4.112
REMARK INTER:                  -3.877
REMARK INTRA:                  -0.235
REMARK UNBOUND:                -0.393
REMARK SMILES CCCCCCC(=O)[O-]
REMARK SMILES IDX 5 1 6 2 7 3 8 4 9 5 4 6 3 7 2 8 1 9
REMARK H PARENT
REMARK Flexibility Score: inf
ROOT
ATOM      1  C   UNL     1      10.453  21.031  30.399  1.00  0.00     0.006 C 
ENDROOT
BRANCH   1   2
ATOM      2  C   UNL     1      10.930  22.484  30.238  1.00  0.00     0.053 C 
BRANCH   2   3
ATOM      3  C   UNL     1      11.907  22.630  29.112  1.00  0.00     0.041 C 
ATOM      4  O   UNL     1      13.130  22.811  29.353  1.00  0.00    -0.550 OA
ATOM      5  O   UNL     1      11.462  22.598  27.797  1.00  0.00    -0.550 OA
ENDBRANCH   2   3
ENDBRANCH   1   2
BRANCH   1   6
ATOM      6  C   UNL     1       8.928  20.850  30.285  1.00  0.00     0.000 C 
BRANCH   6   7
ATOM      7  C   UNL     1       8.356  21.428  28.982  1.00  0.00    -0.000 C 
BRANCH   7   8
ATOM      8  C   UNL     1       6.829  21.552  29.062  1.00  0.00    -0.003 C 
ATOM      9  C   UNL     1       6.300  21.008  30.385  1.00  0.00     0.004 C 
ENDBRANCH   7   8
ENDBRANCH   6   7
ENDBRANCH   1   6
TORSDOF 5
ENDMDL
MODEL 7
REMARK VINA RESULT:    -2.839     21.306     22.978
REMARK INTER + INTRA:          -4.062
REMARK INTER:                  -3.818
REMARK INTRA:                  -0.244
REMARK UNBOUND:                -0.393
REMARK SMILES CCCCCCC(=O)[O-]
REMARK SMILES IDX 5 1 6 2 7 3 8 4 9 5 4 6 3 7 2 8 1 9
REMARK H PARENT
REMARK Flexibility Score: inf
ROOT
ATOM      1  C   UNL     1      10.906   4.044  32.527  1.00  0.00     0.006 C 
ENDROOT
BRANCH   1   2
ATOM      2  C   UNL     1      10.751   5.514  32.105  1.00  0.00     0.053 C 
BRANCH   2   3
ATOM      3  C   UNL     1       9.975   6.306  33.111  1.00  0.00     0.041 C 
ATOM      4  O   UNL     1      10.440   7.386  33.563  1.00  0.00    -0.550 OA
ATOM      5  O   UNL     1       8.752   5.837  33.574  1.00  0.00    -0.550 OA
ENDBRANCH   2   3
ENDBRANCH   1   2
BRANCH   1   6
ATOM      6  C   UNL     1      12.366   3.566  32.634  1.00  0.00     0.000 C 
BRANCH   6   7
ATOM      7  C   UNL     1      12.706   2.999  34.021  1.00  0.00    -0.000 C 
BRANCH   7   8
ATOM      8  C   UNL     1      11.872   3.682  35.111  1.00  0.00    -0.003 C 
ATOM      9  C   UNL     1      12.764   4.395  36.123  1.00  0.00     0.004 C 
ENDBRANCH   7   8
ENDBRANCH   6   7
ENDBRANCH   1   6
TORSDOF 5
ENDMDL
MODEL 8
REMARK VINA RESULT:    -2.832     10.123     12.263
REMARK INTER + INTRA:          -4.052
REMARK INTER:                  -3.852
REMARK INTRA:                  -0.200
REMARK UNBOUND:                -0.393
REMARK SMILES CCCCCCC(=O)[O-]
REMARK SMILES IDX 5 1 6 2 7 3 8 4 9 5 4 6 3 7 2 8 1 9
REMARK H PARENT
REMARK Flexibility Score: inf
ROOT
ATOM      1  C   UNL     1       2.040  14.470  16.553  1.00  0.00     0.006 C 
ENDROOT
BRANCH   1   2
ATOM      2  C   UNL     1       3.121  15.174  17.390  1.00  0.00     0.053 C 
BRANCH   2   3
ATOM      3  C   UNL     1       2.533  16.173  18.337  1.00  0.00     0.041 C 
ATOM      4  O   UNL     1       2.929  17.369  18.324  1.00  0.00    -0.550 OA
ATOM      5  O   UNL     1       1.570  15.778  19.257  1.00  0.00    -0.550 OA
ENDBRANCH   2   3
ENDBRANCH   1   2
BRANCH   1   6
ATOM      6  C   UNL     1       1.921  12.957  16.815  1.00  0.00     0.000 C 
BRANCH   6   7
ATOM      7  C   UNL     1       0.643  12.349  16.218  1.00  0.00    -0.000 C 
BRANCH   7   8
ATOM      8  C   UNL     1      -0.119  11.536  17.270  1.00  0.00    -0.003 C 
ATOM      9  C   UNL     1       0.162  12.052  18.677  1.00  0.00     0.004 C 
ENDBRANCH   7   8
ENDBRANCH   6   7
ENDBRANCH   1   6
TORSDOF 5
ENDMDL
