MODEL 1
REMARK VINA RESULT:    -3.489      0.000      0.000
REMARK INTER + INTRA:          -5.776
REMARK INTER:                  -5.325
REMARK INTRA:                  -0.451
REMARK UNBOUND:                -0.451
REMARK SMILES CC1=CCC[C@H](C)C(=O)C[C@@H](C(C)C)C(=O)C1
REMARK SMILES IDX 8 1 9 2 6 3 7 4 5 5 4 6 3 7 2 8 1 9 10 11 11 12 15 13 16 14
REMARK SMILES IDX 17 15 12 17 13 18 14 19
REMARK H PARENT
REMARK Flexibility Score: 70.00
ROOT
ATOM      1  C   UNL     1     -17.857  -1.886  10.278  1.00  0.00     0.136 C 
ATOM      2  O   UNL     1     -16.981  -1.627   9.467  1.00  0.00    -0.299 OA
ENDROOT
BRANCH   1   3
ATOM      3  C   UNL     1     -18.174  -0.869  11.364  1.00  0.00     0.053 C 
ATOM      4  C   UNL     1     -17.016  -0.785  12.365  1.00  0.00     0.016 C 
BRANCH   3   5
ATOM      5  C   UNL     1     -18.506   0.526  10.791  1.00  0.00     0.015 C 
BRANCH   5   6
ATOM      6  C   UNL     1     -19.851   0.531  10.046  1.00  0.00     0.028 C 
BRANCH   6   7
ATOM      7  C   UNL     1     -21.035   0.263  10.944  1.00  0.00    -0.028 C 
ATOM      8  C   UNL     1     -21.915  -0.766  10.836  1.00  0.00    -0.070 CG0
ATOM      9  C   UNL     1     -22.948  -0.904  11.927  1.00  0.00     0.039 C 
ATOM     10  G   UNL     1     -21.982  -1.733   9.655  1.00  0.00     0.000 G0
ENDBRANCH   6   7
ENDBRANCH   5   6
ENDBRANCH   3   5
ENDBRANCH   1   3
BRANCH   1  11
ATOM     11  C   UNL     1     -18.649  -3.168  10.129  1.00  0.00     0.087 C 
BRANCH  11  12
ATOM     12  C   UNL     1     -19.811  -3.098   9.096  1.00  0.00     0.066 C 
BRANCH  12  13
ATOM     13  C   UNL     1     -21.163  -2.993   9.801  1.00  0.00     0.140 C 
ATOM     14  O   UNL     1     -21.608  -3.941  10.432  1.00  0.00    -0.299 OA
BRANCH  13  15
ATOM     15  C   UNL     1     -22.000  -1.746   9.651  1.00  0.00     0.106 CG0
ATOM     16  G   UNL     1     -21.907  -0.764  10.818  1.00  0.00     0.000 G0
ENDBRANCH  13  15
ENDBRANCH  12  13
BRANCH  12  17
ATOM     17  C   UNL     1     -19.789  -4.229   8.007  1.00  0.00    -0.006 C 
ATOM     18  C   UNL     1     -18.365  -4.610   7.561  1.00  0.00     0.008 C 
ATOM     19  C   UNL     1     -20.589  -3.803   6.761  1.00  0.00     0.008 C 
ENDBRANCH  12  17
ENDBRANCH  11  12
ENDBRANCH   1  11
TORSDOF 1
ENDMDL
MODEL 2
REMARK VINA RESULT:    -3.293      1.779      4.218
REMARK INTER + INTRA:          -5.477
REMARK INTER:                  -5.257
REMARK INTRA:                  -0.220
REMARK UNBOUND:                -0.451
REMARK SMILES CC1=CCC[C@H](C)C(=O)C[C@@H](C(C)C)C(=O)C1
REMARK SMILES IDX 8 1 9 2 6 3 7 4 5 5 4 6 3 7 2 8 1 9 10 11 11 12 15 13 16 14
REMARK SMILES IDX 17 15 12 17 13 18 14 19
REMARK H PARENT
REMARK Flexibility Score: 70.00
ROOT
ATOM      1  C   UNL     1     -19.178  -0.981  10.352  1.00  0.00     0.136 C 
ATOM      2  O   UNL     1     -19.228  -0.079  11.174  1.00  0.00    -0.299 OA
ENDROOT
BRANCH   1   3
ATOM      3  C   UNL     1     -17.873  -1.744  10.180  1.00  0.00     0.053 C 
ATOM      4  C   UNL     1     -16.895  -1.380  11.303  1.00  0.00     0.016 C 
BRANCH   3   5
ATOM      5  C   UNL     1     -18.085  -3.272  10.111  1.00  0.00     0.015 C 
BRANCH   5   6
ATOM      6  C   UNL     1     -18.208  -3.765   8.660  1.00  0.00     0.028 C 
BRANCH   6   7
ATOM      7  C   UNL     1     -19.108  -4.968   8.510  1.00  0.00    -0.028 C 
ATOM      8  C   UNL     1     -20.437  -4.952   8.227  1.00  0.00    -0.070 CG0
ATOM      9  C   UNL     1     -21.106  -6.286   7.998  1.00  0.00     0.039 C 
ATOM     10  G   UNL     1     -21.308  -3.697   8.207  1.00  0.00     0.000 G0
ENDBRANCH   6   7
ENDBRANCH   5   6
ENDBRANCH   3   5
ENDBRANCH   1   3
BRANCH   1  11
ATOM     11  C   UNL     1     -20.430  -1.359   9.590  1.00  0.00     0.087 C 
BRANCH  11  12
ATOM     12  C   UNL     1     -21.436  -2.239  10.389  1.00  0.00     0.066 C 
BRANCH  12  13
ATOM     13  C   UNL     1     -21.994  -3.361   9.515  1.00  0.00     0.140 C 
ATOM     14  O   UNL     1     -22.940  -4.034   9.900  1.00  0.00    -0.299 OA
BRANCH  13  15
ATOM     15  C   UNL     1     -21.327  -3.706   8.206  1.00  0.00     0.106 CG0
ATOM     16  G   UNL     1     -20.450  -4.956   8.239  1.00  0.00     0.000 G0
ENDBRANCH  13  15
ENDBRANCH  12  13
BRANCH  12  17
ATOM     17  C   UNL     1     -22.565  -1.436  11.128  1.00  0.00    -0.006 C 
ATOM     18  C   UNL     1     -22.836  -0.057  10.499  1.00  0.00     0.008 C 
ATOM     19  C   UNL     1     -22.206  -1.229  12.613  1.00  0.00     0.008 C 
ENDBRANCH  12  17
ENDBRANCH  11  12
ENDBRANCH   1  11
TORSDOF 1
ENDMDL
MODEL 3
REMARK VINA RESULT:    -3.224      1.873      4.707
REMARK INTER + INTRA:          -5.371
REMARK INTER:                  -4.822
REMARK INTRA:                  -0.549
REMARK UNBOUND:                -0.451
REMARK SMILES CC1=CCC[C@H](C)C(=O)C[C@@H](C(C)C)C(=O)C1
REMARK SMILES IDX 8 1 9 2 6 3 7 4 5 5 4 6 3 7 2 8 1 9 10 11 11 12 15 13 16 14
REMARK SMILES IDX 17 15 12 17 13 18 14 19
REMARK H PARENT
REMARK Flexibility Score: 70.00
ROOT
ATOM      1  C   UNL     1     -21.523  -4.091   9.656  1.00  0.00     0.136 C 
ATOM      2  O   UNL     1     -22.609  -4.624   9.492  1.00  0.00    -0.299 OA
ENDROOT
BRANCH   1   3
ATOM      3  C   UNL     1     -20.357  -4.517   8.777  1.00  0.00     0.053 C 
ATOM      4  C   UNL     1     -20.289  -3.637   7.524  1.00  0.00     0.016 C 
BRANCH   3   5
ATOM      5  C   UNL     1     -19.009  -4.500   9.531  1.00  0.00     0.015 C 
BRANCH   5   6
ATOM      6  C   UNL     1     -18.083  -3.384   9.019  1.00  0.00     0.028 C 
BRANCH   6   7
ATOM      7  C   UNL     1     -17.380  -2.634  10.126  1.00  0.00    -0.028 C 
ATOM      8  C   UNL     1     -17.768  -1.454  10.675  1.00  0.00    -0.070 CG0
ATOM      9  C   UNL     1     -16.977  -0.955  11.860  1.00  0.00     0.039 C 
ATOM     10  G   UNL     1     -18.886  -0.566  10.131  1.00  0.00     0.000 G0
ENDBRANCH   6   7
ENDBRANCH   5   6
ENDBRANCH   3   5
ENDBRANCH   1   3
BRANCH   1  11
ATOM     11  C   UNL     1     -21.392  -2.975  10.670  1.00  0.00     0.087 C 
BRANCH  11  12
ATOM     12  C   UNL     1     -21.314  -1.546  10.058  1.00  0.00     0.066 C 
BRANCH  12  13
ATOM     13  C   UNL     1     -20.247  -0.708  10.760  1.00  0.00     0.140 C 
ATOM     14  O   UNL     1     -20.507  -0.116  11.799  1.00  0.00    -0.299 OA
BRANCH  13  15
ATOM     15  C   UNL     1     -18.885  -0.533  10.132  1.00  0.00     0.106 CG0
ATOM     16  G   UNL     1     -17.797  -1.450  10.688  1.00  0.00     0.000 G0
ENDBRANCH  13  15
ENDBRANCH  12  13
BRANCH  12  17
ATOM     17  C   UNL     1     -22.691  -0.800   9.956  1.00  0.00    -0.006 C 
ATOM     18  C   UNL     1     -23.713  -1.272  11.006  1.00  0.00     0.008 C 
ATOM     19  C   UNL     1     -23.312  -0.988   8.557  1.00  0.00     0.008 C 
ENDBRANCH  12  17
ENDBRANCH  11  12
ENDBRANCH   1  11
TORSDOF 1
ENDMDL
MODEL 4
REMARK VINA RESULT:    -3.072      2.118      4.637
REMARK INTER + INTRA:          -5.139
REMARK INTER:                  -5.066
REMARK INTRA:                  -0.073
REMARK UNBOUND:                -0.451
REMARK SMILES CC1=CCC[C@H](C)C(=O)C[C@@H](C(C)C)C(=O)C1
REMARK SMILES IDX 8 1 9 2 6 3 7 4 5 5 4 6 3 7 2 8 1 9 10 11 11 12 15 13 16 14
REMARK SMILES IDX 17 15 12 17 13 18 14 19
REMARK H PARENT
REMARK Flexibility Score: 70.00
ROOT
ATOM      1  C   UNL     1     -20.867  -2.575  10.530  1.00  0.00     0.136 C 
ATOM      2  O   UNL     1     -20.956  -2.770  11.732  1.00  0.00    -0.299 OA
ENDROOT
BRANCH   1   3
ATOM      3  C   UNL     1     -20.034  -3.533   9.691  1.00  0.00     0.053 C 
ATOM      4  C   UNL     1     -20.162  -3.184   8.204  1.00  0.00     0.016 C 
BRANCH   3   5
ATOM      5  C   UNL     1     -18.552  -3.563  10.122  1.00  0.00     0.015 C 
BRANCH   5   6
ATOM      6  C   UNL     1     -17.838  -2.240   9.795  1.00  0.00     0.028 C 
BRANCH   6   7
ATOM      7  C   UNL     1     -17.251  -1.560  11.010  1.00  0.00    -0.028 C 
ATOM      8  C   UNL     1     -17.629  -0.361  11.525  1.00  0.00    -0.070 CG0
ATOM      9  C   UNL     1     -16.985   0.061  12.824  1.00  0.00     0.039 C 
ATOM     10  G   UNL     1     -18.587   0.615  10.847  1.00  0.00     0.000 G0
ENDBRANCH   6   7
ENDBRANCH   5   6
ENDBRANCH   3   5
ENDBRANCH   1   3
BRANCH   1  11
ATOM     11  C   UNL     1     -21.648  -1.439   9.905  1.00  0.00     0.087 C 
BRANCH  11  12
ATOM     12  C   UNL     1     -20.825  -0.139   9.665  1.00  0.00     0.066 C 
BRANCH  12  13
ATOM     13  C   UNL     1     -20.055   0.260  10.923  1.00  0.00     0.140 C 
ATOM     14  O   UNL     1     -20.631   0.354  11.998  1.00  0.00    -0.299 OA
BRANCH  13  15
ATOM     15  C   UNL     1     -18.593   0.625  10.833  1.00  0.00     0.106 CG0
ATOM     16  G   UNL     1     -17.642  -0.349  11.527  1.00  0.00     0.000 G0
ENDBRANCH  13  15
ENDBRANCH  12  13
BRANCH  12  17
ATOM     17  C   UNL     1     -21.646   1.054   9.060  1.00  0.00    -0.006 C 
ATOM     18  C   UNL     1     -23.151   0.752   8.940  1.00  0.00     0.008 C 
ATOM     19  C   UNL     1     -21.114   1.430   7.663  1.00  0.00     0.008 C 
ENDBRANCH  12  17
ENDBRANCH  11  12
ENDBRANCH   1  11
TORSDOF 1
ENDMDL
MODEL 5
REMARK VINA RESULT:    -2.979      1.337      1.627
REMARK INTER + INTRA:          -4.997
REMARK INTER:                  -4.733
REMARK INTRA:                  -0.264
REMARK UNBOUND:                -0.451
REMARK SMILES CC1=CCC[C@H](C)C(=O)C[C@@H](C(C)C)C(=O)C1
REMARK SMILES IDX 8 1 9 2 6 3 7 4 5 5 4 6 3 7 2 8 1 9 10 11 11 12 15 13 16 14
REMARK SMILES IDX 17 15 12 17 13 18 14 19
REMARK H PARENT
REMARK Flexibility Score: 70.00
ROOT
ATOM      1  C   UNL     1     -18.471  -1.751  10.598  1.00  0.00     0.136 C 
ATOM      2  O   UNL     1     -17.621  -1.876   9.730  1.00  0.00    -0.299 OA
ENDROOT
BRANCH   1   3
ATOM      3  C   UNL     1     -18.295  -0.662  11.645  1.00  0.00     0.053 C 
ATOM      4  C   UNL     1     -16.920  -0.785  12.311  1.00  0.00     0.016 C 
BRANCH   3   5
ATOM      5  C   UNL     1     -18.499   0.755  11.066  1.00  0.00     0.015 C 
BRANCH   5   6
ATOM      6  C   UNL     1     -19.987   1.137  11.005  1.00  0.00     0.028 C 
BRANCH   6   7
ATOM      7  C   UNL     1     -20.546   1.143   9.602  1.00  0.00    -0.028 C 
ATOM      8  C   UNL     1     -21.525   0.334   9.118  1.00  0.00    -0.070 CG0
ATOM      9  C   UNL     1     -22.012   0.609   7.716  1.00  0.00     0.039 C 
ATOM     10  G   UNL     1     -22.101  -0.872   9.856  1.00  0.00     0.000 G0
ENDBRANCH   6   7
ENDBRANCH   5   6
ENDBRANCH   3   5
ENDBRANCH   1   3
BRANCH   1  11
ATOM     11  C   UNL     1     -19.705  -2.627  10.557  1.00  0.00     0.087 C 
BRANCH  11  12
ATOM     12  C   UNL     1     -20.381  -2.733   9.159  1.00  0.00     0.066 C 
BRANCH  12  13
ATOM     13  C   UNL     1     -21.812  -2.197   9.202  1.00  0.00     0.140 C 
ATOM     14  O   UNL     1     -22.720  -2.809   8.658  1.00  0.00    -0.299 OA
BRANCH  13  15
ATOM     15  C   UNL     1     -22.102  -0.862   9.844  1.00  0.00     0.106 CG0
ATOM     16  G   UNL     1     -21.518   0.345   9.112  1.00  0.00     0.000 G0
ENDBRANCH  13  15
ENDBRANCH  12  13
BRANCH  12  17
ATOM     17  C   UNL     1     -20.293  -4.152   8.493  1.00  0.00    -0.006 C 
ATOM     18  C   UNL     1     -19.250  -5.067   9.160  1.00  0.00     0.008 C 
ATOM     19  C   UNL     1     -19.945  -4.032   6.996  1.00  0.00     0.008 C 
ENDBRANCH  12  17
ENDBRANCH  11  12
ENDBRANCH   1  11
TORSDOF 1
ENDMDL
MODEL 6
REMARK VINA RESULT:    -2.967      1.908      3.148
REMARK INTER + INTRA:          -4.978
REMARK INTER:                  -4.857
REMARK INTRA:                  -0.121
REMARK UNBOUND:                -0.451
REMARK SMILES CC1=CCC[C@H](C)C(=O)C[C@@H](C(C)C)C(=O)C1
REMARK SMILES IDX 8 1 9 2 6 3 7 4 5 5 4 6 3 7 2 8 1 9 10 11 11 12 15 13 16 14
REMARK SMILES IDX 17 15 12 17 13 18 14 19
REMARK H PARENT
REMARK Flexibility Score: 70.00
ROOT
ATOM      1  C   UNL     1     -19.975  -2.980  10.293  1.00  0.00     0.136 C 
ATOM      2  O   UNL     1     -20.366  -2.649  11.402  1.00  0.00    -0.299 OA
ENDROOT
BRANCH   1   3
ATOM      3  C   UNL     1     -18.519  -3.387  10.121  1.00  0.00     0.053 C 
ATOM      4  C   UNL     1     -18.264  -3.843   8.680  1.00  0.00     0.016 C 
BRANCH   3   5
ATOM      5  C   UNL     1     -17.538  -2.264  10.523  1.00  0.00     0.015 C 
BRANCH   5   6
ATOM      6  C   UNL     1     -17.863  -0.941   9.809  1.00  0.00     0.028 C 
BRANCH   6   7
ATOM      7  C   UNL     1     -18.507   0.084  10.712  1.00  0.00    -0.028 C 
ATOM      8  C   UNL     1     -19.698   0.705  10.508  1.00  0.00    -0.070 CG0
ATOM      9  C   UNL     1     -20.203   1.602  11.612  1.00  0.00     0.039 C 
ATOM     10  G   UNL     1     -20.512   0.625   9.217  1.00  0.00     0.000 G0
ENDBRANCH   6   7
ENDBRANCH   5   6
ENDBRANCH   3   5
ENDBRANCH   1   3
BRANCH   1  11
ATOM     11  C   UNL     1     -20.964  -3.048   9.149  1.00  0.00     0.087 C 
BRANCH  11  12
ATOM     12  C   UNL     1     -21.033  -1.764   8.272  1.00  0.00     0.066 C 
BRANCH  12  13
ATOM     13  C   UNL     1     -21.444  -0.552   9.108  1.00  0.00     0.140 C 
ATOM     14  O   UNL     1     -22.545  -0.511   9.639  1.00  0.00    -0.299 OA
BRANCH  13  15
ATOM     15  C   UNL     1     -20.526   0.642   9.214  1.00  0.00     0.106 CG0
ATOM     16  G   UNL     1     -19.693   0.702  10.493  1.00  0.00     0.000 G0
ENDBRANCH  13  15
ENDBRANCH  12  13
BRANCH  12  17
ATOM     17  C   UNL     1     -21.889  -1.909   6.964  1.00  0.00    -0.006 C 
ATOM     18  C   UNL     1     -21.256  -2.857   5.930  1.00  0.00     0.008 C 
ATOM     19  C   UNL     1     -22.102  -0.536   6.296  1.00  0.00     0.008 C 
ENDBRANCH  12  17
ENDBRANCH  11  12
ENDBRANCH   1  11
TORSDOF 1
ENDMDL
MODEL 7
REMARK VINA RESULT:    -2.961      1.599      2.000
REMARK INTER + INTRA:          -4.969
REMARK INTER:                  -4.681
REMARK INTRA:                  -0.288
REMARK UNBOUND:                -0.451
REMARK SMILES CC1=CCC[C@H](C)C(=O)C[C@@H](C(C)C)C(=O)C1
REMARK SMILES IDX 8 1 9 2 6 3 7 4 5 5 4 6 3 7 2 8 1 9 10 11 11 12 15 13 16 14
REMARK SMILES IDX 17 15 12 17 13 18 14 19
REMARK H PARENT
REMARK Flexibility Score: 70.00
ROOT
ATOM      1  C   UNL     1     -18.117  -3.477   9.312  1.00  0.00     0.136 C 
ATOM      2  O   UNL     1     -17.133  -3.444   8.589  1.00  0.00    -0.299 OA
ENDROOT
BRANCH   1   3
ATOM      3  C   UNL     1     -18.145  -2.598  10.553  1.00  0.00     0.053 C 
ATOM      4  C   UNL     1     -17.195  -1.407  10.380  1.00  0.00     0.016 C 
BRANCH   3   5
ATOM      5  C   UNL     1     -19.568  -2.116  10.907  1.00  0.00     0.015 C 
BRANCH   5   6
ATOM      6  C   UNL     1     -19.955  -0.854  10.118  1.00  0.00     0.028 C 
BRANCH   6   7
ATOM      7  C   UNL     1     -21.448  -0.676   9.967  1.00  0.00    -0.028 C 
ATOM      8  C   UNL     1     -22.228  -1.197   8.985  1.00  0.00    -0.070 CG0
ATOM      9  C   UNL     1     -23.718  -0.990   9.110  1.00  0.00     0.039 C 
ATOM     10  G   UNL     1     -21.702  -1.897   7.734  1.00  0.00     0.000 G0
ENDBRANCH   6   7
ENDBRANCH   5   6
ENDBRANCH   3   5
ENDBRANCH   1   3
BRANCH   1  11
ATOM     11  C   UNL     1     -19.303  -4.327   8.910  1.00  0.00     0.087 C 
BRANCH  11  12
ATOM     12  C   UNL     1     -20.001  -3.887   7.590  1.00  0.00     0.066 C 
BRANCH  12  13
ATOM     13  C   UNL     1     -21.411  -3.364   7.866  1.00  0.00     0.140 C 
ATOM     14  O   UNL     1     -22.318  -4.140   8.134  1.00  0.00    -0.299 OA
BRANCH  13  15
ATOM     15  C   UNL     1     -21.714  -1.892   7.724  1.00  0.00     0.106 CG0
ATOM     16  G   UNL     1     -22.251  -1.221   8.987  1.00  0.00     0.000 G0
ENDBRANCH  13  15
ENDBRANCH  12  13
BRANCH  12  17
ATOM     17  C   UNL     1     -19.973  -4.959   6.444  1.00  0.00    -0.006 C 
ATOM     18  C   UNL     1     -18.574  -5.557   6.212  1.00  0.00     0.008 C 
ATOM     19  C   UNL     1     -20.467  -4.352   5.116  1.00  0.00     0.008 C 
ENDBRANCH  12  17
ENDBRANCH  11  12
ENDBRANCH   1  11
TORSDOF 1
ENDMDL
MODEL 8
REMARK VINA RESULT:    -2.952      1.615      1.738
REMARK INTER + INTRA:          -4.957
REMARK INTER:                  -4.831
REMARK INTRA:                  -0.126
REMARK UNBOUND:                -0.451
REMARK SMILES CC1=CCC[C@H](C)C(=O)C[C@@H](C(C)C)C(=O)C1
REMARK SMILES IDX 8 1 9 2 6 3 7 4 5 5 4 6 3 7 2 8 1 9 10 11 11 12 15 13 16 14
REMARK SMILES IDX 17 15 12 17 13 18 14 19
REMARK H PARENT
REMARK Flexibility Score: 70.00
ROOT
ATOM      1  C   UNL     1     -19.407  -2.038  11.168  1.00  0.00     0.136 C 
ATOM      2  O   UNL     1     -20.328  -1.833  11.945  1.00  0.00    -0.299 OA
ENDROOT
BRANCH   1   3
ATOM      3  C   UNL     1     -18.144  -1.199  11.292  1.00  0.00     0.053 C 
ATOM      4  C   UNL     1     -17.173  -1.534  10.154  1.00  0.00     0.016 C 
BRANCH   3   5
ATOM      5  C   UNL     1     -18.439   0.316  11.333  1.00  0.00     0.015 C 
BRANCH   5   6
ATOM      6  C   UNL     1     -19.079   0.807  10.024  1.00  0.00     0.028 C 
BRANCH   6   7
ATOM      7  C   UNL     1     -20.533   1.189  10.174  1.00  0.00    -0.028 C 
ATOM      8  C   UNL     1     -21.594   0.572   9.591  1.00  0.00    -0.070 CG0
ATOM      9  C   UNL     1     -22.969   1.051   9.989  1.00  0.00     0.039 C 
ATOM     10  G   UNL     1     -21.491  -0.505   8.512  1.00  0.00     0.000 G0
ENDBRANCH   6   7
ENDBRANCH   5   6
ENDBRANCH   3   5
ENDBRANCH   1   3
BRANCH   1  11
ATOM     11  C   UNL     1     -19.522  -3.165  10.165  1.00  0.00     0.087 C 
BRANCH  11  12
ATOM     12  C   UNL     1     -20.148  -2.758   8.799  1.00  0.00     0.066 C 
BRANCH  12  13
ATOM     13  C   UNL     1     -21.420  -1.935   9.004  1.00  0.00     0.140 C 
ATOM     14  O   UNL     1     -22.409  -2.441   9.516  1.00  0.00    -0.299 OA
BRANCH  13  15
ATOM     15  C   UNL     1     -21.493  -0.515   8.499  1.00  0.00     0.106 CG0
ATOM     16  G   UNL     1     -21.603   0.551   9.587  1.00  0.00     0.000 G0
ENDBRANCH  13  15
ENDBRANCH  12  13
BRANCH  12  17
ATOM     17  C   UNL     1     -20.359  -3.947   7.795  1.00  0.00    -0.006 C 
ATOM     18  C   UNL     1     -19.047  -4.655   7.414  1.00  0.00     0.008 C 
ATOM     19  C   UNL     1     -21.037  -3.454   6.501  1.00  0.00     0.008 C 
ENDBRANCH  12  17
ENDBRANCH  11  12
ENDBRANCH   1  11
TORSDOF 1
ENDMDL
MODEL 9
REMARK VINA RESULT:    -2.788      2.006      4.181
REMARK INTER + INTRA:          -4.706
REMARK INTER:                  -4.470
REMARK INTRA:                  -0.237
REMARK UNBOUND:                -0.451
REMARK SMILES CC1=CCC[C@H](C)C(=O)C[C@@H](C(C)C)C(=O)C1
REMARK SMILES IDX 8 1 9 2 6 3 7 4 5 5 4 6 3 7 2 8 1 9 10 11 11 12 15 13 16 14
REMARK SMILES IDX 17 15 12 17 13 18 14 19
REMARK H PARENT
REMARK Flexibility Score: 70.00
ROOT
ATOM      1  C   UNL     1     -20.711  -3.469   8.236  1.00  0.00     0.136 C 
ATOM      2  O   UNL     1     -20.631  -3.454   7.018  1.00  0.00    -0.299 OA
ENDROOT
BRANCH   1   3
ATOM      3  C   UNL     1     -19.669  -4.244   9.030  1.00  0.00     0.053 C 
ATOM      4  C   UNL     1     -19.591  -5.691   8.530  1.00  0.00     0.016 C 
BRANCH   3   5
ATOM      5  C   UNL     1     -18.277  -3.576   8.992  1.00  0.00     0.015 C 
BRANCH   5   6
ATOM      6  C   UNL     1     -17.843  -3.088  10.384  1.00  0.00     0.028 C 
BRANCH   6   7
ATOM      7  C   UNL     1     -17.859  -1.584  10.525  1.00  0.00    -0.028 C 
ATOM      8  C   UNL     1     -18.848  -0.836  11.080  1.00  0.00    -0.070 CG0
ATOM      9  C   UNL     1     -18.588   0.644  11.227  1.00  0.00     0.039 C 
ATOM     10  G   UNL     1     -20.221  -1.369  11.485  1.00  0.00     0.000 G0
ENDBRANCH   6   7
ENDBRANCH   5   6
ENDBRANCH   3   5
ENDBRANCH   1   3
BRANCH   1  11
ATOM     11  C   UNL     1     -21.791  -2.657   8.917  1.00  0.00     0.087 C 
BRANCH  11  12
ATOM     12  C   UNL     1     -21.434  -1.158   9.140  1.00  0.00     0.066 C 
BRANCH  12  13
ATOM     13  C   UNL     1     -21.369  -0.827  10.631  1.00  0.00     0.140 C 
ATOM     14  O   UNL     1     -22.190  -0.073  11.134  1.00  0.00    -0.299 OA
BRANCH  13  15
ATOM     15  C   UNL     1     -20.240  -1.363  11.478  1.00  0.00     0.106 CG0
ATOM     16  G   UNL     1     -18.852  -0.852  11.097  1.00  0.00     0.000 G0
ENDBRANCH  13  15
ENDBRANCH  12  13
BRANCH  12  17
ATOM     17  C   UNL     1     -22.327  -0.145   8.340  1.00  0.00    -0.006 C 
ATOM     18  C   UNL     1     -22.821  -0.708   6.995  1.00  0.00     0.008 C 
ATOM     19  C   UNL     1     -21.558   1.162   8.065  1.00  0.00     0.008 C 
ENDBRANCH  12  17
ENDBRANCH  11  12
ENDBRANCH   1  11
TORSDOF 1
ENDMDL
