MODEL 1
REMARK VINA RESULT:    -4.673      0.000      0.000
REMARK INTER + INTRA:          -5.245
REMARK INTER:                  -5.083
REMARK INTRA:                  -0.162
REMARK UNBOUND:                -0.162
REMARK SMILES CC(=O)[C@H]1CC[C@@H]2[C@@H]3CC=C4C[C@@H](O)CC[C@@]4(C)[C@@H]3CC[C@]12C
REMARK SMILES IDX 4 1 5 2 6 3 7 4 22 5 21 6 20 7 19 8 8 9 9 10 10 11 11 12
REMARK SMILES IDX 17 13 16 14 15 15 13 16 12 17 18 18 23 19 2 20 1 21 3 22
REMARK SMILES IDX 14 23
REMARK H PARENT 14 24
REMARK Flexibility Score: inf
ROOT
ATOM      1  C   UNL     1      73.322  73.700  22.142  1.00  0.00     0.062 C 
ATOM      2  C   UNL     1      71.965  73.147  22.569  1.00  0.00     0.012 C 
ATOM      3  C   UNL     1      72.199  72.678  23.991  1.00  0.00     0.005 C 
ATOM      4  C   UNL     1      73.606  72.069  23.970  1.00  0.00    -0.001 C 
ATOM      5  C   UNL     1      74.375  72.734  22.778  1.00  0.00    -0.020 C 
ATOM      6  C   UNL     1      75.623  73.528  23.246  1.00  0.00     0.008 C 
ATOM      7  C   UNL     1      76.531  72.783  24.246  1.00  0.00     0.005 C 
ATOM      8  C   UNL     1      75.839  71.688  25.120  1.00  0.00     0.003 C 
ATOM      9  C   UNL     1      74.350  72.034  25.342  1.00  0.00     0.000 C 
ATOM     10  C   UNL     1      74.220  73.292  26.229  1.00  0.00     0.031 C 
ATOM     11  C   UNL     1      75.125  73.246  27.434  1.00  0.00    -0.027 C 
ATOM     12  C   UNL     1      76.209  72.442  27.548  1.00  0.00    -0.065 C 
ATOM     13  C   UNL     1      76.585  71.409  26.485  1.00  0.00    -0.008 C 
ATOM     14  C   UNL     1      76.182  70.009  27.056  1.00  0.00     0.014 C 
ATOM     15  C   UNL     1      76.722  69.734  28.482  1.00  0.00     0.033 C 
ATOM     16  C   UNL     1      76.457  70.887  29.484  1.00  0.00     0.118 C 
ATOM     17  C   UNL     1      76.835  72.268  28.913  1.00  0.00     0.063 C 
ATOM     18  C   UNL     1      78.124  71.405  26.244  1.00  0.00     0.016 C 
ATOM     19  C   UNL     1      74.822  71.638  21.768  1.00  0.00     0.012 C 
ENDROOT
BRANCH   1  20
ATOM     20  C   UNL     1      73.480  73.952  20.650  1.00  0.00     0.133 C 
ATOM     21  C   UNL     1      74.450  74.952  20.089  1.00  0.00     0.088 C 
ATOM     22  O   UNL     1      72.755  73.344  19.875  1.00  0.00    -0.300 OA
ENDBRANCH   1  20
BRANCH  16  23
ATOM     23  O   UNL     1      75.125  70.877  29.935  1.00  0.00    -0.393 OA
ATOM     24  H   UNL     1      74.776  69.950  29.848  1.00  0.00     0.210 HD
ENDBRANCH  16  23
TORSDOF 2
ENDMDL
MODEL 2
REMARK VINA RESULT:    -4.663      1.465      2.704
REMARK INTER + INTRA:          -5.234
REMARK INTER:                  -5.097
REMARK INTRA:                  -0.138
REMARK UNBOUND:                -0.162
REMARK SMILES CC(=O)[C@H]1CC[C@@H]2[C@@H]3CC=C4C[C@@H](O)CC[C@@]4(C)[C@@H]3CC[C@]12C
REMARK SMILES IDX 4 1 5 2 6 3 7 4 22 5 21 6 20 7 19 8 8 9 9 10 10 11 11 12
REMARK SMILES IDX 17 13 16 14 15 15 13 16 12 17 18 18 23 19 2 20 1 21 3 22
REMARK SMILES IDX 14 23
REMARK H PARENT 14 24
REMARK Flexibility Score: inf
ROOT
ATOM      1  C   UNL     1      73.916  72.563  22.270  1.00  0.00     0.062 C 
ATOM      2  C   UNL     1      75.142  71.833  21.730  1.00  0.00     0.012 C 
ATOM      3  C   UNL     1      75.910  71.448  22.979  1.00  0.00     0.005 C 
ATOM      4  C   UNL     1      75.749  72.651  23.918  1.00  0.00    -0.001 C 
ATOM      5  C   UNL     1      74.438  73.393  23.488  1.00  0.00    -0.020 C 
ATOM      6  C   UNL     1      73.375  73.420  24.617  1.00  0.00     0.008 C 
ATOM      7  C   UNL     1      73.909  73.832  26.005  1.00  0.00     0.005 C 
ATOM      8  C   UNL     1      75.425  73.561  26.266  1.00  0.00     0.003 C 
ATOM      9  C   UNL     1      75.909  72.348  25.440  1.00  0.00     0.000 C 
ATOM     10  C   UNL     1      75.249  71.051  25.959  1.00  0.00     0.031 C 
ATOM     11  C   UNL     1      75.286  70.946  27.463  1.00  0.00    -0.027 C 
ATOM     12  C   UNL     1      75.480  71.992  28.300  1.00  0.00    -0.065 C 
ATOM     13  C   UNL     1      75.781  73.405  27.798  1.00  0.00    -0.008 C 
ATOM     14  C   UNL     1      77.308  73.651  28.037  1.00  0.00     0.014 C 
ATOM     15  C   UNL     1      77.776  73.334  29.480  1.00  0.00     0.033 C 
ATOM     16  C   UNL     1      77.304  71.953  30.001  1.00  0.00     0.118 C 
ATOM     17  C   UNL     1      75.805  71.704  29.748  1.00  0.00     0.063 C 
ATOM     18  C   UNL     1      74.989  74.461  28.626  1.00  0.00     0.016 C 
ATOM     19  C   UNL     1      74.775  74.855  23.076  1.00  0.00     0.012 C 
ENDROOT
BRANCH   1  20
ATOM     20  C   UNL     1      73.120  73.346  21.235  1.00  0.00     0.133 C 
ATOM     21  C   UNL     1      73.668  73.700  19.882  1.00  0.00     0.088 C 
ATOM     22  O   UNL     1      72.002  73.741  21.535  1.00  0.00    -0.300 OA
ENDBRANCH   1  20
BRANCH  16  23
ATOM     23  O   UNL     1      78.085  70.911  29.469  1.00  0.00    -0.393 OA
ATOM     24  H   UNL     1      78.910  70.832  30.017  1.00  0.00     0.210 HD
ENDBRANCH  16  23
TORSDOF 2
ENDMDL
MODEL 3
REMARK VINA RESULT:    -4.463      1.486      6.841
REMARK INTER + INTRA:          -5.017
REMARK INTER:                  -4.885
REMARK INTRA:                  -0.132
REMARK UNBOUND:                -0.162
REMARK SMILES CC(=O)[C@H]1CC[C@@H]2[C@@H]3CC=C4C[C@@H](O)CC[C@@]4(C)[C@@H]3CC[C@]12C
REMARK SMILES IDX 4 1 5 2 6 3 7 4 22 5 21 6 20 7 19 8 8 9 9 10 10 11 11 12
REMARK SMILES IDX 17 13 16 14 15 15 13 16 12 17 18 18 23 19 2 20 1 21 3 22
REMARK SMILES IDX 14 23
REMARK H PARENT 14 24
REMARK Flexibility Score: inf
ROOT
ATOM      1  C   UNL     1      76.378  72.154  28.378  1.00  0.00     0.062 C 
ATOM      2  C   UNL     1      75.462  70.934  28.436  1.00  0.00     0.012 C 
ATOM      3  C   UNL     1      74.955  70.797  27.014  1.00  0.00     0.005 C 
ATOM      4  C   UNL     1      74.732  72.240  26.543  1.00  0.00    -0.001 C 
ATOM      5  C   UNL     1      75.667  73.153  27.408  1.00  0.00    -0.020 C 
ATOM      6  C   UNL     1      76.715  73.910  26.551  1.00  0.00     0.008 C 
ATOM      7  C   UNL     1      76.150  74.598  25.291  1.00  0.00     0.005 C 
ATOM      8  C   UNL     1      74.847  73.976  24.693  1.00  0.00     0.003 C 
ATOM      9  C   UNL     1      74.779  72.463  24.999  1.00  0.00     0.000 C 
ATOM     10  C   UNL     1      75.885  71.711  24.227  1.00  0.00     0.031 C 
ATOM     11  C   UNL     1      75.977  72.140  22.784  1.00  0.00    -0.027 C 
ATOM     12  C   UNL     1      75.472  73.297  22.295  1.00  0.00    -0.065 C 
ATOM     13  C   UNL     1      74.660  74.270  23.152  1.00  0.00    -0.008 C 
ATOM     14  C   UNL     1      73.162  74.092  22.735  1.00  0.00     0.014 C 
ATOM     15  C   UNL     1      72.921  74.179  21.207  1.00  0.00     0.033 C 
ATOM     16  C   UNL     1      73.883  73.295  20.372  1.00  0.00     0.118 C 
ATOM     17  C   UNL     1      75.356  73.455  20.796  1.00  0.00     0.063 C 
ATOM     18  C   UNL     1      75.071  75.742  22.850  1.00  0.00     0.016 C 
ATOM     19  C   UNL     1      74.808  74.189  28.190  1.00  0.00     0.012 C 
ENDROOT
BRANCH   1  20
ATOM     20  C   UNL     1      76.781  72.726  29.730  1.00  0.00     0.133 C 
ATOM     21  C   UNL     1      78.082  73.441  29.957  1.00  0.00     0.088 C 
ATOM     22  O   UNL     1      76.032  72.559  30.682  1.00  0.00    -0.300 OA
ENDBRANCH   1  20
BRANCH  16  23
ATOM     23  O   UNL     1      73.494  71.943  20.405  1.00  0.00    -0.393 OA
ATOM     24  H   UNL     1      73.684  71.545  19.514  1.00  0.00     0.210 HD
ENDBRANCH  16  23
TORSDOF 2
ENDMDL
MODEL 4
REMARK VINA RESULT:    -4.416      1.419      6.937
REMARK INTER + INTRA:          -4.965
REMARK INTER:                  -4.855
REMARK INTRA:                  -0.110
REMARK UNBOUND:                -0.162
REMARK SMILES CC(=O)[C@H]1CC[C@@H]2[C@@H]3CC=C4C[C@@H](O)CC[C@@]4(C)[C@@H]3CC[C@]12C
REMARK SMILES IDX 4 1 5 2 6 3 7 4 22 5 21 6 20 7 19 8 8 9 9 10 10 11 11 12
REMARK SMILES IDX 17 13 16 14 15 15 13 16 12 17 18 18 23 19 2 20 1 21 3 22
REMARK SMILES IDX 14 23
REMARK H PARENT 14 24
REMARK Flexibility Score: inf
ROOT
ATOM      1  C   UNL     1      76.703  73.021  28.018  1.00  0.00     0.062 C 
ATOM      2  C   UNL     1      78.112  73.219  27.466  1.00  0.00     0.012 C 
ATOM      3  C   UNL     1      77.881  73.586  26.014  1.00  0.00     0.005 C 
ATOM      4  C   UNL     1      76.709  72.700  25.573  1.00  0.00    -0.001 C 
ATOM      5  C   UNL     1      75.906  72.327  26.866  1.00  0.00    -0.020 C 
ATOM      6  C   UNL     1      74.446  72.850  26.829  1.00  0.00     0.008 C 
ATOM      7  C   UNL     1      73.689  72.574  25.513  1.00  0.00     0.005 C 
ATOM      8  C   UNL     1      74.570  72.412  24.233  1.00  0.00     0.003 C 
ATOM      9  C   UNL     1      75.874  73.231  24.366  1.00  0.00     0.000 C 
ATOM     10  C   UNL     1      75.559  74.743  24.358  1.00  0.00     0.031 C 
ATOM     11  C   UNL     1      74.589  75.125  23.268  1.00  0.00    -0.027 C 
ATOM     12  C   UNL     1      73.768  74.255  22.634  1.00  0.00    -0.065 C 
ATOM     13  C   UNL     1      73.802  72.749  22.894  1.00  0.00    -0.008 C 
ATOM     14  C   UNL     1      74.523  72.097  21.667  1.00  0.00     0.014 C 
ATOM     15  C   UNL     1      73.944  72.531  20.297  1.00  0.00     0.033 C 
ATOM     16  C   UNL     1      73.776  74.064  20.146  1.00  0.00     0.118 C 
ATOM     17  C   UNL     1      73.084  74.708  21.364  1.00  0.00     0.063 C 
ATOM     18  C   UNL     1      72.357  72.171  22.965  1.00  0.00     0.016 C 
ATOM     19  C   UNL     1      75.885  70.781  27.041  1.00  0.00     0.012 C 
ENDROOT
BRANCH   1  20
ATOM     20  C   UNL     1      76.629  72.334  29.374  1.00  0.00     0.133 C 
ATOM     21  C   UNL     1      75.554  72.629  30.380  1.00  0.00     0.088 C 
ATOM     22  O   UNL     1      77.507  71.537  29.674  1.00  0.00    -0.300 OA
ENDBRANCH   1  20
BRANCH  16  23
ATOM     23  O   UNL     1      75.007  74.690  19.877  1.00  0.00    -0.393 OA
ATOM     24  H   UNL     1      74.832  75.653  19.702  1.00  0.00     0.210 HD
ENDBRANCH  16  23
TORSDOF 2
ENDMDL
MODEL 5
REMARK VINA RESULT:    -4.358      1.361      6.817
REMARK INTER + INTRA:          -4.902
REMARK INTER:                  -4.729
REMARK INTRA:                  -0.173
REMARK UNBOUND:                -0.162
REMARK SMILES CC(=O)[C@H]1CC[C@@H]2[C@@H]3CC=C4C[C@@H](O)CC[C@@]4(C)[C@@H]3CC[C@]12C
REMARK SMILES IDX 4 1 5 2 6 3 7 4 22 5 21 6 20 7 19 8 8 9 9 10 10 11 11 12
REMARK SMILES IDX 17 13 16 14 15 15 13 16 12 17 18 18 23 19 2 20 1 21 3 22
REMARK SMILES IDX 14 23
REMARK H PARENT 14 24
REMARK Flexibility Score: inf
ROOT
ATOM      1  C   UNL     1      75.790  71.823  27.809  1.00  0.00     0.062 C 
ATOM      2  C   UNL     1      75.493  73.173  28.456  1.00  0.00     0.012 C 
ATOM      3  C   UNL     1      74.973  74.015  27.309  1.00  0.00     0.005 C 
ATOM      4  C   UNL     1      75.837  73.610  26.109  1.00  0.00    -0.001 C 
ATOM      5  C   UNL     1      76.374  72.166  26.399  1.00  0.00    -0.020 C 
ATOM      6  C   UNL     1      75.891  71.131  25.349  1.00  0.00     0.008 C 
ATOM      7  C   UNL     1      76.040  71.577  23.880  1.00  0.00     0.005 C 
ATOM      8  C   UNL     1      76.034  73.118  23.624  1.00  0.00     0.003 C 
ATOM      9  C   UNL     1      75.198  73.842  24.704  1.00  0.00     0.000 C 
ATOM     10  C   UNL     1      73.704  73.479  24.556  1.00  0.00     0.031 C 
ATOM     11  C   UNL     1      73.231  73.550  23.127  1.00  0.00    -0.027 C 
ATOM     12  C   UNL     1      74.047  73.524  22.047  1.00  0.00    -0.065 C 
ATOM     13  C   UNL     1      75.572  73.512  22.165  1.00  0.00    -0.008 C 
ATOM     14  C   UNL     1      76.061  74.953  21.803  1.00  0.00     0.014 C 
ATOM     15  C   UNL     1      75.495  75.490  20.464  1.00  0.00     0.033 C 
ATOM     16  C   UNL     1      73.959  75.328  20.326  1.00  0.00     0.118 C 
ATOM     17  C   UNL     1      73.475  73.915  20.703  1.00  0.00     0.063 C 
ATOM     18  C   UNL     1      76.194  72.520  21.138  1.00  0.00     0.016 C 
ATOM     19  C   UNL     1      77.930  72.181  26.417  1.00  0.00     0.012 C 
ENDROOT
BRANCH   1  20
ATOM     20  C   UNL     1      76.627  70.871  28.651  1.00  0.00     0.133 C 
ATOM     21  C   UNL     1      76.666  69.389  28.410  1.00  0.00     0.088 C 
ATOM     22  O   UNL     1      77.261  71.327  29.592  1.00  0.00    -0.300 OA
ENDBRANCH   1  20
BRANCH  16  23
ATOM     23  O   UNL     1      73.273  76.309  21.065  1.00  0.00    -0.393 OA
ATOM     24  H   UNL     1      73.836  77.128  21.090  1.00  0.00     0.210 HD
ENDBRANCH  16  23
TORSDOF 2
ENDMDL
MODEL 6
REMARK VINA RESULT:    -4.179      1.782      2.038
REMARK INTER + INTRA:          -4.708
REMARK INTER:                  -4.549
REMARK INTRA:                  -0.159
REMARK UNBOUND:                -0.162
REMARK SMILES CC(=O)[C@H]1CC[C@@H]2[C@@H]3CC=C4C[C@@H](O)CC[C@@]4(C)[C@@H]3CC[C@]12C
REMARK SMILES IDX 4 1 5 2 6 3 7 4 22 5 21 6 20 7 19 8 8 9 9 10 10 11 11 12
REMARK SMILES IDX 17 13 16 14 15 15 13 16 12 17 18 18 23 19 2 20 1 21 3 22
REMARK SMILES IDX 14 23
REMARK H PARENT 14 24
REMARK Flexibility Score: inf
ROOT
ATOM      1  C   UNL     1      73.999  76.196  22.993  1.00  0.00     0.062 C 
ATOM      2  C   UNL     1      72.784  76.587  23.832  1.00  0.00     0.012 C 
ATOM      3  C   UNL     1      72.973  75.811  25.120  1.00  0.00     0.005 C 
ATOM      4  C   UNL     1      73.534  74.454  24.677  1.00  0.00    -0.001 C 
ATOM      5  C   UNL     1      74.229  74.678  23.291  1.00  0.00    -0.020 C 
ATOM      6  C   UNL     1      75.747  74.362  23.330  1.00  0.00     0.008 C 
ATOM      7  C   UNL     1      76.116  73.029  24.014  1.00  0.00     0.005 C 
ATOM      8  C   UNL     1      75.105  72.501  25.083  1.00  0.00     0.003 C 
ATOM      9  C   UNL     1      74.359  73.678  25.750  1.00  0.00     0.000 C 
ATOM     10  C   UNL     1      75.335  74.513  26.607  1.00  0.00     0.031 C 
ATOM     11  C   UNL     1      76.225  73.656  27.471  1.00  0.00    -0.027 C 
ATOM     12  C   UNL     1      76.461  72.340  27.259  1.00  0.00    -0.065 C 
ATOM     13  C   UNL     1      75.765  71.544  26.154  1.00  0.00    -0.008 C 
ATOM     14  C   UNL     1      74.676  70.665  26.851  1.00  0.00     0.014 C 
ATOM     15  C   UNL     1      75.210  69.833  28.045  1.00  0.00     0.033 C 
ATOM     16  C   UNL     1      76.049  70.657  29.054  1.00  0.00     0.118 C 
ATOM     17  C   UNL     1      77.109  71.538  28.365  1.00  0.00     0.063 C 
ATOM     18  C   UNL     1      76.773  70.590  25.447  1.00  0.00     0.016 C 
ATOM     19  C   UNL     1      73.553  73.780  22.215  1.00  0.00     0.012 C 
ENDROOT
BRANCH   1  20
ATOM     20  C   UNL     1      73.917  76.572  21.521  1.00  0.00     0.133 C 
ATOM     21  C   UNL     1      75.113  76.574  20.612  1.00  0.00     0.088 C 
ATOM     22  O   UNL     1      72.838  76.928  21.068  1.00  0.00    -0.300 OA
ENDBRANCH   1  20
BRANCH  16  23
ATOM     23  O   UNL     1      75.226  71.425  29.898  1.00  0.00    -0.393 OA
ATOM     24  H   UNL     1      75.525  71.283  30.835  1.00  0.00     0.210 HD
ENDBRANCH  16  23
TORSDOF 2
ENDMDL
MODEL 7
REMARK VINA RESULT:    -4.133      3.021      4.495
REMARK INTER + INTRA:          -4.658
REMARK INTER:                  -4.547
REMARK INTRA:                  -0.111
REMARK UNBOUND:                -0.162
REMARK SMILES CC(=O)[C@H]1CC[C@@H]2[C@@H]3CC=C4C[C@@H](O)CC[C@@]4(C)[C@@H]3CC[C@]12C
REMARK SMILES IDX 4 1 5 2 6 3 7 4 22 5 21 6 20 7 19 8 8 9 9 10 10 11 11 12
REMARK SMILES IDX 17 13 16 14 15 15 13 16 12 17 18 18 23 19 2 20 1 21 3 22
REMARK SMILES IDX 14 23
REMARK H PARENT 14 24
REMARK Flexibility Score: inf
ROOT
ATOM      1  C   UNL     1      71.239  74.227  24.930  1.00  0.00     0.062 C 
ATOM      2  C   UNL     1      70.480  72.917  25.123  1.00  0.00     0.012 C 
ATOM      3  C   UNL     1      71.542  71.854  24.925  1.00  0.00     0.005 C 
ATOM      4  C   UNL     1      72.415  72.388  23.782  1.00  0.00    -0.001 C 
ATOM      5  C   UNL     1      72.251  73.946  23.771  1.00  0.00    -0.020 C 
ATOM      6  C   UNL     1      73.590  74.685  24.033  1.00  0.00     0.008 C 
ATOM      7  C   UNL     1      74.789  74.169  23.211  1.00  0.00     0.005 C 
ATOM      8  C   UNL     1      74.713  72.681  22.742  1.00  0.00     0.003 C 
ATOM      9  C   UNL     1      73.876  71.843  23.734  1.00  0.00     0.000 C 
ATOM     10  C   UNL     1      74.613  71.723  25.086  1.00  0.00     0.031 C 
ATOM     11  C   UNL     1      76.072  71.380  24.922  1.00  0.00    -0.027 C 
ATOM     12  C   UNL     1      76.774  71.550  23.777  1.00  0.00    -0.065 C 
ATOM     13  C   UNL     1      76.129  72.032  22.477  1.00  0.00    -0.008 C 
ATOM     14  C   UNL     1      75.996  70.778  21.551  1.00  0.00     0.014 C 
ATOM     15  C   UNL     1      77.310  69.972  21.392  1.00  0.00     0.033 C 
ATOM     16  C   UNL     1      78.012  69.650  22.736  1.00  0.00     0.118 C 
ATOM     17  C   UNL     1      78.125  70.881  23.656  1.00  0.00     0.063 C 
ATOM     18  C   UNL     1      77.048  73.065  21.759  1.00  0.00     0.016 C 
ATOM     19  C   UNL     1      71.682  74.403  22.397  1.00  0.00     0.012 C 
ENDROOT
BRANCH   1  20
ATOM     20  C   UNL     1      70.367  75.462  24.754  1.00  0.00     0.133 C 
ATOM     21  C   UNL     1      70.922  76.858  24.748  1.00  0.00     0.088 C 
ATOM     22  O   UNL     1      69.157  75.313  24.656  1.00  0.00    -0.300 OA
ENDBRANCH   1  20
BRANCH  16  23
ATOM     23  O   UNL     1      77.382  68.582  23.399  1.00  0.00    -0.393 OA
ATOM     24  H   UNL     1      78.042  68.167  24.014  1.00  0.00     0.210 HD
ENDBRANCH  16  23
TORSDOF 2
ENDMDL
MODEL 8
REMARK VINA RESULT:    -4.125      2.059      2.893
REMARK INTER + INTRA:          -4.649
REMARK INTER:                  -4.515
REMARK INTRA:                  -0.134
REMARK UNBOUND:                -0.162
REMARK SMILES CC(=O)[C@H]1CC[C@@H]2[C@@H]3CC=C4C[C@@H](O)CC[C@@]4(C)[C@@H]3CC[C@]12C
REMARK SMILES IDX 4 1 5 2 6 3 7 4 22 5 21 6 20 7 19 8 8 9 9 10 10 11 11 12
REMARK SMILES IDX 17 13 16 14 15 15 13 16 12 17 18 18 23 19 2 20 1 21 3 22
REMARK SMILES IDX 14 23
REMARK H PARENT 14 24
REMARK Flexibility Score: inf
ROOT
ATOM      1  C   UNL     1      72.962  74.779  23.475  1.00  0.00     0.062 C 
ATOM      2  C   UNL     1      73.422  73.939  22.287  1.00  0.00     0.012 C 
ATOM      3  C   UNL     1      74.089  72.741  22.931  1.00  0.00     0.005 C 
ATOM      4  C   UNL     1      74.833  73.317  24.143  1.00  0.00    -0.001 C 
ATOM      5  C   UNL     1      74.104  74.648  24.535  1.00  0.00    -0.020 C 
ATOM      6  C   UNL     1      73.508  74.598  25.967  1.00  0.00     0.008 C 
ATOM      7  C   UNL     1      74.464  74.057  27.051  1.00  0.00     0.005 C 
ATOM      8  C   UNL     1      75.584  73.086  26.558  1.00  0.00     0.003 C 
ATOM      9  C   UNL     1      75.117  72.314  25.304  1.00  0.00     0.000 C 
ATOM     10  C   UNL     1      73.976  71.340  25.669  1.00  0.00     0.031 C 
ATOM     11  C   UNL     1      74.268  70.550  26.920  1.00  0.00    -0.027 C 
ATOM     12  C   UNL     1      75.187  70.902  27.851  1.00  0.00    -0.065 C 
ATOM     13  C   UNL     1      76.109  72.110  27.684  1.00  0.00    -0.008 C 
ATOM     14  C   UNL     1      77.521  71.548  27.311  1.00  0.00     0.014 C 
ATOM     15  C   UNL     1      78.029  70.440  28.268  1.00  0.00     0.033 C 
ATOM     16  C   UNL     1      76.991  69.320  28.534  1.00  0.00     0.118 C 
ATOM     17  C   UNL     1      75.596  69.874  28.881  1.00  0.00     0.063 C 
ATOM     18  C   UNL     1      76.241  72.889  29.027  1.00  0.00     0.016 C 
ATOM     19  C   UNL     1      75.103  75.838  24.444  1.00  0.00     0.012 C 
ENDROOT
BRANCH   1  20
ATOM     20  C   UNL     1      72.540  76.202  23.138  1.00  0.00     0.133 C 
ATOM     21  C   UNL     1      72.864  76.861  21.828  1.00  0.00     0.088 C 
ATOM     22  O   UNL     1      71.948  76.852  23.989  1.00  0.00    -0.300 OA
ENDBRANCH   1  20
BRANCH  16  23
ATOM     23  O   UNL     1      76.922  68.421  27.454  1.00  0.00    -0.393 OA
ATOM     24  H   UNL     1      77.404  67.591  27.711  1.00  0.00     0.210 HD
ENDBRANCH  16  23
TORSDOF 2
ENDMDL
MODEL 9
REMARK VINA RESULT:    -4.104      1.450      6.899
REMARK INTER + INTRA:          -4.626
REMARK INTER:                  -4.483
REMARK INTRA:                  -0.143
REMARK UNBOUND:                -0.162
REMARK SMILES CC(=O)[C@H]1CC[C@@H]2[C@@H]3CC=C4C[C@@H](O)CC[C@@]4(C)[C@@H]3CC[C@]12C
REMARK SMILES IDX 4 1 5 2 6 3 7 4 22 5 21 6 20 7 19 8 8 9 9 10 10 11 11 12
REMARK SMILES IDX 17 13 16 14 15 15 13 16 12 17 18 18 23 19 2 20 1 21 3 22
REMARK SMILES IDX 14 23
REMARK H PARENT 14 24
REMARK Flexibility Score: inf
ROOT
ATOM      1  C   UNL     1      77.675  70.941  27.033  1.00  0.00     0.062 C 
ATOM      2  C   UNL     1      78.113  69.879  26.028  1.00  0.00     0.012 C 
ATOM      3  C   UNL     1      77.602  70.407  24.702  1.00  0.00     0.005 C 
ATOM      4  C   UNL     1      76.236  71.021  25.031  1.00  0.00    -0.001 C 
ATOM      5  C   UNL     1      76.259  71.399  26.552  1.00  0.00    -0.020 C 
ATOM      6  C   UNL     1      76.076  72.922  26.787  1.00  0.00     0.008 C 
ATOM      7  C   UNL     1      74.923  73.569  25.992  1.00  0.00     0.005 C 
ATOM      8  C   UNL     1      74.519  72.856  24.662  1.00  0.00     0.003 C 
ATOM      9  C   UNL     1      75.735  72.125  24.049  1.00  0.00     0.000 C 
ATOM     10  C   UNL     1      76.787  73.149  23.567  1.00  0.00     0.031 C 
ATOM     11  C   UNL     1      76.174  74.284  22.786  1.00  0.00    -0.027 C 
ATOM     12  C   UNL     1      74.864  74.623  22.829  1.00  0.00    -0.065 C 
ATOM     13  C   UNL     1      73.828  73.820  23.617  1.00  0.00    -0.008 C 
ATOM     14  C   UNL     1      73.006  72.998  22.570  1.00  0.00     0.014 C 
ATOM     15  C   UNL     1      72.450  73.849  21.400  1.00  0.00     0.033 C 
ATOM     16  C   UNL     1      73.507  74.770  20.740  1.00  0.00     0.118 C 
ATOM     17  C   UNL     1      74.330  75.565  21.773  1.00  0.00     0.063 C 
ATOM     18  C   UNL     1      72.845  74.772  24.360  1.00  0.00     0.016 C 
ATOM     19  C   UNL     1      75.130  70.633  27.299  1.00  0.00     0.012 C 
ENDROOT
BRANCH   1  20
ATOM     20  C   UNL     1      77.769  70.529  28.495  1.00  0.00     0.133 C 
ATOM     21  C   UNL     1      77.648  71.507  29.628  1.00  0.00     0.088 C 
ATOM     22  O   UNL     1      77.995  69.356  28.757  1.00  0.00    -0.300 OA
ENDBRANCH   1  20
BRANCH  16  23
ATOM     23  O   UNL     1      74.348  74.046  19.875  1.00  0.00    -0.393 OA
ATOM     24  H   UNL     1      75.287  74.311  20.064  1.00  0.00     0.210 HD
ENDBRANCH  16  23
TORSDOF 2
ENDMDL
