MODEL 1
REMARK VINA RESULT:    -3.088      0.000      0.000
REMARK INTER + INTRA:         -10.039
REMARK INTER:                  -6.699
REMARK INTRA:                  -3.340
REMARK UNBOUND:                -3.340
REMARK SMILES CCCCCCCCCCCCCCCCCCCCCC(=O)[O-]
REMARK SMILES IDX 12 1 11 2 10 3 9 4 8 5 7 6 6 7 5 8 4 9 3 10 2 11 1 12 13 13
REMARK SMILES IDX 14 14 15 15 16 16 17 17 18 18 19 19 20 20 21 21 22 22 23 23
REMARK SMILES IDX 24 24
REMARK H PARENT
REMARK Flexibility Score: inf
ROOT
ATOM      1  C   UNL     1       4.489   3.771  -7.017  1.00  0.00     0.000 C 
ENDROOT
BRANCH   1   2
ATOM      2  C   UNL     1       5.678   4.505  -6.379  1.00  0.00     0.000 C 
BRANCH   2   3
ATOM      3  C   UNL     1       6.008   5.833  -7.084  1.00  0.00     0.000 C 
BRANCH   3   4
ATOM      4  C   UNL     1       7.463   5.964  -7.577  1.00  0.00    -0.000 C 
BRANCH   4   5
ATOM      5  C   UNL     1       8.307   4.679  -7.462  1.00  0.00    -0.000 C 
BRANCH   5   6
ATOM      6  C   UNL     1       9.409   4.717  -6.384  1.00  0.00    -0.000 C 
BRANCH   6   7
ATOM      7  C   UNL     1       9.632   6.094  -5.733  1.00  0.00    -0.000 C 
BRANCH   7   8
ATOM      8  C   UNL     1       9.095   6.166  -4.293  1.00  0.00    -0.000 C 
BRANCH   8   9
ATOM      9  C   UNL     1       8.034   7.265  -4.115  1.00  0.00    -0.000 C 
BRANCH   9  10
ATOM     10  C   UNL     1       6.770   6.752  -3.404  1.00  0.00    -0.000 C 
BRANCH  10  11
ATOM     11  C   UNL     1       6.020   7.868  -2.661  1.00  0.00    -0.003 C 
ATOM     12  C   UNL     1       6.961   8.826  -1.931  1.00  0.00     0.004 C 
ENDBRANCH  10  11
ENDBRANCH   9  10
ENDBRANCH   8   9
ENDBRANCH   7   8
ENDBRANCH   6   7
ENDBRANCH   5   6
ENDBRANCH   4   5
ENDBRANCH   3   4
ENDBRANCH   2   3
ENDBRANCH   1   2
BRANCH   1  13
ATOM     13  C   UNL     1       4.389   4.083  -8.518  1.00  0.00     0.000 C 
BRANCH  13  14
ATOM     14  C   UNL     1       5.115   3.032  -9.383  1.00  0.00     0.000 C 
BRANCH  14  15
ATOM     15  C   UNL     1       5.465   1.744  -8.620  1.00  0.00     0.000 C 
BRANCH  15  16
ATOM     16  C   UNL     1       6.969   1.425  -8.642  1.00  0.00     0.000 C 
BRANCH  16  17
ATOM     17  C   UNL     1       7.555   1.200  -7.236  1.00  0.00     0.000 C 
BRANCH  17  18
ATOM     18  C   UNL     1       6.520   0.885  -6.142  1.00  0.00     0.000 C 
BRANCH  18  19
ATOM     19  C   UNL     1       6.740  -0.489  -5.487  1.00  0.00     0.000 C 
BRANCH  19  20
ATOM     20  C   UNL     1       6.670  -1.643  -6.499  1.00  0.00     0.006 C 
BRANCH  20  21
ATOM     21  C   UNL     1       5.259  -1.848  -7.068  1.00  0.00     0.053 C 
BRANCH  21  22
ATOM     22  C   UNL     1       5.299  -1.883  -8.563  1.00  0.00     0.041 C 
ATOM     23  O   UNL     1       6.383  -2.110  -9.162  1.00  0.00    -0.550 OA
ATOM     24  O   UNL     1       4.150  -1.618  -9.296  1.00  0.00    -0.550 OA
ENDBRANCH  21  22
ENDBRANCH  20  21
ENDBRANCH  19  20
ENDBRANCH  18  19
ENDBRANCH  17  18
ENDBRANCH  16  17
ENDBRANCH  15  16
ENDBRANCH  14  15
ENDBRANCH  13  14
ENDBRANCH   1  13
TORSDOF 20
ENDMDL
MODEL 2
REMARK VINA RESULT:    -3.080      3.449      7.251
REMARK INTER + INTRA:         -10.021
REMARK INTER:                  -6.506
REMARK INTRA:                  -3.514
REMARK UNBOUND:                -3.340
REMARK SMILES CCCCCCCCCCCCCCCCCCCCCC(=O)[O-]
REMARK SMILES IDX 12 1 11 2 10 3 9 4 8 5 7 6 6 7 5 8 4 9 3 10 2 11 1 12 13 13
REMARK SMILES IDX 14 14 15 15 16 16 17 17 18 18 19 19 20 20 21 21 22 22 23 23
REMARK SMILES IDX 24 24
REMARK H PARENT
REMARK Flexibility Score: inf
ROOT
ATOM      1  C   UNL     1       4.791   3.748  -6.460  1.00  0.00     0.000 C 
ENDROOT
BRANCH   1   2
ATOM      2  C   UNL     1       4.447   3.640  -7.953  1.00  0.00     0.000 C 
BRANCH   2   3
ATOM      3  C   UNL     1       5.079   2.408  -8.625  1.00  0.00     0.000 C 
BRANCH   3   4
ATOM      4  C   UNL     1       6.464   2.649  -9.258  1.00  0.00    -0.000 C 
BRANCH   4   5
ATOM      5  C   UNL     1       7.599   1.774  -8.693  1.00  0.00    -0.000 C 
BRANCH   5   6
ATOM      6  C   UNL     1       8.511   2.473  -7.664  1.00  0.00    -0.000 C 
BRANCH   6   7
ATOM      7  C   UNL     1       8.858   1.627  -6.426  1.00  0.00    -0.000 C 
BRANCH   7   8
ATOM      8  C   UNL     1       8.565   0.130  -6.627  1.00  0.00    -0.000 C 
BRANCH   8   9
ATOM      9  C   UNL     1       7.468  -0.387  -5.682  1.00  0.00    -0.000 C 
BRANCH   9  10
ATOM     10  C   UNL     1       6.063  -0.287  -6.301  1.00  0.00    -0.000 C 
BRANCH  10  11
ATOM     11  C   UNL     1       5.651  -1.573  -7.034  1.00  0.00    -0.003 C 
ATOM     12  C   UNL     1       5.121  -1.304  -8.442  1.00  0.00     0.004 C 
ENDBRANCH  10  11
ENDBRANCH   9  10
ENDBRANCH   8   9
ENDBRANCH   7   8
ENDBRANCH   6   7
ENDBRANCH   5   6
ENDBRANCH   4   5
ENDBRANCH   3   4
ENDBRANCH   2   3
ENDBRANCH   1   2
BRANCH   1  13
ATOM     13  C   UNL     1       5.894   4.791  -6.222  1.00  0.00     0.000 C 
BRANCH  13  14
ATOM     14  C   UNL     1       6.003   5.801  -7.384  1.00  0.00     0.000 C 
BRANCH  14  15
ATOM     15  C   UNL     1       7.436   5.970  -7.918  1.00  0.00     0.000 C 
BRANCH  15  16
ATOM     16  C   UNL     1       8.067   7.314  -7.519  1.00  0.00     0.000 C 
BRANCH  16  17
ATOM     17  C   UNL     1       9.243   7.156  -6.537  1.00  0.00     0.000 C 
BRANCH  17  18
ATOM     18  C   UNL     1       9.283   5.818  -5.779  1.00  0.00     0.000 C 
BRANCH  18  19
ATOM     19  C   UNL     1       9.366   5.995  -4.254  1.00  0.00     0.000 C 
BRANCH  19  20
ATOM     20  C   UNL     1       8.514   7.171  -3.750  1.00  0.00     0.006 C 
BRANCH  20  21
ATOM     21  C   UNL     1       7.087   6.749  -3.372  1.00  0.00     0.053 C 
BRANCH  21  22
ATOM     22  C   UNL     1       6.113   7.828  -3.727  1.00  0.00     0.041 C 
ATOM     23  O   UNL     1       6.046   8.258  -4.908  1.00  0.00    -0.550 OA
ATOM     24  O   UNL     1       5.313   8.394  -2.743  1.00  0.00    -0.550 OA
ENDBRANCH  21  22
ENDBRANCH  20  21
ENDBRANCH  19  20
ENDBRANCH  18  19
ENDBRANCH  17  18
ENDBRANCH  16  17
ENDBRANCH  15  16
ENDBRANCH  14  15
ENDBRANCH  13  14
ENDBRANCH   1  13
TORSDOF 20
ENDMDL
MODEL 3
REMARK VINA RESULT:    -3.079     19.457     21.919
REMARK INTER + INTRA:         -10.019
REMARK INTER:                  -6.541
REMARK INTRA:                  -3.479
REMARK UNBOUND:                -3.340
REMARK SMILES CCCCCCCCCCCCCCCCCCCCCC(=O)[O-]
REMARK SMILES IDX 12 1 11 2 10 3 9 4 8 5 7 6 6 7 5 8 4 9 3 10 2 11 1 12 13 13
REMARK SMILES IDX 14 14 15 15 16 16 17 17 18 18 19 19 20 20 21 21 22 22 23 23
REMARK SMILES IDX 24 24
REMARK H PARENT
REMARK Flexibility Score: inf
ROOT
ATOM      1  C   UNL     1      -6.877  -2.408   9.102  1.00  0.00     0.000 C 
ENDROOT
BRANCH   1   2
ATOM      2  C   UNL     1      -8.001  -3.298   9.651  1.00  0.00     0.000 C 
BRANCH   2   3
ATOM      3  C   UNL     1      -9.141  -3.513   8.639  1.00  0.00     0.000 C 
BRANCH   3   4
ATOM      4  C   UNL     1      -9.429  -4.986   8.286  1.00  0.00    -0.000 C 
BRANCH   4   5
ATOM      5  C   UNL     1      -8.372  -5.993   8.781  1.00  0.00    -0.000 C 
BRANCH   5   6
ATOM      6  C   UNL     1      -8.409  -7.370   8.090  1.00  0.00    -0.000 C 
BRANCH   6   7
ATOM      7  C   UNL     1      -7.547  -7.481   6.820  1.00  0.00    -0.000 C 
BRANCH   7   8
ATOM      8  C   UNL     1      -8.285  -8.168   5.658  1.00  0.00    -0.000 C 
BRANCH   8   9
ATOM      9  C   UNL     1      -9.666  -7.549   5.388  1.00  0.00    -0.000 C 
BRANCH   9  10
ATOM     10  C   UNL     1      -9.678  -6.665   4.129  1.00  0.00    -0.000 C 
BRANCH  10  11
ATOM     11  C   UNL     1      -8.970  -5.319   4.349  1.00  0.00    -0.003 C 
ATOM     12  C   UNL     1      -9.895  -4.255   4.938  1.00  0.00     0.004 C 
ENDBRANCH  10  11
ENDBRANCH   9  10
ENDBRANCH   8   9
ENDBRANCH   7   8
ENDBRANCH   6   7
ENDBRANCH   5   6
ENDBRANCH   4   5
ENDBRANCH   3   4
ENDBRANCH   2   3
ENDBRANCH   1   2
BRANCH   1  13
ATOM     13  C   UNL     1      -5.602  -3.226   8.844  1.00  0.00     0.000 C 
BRANCH  13  14
ATOM     14  C   UNL     1      -5.624  -3.921   7.466  1.00  0.00     0.000 C 
BRANCH  14  15
ATOM     15  C   UNL     1      -4.878  -5.266   7.445  1.00  0.00     0.000 C 
BRANCH  15  16
ATOM     16  C   UNL     1      -4.134  -5.558   8.758  1.00  0.00     0.000 C 
BRANCH  16  17
ATOM     17  C   UNL     1      -4.739  -6.737   9.541  1.00  0.00     0.000 C 
BRANCH  17  18
ATOM     18  C   UNL     1      -3.987  -8.072   9.392  1.00  0.00     0.000 C 
BRANCH  18  19
ATOM     19  C   UNL     1      -4.709  -9.067   8.469  1.00  0.00     0.000 C 
BRANCH  19  20
ATOM     20  C   UNL     1      -3.787  -9.638   7.380  1.00  0.00     0.006 C 
BRANCH  20  21
ATOM     21  C   UNL     1      -3.886  -8.868   6.056  1.00  0.00     0.053 C 
BRANCH  21  22
ATOM     22  C   UNL     1      -2.664  -8.030   5.846  1.00  0.00     0.041 C 
ATOM     23  O   UNL     1      -1.545  -8.426   6.265  1.00  0.00    -0.550 OA
ATOM     24  O   UNL     1      -2.769  -6.789   5.231  1.00  0.00    -0.550 OA
ENDBRANCH  21  22
ENDBRANCH  20  21
ENDBRANCH  19  20
ENDBRANCH  18  19
ENDBRANCH  17  18
ENDBRANCH  16  17
ENDBRANCH  15  16
ENDBRANCH  14  15
ENDBRANCH  13  14
ENDBRANCH   1  13
TORSDOF 20
ENDMDL
MODEL 4
REMARK VINA RESULT:    -3.032      1.719      4.188
REMARK INTER + INTRA:          -9.918
REMARK INTER:                  -7.272
REMARK INTRA:                  -2.646
REMARK UNBOUND:                -3.340
REMARK SMILES CCCCCCCCCCCCCCCCCCCCCC(=O)[O-]
REMARK SMILES IDX 12 1 11 2 10 3 9 4 8 5 7 6 6 7 5 8 4 9 3 10 2 11 1 12 13 13
REMARK SMILES IDX 14 14 15 15 16 16 17 17 18 18 19 19 20 20 21 21 22 22 23 23
REMARK SMILES IDX 24 24
REMARK H PARENT
REMARK Flexibility Score: inf
ROOT
ATOM      1  C   UNL     1       9.422   5.839  -5.673  1.00  0.00     0.000 C 
ENDROOT
BRANCH   1   2
ATOM      2  C   UNL     1       8.749   6.338  -4.386  1.00  0.00     0.000 C 
BRANCH   2   3
ATOM      3  C   UNL     1       8.900   7.856  -4.183  1.00  0.00     0.000 C 
BRANCH   3   4
ATOM      4  C   UNL     1       8.462   8.720  -5.382  1.00  0.00    -0.000 C 
BRANCH   4   5
ATOM      5  C   UNL     1       7.152   9.505  -5.176  1.00  0.00    -0.000 C 
BRANCH   5   6
ATOM      6  C   UNL     1       5.942   8.653  -4.743  1.00  0.00    -0.000 C 
BRANCH   6   7
ATOM      7  C   UNL     1       4.739   9.456  -4.219  1.00  0.00    -0.000 C 
BRANCH   7   8
ATOM      8  C   UNL     1       4.890   9.860  -2.742  1.00  0.00    -0.000 C 
BRANCH   8   9
ATOM      9  C   UNL     1       5.754   8.868  -1.946  1.00  0.00    -0.000 C 
BRANCH   9  10
ATOM     10  C   UNL     1       5.754   9.169  -0.437  1.00  0.00    -0.000 C 
BRANCH  10  11
ATOM     11  C   UNL     1       7.105   9.712   0.054  1.00  0.00    -0.003 C 
ATOM     12  C   UNL     1       8.157   9.762  -1.052  1.00  0.00     0.004 C 
ENDBRANCH  10  11
ENDBRANCH   9  10
ENDBRANCH   8   9
ENDBRANCH   7   8
ENDBRANCH   6   7
ENDBRANCH   5   6
ENDBRANCH   4   5
ENDBRANCH   3   4
ENDBRANCH   2   3
ENDBRANCH   1   2
BRANCH   1  13
ATOM     13  C   UNL     1       8.461   4.966  -6.496  1.00  0.00     0.000 C 
BRANCH  13  14
ATOM     14  C   UNL     1       7.587   5.803  -7.454  1.00  0.00     0.000 C 
BRANCH  14  15
ATOM     15  C   UNL     1       6.099   5.830  -7.063  1.00  0.00     0.000 C 
BRANCH  15  16
ATOM     16  C   UNL     1       5.781   4.931  -5.858  1.00  0.00     0.000 C 
BRANCH  16  17
ATOM     17  C   UNL     1       4.803   3.792  -6.201  1.00  0.00     0.000 C 
BRANCH  17  18
ATOM     18  C   UNL     1       4.974   3.188  -7.606  1.00  0.00     0.000 C 
BRANCH  18  19
ATOM     19  C   UNL     1       5.891   1.954  -7.621  1.00  0.00     0.000 C 
BRANCH  19  20
ATOM     20  C   UNL     1       5.788   1.128  -6.329  1.00  0.00     0.006 C 
BRANCH  20  21
ATOM     21  C   UNL     1       6.951   0.138  -6.165  1.00  0.00     0.053 C 
BRANCH  21  22
ATOM     22  C   UNL     1       6.431  -1.258  -6.020  1.00  0.00     0.041 C 
ATOM     23  O   UNL     1       6.845  -1.994  -5.087  1.00  0.00    -0.550 OA
ATOM     24  O   UNL     1       5.525  -1.762  -6.944  1.00  0.00    -0.550 OA
ENDBRANCH  21  22
ENDBRANCH  20  21
ENDBRANCH  19  20
ENDBRANCH  18  19
ENDBRANCH  17  18
ENDBRANCH  16  17
ENDBRANCH  15  16
ENDBRANCH  14  15
ENDBRANCH  13  14
ENDBRANCH   1  13
TORSDOF 20
ENDMDL
MODEL 5
REMARK VINA RESULT:    -3.031      2.040      2.958
REMARK INTER + INTRA:          -9.915
REMARK INTER:                  -6.101
REMARK INTRA:                  -3.813
REMARK UNBOUND:                -3.340
REMARK SMILES CCCCCCCCCCCCCCCCCCCCCC(=O)[O-]
REMARK SMILES IDX 12 1 11 2 10 3 9 4 8 5 7 6 6 7 5 8 4 9 3 10 2 11 1 12 13 13
REMARK SMILES IDX 14 14 15 15 16 16 17 17 18 18 19 19 20 20 21 21 22 22 23 23
REMARK SMILES IDX 24 24
REMARK H PARENT
REMARK Flexibility Score: inf
ROOT
ATOM      1  C   UNL     1       5.419   3.768  -6.314  1.00  0.00     0.000 C 
ENDROOT
BRANCH   1   2
ATOM      2  C   UNL     1       5.881   5.204  -6.025  1.00  0.00     0.000 C 
BRANCH   2   3
ATOM      3  C   UNL     1       7.364   5.435  -6.363  1.00  0.00     0.000 C 
BRANCH   3   4
ATOM      4  C   UNL     1       7.650   6.690  -7.211  1.00  0.00    -0.000 C 
BRANCH   4   5
ATOM      5  C   UNL     1       6.402   7.379  -7.797  1.00  0.00    -0.000 C 
BRANCH   5   6
ATOM      6  C   UNL     1       6.626   8.821  -8.296  1.00  0.00    -0.000 C 
BRANCH   6   7
ATOM      7  C   UNL     1       5.829   9.899  -7.541  1.00  0.00    -0.000 C 
BRANCH   7   8
ATOM      8  C   UNL     1       5.632   9.561  -6.053  1.00  0.00    -0.000 C 
BRANCH   8   9
ATOM      9  C   UNL     1       6.802  10.044  -5.180  1.00  0.00    -0.000 C 
BRANCH   9  10
ATOM     10  C   UNL     1       7.284   8.965  -4.194  1.00  0.00    -0.000 C 
BRANCH  10  11
ATOM     11  C   UNL     1       6.138   8.077  -3.687  1.00  0.00    -0.003 C 
ATOM     12  C   UNL     1       6.632   6.892  -2.860  1.00  0.00     0.004 C 
ENDBRANCH  10  11
ENDBRANCH   9  10
ENDBRANCH   8   9
ENDBRANCH   7   8
ENDBRANCH   6   7
ENDBRANCH   5   6
ENDBRANCH   4   5
ENDBRANCH   3   4
ENDBRANCH   2   3
ENDBRANCH   1   2
BRANCH   1  13
ATOM     13  C   UNL     1       4.404   3.737  -7.468  1.00  0.00     0.000 C 
BRANCH  13  14
ATOM     14  C   UNL     1       4.989   3.094  -8.743  1.00  0.00     0.000 C 
BRANCH  14  15
ATOM     15  C   UNL     1       5.757   4.086  -9.633  1.00  0.00     0.000 C 
BRANCH  15  16
ATOM     16  C   UNL     1       7.273   3.830  -9.643  1.00  0.00     0.000 C 
BRANCH  16  17
ATOM     17  C   UNL     1       7.653   2.460  -9.053  1.00  0.00     0.000 C 
BRANCH  17  18
ATOM     18  C   UNL     1       8.726   2.500  -7.950  1.00  0.00     0.000 C 
BRANCH  18  19
ATOM     19  C   UNL     1       8.514   1.427  -6.869  1.00  0.00     0.000 C 
BRANCH  19  20
ATOM     20  C   UNL     1       7.198   0.654  -7.055  1.00  0.00     0.006 C 
BRANCH  20  21
ATOM     21  C   UNL     1       6.672   0.057  -5.742  1.00  0.00     0.053 C 
BRANCH  21  22
ATOM     22  C   UNL     1       6.332  -1.388  -5.927  1.00  0.00     0.041 C 
ATOM     23  O   UNL     1       6.773  -2.251  -5.123  1.00  0.00    -0.550 OA
ATOM     24  O   UNL     1       5.567  -1.789  -7.015  1.00  0.00    -0.550 OA
ENDBRANCH  21  22
ENDBRANCH  20  21
ENDBRANCH  19  20
ENDBRANCH  18  19
ENDBRANCH  17  18
ENDBRANCH  16  17
ENDBRANCH  15  16
ENDBRANCH  14  15
ENDBRANCH  13  14
ENDBRANCH   1  13
TORSDOF 20
ENDMDL
MODEL 6
REMARK VINA RESULT:    -3.019      3.928      8.272
REMARK INTER + INTRA:          -9.890
REMARK INTER:                  -6.474
REMARK INTRA:                  -3.415
REMARK UNBOUND:                -3.340
REMARK SMILES CCCCCCCCCCCCCCCCCCCCCC(=O)[O-]
REMARK SMILES IDX 12 1 11 2 10 3 9 4 8 5 7 6 6 7 5 8 4 9 3 10 2 11 1 12 13 13
REMARK SMILES IDX 14 14 15 15 16 16 17 17 18 18 19 19 20 20 21 21 22 22 23 23
REMARK SMILES IDX 24 24
REMARK H PARENT
REMARK Flexibility Score: inf
ROOT
ATOM      1  C   UNL     1       9.878   1.566  -7.881  1.00  0.00     0.000 C 
ENDROOT
BRANCH   1   2
ATOM      2  C   UNL     1       9.659   0.060  -7.681  1.00  0.00     0.000 C 
BRANCH   2   3
ATOM      3  C   UNL     1       9.164  -0.290  -6.266  1.00  0.00     0.000 C 
BRANCH   3   4
ATOM      4  C   UNL     1       7.761  -0.926  -6.207  1.00  0.00    -0.000 C 
BRANCH   4   5
ATOM      5  C   UNL     1       6.700  -0.095  -5.460  1.00  0.00    -0.000 C 
BRANCH   5   6
ATOM      6  C   UNL     1       5.682   0.629  -6.364  1.00  0.00    -0.000 C 
BRANCH   6   7
ATOM      7  C   UNL     1       6.212   1.904  -7.044  1.00  0.00    -0.000 C 
BRANCH   7   8
ATOM      8  C   UNL     1       6.279   1.778  -8.576  1.00  0.00    -0.000 C 
BRANCH   8   9
ATOM      9  C   UNL     1       5.646   0.473  -9.088  1.00  0.00    -0.000 C 
BRANCH   9  10
ATOM     10  C   UNL     1       6.632  -0.376  -9.909  1.00  0.00    -0.000 C 
BRANCH  10  11
ATOM     11  C   UNL     1       6.598  -1.861  -9.516  1.00  0.00    -0.003 C 
ATOM     12  C   UNL     1       7.911  -2.581  -9.818  1.00  0.00     0.004 C 
ENDBRANCH  10  11
ENDBRANCH   9  10
ENDBRANCH   8   9
ENDBRANCH   7   8
ENDBRANCH   6   7
ENDBRANCH   5   6
ENDBRANCH   4   5
ENDBRANCH   3   4
ENDBRANCH   2   3
ENDBRANCH   1   2
BRANCH   1  13
ATOM     13  C   UNL     1       9.923   2.302  -6.532  1.00  0.00     0.000 C 
BRANCH  13  14
ATOM     14  C   UNL     1       9.436   3.762  -6.647  1.00  0.00     0.000 C 
BRANCH  14  15
ATOM     15  C   UNL     1       9.190   4.215  -8.096  1.00  0.00     0.000 C 
BRANCH  15  16
ATOM     16  C   UNL     1       7.943   5.102  -8.241  1.00  0.00     0.000 C 
BRANCH  16  17
ATOM     17  C   UNL     1       7.221   5.345  -6.903  1.00  0.00     0.000 C 
BRANCH  17  18
ATOM     18  C   UNL     1       6.363   6.621  -6.848  1.00  0.00     0.000 C 
BRANCH  18  19
ATOM     19  C   UNL     1       6.549   7.414  -5.544  1.00  0.00     0.000 C 
BRANCH  19  20
ATOM     20  C   UNL     1       6.314   6.553  -4.292  1.00  0.00     0.006 C 
BRANCH  20  21
ATOM     21  C   UNL     1       7.172   6.996  -3.099  1.00  0.00     0.053 C 
BRANCH  21  22
ATOM     22  C   UNL     1       6.336   7.735  -2.101  1.00  0.00     0.041 C 
ATOM     23  O   UNL     1       6.505   7.545  -0.869  1.00  0.00    -0.550 OA
ATOM     24  O   UNL     1       5.336   8.596  -2.534  1.00  0.00    -0.550 OA
ENDBRANCH  21  22
ENDBRANCH  20  21
ENDBRANCH  19  20
ENDBRANCH  18  19
ENDBRANCH  17  18
ENDBRANCH  16  17
ENDBRANCH  15  16
ENDBRANCH  14  15
ENDBRANCH  13  14
ENDBRANCH   1  13
TORSDOF 20
ENDMDL
MODEL 7
REMARK VINA RESULT:    -3.013      1.609      2.453
REMARK INTER + INTRA:          -9.876
REMARK INTER:                  -7.394
REMARK INTRA:                  -2.482
REMARK UNBOUND:                -3.340
REMARK SMILES CCCCCCCCCCCCCCCCCCCCCC(=O)[O-]
REMARK SMILES IDX 12 1 11 2 10 3 9 4 8 5 7 6 6 7 5 8 4 9 3 10 2 11 1 12 13 13
REMARK SMILES IDX 14 14 15 15 16 16 17 17 18 18 19 19 20 20 21 21 22 22 23 23
REMARK SMILES IDX 24 24
REMARK H PARENT
REMARK Flexibility Score: inf
ROOT
ATOM      1  C   UNL     1       4.242   3.377  -6.836  1.00  0.00     0.000 C 
ENDROOT
BRANCH   1   2
ATOM      2  C   UNL     1       5.210   4.113  -5.899  1.00  0.00     0.000 C 
BRANCH   2   3
ATOM      3  C   UNL     1       6.186   5.035  -6.651  1.00  0.00     0.000 C 
BRANCH   3   4
ATOM      4  C   UNL     1       6.453   6.393  -5.973  1.00  0.00    -0.000 C 
BRANCH   4   5
ATOM      5  C   UNL     1       6.277   7.622  -6.885  1.00  0.00    -0.000 C 
BRANCH   5   6
ATOM      6  C   UNL     1       5.993   8.946  -6.147  1.00  0.00    -0.000 C 
BRANCH   6   7
ATOM      7  C   UNL     1       6.940   9.250  -4.973  1.00  0.00    -0.000 C 
BRANCH   7   8
ATOM      8  C   UNL     1       6.197   9.752  -3.723  1.00  0.00    -0.000 C 
BRANCH   8   9
ATOM      9  C   UNL     1       5.500   8.617  -2.956  1.00  0.00    -0.000 C 
BRANCH   9  10
ATOM     10  C   UNL     1       6.169   8.325  -1.602  1.00  0.00    -0.000 C 
BRANCH  10  11
ATOM     11  C   UNL     1       5.807   9.365  -0.531  1.00  0.00    -0.003 C 
ATOM     12  C   UNL     1       6.287   8.967   0.864  1.00  0.00     0.004 C 
ENDBRANCH  10  11
ENDBRANCH   9  10
ENDBRANCH   8   9
ENDBRANCH   7   8
ENDBRANCH   6   7
ENDBRANCH   5   6
ENDBRANCH   4   5
ENDBRANCH   3   4
ENDBRANCH   2   3
ENDBRANCH   1   2
BRANCH   1  13
ATOM     13  C   UNL     1       4.474   3.784  -8.300  1.00  0.00     0.000 C 
BRANCH  13  14
ATOM     14  C   UNL     1       4.587   2.562  -9.235  1.00  0.00     0.000 C 
BRANCH  14  15
ATOM     15  C   UNL     1       5.849   2.576 -10.114  1.00  0.00     0.000 C 
BRANCH  15  16
ATOM     16  C   UNL     1       7.142   2.739  -9.301  1.00  0.00     0.000 C 
BRANCH  16  17
ATOM     17  C   UNL     1       7.565   1.445  -8.582  1.00  0.00     0.000 C 
BRANCH  17  18
ATOM     18  C   UNL     1       7.803   1.589  -7.068  1.00  0.00     0.000 C 
BRANCH  18  19
ATOM     19  C   UNL     1       7.137   0.471  -6.248  1.00  0.00     0.000 C 
BRANCH  19  20
ATOM     20  C   UNL     1       5.787   0.033  -6.836  1.00  0.00     0.006 C 
BRANCH  20  21
ATOM     21  C   UNL     1       5.700  -1.485  -7.054  1.00  0.00     0.053 C 
BRANCH  21  22
ATOM     22  C   UNL     1       5.267  -1.787  -8.454  1.00  0.00     0.041 C 
ATOM     23  O   UNL     1       4.108  -2.223  -8.677  1.00  0.00    -0.550 OA
ATOM     24  O   UNL     1       6.160  -1.634  -9.506  1.00  0.00    -0.550 OA
ENDBRANCH  21  22
ENDBRANCH  20  21
ENDBRANCH  19  20
ENDBRANCH  18  19
ENDBRANCH  17  18
ENDBRANCH  16  17
ENDBRANCH  15  16
ENDBRANCH  14  15
ENDBRANCH  13  14
ENDBRANCH   1  13
TORSDOF 20
ENDMDL
MODEL 8
REMARK VINA RESULT:    -2.991      2.087      4.240
REMARK INTER + INTRA:          -9.828
REMARK INTER:                  -6.572
REMARK INTRA:                  -3.256
REMARK UNBOUND:                -3.340
REMARK SMILES CCCCCCCCCCCCCCCCCCCCCC(=O)[O-]
REMARK SMILES IDX 12 1 11 2 10 3 9 4 8 5 7 6 6 7 5 8 4 9 3 10 2 11 1 12 13 13
REMARK SMILES IDX 14 14 15 15 16 16 17 17 18 18 19 19 20 20 21 21 22 22 23 23
REMARK SMILES IDX 24 24
REMARK H PARENT
REMARK Flexibility Score: inf
ROOT
ATOM      1  C   UNL     1       6.264   6.169  -5.011  1.00  0.00     0.000 C 
ENDROOT
BRANCH   1   2
ATOM      2  C   UNL     1       6.467   6.824  -3.637  1.00  0.00     0.000 C 
BRANCH   2   3
ATOM      3  C   UNL     1       5.668   8.129  -3.473  1.00  0.00     0.000 C 
BRANCH   3   4
ATOM      4  C   UNL     1       5.652   9.042  -4.715  1.00  0.00    -0.000 C 
BRANCH   4   5
ATOM      5  C   UNL     1       6.802  10.066  -4.786  1.00  0.00    -0.000 C 
BRANCH   5   6
ATOM      6  C   UNL     1       8.112   9.534  -5.402  1.00  0.00    -0.000 C 
BRANCH   6   7
ATOM      7  C   UNL     1       9.215   9.194  -4.384  1.00  0.00    -0.000 C 
BRANCH   7   8
ATOM      8  C   UNL     1       9.139  10.057  -3.113  1.00  0.00    -0.000 C 
BRANCH   8   9
ATOM      9  C   UNL     1       8.819   9.229  -1.857  1.00  0.00    -0.000 C 
BRANCH   9  10
ATOM     10  C   UNL     1       7.761   9.900  -0.964  1.00  0.00    -0.000 C 
BRANCH  10  11
ATOM     11  C   UNL     1       7.840   9.430   0.496  1.00  0.00    -0.003 C 
ATOM     12  C   UNL     1       6.816   8.345   0.823  1.00  0.00     0.004 C 
ENDBRANCH  10  11
ENDBRANCH   9  10
ENDBRANCH   8   9
ENDBRANCH   7   8
ENDBRANCH   6   7
ENDBRANCH   5   6
ENDBRANCH   4   5
ENDBRANCH   3   4
ENDBRANCH   2   3
ENDBRANCH   1   2
BRANCH   1  13
ATOM     13  C   UNL     1       7.613   5.857  -5.678  1.00  0.00     0.000 C 
BRANCH  13  14
ATOM     14  C   UNL     1       7.566   6.049  -7.209  1.00  0.00     0.000 C 
BRANCH  14  15
ATOM     15  C   UNL     1       6.363   6.880  -7.687  1.00  0.00     0.000 C 
BRANCH  15  16
ATOM     16  C   UNL     1       5.449   6.108  -8.652  1.00  0.00     0.000 C 
BRANCH  16  17
ATOM     17  C   UNL     1       5.939   4.674  -8.924  1.00  0.00     0.000 C 
BRANCH  17  18
ATOM     18  C   UNL     1       4.957   3.562  -8.516  1.00  0.00     0.000 C 
BRANCH  18  19
ATOM     19  C   UNL     1       4.483   3.686  -7.059  1.00  0.00     0.000 C 
BRANCH  19  20
ATOM     20  C   UNL     1       4.958   2.517  -6.182  1.00  0.00     0.006 C 
BRANCH  20  21
ATOM     21  C   UNL     1       6.005   1.639  -6.882  1.00  0.00     0.053 C 
BRANCH  21  22
ATOM     22  C   UNL     1       6.003   0.261  -6.300  1.00  0.00     0.041 C 
ATOM     23  O   UNL     1       6.459   0.060  -5.144  1.00  0.00    -0.550 OA
ATOM     24  O   UNL     1       5.542  -0.811  -7.054  1.00  0.00    -0.550 OA
ENDBRANCH  21  22
ENDBRANCH  20  21
ENDBRANCH  19  20
ENDBRANCH  18  19
ENDBRANCH  17  18
ENDBRANCH  16  17
ENDBRANCH  15  16
ENDBRANCH  14  15
ENDBRANCH  13  14
ENDBRANCH   1  13
TORSDOF 20
ENDMDL
MODEL 9
REMARK VINA RESULT:    -2.979      3.786      7.650
REMARK INTER + INTRA:          -9.803
REMARK INTER:                  -6.518
REMARK INTRA:                  -3.285
REMARK UNBOUND:                -3.340
REMARK SMILES CCCCCCCCCCCCCCCCCCCCCC(=O)[O-]
REMARK SMILES IDX 12 1 11 2 10 3 9 4 8 5 7 6 6 7 5 8 4 9 3 10 2 11 1 12 13 13
REMARK SMILES IDX 14 14 15 15 16 16 17 17 18 18 19 19 20 20 21 21 22 22 23 23
REMARK SMILES IDX 24 24
REMARK H PARENT
REMARK Flexibility Score: inf
ROOT
ATOM      1  C   UNL     1       6.370   2.191  -7.009  1.00  0.00     0.000 C 
ENDROOT
BRANCH   1   2
ATOM      2  C   UNL     1       7.759   2.458  -7.607  1.00  0.00     0.000 C 
BRANCH   2   3
ATOM      3  C   UNL     1       8.899   1.868  -6.759  1.00  0.00     0.000 C 
BRANCH   3   4
ATOM      4  C   UNL     1       9.710   0.751  -7.446  1.00  0.00    -0.000 C 
BRANCH   4   5
ATOM      5  C   UNL     1       9.332   0.482  -8.915  1.00  0.00    -0.000 C 
BRANCH   5   6
ATOM      6  C   UNL     1       9.527  -0.975  -9.383  1.00  0.00    -0.000 C 
BRANCH   6   7
ATOM      7  C   UNL     1       8.239  -1.816  -9.436  1.00  0.00    -0.000 C 
BRANCH   7   8
ATOM      8  C   UNL     1       6.965  -0.960  -9.335  1.00  0.00    -0.000 C 
BRANCH   8   9
ATOM      9  C   UNL     1       5.827  -1.683  -8.596  1.00  0.00    -0.000 C 
BRANCH   9  10
ATOM     10  C   UNL     1       5.575  -1.102  -7.193  1.00  0.00    -0.000 C 
BRANCH  10  11
ATOM     11  C   UNL     1       6.334  -1.866  -6.096  1.00  0.00    -0.003 C 
ATOM     12  C   UNL     1       7.189  -0.948  -5.224  1.00  0.00     0.004 C 
ENDBRANCH  10  11
ENDBRANCH   9  10
ENDBRANCH   8   9
ENDBRANCH   7   8
ENDBRANCH   6   7
ENDBRANCH   5   6
ENDBRANCH   4   5
ENDBRANCH   3   4
ENDBRANCH   2   3
ENDBRANCH   1   2
BRANCH   1  13
ATOM     13  C   UNL     1       5.259   2.556  -8.007  1.00  0.00     0.000 C 
BRANCH  13  14
ATOM     14  C   UNL     1       5.804   2.768  -9.435  1.00  0.00     0.000 C 
BRANCH  14  15
ATOM     15  C   UNL     1       5.705   4.224  -9.921  1.00  0.00     0.000 C 
BRANCH  15  16
ATOM     16  C   UNL     1       4.973   5.138  -8.926  1.00  0.00     0.000 C 
BRANCH  16  17
ATOM     17  C   UNL     1       5.796   6.378  -8.532  1.00  0.00     0.000 C 
BRANCH  17  18
ATOM     18  C   UNL     1       6.904   6.122  -7.496  1.00  0.00     0.000 C 
BRANCH  18  19
ATOM     19  C   UNL     1       6.354   5.711  -6.120  1.00  0.00     0.000 C 
BRANCH  19  20
ATOM     20  C   UNL     1       6.962   6.533  -4.972  1.00  0.00     0.006 C 
BRANCH  20  21
ATOM     21  C   UNL     1       6.152   7.798  -4.657  1.00  0.00     0.053 C 
BRANCH  21  22
ATOM     22  C   UNL     1       5.922   7.916  -3.183  1.00  0.00     0.041 C 
ATOM     23  O   UNL     1       5.317   8.915  -2.714  1.00  0.00    -0.550 OA
ATOM     24  O   UNL     1       6.418   6.946  -2.322  1.00  0.00    -0.550 OA
ENDBRANCH  21  22
ENDBRANCH  20  21
ENDBRANCH  19  20
ENDBRANCH  18  19
ENDBRANCH  17  18
ENDBRANCH  16  17
ENDBRANCH  15  16
ENDBRANCH  14  15
ENDBRANCH  13  14
ENDBRANCH   1  13
TORSDOF 20
ENDMDL
