MODEL 1
REMARK VINA RESULT:    -5.186      0.000      0.000
REMARK INTER + INTRA:          -6.522
REMARK INTER:                  -6.247
REMARK INTRA:                  -0.275
REMARK UNBOUND:                -0.275
REMARK SMILES O=c1c(O)c(-c2ccc(O)c(O)c2)oc2cc(O)cc(O)c12
REMARK SMILES IDX 5 1 3 2 2 3 1 4 22 5 20 6 19 7 17 8 16 9 15 10 14 11 6 12
REMARK SMILES IDX 7 13 8 14 9 15 13 16 11 17 10 18 12 20 4 22 21 24 18 26
REMARK H PARENT 10 19 12 21 4 23 21 25 18 27
REMARK Flexibility Score: inf
ROOT
ATOM      1  C   UNL     1       0.424  12.457   9.695  1.00  0.00     0.180 A 
ATOM      2  C   UNL     1       1.677  11.944  10.073  1.00  0.00     0.208 A 
ATOM      3  C   UNL     1       2.017  11.912  11.436  1.00  0.00     0.238 A 
ATOM      4  O   UNL     1       3.117  11.402  11.772  1.00  0.00    -0.285 OA
ATOM      5  C   UNL     1       1.107  12.408  12.400  1.00  0.00     0.111 A 
ATOM      6  C   UNL     1       1.363  12.462  13.803  1.00  0.00     0.134 A 
ATOM      7  C   UNL     1       0.341  12.852  14.677  1.00  0.00     0.093 A 
ATOM      8  C   UNL     1      -0.905  13.251  14.197  1.00  0.00     0.123 A 
ATOM      9  C   UNL     1      -1.147  13.259  12.821  1.00  0.00     0.094 A 
ATOM     10  C   UNL     1      -0.159  12.841  11.927  1.00  0.00     0.146 A 
ATOM     11  O   UNL     1      -0.433  12.854  10.628  1.00  0.00    -0.452 OA
ENDROOT
BRANCH   1  12
ATOM     12  C   UNL     1       0.004  12.546   8.277  1.00  0.00     0.025 A 
ATOM     13  C   UNL     1       0.542  13.519   7.415  1.00  0.00     0.016 A 
ATOM     14  C   UNL     1       0.113  13.599   6.088  1.00  0.00     0.051 A 
ATOM     15  C   UNL     1      -0.866  12.721   5.606  1.00  0.00     0.157 A 
ATOM     16  C   UNL     1      -0.993  11.682   7.795  1.00  0.00     0.062 A 
ATOM     17  C   UNL     1      -1.424  11.759   6.466  1.00  0.00     0.158 A 
BRANCH  15  18
ATOM     18  O   UNL     1      -1.291  12.804   4.280  1.00  0.00    -0.504 OA
ATOM     19  H   UNL     1      -1.583  11.982   3.765  1.00  0.00     0.293 HD
ENDBRANCH  15  18
BRANCH  17  20
ATOM     20  O   UNL     1      -2.405  10.875   6.019  1.00  0.00    -0.504 OA
ATOM     21  H   UNL     1      -3.097  10.480   6.643  1.00  0.00     0.293 HD
ENDBRANCH  17  20
ENDBRANCH   1  12
BRANCH   2  22
ATOM     22  O   UNL     1       2.552  11.439   9.107  1.00  0.00    -0.502 OA
ATOM     23  H   UNL     1       2.310  10.658   8.508  1.00  0.00     0.293 HD
ENDBRANCH   2  22
BRANCH   6  24
ATOM     24  O   UNL     1       2.603  12.173  14.382  1.00  0.00    -0.507 OA
ATOM     25  H   UNL     1       2.760  11.459  15.079  1.00  0.00     0.293 HD
ENDBRANCH   6  24
BRANCH   8  26
ATOM     26  O   UNL     1      -1.894  13.648  15.094  1.00  0.00    -0.508 OA
ATOM     27  H   UNL     1      -2.458  14.473  14.930  1.00  0.00     0.293 HD
ENDBRANCH   8  26
TORSDOF 6
ENDMDL
MODEL 2
REMARK VINA RESULT:    -4.872     21.070     22.452
REMARK INTER + INTRA:          -6.144
REMARK INTER:                  -5.821
REMARK INTRA:                  -0.323
REMARK UNBOUND:                -0.275
REMARK SMILES O=c1c(O)c(-c2ccc(O)c(O)c2)oc2cc(O)cc(O)c12
REMARK SMILES IDX 5 1 3 2 2 3 1 4 22 5 20 6 19 7 17 8 16 9 15 10 14 11 6 12
REMARK SMILES IDX 7 13 8 14 9 15 13 16 11 17 10 18 12 20 4 22 21 24 18 26
REMARK H PARENT 10 19 12 21 4 23 21 25 18 27
REMARK Flexibility Score: inf
ROOT
ATOM      1  C   UNL     1     -14.054  29.971   9.254  1.00  0.00     0.180 A 
ATOM      2  C   UNL     1     -14.661  30.451  10.428  1.00  0.00     0.208 A 
ATOM      3  C   UNL     1     -13.875  30.618  11.580  1.00  0.00     0.238 A 
ATOM      4  O   UNL     1     -14.411  31.099  12.612  1.00  0.00    -0.285 OA
ATOM      5  C   UNL     1     -12.498  30.289  11.547  1.00  0.00     0.111 A 
ATOM      6  C   UNL     1     -11.617  30.381  12.667  1.00  0.00     0.134 A 
ATOM      7  C   UNL     1     -10.247  30.154  12.487  1.00  0.00     0.093 A 
ATOM      8  C   UNL     1      -9.736  29.776  11.246  1.00  0.00     0.123 A 
ATOM      9  C   UNL     1     -10.598  29.624  10.159  1.00  0.00     0.094 A 
ATOM     10  C   UNL     1     -11.964  29.879  10.299  1.00  0.00     0.146 A 
ATOM     11  O   UNL     1     -12.748  29.734   9.237  1.00  0.00    -0.452 OA
ENDROOT
BRANCH   1  12
ATOM     12  C   UNL     1     -14.821  29.745   8.007  1.00  0.00     0.025 A 
ATOM     13  C   UNL     1     -14.995  30.770   7.059  1.00  0.00     0.016 A 
ATOM     14  C   UNL     1     -15.742  30.540   5.901  1.00  0.00     0.051 A 
ATOM     15  C   UNL     1     -16.337  29.292   5.678  1.00  0.00     0.157 A 
ATOM     16  C   UNL     1     -15.437  28.501   7.788  1.00  0.00     0.062 A 
ATOM     17  C   UNL     1     -16.185  28.268   6.629  1.00  0.00     0.158 A 
BRANCH  15  18
ATOM     18  O   UNL     1     -17.081  29.066   4.520  1.00  0.00    -0.504 OA
ATOM     19  H   UNL     1     -17.411  28.141   4.274  1.00  0.00     0.293 HD
ENDBRANCH  15  18
BRANCH  17  20
ATOM     20  O   UNL     1     -16.769  27.016   6.440  1.00  0.00    -0.504 OA
ATOM     21  H   UNL     1     -16.512  26.414   5.669  1.00  0.00     0.293 HD
ENDBRANCH  17  20
ENDBRANCH   1  12
BRANCH   2  22
ATOM     22  O   UNL     1     -16.016  30.790  10.432  1.00  0.00    -0.502 OA
ATOM     23  H   UNL     1     -16.571  30.805  11.279  1.00  0.00     0.293 HD
ENDBRANCH   2  22
BRANCH   6  24
ATOM     24  O   UNL     1     -12.037  30.663  13.970  1.00  0.00    -0.507 OA
ATOM     25  H   UNL     1     -12.553  31.486  14.243  1.00  0.00     0.293 HD
ENDBRANCH   6  24
BRANCH   8  26
ATOM     26  O   UNL     1      -8.370  29.542  11.107  1.00  0.00    -0.508 OA
ATOM     27  H   UNL     1      -7.972  29.230  10.229  1.00  0.00     0.293 HD
ENDBRANCH   8  26
TORSDOF 6
ENDMDL
MODEL 3
REMARK VINA RESULT:    -4.531     19.902     21.876
REMARK INTER + INTRA:          -5.733
REMARK INTER:                  -5.671
REMARK INTRA:                  -0.062
REMARK UNBOUND:                -0.275
REMARK SMILES O=c1c(O)c(-c2ccc(O)c(O)c2)oc2cc(O)cc(O)c12
REMARK SMILES IDX 5 1 3 2 2 3 1 4 22 5 20 6 19 7 17 8 16 9 15 10 14 11 6 12
REMARK SMILES IDX 7 13 8 14 9 15 13 16 11 17 10 18 12 20 4 22 21 24 18 26
REMARK H PARENT 10 19 12 21 4 23 21 25 18 27
REMARK Flexibility Score: inf
ROOT
ATOM      1  C   UNL     1     -10.466  30.275  10.469  1.00  0.00     0.180 A 
ATOM      2  C   UNL     1      -9.981  30.379   9.154  1.00  0.00     0.208 A 
ATOM      3  C   UNL     1     -10.899  30.459   8.094  1.00  0.00     0.238 A 
ATOM      4  O   UNL     1     -10.460  30.607   6.924  1.00  0.00    -0.285 OA
ATOM      5  C   UNL     1     -12.288  30.418   8.362  1.00  0.00     0.111 A 
ATOM      6  C   UNL     1     -13.308  30.451   7.362  1.00  0.00     0.134 A 
ATOM      7  C   UNL     1     -14.650  30.537   7.749  1.00  0.00     0.093 A 
ATOM      8  C   UNL     1     -15.016  30.524   9.094  1.00  0.00     0.123 A 
ATOM      9  C   UNL     1     -14.031  30.432  10.078  1.00  0.00     0.094 A 
ATOM     10  C   UNL     1     -12.680  30.382   9.725  1.00  0.00     0.146 A 
ATOM     11  O   UNL     1     -11.775  30.306  10.693  1.00  0.00    -0.452 OA
ENDROOT
BRANCH   1  12
ATOM     12  C   UNL     1      -9.561  30.162  11.636  1.00  0.00     0.025 A 
ATOM     13  C   UNL     1      -8.567  31.125  11.888  1.00  0.00     0.016 A 
ATOM     14  C   UNL     1      -7.709  30.985  12.982  1.00  0.00     0.051 A 
ATOM     15  C   UNL     1      -7.821  29.877  13.831  1.00  0.00     0.157 A 
ATOM     16  C   UNL     1      -9.655  29.042  12.479  1.00  0.00     0.062 A 
ATOM     17  C   UNL     1      -8.798  28.899  13.575  1.00  0.00     0.158 A 
BRANCH  15  18
ATOM     18  O   UNL     1      -6.964  29.741  14.923  1.00  0.00    -0.504 OA
ATOM     19  H   UNL     1      -7.246  29.245  15.760  1.00  0.00     0.293 HD
ENDBRANCH  15  18
BRANCH  17  20
ATOM     20  O   UNL     1      -8.931  27.781  14.398  1.00  0.00    -0.504 OA
ATOM     21  H   UNL     1      -8.725  27.814  15.389  1.00  0.00     0.293 HD
ENDBRANCH  17  20
ENDBRANCH   1  12
BRANCH   2  22
ATOM     22  O   UNL     1      -8.605  30.440   8.914  1.00  0.00    -0.502 OA
ATOM     23  H   UNL     1      -8.025  31.193   9.264  1.00  0.00     0.293 HD
ENDBRANCH   2  22
BRANCH   6  24
ATOM     24  O   UNL     1     -13.057  30.376   5.989  1.00  0.00    -0.507 OA
ATOM     25  H   UNL     1     -12.396  29.745   5.559  1.00  0.00     0.293 HD
ENDBRANCH   6  24
BRANCH   8  26
ATOM     26  O   UNL     1     -16.363  30.594   9.442  1.00  0.00    -0.508 OA
ATOM     27  H   UNL     1     -16.748  31.405   9.912  1.00  0.00     0.293 HD
ENDBRANCH   8  26
TORSDOF 6
ENDMDL
MODEL 4
REMARK VINA RESULT:    -4.515      1.743      6.920
REMARK INTER + INTRA:          -5.713
REMARK INTER:                  -5.658
REMARK INTRA:                  -0.056
REMARK UNBOUND:                -0.275
REMARK SMILES O=c1c(O)c(-c2ccc(O)c(O)c2)oc2cc(O)cc(O)c12
REMARK SMILES IDX 5 1 3 2 2 3 1 4 22 5 20 6 19 7 17 8 16 9 15 10 14 11 6 12
REMARK SMILES IDX 7 13 8 14 9 15 13 16 11 17 10 18 12 20 4 22 21 24 18 26
REMARK H PARENT 10 19 12 21 4 23 21 25 18 27
REMARK Flexibility Score: inf
ROOT
ATOM      1  C   UNL     1      -0.022  11.693   9.024  1.00  0.00     0.180 A 
ATOM      2  C   UNL     1       1.029  11.740   8.092  1.00  0.00     0.208 A 
ATOM      3  C   UNL     1       0.741  11.550   6.730  1.00  0.00     0.238 A 
ATOM      4  O   UNL     1       1.677  11.647   5.895  1.00  0.00    -0.285 OA
ATOM      5  C   UNL     1      -0.591  11.299   6.321  1.00  0.00     0.111 A 
ATOM      6  C   UNL     1      -0.991  11.052   4.973  1.00  0.00     0.134 A 
ATOM      7  C   UNL     1      -2.353  10.946   4.666  1.00  0.00     0.093 A 
ATOM      8  C   UNL     1      -3.324  11.012   5.664  1.00  0.00     0.123 A 
ATOM      9  C   UNL     1      -2.940  11.194   6.994  1.00  0.00     0.094 A 
ATOM     10  C   UNL     1      -1.591  11.339   7.326  1.00  0.00     0.146 A 
ATOM     11  O   UNL     1      -1.269  11.521   8.601  1.00  0.00    -0.452 OA
ENDROOT
BRANCH   1  12
ATOM     12  C   UNL     1       0.206  11.859  10.478  1.00  0.00     0.025 A 
ATOM     13  C   UNL     1       1.154  11.078  11.164  1.00  0.00     0.016 A 
ATOM     14  C   UNL     1       1.335  11.235  12.540  1.00  0.00     0.051 A 
ATOM     15  C   UNL     1       0.566  12.163  13.254  1.00  0.00     0.157 A 
ATOM     16  C   UNL     1      -0.577  12.773  11.202  1.00  0.00     0.062 A 
ATOM     17  C   UNL     1      -0.398  12.933  12.580  1.00  0.00     0.158 A 
BRANCH  15  18
ATOM     18  O   UNL     1       0.750  12.319  14.627  1.00  0.00    -0.504 OA
ATOM     19  H   UNL     1       0.881  13.232  15.044  1.00  0.00     0.293 HD
ENDBRANCH  15  18
BRANCH  17  20
ATOM     20  O   UNL     1      -1.184  13.861  13.262  1.00  0.00    -0.504 OA
ATOM     21  H   UNL     1      -1.415  14.764  12.867  1.00  0.00     0.293 HD
ENDBRANCH  17  20
ENDBRANCH   1  12
BRANCH   2  22
ATOM     22  O   UNL     1       2.334  12.010   8.515  1.00  0.00    -0.502 OA
ATOM     23  H   UNL     1       2.583  12.863   9.000  1.00  0.00     0.293 HD
ENDBRANCH   2  22
BRANCH   6  24
ATOM     24  O   UNL     1      -0.097  10.877   3.912  1.00  0.00    -0.507 OA
ATOM     25  H   UNL     1      -0.130  10.115   3.252  1.00  0.00     0.293 HD
ENDBRANCH   6  24
BRANCH   8  26
ATOM     26  O   UNL     1      -4.669  10.887   5.325  1.00  0.00    -0.508 OA
ATOM     27  H   UNL     1      -5.396  10.881   6.030  1.00  0.00     0.293 HD
ENDBRANCH   8  26
TORSDOF 6
ENDMDL
MODEL 5
REMARK VINA RESULT:    -4.401      1.471      1.979
REMARK INTER + INTRA:          -5.576
REMARK INTER:                  -5.923
REMARK INTRA:                   0.347
REMARK UNBOUND:                -0.275
REMARK SMILES O=c1c(O)c(-c2ccc(O)c(O)c2)oc2cc(O)cc(O)c12
REMARK SMILES IDX 5 1 3 2 2 3 1 4 22 5 20 6 19 7 17 8 16 9 15 10 14 11 6 12
REMARK SMILES IDX 7 13 8 14 9 15 13 16 11 17 10 18 12 20 4 22 21 24 18 26
REMARK H PARENT 10 19 12 21 4 23 21 25 18 27
REMARK Flexibility Score: inf
ROOT
ATOM      1  C   UNL     1      -0.204  11.747   8.347  1.00  0.00     0.180 A 
ATOM      2  C   UNL     1       1.192  11.594   8.386  1.00  0.00     0.208 A 
ATOM      3  C   UNL     1       1.874  11.868   9.583  1.00  0.00     0.238 A 
ATOM      4  O   UNL     1       3.117  11.677   9.628  1.00  0.00    -0.285 OA
ATOM      5  C   UNL     1       1.153  12.307  10.719  1.00  0.00     0.111 A 
ATOM      6  C   UNL     1       1.746  12.652  11.972  1.00  0.00     0.134 A 
ATOM      7  C   UNL     1       0.924  12.948  13.066  1.00  0.00     0.093 A 
ATOM      8  C   UNL     1      -0.464  12.976  12.939  1.00  0.00     0.123 A 
ATOM      9  C   UNL     1      -1.051  12.699  11.703  1.00  0.00     0.094 A 
ATOM     10  C   UNL     1      -0.260  12.364  10.602  1.00  0.00     0.146 A 
ATOM     11  O   UNL     1      -0.859  12.096   9.448  1.00  0.00    -0.452 OA
ENDROOT
BRANCH   1  12
ATOM     12  C   UNL     1      -0.990  11.501   7.116  1.00  0.00     0.025 A 
ATOM     13  C   UNL     1      -0.386  11.521   5.846  1.00  0.00     0.016 A 
ATOM     14  C   UNL     1      -1.151  11.309   4.697  1.00  0.00     0.051 A 
ATOM     15  C   UNL     1      -2.531  11.089   4.796  1.00  0.00     0.157 A 
ATOM     16  C   UNL     1      -2.377  11.300   7.209  1.00  0.00     0.062 A 
ATOM     17  C   UNL     1      -3.147  11.087   6.060  1.00  0.00     0.158 A 
BRANCH  15  18
ATOM     18  O   UNL     1      -3.292  10.877   3.647  1.00  0.00    -0.504 OA
ATOM     19  H   UNL     1      -3.906  10.076   3.557  1.00  0.00     0.293 HD
ENDBRANCH  15  18
BRANCH  17  20
ATOM     20  O   UNL     1      -4.519  10.877   6.192  1.00  0.00    -0.504 OA
ATOM     21  H   UNL     1      -4.904  10.273   6.907  1.00  0.00     0.293 HD
ENDBRANCH  17  20
ENDBRANCH   1  12
BRANCH   2  22
ATOM     22  O   UNL     1       1.882  11.139   7.259  1.00  0.00    -0.502 OA
ATOM     23  H   UNL     1       1.483  10.471   6.610  1.00  0.00     0.293 HD
ENDBRANCH   2  22
BRANCH   6  24
ATOM     24  O   UNL     1       3.125  12.745  12.183  1.00  0.00    -0.507 OA
ATOM     25  H   UNL     1       3.756  11.958  12.216  1.00  0.00     0.293 HD
ENDBRANCH   6  24
BRANCH   8  26
ATOM     26  O   UNL     1      -1.250  13.291  14.044  1.00  0.00    -0.508 OA
ATOM     27  H   UNL     1      -1.410  14.251  14.326  1.00  0.00     0.293 HD
ENDBRANCH   8  26
TORSDOF 6
ENDMDL
MODEL 6
REMARK VINA RESULT:    -4.101     20.838     22.921
REMARK INTER + INTRA:          -5.215
REMARK INTER:                  -5.257
REMARK INTRA:                   0.042
REMARK UNBOUND:                -0.275
REMARK SMILES O=c1c(O)c(-c2ccc(O)c(O)c2)oc2cc(O)cc(O)c12
REMARK SMILES IDX 5 1 3 2 2 3 1 4 22 5 20 6 19 7 17 8 16 9 15 10 14 11 6 12
REMARK SMILES IDX 7 13 8 14 9 15 13 16 11 17 10 18 12 20 4 22 21 24 18 26
REMARK H PARENT 10 19 12 21 4 23 21 25 18 27
REMARK Flexibility Score: inf
ROOT
ATOM      1  C   UNL     1     -12.329  30.328   9.856  1.00  0.00     0.180 A 
ATOM      2  C   UNL     1     -13.554  30.443  10.534  1.00  0.00     0.208 A 
ATOM      3  C   UNL     1     -14.735  30.587   9.786  1.00  0.00     0.238 A 
ATOM      4  O   UNL     1     -15.835  30.635  10.397  1.00  0.00    -0.285 OA
ATOM      5  C   UNL     1     -14.673  30.631   8.373  1.00  0.00     0.111 A 
ATOM      6  C   UNL     1     -15.801  30.814   7.517  1.00  0.00     0.134 A 
ATOM      7  C   UNL     1     -15.639  30.711   6.131  1.00  0.00     0.093 A 
ATOM      8  C   UNL     1     -14.384  30.496   5.565  1.00  0.00     0.123 A 
ATOM      9  C   UNL     1     -13.264  30.375   6.390  1.00  0.00     0.094 A 
ATOM     10  C   UNL     1     -13.399  30.437   7.779  1.00  0.00     0.146 A 
ATOM     11  O   UNL     1     -12.311  30.306   8.528  1.00  0.00    -0.452 OA
ENDROOT
BRANCH   1  12
ATOM     12  C   UNL     1     -11.040  30.198  10.574  1.00  0.00     0.025 A 
ATOM     13  C   UNL     1      -9.930  30.994  10.236  1.00  0.00     0.016 A 
ATOM     14  C   UNL     1      -8.718  30.837  10.911  1.00  0.00     0.051 A 
ATOM     15  C   UNL     1      -8.589  29.876  11.922  1.00  0.00     0.157 A 
ATOM     16  C   UNL     1     -10.900  29.221  11.574  1.00  0.00     0.062 A 
ATOM     17  C   UNL     1      -9.687  29.062  12.252  1.00  0.00     0.158 A 
BRANCH  15  18
ATOM     18  O   UNL     1      -7.377  29.724  12.595  1.00  0.00    -0.504 OA
ATOM     19  H   UNL     1      -6.633  29.148  12.222  1.00  0.00     0.293 HD
ENDBRANCH  15  18
BRANCH  17  20
ATOM     20  O   UNL     1      -9.590  28.092  13.249  1.00  0.00    -0.504 OA
ATOM     21  H   UNL     1     -10.335  27.930  13.916  1.00  0.00     0.293 HD
ENDBRANCH  17  20
ENDBRANCH   1  12
BRANCH   2  22
ATOM     22  O   UNL     1     -13.596  30.375  11.929  1.00  0.00    -0.502 OA
ATOM     23  H   UNL     1     -14.214  29.745  12.425  1.00  0.00     0.293 HD
ENDBRANCH   2  22
BRANCH   6  24
ATOM     24  O   UNL     1     -17.085  31.125   7.975  1.00  0.00    -0.507 OA
ATOM     25  H   UNL     1     -17.301  31.872   8.619  1.00  0.00     0.293 HD
ENDBRANCH   6  24
BRANCH   8  26
ATOM     26  O   UNL     1     -14.257  30.414   4.180  1.00  0.00    -0.508 OA
ATOM     27  H   UNL     1     -13.719  31.094   3.656  1.00  0.00     0.293 HD
ENDBRANCH   8  26
TORSDOF 6
ENDMDL
MODEL 7
REMARK VINA RESULT:    -3.828     20.785     21.907
REMARK INTER + INTRA:          -4.886
REMARK INTER:                  -4.830
REMARK INTRA:                  -0.056
REMARK UNBOUND:                -0.275
REMARK SMILES O=c1c(O)c(-c2ccc(O)c(O)c2)oc2cc(O)cc(O)c12
REMARK SMILES IDX 5 1 3 2 2 3 1 4 22 5 20 6 19 7 17 8 16 9 15 10 14 11 6 12
REMARK SMILES IDX 7 13 8 14 9 15 13 16 11 17 10 18 12 20 4 22 21 24 18 26
REMARK H PARENT 10 19 12 21 4 23 21 25 18 27
REMARK Flexibility Score: inf
ROOT
ATOM      1  C   UNL     1     -12.366  30.351   8.968  1.00  0.00     0.180 A 
ATOM      2  C   UNL     1     -11.057  30.383   8.458  1.00  0.00     0.208 A 
ATOM      3  C   UNL     1      -9.982  30.539   9.350  1.00  0.00     0.238 A 
ATOM      4  O   UNL     1      -8.810  30.512   8.893  1.00  0.00    -0.285 OA
ATOM      5  C   UNL     1     -10.232  30.676  10.736  1.00  0.00     0.111 A 
ATOM      6  C   UNL     1      -9.222  30.880  11.725  1.00  0.00     0.134 A 
ATOM      7  C   UNL     1      -9.573  30.872  13.080  1.00  0.00     0.093 A 
ATOM      8  C   UNL     1     -10.900  30.734  13.481  1.00  0.00     0.123 A 
ATOM      9  C   UNL     1     -11.903  30.595  12.519  1.00  0.00     0.094 A 
ATOM     10  C   UNL     1     -11.580  30.562  11.161  1.00  0.00     0.146 A 
ATOM     11  O   UNL     1     -12.563  30.417  10.280  1.00  0.00    -0.452 OA
ENDROOT
BRANCH   1  12
ATOM     12  C   UNL     1     -13.551  30.215   8.090  1.00  0.00     0.025 A 
ATOM     13  C   UNL     1     -13.750  31.072   6.992  1.00  0.00     0.016 A 
ATOM     14  C   UNL     1     -14.888  30.940   6.192  1.00  0.00     0.051 A 
ATOM     15  C   UNL     1     -15.848  29.962   6.482  1.00  0.00     0.157 A 
ATOM     16  C   UNL     1     -14.527  29.250   8.389  1.00  0.00     0.062 A 
ATOM     17  C   UNL     1     -15.667  29.115   7.589  1.00  0.00     0.158 A 
BRANCH  15  18
ATOM     18  O   UNL     1     -16.981  29.833   5.680  1.00  0.00    -0.504 OA
ATOM     19  H   UNL     1     -17.821  29.379   6.018  1.00  0.00     0.293 HD
ENDBRANCH  15  18
BRANCH  17  20
ATOM     20  O   UNL     1     -16.607  28.136   7.908  1.00  0.00    -0.504 OA
ATOM     21  H   UNL     1     -17.597  28.269   7.747  1.00  0.00     0.293 HD
ENDBRANCH  17  20
ENDBRANCH   1  12
BRANCH   2  22
ATOM     22  O   UNL     1     -10.831  30.224   7.088  1.00  0.00    -0.502 OA
ATOM     23  H   UNL     1     -10.217  30.835   6.563  1.00  0.00     0.293 HD
ENDBRANCH   2  22
BRANCH   6  24
ATOM     24  O   UNL     1      -7.877  31.120  11.429  1.00  0.00    -0.507 OA
ATOM     25  H   UNL     1      -7.217  30.413  11.139  1.00  0.00     0.293 HD
ENDBRANCH   6  24
BRANCH   8  26
ATOM     26  O   UNL     1     -11.215  30.747  14.838  1.00  0.00    -0.508 OA
ATOM     27  H   UNL     1     -11.937  30.148  15.221  1.00  0.00     0.293 HD
ENDBRANCH   8  26
TORSDOF 6
ENDMDL
MODEL 8
REMARK VINA RESULT:    -3.814      1.942      7.334
REMARK INTER + INTRA:          -4.869
REMARK INTER:                  -4.583
REMARK INTRA:                  -0.286
REMARK UNBOUND:                -0.275
REMARK SMILES O=c1c(O)c(-c2ccc(O)c(O)c2)oc2cc(O)cc(O)c12
REMARK SMILES IDX 5 1 3 2 2 3 1 4 22 5 20 6 19 7 17 8 16 9 15 10 14 11 6 12
REMARK SMILES IDX 7 13 8 14 9 15 13 16 11 17 10 18 12 20 4 22 21 24 18 26
REMARK H PARENT 10 19 12 21 4 23 21 25 18 27
REMARK Flexibility Score: inf
ROOT
ATOM      1  C   UNL     1       0.015  11.732   9.786  1.00  0.00     0.180 A 
ATOM      2  C   UNL     1      -1.332  11.526   9.441  1.00  0.00     0.208 A 
ATOM      3  C   UNL     1      -1.659  11.268   8.099  1.00  0.00     0.238 A 
ATOM      4  O   UNL     1      -2.860  11.031   7.805  1.00  0.00    -0.285 OA
ATOM      5  C   UNL     1      -0.638  11.235   7.120  1.00  0.00     0.111 A 
ATOM      6  C   UNL     1      -0.860  11.022   5.725  1.00  0.00     0.134 A 
ATOM      7  C   UNL     1       0.236  10.880   4.866  1.00  0.00     0.093 A 
ATOM      8  C   UNL     1       1.542  11.007   5.336  1.00  0.00     0.123 A 
ATOM      9  C   UNL     1       1.769  11.275   6.688  1.00  0.00     0.094 A 
ATOM     10  C   UNL     1       0.697  11.386   7.576  1.00  0.00     0.146 A 
ATOM     11  O   UNL     1       0.956  11.630   8.855  1.00  0.00    -0.452 OA
ENDROOT
BRANCH   1  12
ATOM     12  C   UNL     1       0.436  12.034  11.174  1.00  0.00     0.025 A 
ATOM     13  C   UNL     1       0.532  11.022  12.146  1.00  0.00     0.016 A 
ATOM     14  C   UNL     1       0.908  11.334  13.454  1.00  0.00     0.051 A 
ATOM     15  C   UNL     1       1.180  12.660  13.816  1.00  0.00     0.157 A 
ATOM     16  C   UNL     1       0.689  13.365  11.547  1.00  0.00     0.062 A 
ATOM     17  C   UNL     1       1.066  13.680  12.856  1.00  0.00     0.158 A 
BRANCH  15  18
ATOM     18  O   UNL     1       1.557  12.967  15.123  1.00  0.00    -0.504 OA
ATOM     19  H   UNL     1       1.615  12.254  15.839  1.00  0.00     0.293 HD
ENDBRANCH  15  18
BRANCH  17  20
ATOM     20  O   UNL     1       1.323  15.011  13.186  1.00  0.00    -0.504 OA
ATOM     21  H   UNL     1       0.730  15.532  13.819  1.00  0.00     0.293 HD
ENDBRANCH  17  20
ENDBRANCH   1  12
BRANCH   2  22
ATOM     22  O   UNL     1      -2.321  11.542  10.427  1.00  0.00    -0.502 OA
ATOM     23  H   UNL     1      -2.188  11.992  11.325  1.00  0.00     0.293 HD
ENDBRANCH   2  22
BRANCH   6  24
ATOM     24  O   UNL     1      -2.127  10.971   5.135  1.00  0.00    -0.507 OA
ATOM     25  H   UNL     1      -2.299  10.984   4.141  1.00  0.00     0.293 HD
ENDBRANCH   6  24
BRANCH   8  26
ATOM     26  O   UNL     1       2.609  10.875   4.450  1.00  0.00    -0.508 OA
ATOM     27  H   UNL     1       3.311  10.154   4.568  1.00  0.00     0.293 HD
ENDBRANCH   8  26
TORSDOF 6
ENDMDL
MODEL 9
REMARK VINA RESULT:    -3.456     20.644     22.023
REMARK INTER + INTRA:          -4.439
REMARK INTER:                  -4.784
REMARK INTRA:                   0.345
REMARK UNBOUND:                -0.275
REMARK SMILES O=c1c(O)c(-c2ccc(O)c(O)c2)oc2cc(O)cc(O)c12
REMARK SMILES IDX 5 1 3 2 2 3 1 4 22 5 20 6 19 7 17 8 16 9 15 10 14 11 6 12
REMARK SMILES IDX 7 13 8 14 9 15 13 16 11 17 10 18 12 20 4 22 21 24 18 26
REMARK H PARENT 10 19 12 21 4 23 21 25 18 27
REMARK Flexibility Score: inf
ROOT
ATOM      1  C   UNL     1     -12.254  30.630   9.770  1.00  0.00     0.180 A 
ATOM      2  C   UNL     1     -13.127  30.829  10.853  1.00  0.00     0.208 A 
ATOM      3  C   UNL     1     -12.597  30.892  12.153  1.00  0.00     0.238 A 
ATOM      4  O   UNL     1     -13.377  31.125  13.112  1.00  0.00    -0.285 OA
ATOM      5  C   UNL     1     -11.204  30.738  12.353  1.00  0.00     0.111 A 
ATOM      6  C   UNL     1     -10.564  30.744  13.629  1.00  0.00     0.134 A 
ATOM      7  C   UNL     1      -9.166  30.714  13.700  1.00  0.00     0.093 A 
ATOM      8  C   UNL     1      -8.388  30.613  12.548  1.00  0.00     0.123 A 
ATOM      9  C   UNL     1      -9.006  30.547  11.298  1.00  0.00     0.094 A 
ATOM     10  C   UNL     1     -10.397  30.611  11.193  1.00  0.00     0.146 A 
ATOM     11  O   UNL     1     -10.945  30.555   9.985  1.00  0.00    -0.452 OA
ENDROOT
BRANCH   1  12
ATOM     12  C   UNL     1     -12.739  30.528   8.374  1.00  0.00     0.025 A 
ATOM     13  C   UNL     1     -11.936  30.925   7.290  1.00  0.00     0.016 A 
ATOM     14  C   UNL     1     -12.424  30.842   5.984  1.00  0.00     0.051 A 
ATOM     15  C   UNL     1     -13.722  30.375   5.741  1.00  0.00     0.157 A 
ATOM     16  C   UNL     1     -14.047  30.080   8.127  1.00  0.00     0.062 A 
ATOM     17  C   UNL     1     -14.539  29.995   6.820  1.00  0.00     0.158 A 
BRANCH  15  18
ATOM     18  O   UNL     1     -14.205  30.292   4.435  1.00  0.00    -0.504 OA
ATOM     19  H   UNL     1     -15.135  29.945   4.235  1.00  0.00     0.293 HD
ENDBRANCH  15  18
BRANCH  17  20
ATOM     20  O   UNL     1     -15.837  29.532   6.613  1.00  0.00    -0.504 OA
ATOM     21  H   UNL     1     -16.215  29.388   5.685  1.00  0.00     0.293 HD
ENDBRANCH  17  20
ENDBRANCH   1  12
BRANCH   2  22
ATOM     22  O   UNL     1     -14.496  31.000  10.631  1.00  0.00    -0.502 OA
ATOM     23  H   UNL     1     -15.176  30.281  10.846  1.00  0.00     0.293 HD
ENDBRANCH   2  22
BRANCH   6  24
ATOM     24  O   UNL     1     -11.251  30.750  14.847  1.00  0.00    -0.507 OA
ATOM     25  H   UNL     1     -12.256  30.769  14.941  1.00  0.00     0.293 HD
ENDBRANCH   6  24
BRANCH   8  26
ATOM     26  O   UNL     1      -7.000  30.570  12.657  1.00  0.00    -0.508 OA
ATOM     27  H   UNL     1      -6.424  30.151  11.936  1.00  0.00     0.293 HD
ENDBRANCH   8  26
TORSDOF 6
ENDMDL
