MODEL 1
REMARK VINA RESULT:    -6.565      0.000      0.000
REMARK INTER + INTRA:          -8.211
REMARK INTER:                  -7.909
REMARK INTRA:                  -0.303
REMARK UNBOUND:                -0.303
REMARK SMILES O=c1c(O)c(-c2ccc(O)c(O)c2)oc2cc(O)cc(O)c12
REMARK SMILES IDX 5 1 3 2 2 3 1 4 22 5 20 6 19 7 17 8 16 9 15 10 14 11 6 12
REMARK SMILES IDX 7 13 8 14 9 15 13 16 11 17 10 18 12 20 4 22 21 24 18 26
REMARK H PARENT 10 19 12 21 4 23 21 25 18 27
REMARK Flexibility Score: inf
ROOT
ATOM      1  C   UNL     1     134.826 136.322 142.715  1.00  0.00     0.180 A 
ATOM      2  C   UNL     1     134.929 137.639 143.198  1.00  0.00     0.208 A 
ATOM      3  C   UNL     1     136.204 138.185 143.416  1.00  0.00     0.238 A 
ATOM      4  O   UNL     1     136.291 139.382 143.797  1.00  0.00    -0.285 OA
ATOM      5  C   UNL     1     137.358 137.405 143.164  1.00  0.00     0.111 A 
ATOM      6  C   UNL     1     138.698 137.844 143.387  1.00  0.00     0.134 A 
ATOM      7  C   UNL     1     139.767 137.035 142.979  1.00  0.00     0.093 A 
ATOM      8  C   UNL     1     139.543 135.776 142.417  1.00  0.00     0.123 A 
ATOM      9  C   UNL     1     138.240 135.314 142.249  1.00  0.00     0.094 A 
ATOM     10  C   UNL     1     137.153 136.113 142.613  1.00  0.00     0.146 A 
ATOM     11  O   UNL     1     135.928 135.639 142.426  1.00  0.00    -0.452 OA
ENDROOT
BRANCH   1  12
ATOM     12  C   UNL     1     133.517 135.668 142.485  1.00  0.00     0.025 A 
ATOM     13  C   UNL     1     132.763 135.145 143.550  1.00  0.00     0.016 A 
ATOM     14  C   UNL     1     131.542 134.511 143.306  1.00  0.00     0.051 A 
ATOM     15  C   UNL     1     131.063 134.378 141.996  1.00  0.00     0.157 A 
ATOM     16  C   UNL     1     133.043 135.513 141.172  1.00  0.00     0.062 A 
ATOM     17  C   UNL     1     131.820 134.880 140.924  1.00  0.00     0.158 A 
BRANCH  15  18
ATOM     18  O   UNL     1     129.844 133.747 141.757  1.00  0.00    -0.504 OA
ATOM     19  H   UNL     1     129.532 132.963 142.319  1.00  0.00     0.293 HD
ENDBRANCH  15  18
BRANCH  17  20
ATOM     20  O   UNL     1     131.375 134.756 139.608  1.00  0.00    -0.504 OA
ATOM     21  H   UNL     1     131.929 134.302 138.892  1.00  0.00     0.293 HD
ENDBRANCH  17  20
ENDBRANCH   1  12
BRANCH   2  22
ATOM     22  O   UNL     1     133.778 138.398 143.420  1.00  0.00    -0.502 OA
ATOM     23  H   UNL     1     132.846 138.026 143.283  1.00  0.00     0.293 HD
ENDBRANCH   2  22
BRANCH   6  24
ATOM     24  O   UNL     1     139.031 139.042 144.026  1.00  0.00    -0.507 OA
ATOM     25  H   UNL     1     139.971 139.392 144.138  1.00  0.00     0.293 HD
ENDBRANCH   6  24
BRANCH   8  26
ATOM     26  O   UNL     1     140.612 134.972 142.028  1.00  0.00    -0.508 OA
ATOM     27  H   UNL     1     141.117 134.403 142.697  1.00  0.00     0.293 HD
ENDBRANCH   8  26
TORSDOF 6
ENDMDL
MODEL 2
REMARK VINA RESULT:    -6.207      1.781      6.727
REMARK INTER + INTRA:          -7.780
REMARK INTER:                  -7.486
REMARK INTRA:                  -0.294
REMARK UNBOUND:                -0.303
REMARK SMILES O=c1c(O)c(-c2ccc(O)c(O)c2)oc2cc(O)cc(O)c12
REMARK SMILES IDX 5 1 3 2 2 3 1 4 22 5 20 6 19 7 17 8 16 9 15 10 14 11 6 12
REMARK SMILES IDX 7 13 8 14 9 15 13 16 11 17 10 18 12 20 4 22 21 24 18 26
REMARK H PARENT 10 19 12 21 4 23 21 25 18 27
REMARK Flexibility Score: inf
ROOT
ATOM      1  C   UNL     1     136.193 136.008 141.891  1.00  0.00     0.180 A 
ATOM      2  C   UNL     1     135.534 136.671 142.941  1.00  0.00     0.208 A 
ATOM      3  C   UNL     1     134.131 136.713 142.946  1.00  0.00     0.238 A 
ATOM      4  O   UNL     1     133.546 137.261 143.917  1.00  0.00    -0.285 OA
ATOM      5  C   UNL     1     133.404 136.105 141.895  1.00  0.00     0.111 A 
ATOM      6  C   UNL     1     131.981 136.121 141.777  1.00  0.00     0.134 A 
ATOM      7  C   UNL     1     131.363 135.376 140.765  1.00  0.00     0.093 A 
ATOM      8  C   UNL     1     132.119 134.670 139.827  1.00  0.00     0.123 A 
ATOM      9  C   UNL     1     133.510 134.696 139.897  1.00  0.00     0.094 A 
ATOM     10  C   UNL     1     134.155 135.401 140.917  1.00  0.00     0.146 A 
ATOM     11  O   UNL     1     135.481 135.391 140.953  1.00  0.00    -0.452 OA
ENDROOT
BRANCH   1  12
ATOM     12  C   UNL     1     137.669 135.943 141.802  1.00  0.00     0.025 A 
ATOM     13  C   UNL     1     138.409 135.017 142.558  1.00  0.00     0.016 A 
ATOM     14  C   UNL     1     139.803 134.991 142.476  1.00  0.00     0.051 A 
ATOM     15  C   UNL     1     140.481 135.897 141.649  1.00  0.00     0.157 A 
ATOM     16  C   UNL     1     138.354 136.863 140.991  1.00  0.00     0.062 A 
ATOM     17  C   UNL     1     139.751 136.839 140.905  1.00  0.00     0.158 A 
BRANCH  15  18
ATOM     18  O   UNL     1     141.871 135.866 141.567  1.00  0.00    -0.504 OA
ATOM     19  H   UNL     1     142.401 135.046 141.841  1.00  0.00     0.293 HD
ENDBRANCH  15  18
BRANCH  17  20
ATOM     20  O   UNL     1     140.395 137.759 140.078  1.00  0.00    -0.504 OA
ATOM     21  H   UNL     1     140.029 138.016 139.170  1.00  0.00     0.293 HD
ENDBRANCH  17  20
ENDBRANCH   1  12
BRANCH   2  22
ATOM     22  O   UNL     1     136.271 137.245 143.980  1.00  0.00    -0.502 OA
ATOM     23  H   UNL     1     136.500 136.741 144.828  1.00  0.00     0.293 HD
ENDBRANCH   2  22
BRANCH   6  24
ATOM     24  O   UNL     1     131.138 136.868 142.606  1.00  0.00    -0.507 OA
ATOM     25  H   UNL     1     130.911 136.630 143.559  1.00  0.00     0.293 HD
ENDBRANCH   6  24
BRANCH   8  26
ATOM     26  O   UNL     1     131.497 133.943 138.814  1.00  0.00    -0.508 OA
ATOM     27  H   UNL     1     131.157 133.002 138.970  1.00  0.00     0.293 HD
ENDBRANCH   8  26
TORSDOF 6
ENDMDL
MODEL 3
REMARK VINA RESULT:    -6.068      2.214      7.125
REMARK INTER + INTRA:          -7.612
REMARK INTER:                  -7.277
REMARK INTRA:                  -0.335
REMARK UNBOUND:                -0.303
REMARK SMILES O=c1c(O)c(-c2ccc(O)c(O)c2)oc2cc(O)cc(O)c12
REMARK SMILES IDX 5 1 3 2 2 3 1 4 22 5 20 6 19 7 17 8 16 9 15 10 14 11 6 12
REMARK SMILES IDX 7 13 8 14 9 15 13 16 11 17 10 18 12 20 4 22 21 24 18 26
REMARK H PARENT 10 19 12 21 4 23 21 25 18 27
REMARK Flexibility Score: inf
ROOT
ATOM      1  C   UNL     1     134.759 136.061 141.359  1.00  0.00     0.180 A 
ATOM      2  C   UNL     1     134.010 135.112 140.641  1.00  0.00     0.208 A 
ATOM      3  C   UNL     1     132.608 135.187 140.673  1.00  0.00     0.238 A 
ATOM      4  O   UNL     1     131.944 134.368 139.985  1.00  0.00    -0.285 OA
ATOM      5  C   UNL     1     131.973 136.197 141.434  1.00  0.00     0.111 A 
ATOM      6  C   UNL     1     130.559 136.342 141.570  1.00  0.00     0.134 A 
ATOM      7  C   UNL     1     130.041 137.456 142.242  1.00  0.00     0.093 A 
ATOM      8  C   UNL     1     130.886 138.395 142.839  1.00  0.00     0.123 A 
ATOM      9  C   UNL     1     132.267 138.230 142.763  1.00  0.00     0.094 A 
ATOM     10  C   UNL     1     132.814 137.149 142.069  1.00  0.00     0.146 A 
ATOM     11  O   UNL     1     134.135 137.036 142.011  1.00  0.00    -0.452 OA
ENDROOT
BRANCH   1  12
ATOM     12  C   UNL     1     136.239 136.032 141.396  1.00  0.00     0.025 A 
ATOM     13  C   UNL     1     136.934 135.290 142.366  1.00  0.00     0.016 A 
ATOM     14  C   UNL     1     138.330 135.298 142.395  1.00  0.00     0.051 A 
ATOM     15  C   UNL     1     139.054 136.055 141.465  1.00  0.00     0.157 A 
ATOM     16  C   UNL     1     136.968 136.807 140.478  1.00  0.00     0.062 A 
ATOM     17  C   UNL     1     138.368 136.816 140.503  1.00  0.00     0.158 A 
BRANCH  15  18
ATOM     18  O   UNL     1     140.447 136.058 141.495  1.00  0.00    -0.504 OA
ATOM     19  H   UNL     1     140.960 136.344 142.322  1.00  0.00     0.293 HD
ENDBRANCH  15  18
BRANCH  17  20
ATOM     20  O   UNL     1     139.058 137.586 139.568  1.00  0.00    -0.504 OA
ATOM     21  H   UNL     1     138.651 138.411 139.144  1.00  0.00     0.293 HD
ENDBRANCH  17  20
ENDBRANCH   1  12
BRANCH   2  22
ATOM     22  O   UNL     1     134.657 134.136 139.879  1.00  0.00    -0.502 OA
ATOM     23  H   UNL     1     134.176 133.585 139.179  1.00  0.00     0.293 HD
ENDBRANCH   2  22
BRANCH   6  24
ATOM     24  O   UNL     1     129.630 135.413 141.092  1.00  0.00    -0.507 OA
ATOM     25  H   UNL     1     129.600 134.441 141.359  1.00  0.00     0.293 HD
ENDBRANCH   6  24
BRANCH   8  26
ATOM     26  O   UNL     1     130.361 139.492 143.518  1.00  0.00    -0.508 OA
ATOM     27  H   UNL     1     130.882 139.960 144.251  1.00  0.00     0.293 HD
ENDBRANCH   8  26
TORSDOF 6
ENDMDL
MODEL 4
REMARK VINA RESULT:    -6.042      6.757      8.356
REMARK INTER + INTRA:          -7.581
REMARK INTER:                  -7.324
REMARK INTRA:                  -0.257
REMARK UNBOUND:                -0.303
REMARK SMILES O=c1c(O)c(-c2ccc(O)c(O)c2)oc2cc(O)cc(O)c12
REMARK SMILES IDX 5 1 3 2 2 3 1 4 22 5 20 6 19 7 17 8 16 9 15 10 14 11 6 12
REMARK SMILES IDX 7 13 8 14 9 15 13 16 11 17 10 18 12 20 4 22 21 24 18 26
REMARK H PARENT 10 19 12 21 4 23 21 25 18 27
REMARK Flexibility Score: inf
ROOT
ATOM      1  C   UNL     1     139.770 141.499 141.061  1.00  0.00     0.180 A 
ATOM      2  C   UNL     1     140.167 140.270 141.617  1.00  0.00     0.208 A 
ATOM      3  C   UNL     1     141.420 139.740 141.272  1.00  0.00     0.238 A 
ATOM      4  O   UNL     1     141.792 138.667 141.814  1.00  0.00    -0.285 OA
ATOM      5  C   UNL     1     142.254 140.436 140.364  1.00  0.00     0.111 A 
ATOM      6  C   UNL     1     143.527 139.972 139.914  1.00  0.00     0.134 A 
ATOM      7  C   UNL     1     144.323 140.805 139.117  1.00  0.00     0.093 A 
ATOM      8  C   UNL     1     143.864 142.057 138.701  1.00  0.00     0.123 A 
ATOM      9  C   UNL     1     142.599 142.493 139.086  1.00  0.00     0.094 A 
ATOM     10  C   UNL     1     141.796 141.701 139.911  1.00  0.00     0.146 A 
ATOM     11  O   UNL     1     140.602 142.160 140.263  1.00  0.00    -0.452 OA
ENDROOT
BRANCH   1  12
ATOM     12  C   UNL     1     138.454 142.109 141.356  1.00  0.00     0.025 A 
ATOM     13  C   UNL     1     137.420 142.118 140.403  1.00  0.00     0.016 A 
ATOM     14  C   UNL     1     136.195 142.721 140.696  1.00  0.00     0.051 A 
ATOM     15  C   UNL     1     135.986 143.335 141.937  1.00  0.00     0.157 A 
ATOM     16  C   UNL     1     138.247 142.745 142.592  1.00  0.00     0.062 A 
ATOM     17  C   UNL     1     137.020 143.348 142.889  1.00  0.00     0.158 A 
BRANCH  15  18
ATOM     18  O   UNL     1     134.761 143.932 142.227  1.00  0.00    -0.504 OA
ATOM     19  H   UNL     1     134.436 144.042 143.181  1.00  0.00     0.293 HD
ENDBRANCH  15  18
BRANCH  17  20
ATOM     20  O   UNL     1     136.847 143.957 144.131  1.00  0.00    -0.504 OA
ATOM     21  H   UNL     1     136.432 144.876 144.228  1.00  0.00     0.293 HD
ENDBRANCH  17  20
ENDBRANCH   1  12
BRANCH   2  22
ATOM     22  O   UNL     1     139.337 139.611 142.527  1.00  0.00    -0.502 OA
ATOM     23  H   UNL     1     139.620 139.419 143.481  1.00  0.00     0.293 HD
ENDBRANCH   2  22
BRANCH   6  24
ATOM     24  O   UNL     1     144.039 138.702 140.195  1.00  0.00    -0.507 OA
ATOM     25  H   UNL     1     144.715 138.215 139.625  1.00  0.00     0.293 HD
ENDBRANCH   6  24
BRANCH   8  26
ATOM     26  O   UNL     1     144.657 142.872 137.895  1.00  0.00    -0.508 OA
ATOM     27  H   UNL     1     145.364 142.484 137.282  1.00  0.00     0.293 HD
ENDBRANCH   8  26
TORSDOF 6
ENDMDL
MODEL 5
REMARK VINA RESULT:    -6.006      1.786      3.033
REMARK INTER + INTRA:          -7.537
REMARK INTER:                  -7.203
REMARK INTRA:                  -0.335
REMARK UNBOUND:                -0.303
REMARK SMILES O=c1c(O)c(-c2ccc(O)c(O)c2)oc2cc(O)cc(O)c12
REMARK SMILES IDX 5 1 3 2 2 3 1 4 22 5 20 6 19 7 17 8 16 9 15 10 14 11 6 12
REMARK SMILES IDX 7 13 8 14 9 15 13 16 11 17 10 18 12 20 4 22 21 24 18 26
REMARK H PARENT 10 19 12 21 4 23 21 25 18 27
REMARK Flexibility Score: inf
ROOT
ATOM      1  C   UNL     1     135.390 136.684 142.509  1.00  0.00     0.180 A 
ATOM      2  C   UNL     1     136.415 136.360 141.603  1.00  0.00     0.208 A 
ATOM      3  C   UNL     1     137.746 136.625 141.959  1.00  0.00     0.238 A 
ATOM      4  O   UNL     1     138.663 136.283 141.168  1.00  0.00    -0.285 OA
ATOM      5  C   UNL     1     138.036 137.225 143.208  1.00  0.00     0.111 A 
ATOM      6  C   UNL     1     139.346 137.575 143.656  1.00  0.00     0.134 A 
ATOM      7  C   UNL     1     139.527 138.043 144.963  1.00  0.00     0.093 A 
ATOM      8  C   UNL     1     138.438 138.237 145.816  1.00  0.00     0.123 A 
ATOM      9  C   UNL     1     137.150 137.955 145.369  1.00  0.00     0.094 A 
ATOM     10  C   UNL     1     136.940 137.452 144.082  1.00  0.00     0.146 A 
ATOM     11  O   UNL     1     135.698 137.186 143.700  1.00  0.00    -0.452 OA
ENDROOT
BRANCH   1  12
ATOM     12  C   UNL     1     133.960 136.459 142.195  1.00  0.00     0.025 A 
ATOM     13  C   UNL     1     133.194 137.432 141.530  1.00  0.00     0.016 A 
ATOM     14  C   UNL     1     131.841 137.207 141.266  1.00  0.00     0.051 A 
ATOM     15  C   UNL     1     131.230 136.014 141.671  1.00  0.00     0.157 A 
ATOM     16  C   UNL     1     133.337 135.273 142.619  1.00  0.00     0.062 A 
ATOM     17  C   UNL     1     131.983 135.044 142.354  1.00  0.00     0.158 A 
BRANCH  15  18
ATOM     18  O   UNL     1     129.880 135.791 141.404  1.00  0.00    -0.504 OA
ATOM     19  H   UNL     1     129.198 136.539 141.459  1.00  0.00     0.293 HD
ENDBRANCH  15  18
BRANCH  17  20
ATOM     20  O   UNL     1     131.402 133.849 142.779  1.00  0.00    -0.504 OA
ATOM     21  H   UNL     1     131.519 133.498 143.722  1.00  0.00     0.293 HD
ENDBRANCH  17  20
ENDBRANCH   1  12
BRANCH   2  22
ATOM     22  O   UNL     1     136.108 135.749 140.385  1.00  0.00    -0.502 OA
ATOM     23  H   UNL     1     135.751 136.267 139.591  1.00  0.00     0.293 HD
ENDBRANCH   2  22
BRANCH   6  24
ATOM     24  O   UNL     1     140.489 137.507 142.853  1.00  0.00    -0.507 OA
ATOM     25  H   UNL     1     140.794 136.684 142.355  1.00  0.00     0.293 HD
ENDBRANCH   6  24
BRANCH   8  26
ATOM     26  O   UNL     1     138.626 138.718 147.110  1.00  0.00    -0.508 OA
ATOM     27  H   UNL     1     138.139 138.314 147.901  1.00  0.00     0.293 HD
ENDBRANCH   8  26
TORSDOF 6
ENDMDL
MODEL 6
REMARK VINA RESULT:    -5.950      3.590      5.479
REMARK INTER + INTRA:          -7.470
REMARK INTER:                  -7.135
REMARK INTRA:                  -0.335
REMARK UNBOUND:                -0.303
REMARK SMILES O=c1c(O)c(-c2ccc(O)c(O)c2)oc2cc(O)cc(O)c12
REMARK SMILES IDX 5 1 3 2 2 3 1 4 22 5 20 6 19 7 17 8 16 9 15 10 14 11 6 12
REMARK SMILES IDX 7 13 8 14 9 15 13 16 11 17 10 18 12 20 4 22 21 24 18 26
REMARK H PARENT 10 19 12 21 4 23 21 25 18 27
REMARK Flexibility Score: inf
ROOT
ATOM      1  C   UNL     1     136.053 139.014 141.502  1.00  0.00     0.180 A 
ATOM      2  C   UNL     1     137.246 139.219 142.217  1.00  0.00     0.208 A 
ATOM      3  C   UNL     1     137.595 140.524 142.599  1.00  0.00     0.238 A 
ATOM      4  O   UNL     1     138.636 140.695 143.285  1.00  0.00    -0.285 OA
ATOM      5  C   UNL     1     136.756 141.609 142.248  1.00  0.00     0.111 A 
ATOM      6  C   UNL     1     137.031 142.977 142.549  1.00  0.00     0.134 A 
ATOM      7  C   UNL     1     136.067 143.954 142.269  1.00  0.00     0.093 A 
ATOM      8  C   UNL     1     134.865 143.619 141.639  1.00  0.00     0.123 A 
ATOM      9  C   UNL     1     134.613 142.295 141.288  1.00  0.00     0.094 A 
ATOM     10  C   UNL     1     135.540 141.294 141.587  1.00  0.00     0.146 A 
ATOM     11  O   UNL     1     135.255 140.044 141.245  1.00  0.00    -0.452 OA
ENDROOT
BRANCH   1  12
ATOM     12  C   UNL     1     135.631 137.671 141.043  1.00  0.00     0.025 A 
ATOM     13  C   UNL     1     136.036 137.162 139.796  1.00  0.00     0.016 A 
ATOM     14  C   UNL     1     135.605 135.903 139.374  1.00  0.00     0.051 A 
ATOM     15  C   UNL     1     134.755 135.137 140.182  1.00  0.00     0.157 A 
ATOM     16  C   UNL     1     134.761 136.909 141.840  1.00  0.00     0.062 A 
ATOM     17  C   UNL     1     134.329 135.645 141.421  1.00  0.00     0.158 A 
BRANCH  15  18
ATOM     18  O   UNL     1     134.330 133.880 139.758  1.00  0.00    -0.504 OA
ATOM     19  H   UNL     1     134.039 133.711 138.802  1.00  0.00     0.293 HD
ENDBRANCH  15  18
BRANCH  17  20
ATOM     20  O   UNL     1     133.477 134.912 142.245  1.00  0.00    -0.504 OA
ATOM     21  H   UNL     1     133.320 133.920 142.112  1.00  0.00     0.293 HD
ENDBRANCH  17  20
ENDBRANCH   1  12
BRANCH   2  22
ATOM     22  O   UNL     1     138.049 138.132 142.571  1.00  0.00    -0.502 OA
ATOM     23  H   UNL     1     137.810 137.177 142.329  1.00  0.00     0.293 HD
ENDBRANCH   2  22
BRANCH   6  24
ATOM     24  O   UNL     1     138.238 143.429 143.092  1.00  0.00    -0.507 OA
ATOM     25  H   UNL     1     138.339 144.262 143.653  1.00  0.00     0.293 HD
ENDBRANCH   6  24
BRANCH   8  26
ATOM     26  O   UNL     1     133.918 144.599 141.350  1.00  0.00    -0.508 OA
ATOM     27  H   UNL     1     134.187 145.561 141.175  1.00  0.00     0.293 HD
ENDBRANCH   8  26
TORSDOF 6
ENDMDL
MODEL 7
REMARK VINA RESULT:    -5.786      4.040      5.563
REMARK INTER + INTRA:          -7.273
REMARK INTER:                  -6.949
REMARK INTRA:                  -0.324
REMARK UNBOUND:                -0.303
REMARK SMILES O=c1c(O)c(-c2ccc(O)c(O)c2)oc2cc(O)cc(O)c12
REMARK SMILES IDX 5 1 3 2 2 3 1 4 22 5 20 6 19 7 17 8 16 9 15 10 14 11 6 12
REMARK SMILES IDX 7 13 8 14 9 15 13 16 11 17 10 18 12 20 4 22 21 24 18 26
REMARK H PARENT 10 19 12 21 4 23 21 25 18 27
REMARK Flexibility Score: inf
ROOT
ATOM      1  C   UNL     1     134.621 139.527 140.758  1.00  0.00     0.180 A 
ATOM      2  C   UNL     1     133.498 140.348 140.556  1.00  0.00     0.208 A 
ATOM      3  C   UNL     1     133.597 141.719 140.841  1.00  0.00     0.238 A 
ATOM      4  O   UNL     1     132.605 142.458 140.607  1.00  0.00    -0.285 OA
ATOM      5  C   UNL     1     134.810 142.249 141.340  1.00  0.00     0.111 A 
ATOM      6  C   UNL     1     135.010 143.616 141.701  1.00  0.00     0.134 A 
ATOM      7  C   UNL     1     136.291 144.055 142.060  1.00  0.00     0.093 A 
ATOM      8  C   UNL     1     137.364 143.163 142.135  1.00  0.00     0.123 A 
ATOM      9  C   UNL     1     137.166 141.816 141.842  1.00  0.00     0.094 A 
ATOM     10  C   UNL     1     135.908 141.355 141.446  1.00  0.00     0.146 A 
ATOM     11  O   UNL     1     135.765 140.066 141.166  1.00  0.00    -0.452 OA
ENDROOT
BRANCH   1  12
ATOM     12  C   UNL     1     134.587 138.068 140.505  1.00  0.00     0.025 A 
ATOM     13  C   UNL     1     134.882 137.538 139.237  1.00  0.00     0.016 A 
ATOM     14  C   UNL     1     134.820 136.161 139.015  1.00  0.00     0.051 A 
ATOM     15  C   UNL     1     134.451 135.293 140.051  1.00  0.00     0.157 A 
ATOM     16  C   UNL     1     134.196 137.196 141.535  1.00  0.00     0.062 A 
ATOM     17  C   UNL     1     134.135 135.815 141.317  1.00  0.00     0.158 A 
BRANCH  15  18
ATOM     18  O   UNL     1     134.393 133.919 139.827  1.00  0.00    -0.504 OA
ATOM     19  H   UNL     1     133.851 133.527 139.065  1.00  0.00     0.293 HD
ENDBRANCH  15  18
BRANCH  17  20
ATOM     20  O   UNL     1     133.756 134.980 142.367  1.00  0.00    -0.504 OA
ATOM     21  H   UNL     1     132.820 134.992 142.754  1.00  0.00     0.293 HD
ENDBRANCH  17  20
ENDBRANCH   1  12
BRANCH   2  22
ATOM     22  O   UNL     1     132.316 139.808 140.042  1.00  0.00    -0.502 OA
ATOM     23  H   UNL     1     132.009 138.867 140.259  1.00  0.00     0.293 HD
ENDBRANCH   2  22
BRANCH   6  24
ATOM     24  O   UNL     1     133.988 144.568 141.750  1.00  0.00    -0.507 OA
ATOM     25  H   UNL     1     133.896 145.277 142.462  1.00  0.00     0.293 HD
ENDBRANCH   6  24
BRANCH   8  26
ATOM     26  O   UNL     1     138.631 143.606 142.508  1.00  0.00    -0.508 OA
ATOM     27  H   UNL     1     138.758 144.279 143.255  1.00  0.00     0.293 HD
ENDBRANCH   8  26
TORSDOF 6
ENDMDL
MODEL 8
REMARK VINA RESULT:    -5.773      4.865      7.798
REMARK INTER + INTRA:          -7.256
REMARK INTER:                  -6.922
REMARK INTRA:                  -0.335
REMARK UNBOUND:                -0.303
REMARK SMILES O=c1c(O)c(-c2ccc(O)c(O)c2)oc2cc(O)cc(O)c12
REMARK SMILES IDX 5 1 3 2 2 3 1 4 22 5 20 6 19 7 17 8 16 9 15 10 14 11 6 12
REMARK SMILES IDX 7 13 8 14 9 15 13 16 11 17 10 18 12 20 4 22 21 24 18 26
REMARK H PARENT 10 19 12 21 4 23 21 25 18 27
REMARK Flexibility Score: inf
ROOT
ATOM      1  C   UNL     1     131.538 139.561 139.914  1.00  0.00     0.180 A 
ATOM      2  C   UNL     1     130.323 139.240 140.545  1.00  0.00     0.208 A 
ATOM      3  C   UNL     1     130.062 137.901 140.876  1.00  0.00     0.238 A 
ATOM      4  O   UNL     1     128.997 137.628 141.489  1.00  0.00    -0.285 OA
ATOM      5  C   UNL     1     131.009 136.899 140.559  1.00  0.00     0.111 A 
ATOM      6  C   UNL     1     130.831 135.505 140.813  1.00  0.00     0.134 A 
ATOM      7  C   UNL     1     131.889 134.619 140.576  1.00  0.00     0.093 A 
ATOM      8  C   UNL     1     133.096 135.067 140.033  1.00  0.00     0.123 A 
ATOM      9  C   UNL     1     133.259 136.416 139.727  1.00  0.00     0.094 A 
ATOM     10  C   UNL     1     132.234 137.330 139.985  1.00  0.00     0.146 A 
ATOM     11  O   UNL     1     132.435 138.607 139.689  1.00  0.00    -0.452 OA
ENDROOT
BRANCH   1  12
ATOM     12  C   UNL     1     131.874 140.946 139.511  1.00  0.00     0.025 A 
ATOM     13  C   UNL     1     131.516 141.449 138.248  1.00  0.00     0.016 A 
ATOM     14  C   UNL     1     131.865 142.750 137.881  1.00  0.00     0.051 A 
ATOM     15  C   UNL     1     132.588 143.565 138.762  1.00  0.00     0.157 A 
ATOM     16  C   UNL     1     132.618 141.759 140.382  1.00  0.00     0.062 A 
ATOM     17  C   UNL     1     132.969 143.064 140.018  1.00  0.00     0.158 A 
BRANCH  15  18
ATOM     18  O   UNL     1     132.932 144.863 138.393  1.00  0.00    -0.504 OA
ATOM     19  H   UNL     1     132.841 145.186 137.436  1.00  0.00     0.293 HD
ENDBRANCH  15  18
BRANCH  17  20
ATOM     20  O   UNL     1     133.696 143.846 140.915  1.00  0.00    -0.504 OA
ATOM     21  H   UNL     1     134.589 144.255 140.671  1.00  0.00     0.293 HD
ENDBRANCH  17  20
ENDBRANCH   1  12
BRANCH   2  22
ATOM     22  O   UNL     1     129.411 140.248 140.868  1.00  0.00    -0.502 OA
ATOM     23  H   UNL     1     129.696 141.126 141.285  1.00  0.00     0.293 HD
ENDBRANCH   2  22
BRANCH   6  24
ATOM     24  O   UNL     1     129.634 134.941 141.267  1.00  0.00    -0.507 OA
ATOM     25  H   UNL     1     129.452 133.951 141.325  1.00  0.00     0.293 HD
ENDBRANCH   6  24
BRANCH   8  26
ATOM     26  O   UNL     1     134.138 134.176 139.787  1.00  0.00    -0.508 OA
ATOM     27  H   UNL     1     134.406 133.473 140.465  1.00  0.00     0.293 HD
ENDBRANCH   8  26
TORSDOF 6
ENDMDL
MODEL 9
REMARK VINA RESULT:    -5.771      4.722      8.947
REMARK INTER + INTRA:          -7.254
REMARK INTER:                  -6.930
REMARK INTRA:                  -0.324
REMARK UNBOUND:                -0.303
REMARK SMILES O=c1c(O)c(-c2ccc(O)c(O)c2)oc2cc(O)cc(O)c12
REMARK SMILES IDX 5 1 3 2 2 3 1 4 22 5 20 6 19 7 17 8 16 9 15 10 14 11 6 12
REMARK SMILES IDX 7 13 8 14 9 15 13 16 11 17 10 18 12 20 4 22 21 24 18 26
REMARK H PARENT 10 19 12 21 4 23 21 25 18 27
REMARK Flexibility Score: inf
ROOT
ATOM      1  C   UNL     1     140.492 140.355 140.951  1.00  0.00     0.180 A 
ATOM      2  C   UNL     1     139.423 140.970 141.627  1.00  0.00     0.208 A 
ATOM      3  C   UNL     1     138.527 140.170 142.353  1.00  0.00     0.238 A 
ATOM      4  O   UNL     1     137.604 140.731 143.000  1.00  0.00    -0.285 OA
ATOM      5  C   UNL     1     138.699 138.765 142.382  1.00  0.00     0.111 A 
ATOM      6  C   UNL     1     137.828 137.855 143.053  1.00  0.00     0.134 A 
ATOM      7  C   UNL     1     138.169 136.498 143.124  1.00  0.00     0.093 A 
ATOM      8  C   UNL     1     139.316 136.010 142.492  1.00  0.00     0.123 A 
ATOM      9  C   UNL     1     140.141 136.881 141.785  1.00  0.00     0.094 A 
ATOM     10  C   UNL     1     139.846 138.245 141.727  1.00  0.00     0.146 A 
ATOM     11  O   UNL     1     140.665 139.042 141.051  1.00  0.00    -0.452 OA
ENDROOT
BRANCH   1  12
ATOM     12  C   UNL     1     141.463 141.128 140.144  1.00  0.00     0.025 A 
ATOM     13  C   UNL     1     141.185 141.491 138.815  1.00  0.00     0.016 A 
ATOM     14  C   UNL     1     142.127 142.200 138.065  1.00  0.00     0.051 A 
ATOM     15  C   UNL     1     143.363 142.546 138.625  1.00  0.00     0.157 A 
ATOM     16  C   UNL     1     142.712 141.459 140.695  1.00  0.00     0.062 A 
ATOM     17  C   UNL     1     143.657 142.170 139.947  1.00  0.00     0.158 A 
BRANCH  15  18
ATOM     18  O   UNL     1     144.299 143.256 137.876  1.00  0.00    -0.504 OA
ATOM     19  H   UNL     1     144.018 143.982 137.225  1.00  0.00     0.293 HD
ENDBRANCH  15  18
BRANCH  17  20
ATOM     20  O   UNL     1     144.881 142.492 140.532  1.00  0.00    -0.504 OA
ATOM     21  H   UNL     1     145.451 141.801 141.005  1.00  0.00     0.293 HD
ENDBRANCH  17  20
ENDBRANCH   1  12
BRANCH   2  22
ATOM     22  O   UNL     1     139.283 142.360 141.603  1.00  0.00    -0.502 OA
ATOM     23  H   UNL     1     140.050 142.980 141.371  1.00  0.00     0.293 HD
ENDBRANCH   2  22
BRANCH   6  24
ATOM     24  O   UNL     1     136.613 138.224 143.637  1.00  0.00    -0.507 OA
ATOM     25  H   UNL     1     135.971 137.585 144.081  1.00  0.00     0.293 HD
ENDBRANCH   6  24
BRANCH   8  26
ATOM     26  O   UNL     1     139.639 134.656 142.555  1.00  0.00    -0.508 OA
ATOM     27  H   UNL     1     139.041 133.990 143.030  1.00  0.00     0.293 HD
ENDBRANCH   8  26
TORSDOF 6
ENDMDL
