MODEL 1
REMARK VINA RESULT:    -0.597      0.000      0.000
REMARK INTER + INTRA:          -0.187
REMARK INTER:                  -1.364
REMARK INTRA:                   1.178
REMARK UNBOUND:                 1.178
REMARK SMILES CCCCCCCCCCCCCCCCCCCCCCCC(=O)[O-]
REMARK SMILES IDX 13 1 14 2 15 3 16 4 17 5 18 6 19 7 20 8 21 9 22 10 23 11
REMARK SMILES IDX 24 12 25 13 26 14 12 15 11 16 10 17 9 18 8 19 7 20 6 21 5 22
REMARK SMILES IDX 4 23 3 24 2 25 1 26
REMARK H PARENT
REMARK Flexibility Score: inf
ROOT
ATOM      1  C   UNL     1     -15.790  16.179  -8.443  1.00  0.00     0.000 C 
ENDROOT
BRANCH   1   2
ATOM      2  C   UNL     1     -15.240  15.428  -7.216  1.00  0.00     0.000 C 
BRANCH   2   3
ATOM      3  C   UNL     1     -14.543  14.087  -7.520  1.00  0.00     0.000 C 
BRANCH   3   4
ATOM      4  C   UNL     1     -15.357  13.124  -8.407  1.00  0.00     0.000 C 
BRANCH   4   5
ATOM      5  C   UNL     1     -16.810  13.583  -8.660  1.00  0.00     0.000 C 
BRANCH   5   6
ATOM      6  C   UNL     1     -17.117  13.818 -10.150  1.00  0.00     0.000 C 
BRANCH   6   7
ATOM      7  C   UNL     1     -16.172  14.859 -10.783  1.00  0.00     0.000 C 
BRANCH   7   8
ATOM      8  C   UNL     1     -15.865  14.551 -12.260  1.00  0.00     0.000 C 
BRANCH   8   9
ATOM      9  C   UNL     1     -17.056  13.867 -12.959  1.00  0.00     0.000 C 
BRANCH   9  10
ATOM     10  C   UNL     1     -16.950  12.332 -12.946  1.00  0.00     0.006 C 
BRANCH  10  11
ATOM     11  C   UNL     1     -15.509  11.845 -12.744  1.00  0.00     0.053 C 
BRANCH  11  12
ATOM     12  C   UNL     1     -15.358  11.195 -11.406  1.00  0.00     0.041 C 
ATOM     13  O   UNL     1     -14.368  11.467 -10.675  1.00  0.00    -0.550 OA
ATOM     14  O   UNL     1     -16.327  10.310 -10.948  1.00  0.00    -0.550 OA
ENDBRANCH  11  12
ENDBRANCH  10  11
ENDBRANCH   9  10
ENDBRANCH   8   9
ENDBRANCH   7   8
ENDBRANCH   6   7
ENDBRANCH   5   6
ENDBRANCH   4   5
ENDBRANCH   3   4
ENDBRANCH   2   3
ENDBRANCH   1   2
BRANCH   1  15
ATOM     15  C   UNL     1     -16.345  17.570  -8.096  1.00  0.00     0.000 C 
BRANCH  15  16
ATOM     16  C   UNL     1     -16.512  18.433  -9.352  1.00  0.00     0.000 C 
BRANCH  16  17
ATOM     17  C   UNL     1     -16.186  17.631 -10.621  1.00  0.00     0.000 C 
BRANCH  17  18
ATOM     18  C   UNL     1     -15.965  18.558 -11.821  1.00  0.00    -0.000 C 
BRANCH  18  19
ATOM     19  C   UNL     1     -17.124  19.555 -11.969  1.00  0.00    -0.000 C 
BRANCH  19  20
ATOM     20  C   UNL     1     -16.708  20.994 -11.628  1.00  0.00    -0.000 C 
BRANCH  20  21
ATOM     21  C   UNL     1     -16.393  21.829 -12.881  1.00  0.00    -0.000 C 
BRANCH  21  22
ATOM     22  C   UNL     1     -14.891  22.125 -13.013  1.00  0.00    -0.000 C 
BRANCH  22  23
ATOM     23  C   UNL     1     -14.057  20.837 -13.119  1.00  0.00    -0.000 C 
BRANCH  23  24
ATOM     24  C   UNL     1     -12.891  20.814 -12.109  1.00  0.00    -0.000 C 
BRANCH  24  25
ATOM     25  C   UNL     1     -12.794  22.098 -11.266  1.00  0.00    -0.003 C 
ATOM     26  C   UNL     1     -11.595  22.096 -10.318  1.00  0.00     0.004 C 
ENDBRANCH  24  25
ENDBRANCH  23  24
ENDBRANCH  22  23
ENDBRANCH  21  22
ENDBRANCH  20  21
ENDBRANCH  19  20
ENDBRANCH  18  19
ENDBRANCH  17  18
ENDBRANCH  16  17
ENDBRANCH  15  16
ENDBRANCH   1  15
TORSDOF 22
ENDMDL
MODEL 2
REMARK VINA RESULT:    -0.487      1.913      3.932
REMARK INTER + INTRA:           0.065
REMARK INTER:                  -3.054
REMARK INTRA:                   3.119
REMARK UNBOUND:                 1.178
REMARK SMILES CCCCCCCCCCCCCCCCCCCCCCCC(=O)[O-]
REMARK SMILES IDX 13 1 14 2 15 3 16 4 17 5 18 6 19 7 20 8 21 9 22 10 23 11
REMARK SMILES IDX 24 12 25 13 26 14 12 15 11 16 10 17 9 18 8 19 7 20 6 21 5 22
REMARK SMILES IDX 4 23 3 24 2 25 1 26
REMARK H PARENT
REMARK Flexibility Score: inf
ROOT
ATOM      1  C   UNL     1     -15.686  14.413 -11.734  1.00  0.00     0.000 C 
ENDROOT
BRANCH   1   2
ATOM      2  C   UNL     1     -14.904  13.545 -12.738  1.00  0.00     0.000 C 
BRANCH   2   3
ATOM      3  C   UNL     1     -13.884  12.572 -12.116  1.00  0.00     0.000 C 
BRANCH   3   4
ATOM      4  C   UNL     1     -14.447  11.177 -11.779  1.00  0.00     0.000 C 
BRANCH   4   5
ATOM      5  C   UNL     1     -15.654  10.762 -12.649  1.00  0.00     0.000 C 
BRANCH   5   6
ATOM      6  C   UNL     1     -16.989  11.337 -12.142  1.00  0.00     0.000 C 
BRANCH   6   7
ATOM      7  C   UNL     1     -17.039  11.428 -10.604  1.00  0.00     0.000 C 
BRANCH   7   8
ATOM      8  C   UNL     1     -16.959  12.880 -10.099  1.00  0.00     0.000 C 
BRANCH   8   9
ATOM      9  C   UNL     1     -15.911  13.038  -8.981  1.00  0.00     0.000 C 
BRANCH   9  10
ATOM     10  C   UNL     1     -15.780  14.491  -8.490  1.00  0.00     0.006 C 
BRANCH  10  11
ATOM     11  C   UNL     1     -15.793  14.597  -6.960  1.00  0.00     0.053 C 
BRANCH  11  12
ATOM     12  C   UNL     1     -15.553  13.257  -6.340  1.00  0.00     0.041 C 
ATOM     13  O   UNL     1     -14.398  12.753  -6.342  1.00  0.00    -0.550 OA
ATOM     14  O   UNL     1     -16.599  12.574  -5.731  1.00  0.00    -0.550 OA
ENDBRANCH  11  12
ENDBRANCH  10  11
ENDBRANCH   9  10
ENDBRANCH   8   9
ENDBRANCH   7   8
ENDBRANCH   6   7
ENDBRANCH   5   6
ENDBRANCH   4   5
ENDBRANCH   3   4
ENDBRANCH   2   3
ENDBRANCH   1   2
BRANCH   1  15
ATOM     15  C   UNL     1     -17.094  14.783 -12.228  1.00  0.00     0.000 C 
BRANCH  15  16
ATOM     16  C   UNL     1     -17.062  16.025 -13.125  1.00  0.00     0.000 C 
BRANCH  16  17
ATOM     17  C   UNL     1     -15.682  16.698 -13.087  1.00  0.00     0.000 C 
BRANCH  17  18
ATOM     18  C   UNL     1     -15.794  18.169 -12.671  1.00  0.00    -0.000 C 
BRANCH  18  19
ATOM     19  C   UNL     1     -15.903  18.304 -11.145  1.00  0.00    -0.000 C 
BRANCH  19  20
ATOM     20  C   UNL     1     -16.343  19.710 -10.710  1.00  0.00    -0.000 C 
BRANCH  20  21
ATOM     21  C   UNL     1     -16.824  20.569 -11.892  1.00  0.00    -0.000 C 
BRANCH  21  22
ATOM     22  C   UNL     1     -16.179  21.964 -11.891  1.00  0.00    -0.000 C 
BRANCH  22  23
ATOM     23  C   UNL     1     -15.084  22.095 -12.962  1.00  0.00    -0.000 C 
BRANCH  23  24
ATOM     24  C   UNL     1     -13.668  22.093 -12.349  1.00  0.00    -0.000 C 
BRANCH  24  25
ATOM     25  C   UNL     1     -13.234  20.711 -11.830  1.00  0.00    -0.003 C 
ATOM     26  C   UNL     1     -13.660  19.569 -12.752  1.00  0.00     0.004 C 
ENDBRANCH  24  25
ENDBRANCH  23  24
ENDBRANCH  22  23
ENDBRANCH  21  22
ENDBRANCH  20  21
ENDBRANCH  19  20
ENDBRANCH  18  19
ENDBRANCH  17  18
ENDBRANCH  16  17
ENDBRANCH  15  16
ENDBRANCH   1  15
TORSDOF 22
ENDMDL
MODEL 3
REMARK VINA RESULT:    -0.271      2.327      4.397
REMARK INTER + INTRA:           0.558
REMARK INTER:                   0.552
REMARK INTRA:                   0.006
REMARK UNBOUND:                 1.178
REMARK SMILES CCCCCCCCCCCCCCCCCCCCCCCC(=O)[O-]
REMARK SMILES IDX 13 1 14 2 15 3 16 4 17 5 18 6 19 7 20 8 21 9 22 10 23 11
REMARK SMILES IDX 24 12 25 13 26 14 12 15 11 16 10 17 9 18 8 19 7 20 6 21 5 22
REMARK SMILES IDX 4 23 3 24 2 25 1 26
REMARK H PARENT
REMARK Flexibility Score: inf
ROOT
ATOM      1  C   UNL     1     -15.296  13.977 -11.661  1.00  0.00     0.000 C 
ENDROOT
BRANCH   1   2
ATOM      2  C   UNL     1     -14.612  13.084 -12.713  1.00  0.00     0.000 C 
BRANCH   2   3
ATOM      3  C   UNL     1     -13.075  13.018 -12.625  1.00  0.00     0.000 C 
BRANCH   3   4
ATOM      4  C   UNL     1     -12.531  12.006 -11.597  1.00  0.00     0.000 C 
BRANCH   4   5
ATOM      5  C   UNL     1     -13.597  11.026 -11.060  1.00  0.00     0.000 C 
BRANCH   5   6
ATOM      6  C   UNL     1     -14.684  11.719 -10.218  1.00  0.00     0.000 C 
BRANCH   6   7
ATOM      7  C   UNL     1     -14.113  12.344  -8.930  1.00  0.00     0.000 C 
BRANCH   7   8
ATOM      8  C   UNL     1     -14.953  13.534  -8.433  1.00  0.00     0.000 C 
BRANCH   8   9
ATOM      9  C   UNL     1     -15.890  13.130  -7.279  1.00  0.00     0.000 C 
BRANCH   9  10
ATOM     10  C   UNL     1     -17.035  14.136  -7.063  1.00  0.00     0.006 C 
BRANCH  10  11
ATOM     11  C   UNL     1     -17.125  15.173  -8.190  1.00  0.00     0.053 C 
BRANCH  11  12
ATOM     12  C   UNL     1     -16.511  16.467  -7.760  1.00  0.00     0.041 C 
ATOM     13  O   UNL     1     -16.516  16.801  -6.546  1.00  0.00    -0.550 OA
ATOM     14  O   UNL     1     -15.904  17.295  -8.698  1.00  0.00    -0.550 OA
ENDBRANCH  11  12
ENDBRANCH  10  11
ENDBRANCH   9  10
ENDBRANCH   8   9
ENDBRANCH   7   8
ENDBRANCH   6   7
ENDBRANCH   5   6
ENDBRANCH   4   5
ENDBRANCH   3   4
ENDBRANCH   2   3
ENDBRANCH   1   2
BRANCH   1  15
ATOM     15  C   UNL     1     -16.807  14.133 -11.895  1.00  0.00     0.000 C 
BRANCH  15  16
ATOM     16  C   UNL     1     -17.125  15.434 -12.641  1.00  0.00     0.000 C 
BRANCH  16  17
ATOM     17  C   UNL     1     -15.839  16.123 -13.122  1.00  0.00     0.000 C 
BRANCH  17  18
ATOM     18  C   UNL     1     -15.951  17.648 -13.006  1.00  0.00    -0.000 C 
BRANCH  18  19
ATOM     19  C   UNL     1     -16.444  18.061 -11.611  1.00  0.00    -0.000 C 
BRANCH  19  20
ATOM     20  C   UNL     1     -16.784  19.556 -11.528  1.00  0.00    -0.000 C 
BRANCH  20  21
ATOM     21  C   UNL     1     -16.981  20.193 -12.915  1.00  0.00    -0.000 C 
BRANCH  21  22
ATOM     22  C   UNL     1     -16.674  21.699 -12.905  1.00  0.00    -0.000 C 
BRANCH  22  23
ATOM     23  C   UNL     1     -15.178  21.985 -13.118  1.00  0.00    -0.000 C 
BRANCH  23  24
ATOM     24  C   UNL     1     -14.405  22.067 -11.785  1.00  0.00    -0.000 C 
BRANCH  24  25
ATOM     25  C   UNL     1     -12.917  21.706 -11.924  1.00  0.00    -0.003 C 
ATOM     26  C   UNL     1     -12.682  20.480 -12.806  1.00  0.00     0.004 C 
ENDBRANCH  24  25
ENDBRANCH  23  24
ENDBRANCH  22  23
ENDBRANCH  21  22
ENDBRANCH  20  21
ENDBRANCH  19  20
ENDBRANCH  18  19
ENDBRANCH  17  18
ENDBRANCH  16  17
ENDBRANCH  15  16
ENDBRANCH   1  15
TORSDOF 22
ENDMDL
MODEL 4
REMARK VINA RESULT:     0.149      1.198      3.058
REMARK INTER + INTRA:           1.518
REMARK INTER:                   1.134
REMARK INTRA:                   0.384
REMARK UNBOUND:                 1.178
REMARK SMILES CCCCCCCCCCCCCCCCCCCCCCCC(=O)[O-]
REMARK SMILES IDX 13 1 14 2 15 3 16 4 17 5 18 6 19 7 20 8 21 9 22 10 23 11
REMARK SMILES IDX 24 12 25 13 26 14 12 15 11 16 10 17 9 18 8 19 7 20 6 21 5 22
REMARK SMILES IDX 4 23 3 24 2 25 1 26
REMARK H PARENT
REMARK Flexibility Score: inf
ROOT
ATOM      1  C   UNL     1     -14.663  13.610  -8.101  1.00  0.00     0.000 C 
ENDROOT
BRANCH   1   2
ATOM      2  C   UNL     1     -15.931  12.942  -8.666  1.00  0.00     0.000 C 
BRANCH   2   3
ATOM      3  C   UNL     1     -16.915  13.889  -9.379  1.00  0.00     0.000 C 
BRANCH   3   4
ATOM      4  C   UNL     1     -16.366  15.304  -9.652  1.00  0.00     0.000 C 
BRANCH   4   5
ATOM      5  C   UNL     1     -17.125  16.066 -10.760  1.00  0.00     0.000 C 
BRANCH   5   6
ATOM      6  C   UNL     1     -16.188  16.765 -11.761  1.00  0.00     0.000 C 
BRANCH   6   7
ATOM      7  C   UNL     1     -16.054  15.979 -13.081  1.00  0.00     0.000 C 
BRANCH   7   8
ATOM      8  C   UNL     1     -16.202  14.461 -12.876  1.00  0.00     0.000 C 
BRANCH   8   9
ATOM      9  C   UNL     1     -14.889  13.821 -12.385  1.00  0.00     0.000 C 
BRANCH   9  10
ATOM     10  C   UNL     1     -14.696  12.385 -12.906  1.00  0.00     0.006 C 
BRANCH  10  11
ATOM     11  C   UNL     1     -16.020  11.617 -13.011  1.00  0.00     0.053 C 
BRANCH  11  12
ATOM     12  C   UNL     1     -16.132  10.613 -11.908  1.00  0.00     0.041 C 
ATOM     13  O   UNL     1     -17.058   9.759 -11.918  1.00  0.00    -0.550 OA
ATOM     14  O   UNL     1     -15.195  10.599 -10.881  1.00  0.00    -0.550 OA
ENDBRANCH  11  12
ENDBRANCH  10  11
ENDBRANCH   9  10
ENDBRANCH   8   9
ENDBRANCH   7   8
ENDBRANCH   6   7
ENDBRANCH   5   6
ENDBRANCH   4   5
ENDBRANCH   3   4
ENDBRANCH   2   3
ENDBRANCH   1   2
BRANCH   1  15
ATOM     15  C   UNL     1     -14.925  14.394  -6.804  1.00  0.00     0.000 C 
BRANCH  15  16
ATOM     16  C   UNL     1     -14.953  15.905  -7.061  1.00  0.00     0.000 C 
BRANCH  16  17
ATOM     17  C   UNL     1     -16.060  16.584  -6.241  1.00  0.00     0.000 C 
BRANCH  17  18
ATOM     18  C   UNL     1     -17.121  17.209  -7.154  1.00  0.00    -0.000 C 
BRANCH  18  19
ATOM     19  C   UNL     1     -16.506  17.663  -8.486  1.00  0.00    -0.000 C 
BRANCH  19  20
ATOM     20  C   UNL     1     -17.112  18.980  -8.993  1.00  0.00    -0.000 C 
BRANCH  20  21
ATOM     21  C   UNL     1     -16.235  19.660 -10.058  1.00  0.00    -0.000 C 
BRANCH  21  22
ATOM     22  C   UNL     1     -17.077  20.390 -11.117  1.00  0.00    -0.000 C 
BRANCH  22  23
ATOM     23  C   UNL     1     -16.238  21.386 -11.935  1.00  0.00    -0.000 C 
BRANCH  23  24
ATOM     24  C   UNL     1     -15.505  20.703 -13.108  1.00  0.00    -0.000 C 
BRANCH  24  25
ATOM     25  C   UNL     1     -14.260  19.914 -12.668  1.00  0.00    -0.003 C 
ATOM     26  C   UNL     1     -13.098  20.818 -12.258  1.00  0.00     0.004 C 
ENDBRANCH  24  25
ENDBRANCH  23  24
ENDBRANCH  22  23
ENDBRANCH  21  22
ENDBRANCH  20  21
ENDBRANCH  19  20
ENDBRANCH  18  19
ENDBRANCH  17  18
ENDBRANCH  16  17
ENDBRANCH  15  16
ENDBRANCH   1  15
TORSDOF 22
ENDMDL
MODEL 5
REMARK VINA RESULT:     0.841      3.021      7.654
REMARK INTER + INTRA:           3.101
REMARK INTER:                   2.984
REMARK INTRA:                   0.117
REMARK UNBOUND:                 1.178
REMARK SMILES CCCCCCCCCCCCCCCCCCCCCCCC(=O)[O-]
REMARK SMILES IDX 13 1 14 2 15 3 16 4 17 5 18 6 19 7 20 8 21 9 22 10 23 11
REMARK SMILES IDX 24 12 25 13 26 14 12 15 11 16 10 17 9 18 8 19 7 20 6 21 5 22
REMARK SMILES IDX 4 23 3 24 2 25 1 26
REMARK H PARENT
REMARK Flexibility Score: inf
ROOT
ATOM      1  C   UNL     1     -14.888  14.163  -7.398  1.00  0.00     0.000 C 
ENDROOT
BRANCH   1   2
ATOM      2  C   UNL     1     -15.923  14.693  -6.388  1.00  0.00     0.000 C 
BRANCH   2   3
ATOM      3  C   UNL     1     -17.125  15.436  -7.002  1.00  0.00     0.000 C 
BRANCH   3   4
ATOM      4  C   UNL     1     -16.885  16.933  -7.279  1.00  0.00     0.000 C 
BRANCH   4   5
ATOM      5  C   UNL     1     -16.070  17.210  -8.561  1.00  0.00     0.000 C 
BRANCH   5   6
ATOM      6  C   UNL     1     -16.479  16.311  -9.741  1.00  0.00     0.000 C 
BRANCH   6   7
ATOM      7  C   UNL     1     -16.572  17.094 -11.066  1.00  0.00     0.000 C 
BRANCH   7   8
ATOM      8  C   UNL     1     -16.737  18.608 -10.841  1.00  0.00     0.000 C 
BRANCH   8   9
ATOM      9  C   UNL     1     -16.183  19.425 -12.025  1.00  0.00     0.000 C 
BRANCH   9  10
ATOM     10  C   UNL     1     -15.840  20.874 -11.638  1.00  0.00     0.006 C 
BRANCH  10  11
ATOM     11  C   UNL     1     -14.901  21.544 -12.648  1.00  0.00     0.053 C 
BRANCH  11  12
ATOM     12  C   UNL     1     -13.478  21.187 -12.358  1.00  0.00     0.041 C 
ATOM     13  O   UNL     1     -12.997  20.101 -12.775  1.00  0.00    -0.550 OA
ATOM     14  O   UNL     1     -12.669  22.070 -11.651  1.00  0.00    -0.550 OA
ENDBRANCH  11  12
ENDBRANCH  10  11
ENDBRANCH   9  10
ENDBRANCH   8   9
ENDBRANCH   7   8
ENDBRANCH   6   7
ENDBRANCH   5   6
ENDBRANCH   4   5
ENDBRANCH   3   4
ENDBRANCH   2   3
ENDBRANCH   1   2
BRANCH   1  15
ATOM     15  C   UNL     1     -14.191  12.877  -6.925  1.00  0.00     0.000 C 
BRANCH  15  16
ATOM     16  C   UNL     1     -13.678  12.052  -8.111  1.00  0.00     0.000 C 
BRANCH  16  17
ATOM     17  C   UNL     1     -14.113  12.674  -9.447  1.00  0.00     0.000 C 
BRANCH  17  18
ATOM     18  C   UNL     1     -14.537  11.595 -10.449  1.00  0.00    -0.000 C 
BRANCH  18  19
ATOM     19  C   UNL     1     -13.689  11.665 -11.728  1.00  0.00    -0.000 C 
BRANCH  19  20
ATOM     20  C   UNL     1     -14.405  12.404 -12.867  1.00  0.00    -0.000 C 
BRANCH  20  21
ATOM     21  C   UNL     1     -14.678  13.880 -12.532  1.00  0.00    -0.000 C 
BRANCH  21  22
ATOM     22  C   UNL     1     -16.009  14.369 -13.125  1.00  0.00    -0.000 C 
BRANCH  22  23
ATOM     23  C   UNL     1     -17.125  13.321 -12.981  1.00  0.00    -0.000 C 
BRANCH  23  24
ATOM     24  C   UNL     1     -17.125  12.658 -11.588  1.00  0.00    -0.000 C 
BRANCH  24  25
ATOM     25  C   UNL     1     -17.037  11.123 -11.647  1.00  0.00    -0.003 C 
ATOM     26  C   UNL     1     -17.114  10.578 -13.073  1.00  0.00     0.004 C 
ENDBRANCH  24  25
ENDBRANCH  23  24
ENDBRANCH  22  23
ENDBRANCH  21  22
ENDBRANCH  20  21
ENDBRANCH  19  20
ENDBRANCH  18  19
ENDBRANCH  17  18
ENDBRANCH  16  17
ENDBRANCH  15  16
ENDBRANCH   1  15
TORSDOF 22
ENDMDL
