MODEL 1
REMARK VINA RESULT:    -5.327      0.000      0.000
REMARK INTER + INTRA:         -10.997
REMARK INTER:                  -9.375
REMARK INTRA:                  -1.622
REMARK UNBOUND:                -1.622
REMARK SMILES CCCCCCCCCCCCCCC(=O)[O-]
REMARK SMILES IDX 9 1 10 2 11 3 12 4 13 5 14 6 15 7 16 8 17 9 8 10 7 11 6 12
REMARK SMILES IDX 5 13 4 14 3 15 2 16 1 17
REMARK H PARENT
REMARK Flexibility Score: inf
ROOT
ATOM      1  C   UNL     1      88.173 325.673 192.904  1.00  0.00     0.000 C 
ENDROOT
BRANCH   1   2
ATOM      2  C   UNL     1      86.934 324.780 192.741  1.00  0.00     0.000 C 
BRANCH   2   3
ATOM      3  C   UNL     1      86.996 323.910 191.474  1.00  0.00     0.000 C 
BRANCH   3   4
ATOM      4  C   UNL     1      88.437 323.645 191.011  1.00  0.00     0.000 C 
BRANCH   4   5
ATOM      5  C   UNL     1      88.527 323.342 189.505  1.00  0.00     0.006 C 
BRANCH   5   6
ATOM      6  C   UNL     1      89.715 324.050 188.841  1.00  0.00     0.053 C 
BRANCH   6   7
ATOM      7  C   UNL     1      90.706 323.072 188.289  1.00  0.00     0.041 C 
ATOM      8  O   UNL     1      91.942 323.299 188.384  1.00  0.00    -0.550 OA
ATOM      9  O   UNL     1      90.267 321.893 187.699  1.00  0.00    -0.550 OA
ENDBRANCH   6   7
ENDBRANCH   5   6
ENDBRANCH   4   5
ENDBRANCH   3   4
ENDBRANCH   2   3
ENDBRANCH   1   2
BRANCH   1  10
ATOM     10  C   UNL     1      87.949 326.821 193.904  1.00  0.00     0.000 C 
BRANCH  10  11
ATOM     11  C   UNL     1      86.651 326.637 194.718  1.00  0.00    -0.000 C 
BRANCH  11  12
ATOM     12  C   UNL     1      86.869 326.686 196.239  1.00  0.00    -0.000 C 
BRANCH  12  13
ATOM     13  C   UNL     1      88.349 326.536 196.635  1.00  0.00    -0.000 C 
BRANCH  13  14
ATOM     14  C   UNL     1      88.658 325.144 197.226  1.00  0.00    -0.000 C 
BRANCH  14  15
ATOM     15  C   UNL     1      89.238 324.151 196.201  1.00  0.00    -0.000 C 
BRANCH  15  16
ATOM     16  C   UNL     1      88.238 323.103 195.685  1.00  0.00    -0.003 C 
ATOM     17  C   UNL     1      88.883 322.072 194.760  1.00  0.00     0.004 C 
ENDBRANCH  15  16
ENDBRANCH  14  15
ENDBRANCH  13  14
ENDBRANCH  12  13
ENDBRANCH  11  12
ENDBRANCH  10  11
ENDBRANCH   1  10
TORSDOF 13
ENDMDL
MODEL 2
REMARK VINA RESULT:    -5.289     18.731     21.465
REMARK INTER + INTRA:         -10.931
REMARK INTER:                 -10.337
REMARK INTRA:                  -0.594
REMARK UNBOUND:                -1.622
REMARK SMILES CCCCCCCCCCCCCCC(=O)[O-]
REMARK SMILES IDX 9 1 10 2 11 3 12 4 13 5 14 6 15 7 16 8 17 9 8 10 7 11 6 12
REMARK SMILES IDX 5 13 4 14 3 15 2 16 1 17
REMARK H PARENT
REMARK Flexibility Score: inf
ROOT
ATOM      1  C   UNL     1     104.301 311.940 195.395  1.00  0.00     0.000 C 
ENDROOT
BRANCH   1   2
ATOM      2  C   UNL     1     104.140 312.743 196.695  1.00  0.00     0.000 C 
BRANCH   2   3
ATOM      3  C   UNL     1     103.971 311.839 197.929  1.00  0.00     0.000 C 
BRANCH   3   4
ATOM      4  C   UNL     1     103.560 312.626 199.184  1.00  0.00     0.000 C 
BRANCH   4   5
ATOM      5  C   UNL     1     103.159 311.708 200.352  1.00  0.00     0.006 C 
BRANCH   5   6
ATOM      6  C   UNL     1     104.265 311.599 201.410  1.00  0.00     0.053 C 
BRANCH   6   7
ATOM      7  C   UNL     1     103.768 310.957 202.668  1.00  0.00     0.041 C 
ATOM      8  O   UNL     1     104.539 310.813 203.654  1.00  0.00    -0.550 OA
ATOM      9  O   UNL     1     102.443 310.549 202.765  1.00  0.00    -0.550 OA
ENDBRANCH   6   7
ENDBRANCH   5   6
ENDBRANCH   4   5
ENDBRANCH   3   4
ENDBRANCH   2   3
ENDBRANCH   1   2
BRANCH   1  10
ATOM     10  C   UNL     1     105.757 311.907 194.896  1.00  0.00     0.000 C 
BRANCH  10  11
ATOM     11  C   UNL     1     105.844 311.658 193.376  1.00  0.00    -0.000 C 
BRANCH  11  12
ATOM     12  C   UNL     1     104.589 312.109 192.609  1.00  0.00    -0.000 C 
BRANCH  12  13
ATOM     13  C   UNL     1     104.832 313.361 191.750  1.00  0.00    -0.000 C 
BRANCH  13  14
ATOM     14  C   UNL     1     103.784 314.464 192.014  1.00  0.00    -0.000 C 
BRANCH  14  15
ATOM     15  C   UNL     1     103.413 315.278 190.759  1.00  0.00    -0.000 C 
BRANCH  15  16
ATOM     16  C   UNL     1     103.784 314.609 189.426  1.00  0.00    -0.003 C 
ATOM     17  C   UNL     1     102.586 314.436 188.493  1.00  0.00     0.004 C 
ENDBRANCH  15  16
ENDBRANCH  14  15
ENDBRANCH  13  14
ENDBRANCH  12  13
ENDBRANCH  11  12
ENDBRANCH  10  11
ENDBRANCH   1  10
TORSDOF 13
ENDMDL
MODEL 3
REMARK VINA RESULT:    -5.223      7.089     10.271
REMARK INTER + INTRA:         -10.815
REMARK INTER:                 -10.249
REMARK INTRA:                  -0.566
REMARK UNBOUND:                -1.622
REMARK SMILES CCCCCCCCCCCCCCC(=O)[O-]
REMARK SMILES IDX 9 1 10 2 11 3 12 4 13 5 14 6 15 7 16 8 17 9 8 10 7 11 6 12
REMARK SMILES IDX 5 13 4 14 3 15 2 16 1 17
REMARK H PARENT
REMARK Flexibility Score: inf
ROOT
ATOM      1  C   UNL     1      89.204 324.938 198.339  1.00  0.00     0.000 C 
ENDROOT
BRANCH   1   2
ATOM      2  C   UNL     1      89.194 326.327 198.994  1.00  0.00     0.000 C 
BRANCH   2   3
ATOM      3  C   UNL     1      89.881 326.335 200.371  1.00  0.00     0.000 C 
BRANCH   3   4
ATOM      4  C   UNL     1      88.882 326.508 201.527  1.00  0.00     0.000 C 
BRANCH   4   5
ATOM      5  C   UNL     1      89.542 326.339 202.907  1.00  0.00     0.006 C 
BRANCH   5   6
ATOM      6  C   UNL     1      89.337 327.569 203.802  1.00  0.00     0.053 C 
BRANCH   6   7
ATOM      7  C   UNL     1      89.346 327.205 205.255  1.00  0.00     0.041 C 
ATOM      8  O   UNL     1      90.240 327.660 206.017  1.00  0.00    -0.550 OA
ATOM      9  O   UNL     1      88.347 326.392 205.775  1.00  0.00    -0.550 OA
ENDBRANCH   6   7
ENDBRANCH   5   6
ENDBRANCH   4   5
ENDBRANCH   3   4
ENDBRANCH   2   3
ENDBRANCH   1   2
BRANCH   1  10
ATOM     10  C   UNL     1      88.512 324.926 196.964  1.00  0.00     0.000 C 
BRANCH  10  11
ATOM     11  C   UNL     1      88.299 326.351 196.410  1.00  0.00    -0.000 C 
BRANCH  11  12
ATOM     12  C   UNL     1      86.892 326.579 195.832  1.00  0.00    -0.000 C 
BRANCH  12  13
ATOM     13  C   UNL     1      86.909 326.899 194.328  1.00  0.00    -0.000 C 
BRANCH  13  14
ATOM     14  C   UNL     1      88.084 326.213 193.598  1.00  0.00    -0.000 C 
BRANCH  14  15
ATOM     15  C   UNL     1      87.730 324.832 193.015  1.00  0.00    -0.000 C 
BRANCH  15  16
ATOM     16  C   UNL     1      88.135 324.632 191.545  1.00  0.00    -0.003 C 
ATOM     17  C   UNL     1      88.816 323.286 191.295  1.00  0.00     0.004 C 
ENDBRANCH  15  16
ENDBRANCH  14  15
ENDBRANCH  13  14
ENDBRANCH  12  13
ENDBRANCH  11  12
ENDBRANCH  10  11
ENDBRANCH   1  10
TORSDOF 13
ENDMDL
MODEL 4
REMARK VINA RESULT:    -5.213      5.526      8.915
REMARK INTER + INTRA:         -10.797
REMARK INTER:                 -10.339
REMARK INTRA:                  -0.458
REMARK UNBOUND:                -1.622
REMARK SMILES CCCCCCCCCCCCCCC(=O)[O-]
REMARK SMILES IDX 9 1 10 2 11 3 12 4 13 5 14 6 15 7 16 8 17 9 8 10 7 11 6 12
REMARK SMILES IDX 5 13 4 14 3 15 2 16 1 17
REMARK H PARENT
REMARK Flexibility Score: inf
ROOT
ATOM      1  C   UNL     1      87.164 326.165 195.746  1.00  0.00     0.000 C 
ENDROOT
BRANCH   1   2
ATOM      2  C   UNL     1      88.631 326.104 196.198  1.00  0.00     0.000 C 
BRANCH   2   3
ATOM      3  C   UNL     1      88.887 326.914 197.481  1.00  0.00     0.000 C 
BRANCH   3   4
ATOM      4  C   UNL     1      89.001 326.023 198.728  1.00  0.00     0.000 C 
BRANCH   4   5
ATOM      5  C   UNL     1      89.747 326.715 199.882  1.00  0.00     0.006 C 
BRANCH   5   6
ATOM      6  C   UNL     1      89.139 326.378 201.250  1.00  0.00     0.053 C 
BRANCH   6   7
ATOM      7  C   UNL     1      90.058 326.749 202.373  1.00  0.00     0.041 C 
ATOM      8  O   UNL     1      89.743 326.484 203.564  1.00  0.00    -0.550 OA
ATOM      9  O   UNL     1      91.278 327.356 202.102  1.00  0.00    -0.550 OA
ENDBRANCH   6   7
ENDBRANCH   5   6
ENDBRANCH   4   5
ENDBRANCH   3   4
ENDBRANCH   2   3
ENDBRANCH   1   2
BRANCH   1  10
ATOM     10  C   UNL     1      86.997 326.819 194.362  1.00  0.00     0.000 C 
BRANCH  10  11
ATOM     11  C   UNL     1      88.083 326.357 193.368  1.00  0.00    -0.000 C 
BRANCH  11  12
ATOM     12  C   UNL     1      87.896 324.908 192.887  1.00  0.00    -0.000 C 
BRANCH  12  13
ATOM     13  C   UNL     1      88.488 324.662 191.488  1.00  0.00    -0.000 C 
BRANCH  13  14
ATOM     14  C   UNL     1      87.793 323.495 190.756  1.00  0.00    -0.000 C 
BRANCH  14  15
ATOM     15  C   UNL     1      88.234 323.334 189.288  1.00  0.00    -0.000 C 
BRANCH  15  16
ATOM     16  C   UNL     1      89.564 324.021 188.939  1.00  0.00    -0.003 C 
ATOM     17  C   UNL     1      90.695 323.027 188.676  1.00  0.00     0.004 C 
ENDBRANCH  15  16
ENDBRANCH  14  15
ENDBRANCH  13  14
ENDBRANCH  12  13
ENDBRANCH  11  12
ENDBRANCH  10  11
ENDBRANCH   1  10
TORSDOF 13
ENDMDL
MODEL 5
REMARK VINA RESULT:    -5.212      1.660      3.098
REMARK INTER + INTRA:         -10.795
REMARK INTER:                  -9.659
REMARK INTRA:                  -1.136
REMARK UNBOUND:                -1.622
REMARK SMILES CCCCCCCCCCCCCCC(=O)[O-]
REMARK SMILES IDX 9 1 10 2 11 3 12 4 13 5 14 6 15 7 16 8 17 9 8 10 7 11 6 12
REMARK SMILES IDX 5 13 4 14 3 15 2 16 1 17
REMARK H PARENT
REMARK Flexibility Score: inf
ROOT
ATOM      1  C   UNL     1      86.749 326.560 194.302  1.00  0.00     0.000 C 
ENDROOT
BRANCH   1   2
ATOM      2  C   UNL     1      85.875 325.503 193.609  1.00  0.00     0.000 C 
BRANCH   2   3
ATOM      3  C   UNL     1      86.709 324.434 192.881  1.00  0.00     0.000 C 
BRANCH   3   4
ATOM      4  C   UNL     1      88.138 324.909 192.575  1.00  0.00     0.000 C 
BRANCH   4   5
ATOM      5  C   UNL     1      88.560 324.614 191.125  1.00  0.00     0.006 C 
BRANCH   5   6
ATOM      6  C   UNL     1      87.796 323.424 190.530  1.00  0.00     0.053 C 
BRANCH   6   7
ATOM      7  C   UNL     1      88.308 323.059 189.170  1.00  0.00     0.041 C 
ATOM      8  O   UNL     1      87.507 322.693 188.269  1.00  0.00    -0.550 OA
ATOM      9  O   UNL     1      89.665 323.156 188.888  1.00  0.00    -0.550 OA
ENDBRANCH   6   7
ENDBRANCH   5   6
ENDBRANCH   4   5
ENDBRANCH   3   4
ENDBRANCH   2   3
ENDBRANCH   1   2
BRANCH   1  10
ATOM     10  C   UNL     1      86.497 326.634 195.819  1.00  0.00     0.000 C 
BRANCH  10  11
ATOM     11  C   UNL     1      87.811 326.616 196.628  1.00  0.00    -0.000 C 
BRANCH  11  12
ATOM     12  C   UNL     1      88.850 325.621 196.084  1.00  0.00    -0.000 C 
BRANCH  12  13
ATOM     13  C   UNL     1      88.530 324.162 196.455  1.00  0.00    -0.000 C 
BRANCH  13  14
ATOM     14  C   UNL     1      88.582 323.921 197.979  1.00  0.00    -0.000 C 
BRANCH  14  15
ATOM     15  C   UNL     1      89.680 324.730 198.696  1.00  0.00    -0.000 C 
BRANCH  15  16
ATOM     16  C   UNL     1      89.195 325.538 199.910  1.00  0.00    -0.003 C 
ATOM     17  C   UNL     1      90.140 326.680 200.281  1.00  0.00     0.004 C 
ENDBRANCH  15  16
ENDBRANCH  14  15
ENDBRANCH  13  14
ENDBRANCH  12  13
ENDBRANCH  11  12
ENDBRANCH  10  11
ENDBRANCH   1  10
TORSDOF 13
ENDMDL
MODEL 6
REMARK VINA RESULT:    -5.188     16.852     19.156
REMARK INTER + INTRA:         -10.753
REMARK INTER:                  -9.952
REMARK INTRA:                  -0.801
REMARK UNBOUND:                -1.622
REMARK SMILES CCCCCCCCCCCCCCC(=O)[O-]
REMARK SMILES IDX 9 1 10 2 11 3 12 4 13 5 14 6 15 7 16 8 17 9 8 10 7 11 6 12
REMARK SMILES IDX 5 13 4 14 3 15 2 16 1 17
REMARK H PARENT
REMARK Flexibility Score: inf
ROOT
ATOM      1  C   UNL     1     104.292 313.140 192.483  1.00  0.00     0.000 C 
ENDROOT
BRANCH   1   2
ATOM      2  C   UNL     1     105.532 313.693 191.764  1.00  0.00     0.000 C 
BRANCH   2   3
ATOM      3  C   UNL     1     105.175 314.466 190.482  1.00  0.00     0.000 C 
BRANCH   3   4
ATOM      4  C   UNL     1     103.750 314.164 189.991  1.00  0.00     0.000 C 
BRANCH   4   5
ATOM      5  C   UNL     1     103.436 314.837 188.642  1.00  0.00     0.006 C 
BRANCH   5   6
ATOM      6  C   UNL     1     102.120 314.331 188.035  1.00  0.00     0.053 C 
BRANCH   6   7
ATOM      7  C   UNL     1     101.047 315.375 188.089  1.00  0.00     0.041 C 
ATOM      8  O   UNL     1      99.969 315.208 187.460  1.00  0.00    -0.550 OA
ATOM      9  O   UNL     1     101.224 316.517 188.861  1.00  0.00    -0.550 OA
ENDBRANCH   6   7
ENDBRANCH   5   6
ENDBRANCH   4   5
ENDBRANCH   3   4
ENDBRANCH   2   3
ENDBRANCH   1   2
BRANCH   1  10
ATOM     10  C   UNL     1     104.467 311.675 192.923  1.00  0.00     0.000 C 
BRANCH  10  11
ATOM     11  C   UNL     1     105.805 311.445 193.657  1.00  0.00    -0.000 C 
BRANCH  11  12
ATOM     12  C   UNL     1     105.810 311.976 195.101  1.00  0.00    -0.000 C 
BRANCH  12  13
ATOM     13  C   UNL     1     104.464 311.768 195.817  1.00  0.00    -0.000 C 
BRANCH  13  14
ATOM     14  C   UNL     1     103.886 313.089 196.369  1.00  0.00    -0.000 C 
BRANCH  14  15
ATOM     15  C   UNL     1     104.070 313.258 197.889  1.00  0.00    -0.000 C 
BRANCH  15  16
ATOM     16  C   UNL     1     103.676 312.030 198.725  1.00  0.00    -0.003 C 
ATOM     17  C   UNL     1     104.305 312.032 200.118  1.00  0.00     0.004 C 
ENDBRANCH  15  16
ENDBRANCH  14  15
ENDBRANCH  13  14
ENDBRANCH  12  13
ENDBRANCH  11  12
ENDBRANCH  10  11
ENDBRANCH   1  10
TORSDOF 13
ENDMDL
MODEL 7
REMARK VINA RESULT:    -5.186      5.684      8.654
REMARK INTER + INTRA:         -10.749
REMARK INTER:                  -9.851
REMARK INTRA:                  -0.898
REMARK UNBOUND:                -1.622
REMARK SMILES CCCCCCCCCCCCCCC(=O)[O-]
REMARK SMILES IDX 9 1 10 2 11 3 12 4 13 5 14 6 15 7 16 8 17 9 8 10 7 11 6 12
REMARK SMILES IDX 5 13 4 14 3 15 2 16 1 17
REMARK H PARENT
REMARK Flexibility Score: inf
ROOT
ATOM      1  C   UNL     1      88.542 326.559 196.280  1.00  0.00     0.000 C 
ENDROOT
BRANCH   1   2
ATOM      2  C   UNL     1      89.106 325.274 196.906  1.00  0.00     0.000 C 
BRANCH   2   3
ATOM      3  C   UNL     1      88.635 325.069 198.356  1.00  0.00     0.000 C 
BRANCH   3   4
ATOM      4  C   UNL     1      89.780 325.204 199.372  1.00  0.00     0.000 C 
BRANCH   4   5
ATOM      5  C   UNL     1      89.654 326.468 200.241  1.00  0.00     0.006 C 
BRANCH   5   6
ATOM      6  C   UNL     1      90.985 326.857 200.896  1.00  0.00     0.053 C 
BRANCH   6   7
ATOM      7  C   UNL     1      90.817 327.167 202.352  1.00  0.00     0.041 C 
ATOM      8  O   UNL     1      91.825 327.412 203.068  1.00  0.00    -0.550 OA
ATOM      9  O   UNL     1      89.546 327.221 202.911  1.00  0.00    -0.550 OA
ENDBRANCH   6   7
ENDBRANCH   5   6
ENDBRANCH   4   5
ENDBRANCH   3   4
ENDBRANCH   2   3
ENDBRANCH   1   2
BRANCH   1  10
ATOM     10  C   UNL     1      87.059 326.425 195.888  1.00  0.00     0.000 C 
BRANCH  10  11
ATOM     11  C   UNL     1      86.819 326.762 194.401  1.00  0.00    -0.000 C 
BRANCH  11  12
ATOM     12  C   UNL     1      86.162 325.616 193.612  1.00  0.00    -0.000 C 
BRANCH  12  13
ATOM     13  C   UNL     1      86.899 324.276 193.779  1.00  0.00    -0.000 C 
BRANCH  13  14
ATOM     14  C   UNL     1      88.315 324.306 193.163  1.00  0.00    -0.000 C 
BRANCH  14  15
ATOM     15  C   UNL     1      88.340 324.772 191.695  1.00  0.00    -0.000 C 
BRANCH  15  16
ATOM     16  C   UNL     1      88.280 323.637 190.660  1.00  0.00    -0.003 C 
ATOM     17  C   UNL     1      89.215 323.865 189.472  1.00  0.00     0.004 C 
ENDBRANCH  15  16
ENDBRANCH  14  15
ENDBRANCH  13  14
ENDBRANCH  12  13
ENDBRANCH  11  12
ENDBRANCH  10  11
ENDBRANCH   1  10
TORSDOF 13
ENDMDL
MODEL 8
REMARK VINA RESULT:    -5.164     19.498     22.074
REMARK INTER + INTRA:         -10.710
REMARK INTER:                  -9.823
REMARK INTRA:                  -0.887
REMARK UNBOUND:                -1.622
REMARK SMILES CCCCCCCCCCCCCCC(=O)[O-]
REMARK SMILES IDX 9 1 10 2 11 3 12 4 13 5 14 6 15 7 16 8 17 9 8 10 7 11 6 12
REMARK SMILES IDX 5 13 4 14 3 15 2 16 1 17
REMARK H PARENT
REMARK Flexibility Score: inf
ROOT
ATOM      1  C   UNL     1     103.752 313.207 197.706  1.00  0.00     0.000 C 
ENDROOT
BRANCH   1   2
ATOM      2  C   UNL     1     103.919 311.785 198.264  1.00  0.00     0.000 C 
BRANCH   2   3
ATOM      3  C   UNL     1     103.169 311.581 199.591  1.00  0.00     0.000 C 
BRANCH   3   4
ATOM      4  C   UNL     1     104.065 311.815 200.817  1.00  0.00     0.000 C 
BRANCH   4   5
ATOM      5  C   UNL     1     103.369 311.441 202.138  1.00  0.00     0.006 C 
BRANCH   5   6
ATOM      6  C   UNL     1     104.292 310.654 203.077  1.00  0.00     0.053 C 
BRANCH   6   7
ATOM      7  C   UNL     1     104.624 311.435 204.311  1.00  0.00     0.041 C 
ATOM      8  O   UNL     1     105.392 312.432 204.244  1.00  0.00    -0.550 OA
ATOM      9  O   UNL     1     104.058 311.084 205.531  1.00  0.00    -0.550 OA
ENDBRANCH   6   7
ENDBRANCH   5   6
ENDBRANCH   4   5
ENDBRANCH   3   4
ENDBRANCH   2   3
ENDBRANCH   1   2
BRANCH   1  10
ATOM     10  C   UNL     1     104.344 313.363 196.293  1.00  0.00     0.000 C 
BRANCH  10  11
ATOM     11  C   UNL     1     104.666 311.999 195.646  1.00  0.00    -0.000 C 
BRANCH  11  12
ATOM     12  C   UNL     1     105.906 312.032 194.736  1.00  0.00    -0.000 C 
BRANCH  12  13
ATOM     13  C   UNL     1     105.617 311.517 193.315  1.00  0.00    -0.000 C 
BRANCH  13  14
ATOM     14  C   UNL     1     104.275 312.044 192.764  1.00  0.00    -0.000 C 
BRANCH  14  15
ATOM     15  C   UNL     1     104.434 313.126 191.679  1.00  0.00    -0.000 C 
BRANCH  15  16
ATOM     16  C   UNL     1     103.751 314.465 192.003  1.00  0.00    -0.003 C 
ATOM     17  C   UNL     1     104.389 315.185 193.191  1.00  0.00     0.004 C 
ENDBRANCH  15  16
ENDBRANCH  14  15
ENDBRANCH  13  14
ENDBRANCH  12  13
ENDBRANCH  11  12
ENDBRANCH  10  11
ENDBRANCH   1  10
TORSDOF 13
ENDMDL
MODEL 9
REMARK VINA RESULT:    -5.148     18.779     21.330
REMARK INTER + INTRA:         -10.683
REMARK INTER:                  -9.528
REMARK INTRA:                  -1.154
REMARK UNBOUND:                -1.622
REMARK SMILES CCCCCCCCCCCCCCC(=O)[O-]
REMARK SMILES IDX 9 1 10 2 11 3 12 4 13 5 14 6 15 7 16 8 17 9 8 10 7 11 6 12
REMARK SMILES IDX 5 13 4 14 3 15 2 16 1 17
REMARK H PARENT
REMARK Flexibility Score: inf
ROOT
ATOM      1  C   UNL     1     104.240 313.566 196.255  1.00  0.00     0.000 C 
ENDROOT
BRANCH   1   2
ATOM      2  C   UNL     1     103.809 313.387 197.719  1.00  0.00     0.000 C 
BRANCH   2   3
ATOM      3  C   UNL     1     103.912 311.926 198.190  1.00  0.00     0.000 C 
BRANCH   3   4
ATOM      4  C   UNL     1     103.819 311.791 199.718  1.00  0.00     0.000 C 
BRANCH   4   5
ATOM      5  C   UNL     1     102.365 311.788 200.223  1.00  0.00     0.006 C 
BRANCH   5   6
ATOM      6  C   UNL     1     102.222 311.070 201.572  1.00  0.00     0.053 C 
BRANCH   6   7
ATOM      7  C   UNL     1     103.217 311.569 202.575  1.00  0.00     0.041 C 
ATOM      8  O   UNL     1     103.123 312.739 203.032  1.00  0.00    -0.550 OA
ATOM      9  O   UNL     1     104.226 310.731 203.031  1.00  0.00    -0.550 OA
ENDBRANCH   6   7
ENDBRANCH   5   6
ENDBRANCH   4   5
ENDBRANCH   3   4
ENDBRANCH   2   3
ENDBRANCH   1   2
BRANCH   1  10
ATOM     10  C   UNL     1     104.823 312.278 195.648  1.00  0.00     0.000 C 
BRANCH  10  11
ATOM     11  C   UNL     1     103.893 311.669 194.577  1.00  0.00    -0.000 C 
BRANCH  11  12
ATOM     12  C   UNL     1     104.587 311.433 193.225  1.00  0.00    -0.000 C 
BRANCH  12  13
ATOM     13  C   UNL     1     105.915 312.199 193.095  1.00  0.00    -0.000 C 
BRANCH  13  14
ATOM     14  C   UNL     1     105.818 313.373 192.096  1.00  0.00    -0.000 C 
BRANCH  14  15
ATOM     15  C   UNL     1     104.453 313.471 191.388  1.00  0.00    -0.000 C 
BRANCH  15  16
ATOM     16  C   UNL     1     103.723 314.809 191.582  1.00  0.00    -0.003 C 
ATOM     17  C   UNL     1     103.737 315.289 193.033  1.00  0.00     0.004 C 
ENDBRANCH  15  16
ENDBRANCH  14  15
ENDBRANCH  13  14
ENDBRANCH  12  13
ENDBRANCH  11  12
ENDBRANCH  10  11
ENDBRANCH   1  10
TORSDOF 13
ENDMDL
