MODEL 1
REMARK VINA RESULT:    -3.697      0.000      0.000
REMARK INTER + INTRA:         -14.891
REMARK INTER:                  -9.317
REMARK INTRA:                  -5.574
REMARK UNBOUND:                -5.574
REMARK SMILES CCCCCCCCCCCCCCCCCCCCCCCCCCCC(=O)[O-]
REMARK SMILES IDX 15 1 16 2 17 3 18 4 19 5 20 6 21 7 22 8 23 9 24 10 25 11
REMARK SMILES IDX 26 12 27 13 28 14 29 15 30 16 14 17 13 18 12 19 11 20 10 21
REMARK SMILES IDX 9 22 8 23 7 24 6 25 5 26 4 27 3 28 2 29 1 30
REMARK H PARENT
REMARK Flexibility Score: inf
ROOT
ATOM      1  C   UNL     1     -10.009   9.297 -22.659  1.00  0.00     0.000 C 
ENDROOT
BRANCH   1   2
ATOM      2  C   UNL     1      -9.720   7.846 -23.099  1.00  0.00     0.000 C 
BRANCH   2   3
ATOM      3  C   UNL     1     -11.006   7.067 -23.420  1.00  0.00     0.000 C 
BRANCH   3   4
ATOM      4  C   UNL     1     -11.231   5.876 -22.462  1.00  0.00     0.000 C 
BRANCH   4   5
ATOM      5  C   UNL     1     -12.125   6.211 -21.254  1.00  0.00     0.000 C 
BRANCH   5   6
ATOM      6  C   UNL     1     -13.100   7.383 -21.474  1.00  0.00     0.000 C 
BRANCH   6   7
ATOM      7  C   UNL     1     -12.973   8.535 -20.456  1.00  0.00     0.000 C 
BRANCH   7   8
ATOM      8  C   UNL     1     -12.077   8.237 -19.237  1.00  0.00     0.000 C 
BRANCH   8   9
ATOM      9  C   UNL     1     -11.084   9.355 -18.871  1.00  0.00     0.000 C 
BRANCH   9  10
ATOM     10  C   UNL     1      -9.690   8.820 -18.510  1.00  0.00     0.000 C 
BRANCH  10  11
ATOM     11  C   UNL     1      -9.640   7.291 -18.638  1.00  0.00     0.000 C 
BRANCH  11  12
ATOM     12  C   UNL     1      -8.725   6.816 -19.781  1.00  0.00     0.006 C 
BRANCH  12  13
ATOM     13  C   UNL     1      -7.756   5.689 -19.390  1.00  0.00     0.053 C 
BRANCH  13  14
ATOM     14  C   UNL     1      -7.074   5.093 -20.583  1.00  0.00     0.041 C 
ATOM     15  O   UNL     1      -6.706   5.829 -21.537  1.00  0.00    -0.550 OA
ATOM     16  O   UNL     1      -6.808   3.730 -20.622  1.00  0.00    -0.550 OA
ENDBRANCH  13  14
ENDBRANCH  12  13
ENDBRANCH  11  12
ENDBRANCH  10  11
ENDBRANCH   9  10
ENDBRANCH   8   9
ENDBRANCH   7   8
ENDBRANCH   6   7
ENDBRANCH   5   6
ENDBRANCH   4   5
ENDBRANCH   3   4
ENDBRANCH   2   3
ENDBRANCH   1   2
BRANCH   1  17
ATOM     17  C   UNL     1      -8.859   9.941 -21.866  1.00  0.00     0.000 C 
BRANCH  17  18
ATOM     18  C   UNL     1      -7.475   9.424 -22.294  1.00  0.00     0.000 C 
BRANCH  18  19
ATOM     19  C   UNL     1      -6.479   9.379 -21.126  1.00  0.00     0.000 C 
BRANCH  19  20
ATOM     20  C   UNL     1      -6.697  10.525 -20.123  1.00  0.00     0.000 C 
BRANCH  20  21
ATOM     21  C   UNL     1      -6.215  10.178 -18.702  1.00  0.00     0.000 C 
BRANCH  21  22
ATOM     22  C   UNL     1      -5.827   8.703 -18.487  1.00  0.00    -0.000 C 
BRANCH  22  23
ATOM     23  C   UNL     1      -4.950   8.491 -17.241  1.00  0.00    -0.000 C 
BRANCH  23  24
ATOM     24  C   UNL     1      -3.931   9.624 -17.021  1.00  0.00    -0.000 C 
BRANCH  24  25
ATOM     25  C   UNL     1      -3.813  10.136 -15.573  1.00  0.00    -0.000 C 
BRANCH  25  26
ATOM     26  C   UNL     1      -4.164  11.627 -15.432  1.00  0.00    -0.000 C 
BRANCH  26  27
ATOM     27  C   UNL     1      -5.681  11.878 -15.439  1.00  0.00    -0.000 C 
BRANCH  27  28
ATOM     28  C   UNL     1      -6.422  11.054 -14.375  1.00  0.00    -0.000 C 
BRANCH  28  29
ATOM     29  C   UNL     1      -7.696  10.431 -14.955  1.00  0.00    -0.003 C 
ATOM     30  C   UNL     1      -8.274  11.296 -16.072  1.00  0.00     0.004 C 
ENDBRANCH  28  29
ENDBRANCH  27  28
ENDBRANCH  26  27
ENDBRANCH  25  26
ENDBRANCH  24  25
ENDBRANCH  23  24
ENDBRANCH  22  23
ENDBRANCH  21  22
ENDBRANCH  20  21
ENDBRANCH  19  20
ENDBRANCH  18  19
ENDBRANCH  17  18
ENDBRANCH   1  17
TORSDOF 26
ENDMDL
MODEL 2
REMARK VINA RESULT:    -3.669      2.456      6.182
REMARK INTER + INTRA:         -14.821
REMARK INTER:                  -9.061
REMARK INTRA:                  -5.760
REMARK UNBOUND:                -5.574
REMARK SMILES CCCCCCCCCCCCCCCCCCCCCCCCCCCC(=O)[O-]
REMARK SMILES IDX 15 1 16 2 17 3 18 4 19 5 20 6 21 7 22 8 23 9 24 10 25 11
REMARK SMILES IDX 26 12 27 13 28 14 29 15 30 16 14 17 13 18 12 19 11 20 10 21
REMARK SMILES IDX 9 22 8 23 7 24 6 25 5 26 4 27 3 28 2 29 1 30
REMARK H PARENT
REMARK Flexibility Score: inf
ROOT
ATOM      1  C   UNL     1     -11.990   6.792 -19.791  1.00  0.00     0.000 C 
ENDROOT
BRANCH   1   2
ATOM      2  C   UNL     1     -12.037   5.859 -21.021  1.00  0.00     0.000 C 
BRANCH   2   3
ATOM      3  C   UNL     1     -11.964   6.637 -22.345  1.00  0.00     0.000 C 
BRANCH   3   4
ATOM      4  C   UNL     1     -10.828   6.137 -23.263  1.00  0.00     0.000 C 
BRANCH   4   5
ATOM      5  C   UNL     1      -9.810   7.229 -23.643  1.00  0.00     0.000 C 
BRANCH   5   6
ATOM      6  C   UNL     1      -9.340   8.112 -22.472  1.00  0.00     0.000 C 
BRANCH   6   7
ATOM      7  C   UNL     1      -9.404   9.630 -22.735  1.00  0.00     0.000 C 
BRANCH   7   8
ATOM      8  C   UNL     1      -8.367  10.472 -21.964  1.00  0.00     0.000 C 
BRANCH   8   9
ATOM      9  C   UNL     1      -7.073   9.728 -21.591  1.00  0.00     0.000 C 
BRANCH   9  10
ATOM     10  C   UNL     1      -6.170  10.537 -20.647  1.00  0.00     0.000 C 
BRANCH  10  11
ATOM     11  C   UNL     1      -6.985  11.142 -19.495  1.00  0.00     0.000 C 
BRANCH  11  12
ATOM     12  C   UNL     1      -6.112  11.550 -18.295  1.00  0.00     0.006 C 
BRANCH  12  13
ATOM     13  C   UNL     1      -6.820  11.451 -16.934  1.00  0.00     0.053 C 
BRANCH  13  14
ATOM     14  C   UNL     1      -6.066  10.588 -15.968  1.00  0.00     0.041 C 
ATOM     15  O   UNL     1      -5.272   9.707 -16.391  1.00  0.00    -0.550 OA
ATOM     16  O   UNL     1      -6.213  10.785 -14.601  1.00  0.00    -0.550 OA
ENDBRANCH  13  14
ENDBRANCH  12  13
ENDBRANCH  11  12
ENDBRANCH  10  11
ENDBRANCH   9  10
ENDBRANCH   8   9
ENDBRANCH   7   8
ENDBRANCH   6   7
ENDBRANCH   5   6
ENDBRANCH   4   5
ENDBRANCH   3   4
ENDBRANCH   2   3
ENDBRANCH   1   2
BRANCH   1  17
ATOM     17  C   UNL     1     -12.727   8.125 -20.002  1.00  0.00     0.000 C 
BRANCH  17  18
ATOM     18  C   UNL     1     -12.163   9.264 -19.135  1.00  0.00     0.000 C 
BRANCH  18  19
ATOM     19  C   UNL     1     -10.647   9.437 -19.310  1.00  0.00     0.000 C 
BRANCH  19  20
ATOM     20  C   UNL     1      -9.893   9.405 -17.969  1.00  0.00     0.000 C 
BRANCH  20  21
ATOM     21  C   UNL     1      -9.143   8.081 -17.736  1.00  0.00     0.000 C 
BRANCH  21  22
ATOM     22  C   UNL     1      -7.692   8.053 -18.250  1.00  0.00    -0.000 C 
BRANCH  22  23
ATOM     23  C   UNL     1      -7.454   6.967 -19.313  1.00  0.00    -0.000 C 
BRANCH  23  24
ATOM     24  C   UNL     1      -8.451   5.797 -19.213  1.00  0.00    -0.000 C 
BRANCH  24  25
ATOM     25  C   UNL     1      -8.629   4.968 -20.500  1.00  0.00    -0.000 C 
BRANCH  25  26
ATOM     26  C   UNL     1      -7.294   4.606 -21.171  1.00  0.00    -0.000 C 
BRANCH  26  27
ATOM     27  C   UNL     1      -7.444   4.350 -22.680  1.00  0.00    -0.000 C 
BRANCH  27  28
ATOM     28  C   UNL     1      -6.661   5.362 -23.532  1.00  0.00    -0.000 C 
BRANCH  28  29
ATOM     29  C   UNL     1      -5.978   6.409 -22.646  1.00  0.00    -0.003 C 
ATOM     30  C   UNL     1      -4.703   6.937 -23.299  1.00  0.00     0.004 C 
ENDBRANCH  28  29
ENDBRANCH  27  28
ENDBRANCH  26  27
ENDBRANCH  25  26
ENDBRANCH  24  25
ENDBRANCH  23  24
ENDBRANCH  22  23
ENDBRANCH  21  22
ENDBRANCH  20  21
ENDBRANCH  19  20
ENDBRANCH  18  19
ENDBRANCH  17  18
ENDBRANCH   1  17
TORSDOF 26
ENDMDL
MODEL 3
REMARK VINA RESULT:    -3.612      2.517      4.609
REMARK INTER + INTRA:         -14.677
REMARK INTER:                  -9.788
REMARK INTRA:                  -4.889
REMARK UNBOUND:                -5.574
REMARK SMILES CCCCCCCCCCCCCCCCCCCCCCCCCCCC(=O)[O-]
REMARK SMILES IDX 15 1 16 2 17 3 18 4 19 5 20 6 21 7 22 8 23 9 24 10 25 11
REMARK SMILES IDX 26 12 27 13 28 14 29 15 30 16 14 17 13 18 12 19 11 20 10 21
REMARK SMILES IDX 9 22 8 23 7 24 6 25 5 26 4 27 3 28 2 29 1 30
REMARK H PARENT
REMARK Flexibility Score: inf
ROOT
ATOM      1  C   UNL     1     -11.335   9.129 -19.044  1.00  0.00     0.000 C 
ENDROOT
BRANCH   1   2
ATOM      2  C   UNL     1     -12.602   8.308 -19.370  1.00  0.00     0.000 C 
BRANCH   2   3
ATOM      3  C   UNL     1     -12.958   8.354 -20.865  1.00  0.00     0.000 C 
BRANCH   3   4
ATOM      4  C   UNL     1     -12.876   6.966 -21.537  1.00  0.00     0.000 C 
BRANCH   4   5
ATOM      5  C   UNL     1     -12.392   5.848 -20.595  1.00  0.00     0.000 C 
BRANCH   5   6
ATOM      6  C   UNL     1     -11.169   5.060 -21.098  1.00  0.00     0.000 C 
BRANCH   6   7
ATOM      7  C   UNL     1     -10.748   5.368 -22.550  1.00  0.00     0.000 C 
BRANCH   7   8
ATOM      8  C   UNL     1      -9.266   5.751 -22.735  1.00  0.00     0.000 C 
BRANCH   8   9
ATOM      9  C   UNL     1      -9.003   7.256 -22.925  1.00  0.00     0.000 C 
BRANCH   9  10
ATOM     10  C   UNL     1     -10.090   7.951 -23.760  1.00  0.00     0.000 C 
BRANCH  10  11
ATOM     11  C   UNL     1     -10.371   9.363 -23.224  1.00  0.00     0.000 C 
BRANCH  11  12
ATOM     12  C   UNL     1      -9.117  10.254 -23.203  1.00  0.00     0.006 C 
BRANCH  12  13
ATOM     13  C   UNL     1      -8.851  10.941 -21.854  1.00  0.00     0.053 C 
BRANCH  13  14
ATOM     14  C   UNL     1      -9.694  12.166 -21.669  1.00  0.00     0.041 C 
ATOM     15  O   UNL     1     -10.800  12.091 -21.071  1.00  0.00    -0.550 OA
ATOM     16  O   UNL     1      -9.238  13.398 -22.123  1.00  0.00    -0.550 OA
ENDBRANCH  13  14
ENDBRANCH  12  13
ENDBRANCH  11  12
ENDBRANCH  10  11
ENDBRANCH   9  10
ENDBRANCH   8   9
ENDBRANCH   7   8
ENDBRANCH   6   7
ENDBRANCH   5   6
ENDBRANCH   4   5
ENDBRANCH   3   4
ENDBRANCH   2   3
ENDBRANCH   1   2
BRANCH   1  17
ATOM     17  C   UNL     1     -10.039   8.500 -19.582  1.00  0.00     0.000 C 
BRANCH  17  18
ATOM     18  C   UNL     1      -9.409   7.497 -18.600  1.00  0.00     0.000 C 
BRANCH  18  19
ATOM     19  C   UNL     1      -8.325   6.632 -19.261  1.00  0.00     0.000 C 
BRANCH  19  20
ATOM     20  C   UNL     1      -6.979   7.367 -19.382  1.00  0.00     0.000 C 
BRANCH  20  21
ATOM     21  C   UNL     1      -6.641   8.206 -18.136  1.00  0.00     0.000 C 
BRANCH  21  22
ATOM     22  C   UNL     1      -6.357   9.694 -18.409  1.00  0.00    -0.000 C 
BRANCH  22  23
ATOM     23  C   UNL     1      -7.472  10.621 -17.896  1.00  0.00    -0.000 C 
BRANCH  23  24
ATOM     24  C   UNL     1      -8.161  10.090 -16.625  1.00  0.00    -0.000 C 
BRANCH  24  25
ATOM     25  C   UNL     1      -8.175  11.057 -15.426  1.00  0.00    -0.000 C 
BRANCH  25  26
ATOM     26  C   UNL     1      -6.863  11.845 -15.275  1.00  0.00    -0.000 C 
BRANCH  26  27
ATOM     27  C   UNL     1      -5.904  11.203 -14.257  1.00  0.00    -0.000 C 
BRANCH  27  28
ATOM     28  C   UNL     1      -5.039  10.095 -14.876  1.00  0.00    -0.000 C 
BRANCH  28  29
ATOM     29  C   UNL     1      -3.622  10.117 -14.293  1.00  0.00    -0.003 C 
ATOM     30  C   UNL     1      -2.570  10.119 -15.399  1.00  0.00     0.004 C 
ENDBRANCH  28  29
ENDBRANCH  27  28
ENDBRANCH  26  27
ENDBRANCH  25  26
ENDBRANCH  24  25
ENDBRANCH  23  24
ENDBRANCH  22  23
ENDBRANCH  21  22
ENDBRANCH  20  21
ENDBRANCH  19  20
ENDBRANCH  18  19
ENDBRANCH  17  18
ENDBRANCH   1  17
TORSDOF 26
ENDMDL
MODEL 4
REMARK VINA RESULT:    -3.606      2.234      6.409
REMARK INTER + INTRA:         -14.662
REMARK INTER:                  -9.648
REMARK INTRA:                  -5.014
REMARK UNBOUND:                -5.574
REMARK SMILES CCCCCCCCCCCCCCCCCCCCCCCCCCCC(=O)[O-]
REMARK SMILES IDX 15 1 16 2 17 3 18 4 19 5 20 6 21 7 22 8 23 9 24 10 25 11
REMARK SMILES IDX 26 12 27 13 28 14 29 15 30 16 14 17 13 18 12 19 11 20 10 21
REMARK SMILES IDX 9 22 8 23 7 24 6 25 5 26 4 27 3 28 2 29 1 30
REMARK H PARENT
REMARK Flexibility Score: inf
ROOT
ATOM      1  C   UNL     1     -12.774   8.056 -20.210  1.00  0.00     0.000 C 
ENDROOT
BRANCH   1   2
ATOM      2  C   UNL     1     -12.030   7.093 -19.260  1.00  0.00     0.000 C 
BRANCH   2   3
ATOM      3  C   UNL     1     -10.812   7.754 -18.595  1.00  0.00     0.000 C 
BRANCH   3   4
ATOM      4  C   UNL     1     -10.702   9.259 -18.925  1.00  0.00     0.000 C 
BRANCH   4   5
ATOM      5  C   UNL     1      -9.659  10.007 -18.074  1.00  0.00     0.000 C 
BRANCH   5   6
ATOM      6  C   UNL     1      -9.073   9.194 -16.904  1.00  0.00     0.000 C 
BRANCH   6   7
ATOM      7  C   UNL     1      -9.008   9.943 -15.558  1.00  0.00     0.000 C 
BRANCH   7   8
ATOM      8  C   UNL     1      -8.001  11.110 -15.506  1.00  0.00     0.000 C 
BRANCH   8   9
ATOM      9  C   UNL     1      -6.523  10.690 -15.423  1.00  0.00     0.000 C 
BRANCH   9  10
ATOM     10  C   UNL     1      -5.693  11.189 -16.616  1.00  0.00     0.000 C 
BRANCH  10  11
ATOM     11  C   UNL     1      -5.690  10.156 -17.752  1.00  0.00     0.000 C 
BRANCH  11  12
ATOM     12  C   UNL     1      -4.736   8.977 -17.486  1.00  0.00     0.006 C 
BRANCH  12  13
ATOM     13  C   UNL     1      -3.399   9.379 -16.844  1.00  0.00     0.053 C 
BRANCH  13  14
ATOM     14  C   UNL     1      -2.390   9.812 -17.864  1.00  0.00     0.041 C 
ATOM     15  O   UNL     1      -2.238   9.151 -18.925  1.00  0.00    -0.550 OA
ATOM     16  O   UNL     1      -1.649  10.968 -17.659  1.00  0.00    -0.550 OA
ENDBRANCH  13  14
ENDBRANCH  12  13
ENDBRANCH  11  12
ENDBRANCH  10  11
ENDBRANCH   9  10
ENDBRANCH   8   9
ENDBRANCH   7   8
ENDBRANCH   6   7
ENDBRANCH   5   6
ENDBRANCH   4   5
ENDBRANCH   3   4
ENDBRANCH   2   3
ENDBRANCH   1   2
BRANCH   1  17
ATOM     17  C   UNL     1     -12.939   7.507 -21.637  1.00  0.00     0.000 C 
BRANCH  17  18
ATOM     18  C   UNL     1     -11.966   6.359 -21.952  1.00  0.00     0.000 C 
BRANCH  18  19
ATOM     19  C   UNL     1     -10.859   6.779 -22.932  1.00  0.00     0.000 C 
BRANCH  19  20
ATOM     20  C   UNL     1      -9.961   7.890 -22.361  1.00  0.00     0.000 C 
BRANCH  20  21
ATOM     21  C   UNL     1      -8.524   7.840 -22.912  1.00  0.00     0.000 C 
BRANCH  21  22
ATOM     22  C   UNL     1      -7.561   8.887 -22.322  1.00  0.00    -0.000 C 
BRANCH  22  23
ATOM     23  C   UNL     1      -7.466   8.816 -20.789  1.00  0.00    -0.000 C 
BRANCH  23  24
ATOM     24  C   UNL     1      -6.618   7.631 -20.292  1.00  0.00    -0.000 C 
BRANCH  24  25
ATOM     25  C   UNL     1      -7.248   6.793 -19.164  1.00  0.00    -0.000 C 
BRANCH  25  26
ATOM     26  C   UNL     1      -8.223   5.723 -19.684  1.00  0.00    -0.000 C 
BRANCH  26  27
ATOM     27  C   UNL     1      -7.512   4.614 -20.478  1.00  0.00    -0.000 C 
BRANCH  27  28
ATOM     28  C   UNL     1      -8.119   4.403 -21.873  1.00  0.00    -0.000 C 
BRANCH  28  29
ATOM     29  C   UNL     1      -7.020   4.240 -22.929  1.00  0.00    -0.003 C 
ATOM     30  C   UNL     1      -5.823   5.136 -22.622  1.00  0.00     0.004 C 
ENDBRANCH  28  29
ENDBRANCH  27  28
ENDBRANCH  26  27
ENDBRANCH  25  26
ENDBRANCH  24  25
ENDBRANCH  23  24
ENDBRANCH  22  23
ENDBRANCH  21  22
ENDBRANCH  20  21
ENDBRANCH  19  20
ENDBRANCH  18  19
ENDBRANCH  17  18
ENDBRANCH   1  17
TORSDOF 26
ENDMDL
MODEL 5
REMARK VINA RESULT:    -3.605      2.576      7.110
REMARK INTER + INTRA:         -14.659
REMARK INTER:                  -9.514
REMARK INTRA:                  -5.144
REMARK UNBOUND:                -5.574
REMARK SMILES CCCCCCCCCCCCCCCCCCCCCCCCCCCC(=O)[O-]
REMARK SMILES IDX 15 1 16 2 17 3 18 4 19 5 20 6 21 7 22 8 23 9 24 10 25 11
REMARK SMILES IDX 26 12 27 13 28 14 29 15 30 16 14 17 13 18 12 19 11 20 10 21
REMARK SMILES IDX 9 22 8 23 7 24 6 25 5 26 4 27 3 28 2 29 1 30
REMARK H PARENT
REMARK Flexibility Score: inf
ROOT
ATOM      1  C   UNL     1     -12.351   7.481 -19.408  1.00  0.00     0.000 C 
ENDROOT
BRANCH   1   2
ATOM      2  C   UNL     1     -10.952   7.855 -18.873  1.00  0.00     0.000 C 
BRANCH   2   3
ATOM      3  C   UNL     1     -10.800   9.368 -18.645  1.00  0.00     0.000 C 
BRANCH   3   4
ATOM      4  C   UNL     1      -9.447   9.737 -17.999  1.00  0.00     0.000 C 
BRANCH   4   5
ATOM      5  C   UNL     1      -8.400   8.609 -18.065  1.00  0.00     0.000 C 
BRANCH   5   6
ATOM      6  C   UNL     1      -6.984   9.062 -18.467  1.00  0.00     0.000 C 
BRANCH   6   7
ATOM      7  C   UNL     1      -5.866   8.039 -18.176  1.00  0.00     0.000 C 
BRANCH   7   8
ATOM      8  C   UNL     1      -4.829   8.485 -17.126  1.00  0.00     0.000 C 
BRANCH   8   9
ATOM      9  C   UNL     1      -3.599   9.214 -17.696  1.00  0.00     0.000 C 
BRANCH   9  10
ATOM     10  C   UNL     1      -3.162  10.410 -16.836  1.00  0.00     0.000 C 
BRANCH  10  11
ATOM     11  C   UNL     1      -3.657  11.731 -17.444  1.00  0.00     0.000 C 
BRANCH  11  12
ATOM     12  C   UNL     1      -4.568  12.523 -16.488  1.00  0.00     0.006 C 
BRANCH  12  13
ATOM     13  C   UNL     1      -6.038  12.075 -16.498  1.00  0.00     0.053 C 
BRANCH  13  14
ATOM     14  C   UNL     1      -6.440  11.429 -15.207  1.00  0.00     0.041 C 
ATOM     15  O   UNL     1      -7.231  10.450 -15.208  1.00  0.00    -0.550 OA
ATOM     16  O   UNL     1      -5.907  11.884 -14.007  1.00  0.00    -0.550 OA
ENDBRANCH  13  14
ENDBRANCH  12  13
ENDBRANCH  11  12
ENDBRANCH  10  11
ENDBRANCH   9  10
ENDBRANCH   8   9
ENDBRANCH   7   8
ENDBRANCH   6   7
ENDBRANCH   5   6
ENDBRANCH   4   5
ENDBRANCH   3   4
ENDBRANCH   2   3
ENDBRANCH   1   2
BRANCH   1  17
ATOM     17  C   UNL     1     -12.755   8.259 -20.672  1.00  0.00     0.000 C 
BRANCH  17  18
ATOM     18  C   UNL     1     -13.134   7.339 -21.845  1.00  0.00     0.000 C 
BRANCH  18  19
ATOM     19  C   UNL     1     -11.902   6.776 -22.571  1.00  0.00     0.000 C 
BRANCH  19  20
ATOM     20  C   UNL     1     -11.620   5.310 -22.199  1.00  0.00     0.000 C 
BRANCH  20  21
ATOM     21  C   UNL     1     -10.139   5.051 -21.869  1.00  0.00     0.000 C 
BRANCH  21  22
ATOM     22  C   UNL     1      -9.834   4.807 -20.380  1.00  0.00    -0.000 C 
BRANCH  22  23
ATOM     23  C   UNL     1      -8.469   5.370 -19.948  1.00  0.00    -0.000 C 
BRANCH  23  24
ATOM     24  C   UNL     1      -7.281   4.605 -20.560  1.00  0.00    -0.000 C 
BRANCH  24  25
ATOM     25  C   UNL     1      -6.447   5.391 -21.590  1.00  0.00    -0.000 C 
BRANCH  25  26
ATOM     26  C   UNL     1      -6.796   6.889 -21.627  1.00  0.00    -0.000 C 
BRANCH  26  27
ATOM     27  C   UNL     1      -7.103   7.387 -23.050  1.00  0.00    -0.000 C 
BRANCH  27  28
ATOM     28  C   UNL     1      -8.460   8.100 -23.147  1.00  0.00    -0.000 C 
BRANCH  28  29
ATOM     29  C   UNL     1      -8.904   8.619 -21.775  1.00  0.00    -0.003 C 
ATOM     30  C   UNL     1      -8.731  10.132 -21.675  1.00  0.00     0.004 C 
ENDBRANCH  28  29
ENDBRANCH  27  28
ENDBRANCH  26  27
ENDBRANCH  25  26
ENDBRANCH  24  25
ENDBRANCH  23  24
ENDBRANCH  22  23
ENDBRANCH  21  22
ENDBRANCH  20  21
ENDBRANCH  19  20
ENDBRANCH  18  19
ENDBRANCH  17  18
ENDBRANCH   1  17
TORSDOF 26
ENDMDL
MODEL 6
REMARK VINA RESULT:    -3.587      1.266      3.238
REMARK INTER + INTRA:         -14.614
REMARK INTER:                  -9.583
REMARK INTRA:                  -5.031
REMARK UNBOUND:                -5.574
REMARK SMILES CCCCCCCCCCCCCCCCCCCCCCCCCCCC(=O)[O-]
REMARK SMILES IDX 15 1 16 2 17 3 18 4 19 5 20 6 21 7 22 8 23 9 24 10 25 11
REMARK SMILES IDX 26 12 27 13 28 14 29 15 30 16 14 17 13 18 12 19 11 20 10 21
REMARK SMILES IDX 9 22 8 23 7 24 6 25 5 26 4 27 3 28 2 29 1 30
REMARK H PARENT
REMARK Flexibility Score: inf
ROOT
ATOM      1  C   UNL     1     -12.013   7.163 -19.470  1.00  0.00     0.000 C 
ENDROOT
BRANCH   1   2
ATOM      2  C   UNL     1     -12.772   8.154 -20.380  1.00  0.00     0.000 C 
BRANCH   2   3
ATOM      3  C   UNL     1     -12.872   7.653 -21.830  1.00  0.00     0.000 C 
BRANCH   3   4
ATOM      4  C   UNL     1     -11.763   6.638 -22.184  1.00  0.00     0.000 C 
BRANCH   4   5
ATOM      5  C   UNL     1     -10.413   7.290 -22.537  1.00  0.00     0.000 C 
BRANCH   5   6
ATOM      6  C   UNL     1     -10.517   8.672 -23.209  1.00  0.00     0.000 C 
BRANCH   6   7
ATOM      7  C   UNL     1      -9.577   9.750 -22.629  1.00  0.00     0.000 C 
BRANCH   7   8
ATOM      8  C   UNL     1      -8.400  10.151 -23.541  1.00  0.00     0.000 C 
BRANCH   8   9
ATOM      9  C   UNL     1      -7.102   9.356 -23.312  1.00  0.00     0.000 C 
BRANCH   9  10
ATOM     10  C   UNL     1      -6.737   9.223 -21.825  1.00  0.00     0.000 C 
BRANCH  10  11
ATOM     11  C   UNL     1      -6.025   7.890 -21.554  1.00  0.00     0.000 C 
BRANCH  11  12
ATOM     12  C   UNL     1      -7.004   6.714 -21.383  1.00  0.00     0.006 C 
BRANCH  12  13
ATOM     13  C   UNL     1      -7.489   6.498 -19.941  1.00  0.00     0.053 C 
BRANCH  13  14
ATOM     14  C   UNL     1      -8.034   5.118 -19.730  1.00  0.00     0.041 C 
ATOM     15  O   UNL     1      -7.390   4.279 -19.047  1.00  0.00    -0.550 OA
ATOM     16  O   UNL     1      -9.273   4.774 -20.255  1.00  0.00    -0.550 OA
ENDBRANCH  13  14
ENDBRANCH  12  13
ENDBRANCH  11  12
ENDBRANCH  10  11
ENDBRANCH   9  10
ENDBRANCH   8   9
ENDBRANCH   7   8
ENDBRANCH   6   7
ENDBRANCH   5   6
ENDBRANCH   4   5
ENDBRANCH   3   4
ENDBRANCH   2   3
ENDBRANCH   1   2
BRANCH   1  17
ATOM     17  C   UNL     1     -10.739   7.755 -18.844  1.00  0.00     0.000 C 
BRANCH  17  18
ATOM     18  C   UNL     1     -10.655   9.284 -18.992  1.00  0.00     0.000 C 
BRANCH  18  19
ATOM     19  C   UNL     1      -9.547   9.897 -18.122  1.00  0.00     0.000 C 
BRANCH  19  20
ATOM     20  C   UNL     1      -8.355  10.397 -18.957  1.00  0.00     0.000 C 
BRANCH  20  21
ATOM     21  C   UNL     1      -7.023  10.352 -18.185  1.00  0.00     0.000 C 
BRANCH  21  22
ATOM     22  C   UNL     1      -6.722   9.017 -17.480  1.00  0.00    -0.000 C 
BRANCH  22  23
ATOM     23  C   UNL     1      -5.307   8.489 -17.775  1.00  0.00    -0.000 C 
BRANCH  23  24
ATOM     24  C   UNL     1      -4.347   9.585 -18.274  1.00  0.00    -0.000 C 
BRANCH  24  25
ATOM     25  C   UNL     1      -3.222   9.975 -17.298  1.00  0.00    -0.000 C 
BRANCH  25  26
ATOM     26  C   UNL     1      -3.322   9.248 -15.945  1.00  0.00    -0.000 C 
BRANCH  26  27
ATOM     27  C   UNL     1      -3.688  10.198 -14.792  1.00  0.00    -0.000 C 
BRANCH  27  28
ATOM     28  C   UNL     1      -4.970   9.773 -14.061  1.00  0.00    -0.000 C 
BRANCH  28  29
ATOM     29  C   UNL     1      -6.090  10.796 -14.281  1.00  0.00    -0.003 C 
ATOM     30  C   UNL     1      -5.592  11.994 -15.087  1.00  0.00     0.004 C 
ENDBRANCH  28  29
ENDBRANCH  27  28
ENDBRANCH  26  27
ENDBRANCH  25  26
ENDBRANCH  24  25
ENDBRANCH  23  24
ENDBRANCH  22  23
ENDBRANCH  21  22
ENDBRANCH  20  21
ENDBRANCH  19  20
ENDBRANCH  18  19
ENDBRANCH  17  18
ENDBRANCH   1  17
TORSDOF 26
ENDMDL
MODEL 7
REMARK VINA RESULT:    -3.573      2.652      6.078
REMARK INTER + INTRA:         -14.578
REMARK INTER:                  -9.714
REMARK INTRA:                  -4.864
REMARK UNBOUND:                -5.574
REMARK SMILES CCCCCCCCCCCCCCCCCCCCCCCCCCCC(=O)[O-]
REMARK SMILES IDX 15 1 16 2 17 3 18 4 19 5 20 6 21 7 22 8 23 9 24 10 25 11
REMARK SMILES IDX 26 12 27 13 28 14 29 15 30 16 14 17 13 18 12 19 11 20 10 21
REMARK SMILES IDX 9 22 8 23 7 24 6 25 5 26 4 27 3 28 2 29 1 30
REMARK H PARENT
REMARK Flexibility Score: inf
ROOT
ATOM      1  C   UNL     1     -12.369   5.510 -20.848  1.00  0.00     0.000 C 
ENDROOT
BRANCH   1   2
ATOM      2  C   UNL     1     -12.061   6.732 -21.740  1.00  0.00     0.000 C 
BRANCH   2   3
ATOM      3  C   UNL     1     -12.728   8.016 -21.221  1.00  0.00     0.000 C 
BRANCH   3   4
ATOM      4  C   UNL     1     -12.704   8.115 -19.680  1.00  0.00     0.000 C 
BRANCH   4   5
ATOM      5  C   UNL     1     -11.286   8.187 -19.085  1.00  0.00     0.000 C 
BRANCH   5   6
ATOM      6  C   UNL     1     -10.736   9.612 -18.891  1.00  0.00     0.000 C 
BRANCH   6   7
ATOM      7  C   UNL     1      -9.474   9.709 -18.009  1.00  0.00     0.000 C 
BRANCH   7   8
ATOM      8  C   UNL     1      -8.405   8.629 -18.274  1.00  0.00     0.000 C 
BRANCH   8   9
ATOM      9  C   UNL     1      -6.976   9.012 -17.853  1.00  0.00     0.000 C 
BRANCH   9  10
ATOM     10  C   UNL     1      -6.292   9.959 -18.852  1.00  0.00     0.000 C 
BRANCH  10  11
ATOM     11  C   UNL     1      -6.379  11.416 -18.373  1.00  0.00     0.000 C 
BRANCH  11  12
ATOM     12  C   UNL     1      -5.786  11.618 -16.967  1.00  0.00     0.006 C 
BRANCH  12  13
ATOM     13  C   UNL     1      -6.802  12.086 -15.913  1.00  0.00     0.053 C 
BRANCH  13  14
ATOM     14  C   UNL     1      -7.086  11.025 -14.893  1.00  0.00     0.041 C 
ATOM     15  O   UNL     1      -8.232  10.508 -14.817  1.00  0.00    -0.550 OA
ATOM     16  O   UNL     1      -6.072  10.580 -14.054  1.00  0.00    -0.550 OA
ENDBRANCH  13  14
ENDBRANCH  12  13
ENDBRANCH  11  12
ENDBRANCH  10  11
ENDBRANCH   9  10
ENDBRANCH   8   9
ENDBRANCH   7   8
ENDBRANCH   6   7
ENDBRANCH   5   6
ENDBRANCH   4   5
ENDBRANCH   3   4
ENDBRANCH   2   3
ENDBRANCH   1   2
BRANCH   1  17
ATOM     17  C   UNL     1     -11.201   4.515 -20.741  1.00  0.00     0.000 C 
BRANCH  17  18
ATOM     18  C   UNL     1      -9.826   5.191 -20.877  1.00  0.00     0.000 C 
BRANCH  18  19
ATOM     19  C   UNL     1      -9.026   5.161 -19.566  1.00  0.00     0.000 C 
BRANCH  19  20
ATOM     20  C   UNL     1      -7.506   5.195 -19.805  1.00  0.00     0.000 C 
BRANCH  20  21
ATOM     21  C   UNL     1      -7.042   4.167 -20.854  1.00  0.00     0.000 C 
BRANCH  21  22
ATOM     22  C   UNL     1      -6.170   4.739 -21.987  1.00  0.00    -0.000 C 
BRANCH  22  23
ATOM     23  C   UNL     1      -6.818   5.945 -22.690  1.00  0.00    -0.000 C 
BRANCH  23  24
ATOM     24  C   UNL     1      -6.001   7.241 -22.539  1.00  0.00    -0.000 C 
BRANCH  24  25
ATOM     25  C   UNL     1      -6.806   8.486 -22.120  1.00  0.00    -0.000 C 
BRANCH  25  26
ATOM     26  C   UNL     1      -8.264   8.162 -21.751  1.00  0.00    -0.000 C 
BRANCH  26  27
ATOM     27  C   UNL     1      -9.257   9.187 -22.322  1.00  0.00    -0.000 C 
BRANCH  27  28
ATOM     28  C   UNL     1      -8.619  10.566 -22.550  1.00  0.00    -0.000 C 
BRANCH  28  29
ATOM     29  C   UNL     1      -8.972  11.527 -21.409  1.00  0.00    -0.003 C 
ATOM     30  C   UNL     1      -9.969  12.588 -21.869  1.00  0.00     0.004 C 
ENDBRANCH  28  29
ENDBRANCH  27  28
ENDBRANCH  26  27
ENDBRANCH  25  26
ENDBRANCH  24  25
ENDBRANCH  23  24
ENDBRANCH  22  23
ENDBRANCH  21  22
ENDBRANCH  20  21
ENDBRANCH  19  20
ENDBRANCH  18  19
ENDBRANCH  17  18
ENDBRANCH   1  17
TORSDOF 26
ENDMDL
MODEL 8
REMARK VINA RESULT:    -3.559      2.557      6.936
REMARK INTER + INTRA:         -14.543
REMARK INTER:                  -8.827
REMARK INTRA:                  -5.716
REMARK UNBOUND:                -5.574
REMARK SMILES CCCCCCCCCCCCCCCCCCCCCCCCCCCC(=O)[O-]
REMARK SMILES IDX 15 1 16 2 17 3 18 4 19 5 20 6 21 7 22 8 23 9 24 10 25 11
REMARK SMILES IDX 26 12 27 13 28 14 29 15 30 16 14 17 13 18 12 19 11 20 10 21
REMARK SMILES IDX 9 22 8 23 7 24 6 25 5 26 4 27 3 28 2 29 1 30
REMARK H PARENT
REMARK Flexibility Score: inf
ROOT
ATOM      1  C   UNL     1      -8.943  10.062 -18.898  1.00  0.00     0.000 C 
ENDROOT
BRANCH   1   2
ATOM      2  C   UNL     1      -9.188  10.110 -20.421  1.00  0.00     0.000 C 
BRANCH   2   3
ATOM      3  C   UNL     1      -8.451  11.279 -21.094  1.00  0.00     0.000 C 
BRANCH   3   4
ATOM      4  C   UNL     1      -8.016  10.952 -22.539  1.00  0.00     0.000 C 
BRANCH   4   5
ATOM      5  C   UNL     1      -7.720   9.459 -22.776  1.00  0.00     0.000 C 
BRANCH   5   6
ATOM      6  C   UNL     1      -6.225   9.096 -22.840  1.00  0.00     0.000 C 
BRANCH   6   7
ATOM      7  C   UNL     1      -5.654   8.457 -21.557  1.00  0.00     0.000 C 
BRANCH   7   8
ATOM      8  C   UNL     1      -4.695   9.355 -20.751  1.00  0.00     0.000 C 
BRANCH   8   9
ATOM      9  C   UNL     1      -5.312  10.008 -19.501  1.00  0.00     0.000 C 
BRANCH   9  10
ATOM     10  C   UNL     1      -4.998   9.238 -18.209  1.00  0.00     0.000 C 
BRANCH  10  11
ATOM     11  C   UNL     1      -5.714   9.871 -17.006  1.00  0.00     0.000 C 
BRANCH  11  12
ATOM     12  C   UNL     1      -5.980  11.375 -17.195  1.00  0.00     0.006 C 
BRANCH  12  13
ATOM     13  C   UNL     1      -6.707  12.042 -16.016  1.00  0.00     0.053 C 
BRANCH  13  14
ATOM     14  C   UNL     1      -7.134  11.046 -14.981  1.00  0.00     0.041 C 
ATOM     15  O   UNL     1      -6.376  10.774 -14.013  1.00  0.00    -0.550 OA
ATOM     16  O   UNL     1      -8.386  10.451 -15.065  1.00  0.00    -0.550 OA
ENDBRANCH  13  14
ENDBRANCH  12  13
ENDBRANCH  11  12
ENDBRANCH  10  11
ENDBRANCH   9  10
ENDBRANCH   8   9
ENDBRANCH   7   8
ENDBRANCH   6   7
ENDBRANCH   5   6
ENDBRANCH   4   5
ENDBRANCH   3   4
ENDBRANCH   2   3
ENDBRANCH   1   2
BRANCH   1  17
ATOM     17  C   UNL     1      -8.781   8.636 -18.345  1.00  0.00     0.000 C 
BRANCH  17  18
ATOM     18  C   UNL     1      -8.604   7.583 -19.452  1.00  0.00     0.000 C 
BRANCH  18  19
ATOM     19  C   UNL     1      -7.527   6.544 -19.105  1.00  0.00     0.000 C 
BRANCH  19  20
ATOM     20  C   UNL     1      -8.006   5.101 -19.339  1.00  0.00     0.000 C 
BRANCH  20  21
ATOM     21  C   UNL     1      -7.172   4.357 -20.398  1.00  0.00     0.000 C 
BRANCH  21  22
ATOM     22  C   UNL     1      -6.888   5.155 -21.684  1.00  0.00    -0.000 C 
BRANCH  22  23
ATOM     23  C   UNL     1      -7.822   4.773 -22.844  1.00  0.00    -0.000 C 
BRANCH  23  24
ATOM     24  C   UNL     1      -8.714   5.939 -23.309  1.00  0.00    -0.000 C 
BRANCH  24  25
ATOM     25  C   UNL     1      -9.949   6.218 -22.431  1.00  0.00    -0.000 C 
BRANCH  25  26
ATOM     26  C   UNL     1     -10.806   7.384 -22.952  1.00  0.00    -0.000 C 
BRANCH  26  27
ATOM     27  C   UNL     1     -11.746   7.951 -21.875  1.00  0.00    -0.000 C 
BRANCH  27  28
ATOM     28  C   UNL     1     -12.254   6.872 -20.906  1.00  0.00    -0.000 C 
BRANCH  28  29
ATOM     29  C   UNL     1     -12.205   7.371 -19.458  1.00  0.00    -0.003 C 
ATOM     30  C   UNL     1     -12.733   8.800 -19.349  1.00  0.00     0.004 C 
ENDBRANCH  28  29
ENDBRANCH  27  28
ENDBRANCH  26  27
ENDBRANCH  25  26
ENDBRANCH  24  25
ENDBRANCH  23  24
ENDBRANCH  22  23
ENDBRANCH  21  22
ENDBRANCH  20  21
ENDBRANCH  19  20
ENDBRANCH  18  19
ENDBRANCH  17  18
ENDBRANCH   1  17
TORSDOF 26
ENDMDL
MODEL 9
REMARK VINA RESULT:    -3.554      2.089      7.027
REMARK INTER + INTRA:         -14.531
REMARK INTER:                  -9.288
REMARK INTRA:                  -5.243
REMARK UNBOUND:                -5.574
REMARK SMILES CCCCCCCCCCCCCCCCCCCCCCCCCCCC(=O)[O-]
REMARK SMILES IDX 15 1 16 2 17 3 18 4 19 5 20 6 21 7 22 8 23 9 24 10 25 11
REMARK SMILES IDX 26 12 27 13 28 14 29 15 30 16 14 17 13 18 12 19 11 20 10 21
REMARK SMILES IDX 9 22 8 23 7 24 6 25 5 26 4 27 3 28 2 29 1 30
REMARK H PARENT
REMARK Flexibility Score: inf
ROOT
ATOM      1  C   UNL     1     -10.303   9.621 -18.452  1.00  0.00     0.000 C 
ENDROOT
BRANCH   1   2
ATOM      2  C   UNL     1      -9.346   8.856 -17.512  1.00  0.00     0.000 C 
BRANCH   2   3
ATOM      3  C   UNL     1      -7.875   9.240 -17.740  1.00  0.00     0.000 C 
BRANCH   3   4
ATOM      4  C   UNL     1      -7.554  10.671 -17.256  1.00  0.00     0.000 C 
BRANCH   4   5
ATOM      5  C   UNL     1      -8.147  11.006 -15.874  1.00  0.00     0.000 C 
BRANCH   5   6
ATOM      6  C   UNL     1      -7.112  11.149 -14.742  1.00  0.00     0.000 C 
BRANCH   6   7
ATOM      7  C   UNL     1      -5.867  11.986 -15.100  1.00  0.00     0.000 C 
BRANCH   7   8
ATOM      8  C   UNL     1      -4.515  11.319 -14.776  1.00  0.00     0.000 C 
BRANCH   8   9
ATOM      9  C   UNL     1      -4.585   9.805 -14.508  1.00  0.00     0.000 C 
BRANCH   9  10
ATOM     10  C   UNL     1      -3.689   8.989 -15.453  1.00  0.00     0.000 C 
BRANCH  10  11
ATOM     11  C   UNL     1      -4.352   8.825 -16.829  1.00  0.00     0.000 C 
BRANCH  11  12
ATOM     12  C   UNL     1      -3.404   9.170 -17.992  1.00  0.00     0.006 C 
BRANCH  12  13
ATOM     13  C   UNL     1      -3.917  10.285 -18.917  1.00  0.00     0.053 C 
BRANCH  13  14
ATOM     14  C   UNL     1      -3.106  10.393 -20.173  1.00  0.00     0.041 C 
ATOM     15  O   UNL     1      -2.505  11.465 -20.448  1.00  0.00    -0.550 OA
ATOM     16  O   UNL     1      -2.983   9.297 -21.017  1.00  0.00    -0.550 OA
ENDBRANCH  13  14
ENDBRANCH  12  13
ENDBRANCH  11  12
ENDBRANCH  10  11
ENDBRANCH   9  10
ENDBRANCH   8   9
ENDBRANCH   7   8
ENDBRANCH   6   7
ENDBRANCH   5   6
ENDBRANCH   4   5
ENDBRANCH   3   4
ENDBRANCH   2   3
ENDBRANCH   1   2
BRANCH   1  17
ATOM     17  C   UNL     1     -11.232   8.704 -19.265  1.00  0.00     0.000 C 
BRANCH  17  18
ATOM     18  C   UNL     1     -11.417   9.175 -20.717  1.00  0.00     0.000 C 
BRANCH  18  19
ATOM     19  C   UNL     1     -11.798   8.026 -21.663  1.00  0.00     0.000 C 
BRANCH  19  20
ATOM     20  C   UNL     1     -12.724   6.997 -20.993  1.00  0.00     0.000 C 
BRANCH  20  21
ATOM     21  C   UNL     1     -12.119   5.581 -20.957  1.00  0.00     0.000 C 
BRANCH  21  22
ATOM     22  C   UNL     1     -11.096   5.280 -22.067  1.00  0.00    -0.000 C 
BRANCH  22  23
ATOM     23  C   UNL     1      -9.729   4.837 -21.518  1.00  0.00    -0.000 C 
BRANCH  23  24
ATOM     24  C   UNL     1      -9.536   5.183 -20.030  1.00  0.00    -0.000 C 
BRANCH  24  25
ATOM     25  C   UNL     1      -8.364   6.133 -19.718  1.00  0.00    -0.000 C 
BRANCH  25  26
ATOM     26  C   UNL     1      -8.153   7.203 -20.803  1.00  0.00    -0.000 C 
BRANCH  26  27
ATOM     27  C   UNL     1      -6.699   7.700 -20.865  1.00  0.00    -0.000 C 
BRANCH  27  28
ATOM     28  C   UNL     1      -6.595   9.172 -21.294  1.00  0.00    -0.000 C 
BRANCH  28  29
ATOM     29  C   UNL     1      -7.984   9.765 -21.555  1.00  0.00    -0.003 C 
ATOM     30  C   UNL     1      -8.097  11.176 -20.984  1.00  0.00     0.004 C 
ENDBRANCH  28  29
ENDBRANCH  27  28
ENDBRANCH  26  27
ENDBRANCH  25  26
ENDBRANCH  24  25
ENDBRANCH  23  24
ENDBRANCH  22  23
ENDBRANCH  21  22
ENDBRANCH  20  21
ENDBRANCH  19  20
ENDBRANCH  18  19
ENDBRANCH  17  18
ENDBRANCH   1  17
TORSDOF 26
ENDMDL
