MODEL 1
REMARK VINA RESULT:    -4.459      0.000      0.000
REMARK INTER + INTRA:          -9.135
REMARK INTER:                  -7.848
REMARK INTRA:                  -1.287
REMARK UNBOUND:                -1.287
REMARK SMILES CCCCCCCCCCCCCCC(=O)[O-]
REMARK SMILES IDX 9 1 10 2 11 3 12 4 13 5 14 6 15 7 16 8 17 9 8 10 7 11 6 12
REMARK SMILES IDX 5 13 4 14 3 15 2 16 1 17
REMARK H PARENT
REMARK Flexibility Score: inf
ROOT
ATOM      1  C   UNL     1      53.515  -4.108  13.013  1.00  0.00     0.000 C 
ENDROOT
BRANCH   1   2
ATOM      2  C   UNL     1      52.204  -3.430  12.568  1.00  0.00     0.000 C 
BRANCH   2   3
ATOM      3  C   UNL     1      52.441  -2.202  11.673  1.00  0.00     0.000 C 
BRANCH   3   4
ATOM      4  C   UNL     1      51.845  -2.376  10.266  1.00  0.00     0.000 C 
BRANCH   4   5
ATOM      5  C   UNL     1      52.921  -2.398   9.166  1.00  0.00     0.006 C 
BRANCH   5   6
ATOM      6  C   UNL     1      53.978  -3.484   9.414  1.00  0.00     0.053 C 
BRANCH   6   7
ATOM      7  C   UNL     1      54.324  -4.223   8.157  1.00  0.00     0.041 C 
ATOM      8  O   UNL     1      53.423  -4.518   7.329  1.00  0.00    -0.550 OA
ATOM      9  O   UNL     1      55.635  -4.614   7.917  1.00  0.00    -0.550 OA
ENDBRANCH   6   7
ENDBRANCH   5   6
ENDBRANCH   4   5
ENDBRANCH   3   4
ENDBRANCH   2   3
ENDBRANCH   1   2
BRANCH   1  10
ATOM     10  C   UNL     1      54.732  -3.173  13.128  1.00  0.00     0.000 C 
BRANCH  10  11
ATOM     11  C   UNL     1      55.832  -3.731  14.047  1.00  0.00    -0.000 C 
BRANCH  11  12
ATOM     12  C   UNL     1      57.095  -2.854  14.054  1.00  0.00    -0.000 C 
BRANCH  12  13
ATOM     13  C   UNL     1      57.119  -1.864  15.231  1.00  0.00    -0.000 C 
BRANCH  13  14
ATOM     14  C   UNL     1      56.633  -0.461  14.834  1.00  0.00    -0.000 C 
BRANCH  14  15
ATOM     15  C   UNL     1      55.185  -0.188  15.270  1.00  0.00    -0.000 C 
BRANCH  15  16
ATOM     16  C   UNL     1      54.328   0.247  14.075  1.00  0.00    -0.003 C 
ATOM     17  C   UNL     1      55.023   1.338  13.266  1.00  0.00     0.004 C 
ENDBRANCH  15  16
ENDBRANCH  14  15
ENDBRANCH  13  14
ENDBRANCH  12  13
ENDBRANCH  11  12
ENDBRANCH  10  11
ENDBRANCH   1  10
TORSDOF 13
ENDMDL
MODEL 2
REMARK VINA RESULT:    -4.459      3.773      7.001
REMARK INTER + INTRA:          -9.135
REMARK INTER:                  -7.791
REMARK INTRA:                  -1.344
REMARK UNBOUND:                -1.287
REMARK SMILES CCCCCCCCCCCCCCC(=O)[O-]
REMARK SMILES IDX 9 1 10 2 11 3 12 4 13 5 14 6 15 7 16 8 17 9 8 10 7 11 6 12
REMARK SMILES IDX 5 13 4 14 3 15 2 16 1 17
REMARK H PARENT
REMARK Flexibility Score: inf
ROOT
ATOM      1  C   UNL     1      52.441  -3.856  12.158  1.00  0.00     0.000 C 
ENDROOT
BRANCH   1   2
ATOM      2  C   UNL     1      53.942  -3.511  12.131  1.00  0.00     0.000 C 
BRANCH   2   3
ATOM      3  C   UNL     1      54.569  -3.457  13.535  1.00  0.00     0.000 C 
BRANCH   3   4
ATOM      4  C   UNL     1      56.106  -3.409  13.492  1.00  0.00     0.000 C 
BRANCH   4   5
ATOM      5  C   UNL     1      56.692  -2.371  14.464  1.00  0.00     0.006 C 
BRANCH   5   6
ATOM      6  C   UNL     1      55.599  -1.602  15.219  1.00  0.00     0.053 C 
BRANCH   6   7
ATOM      7  C   UNL     1      56.137  -0.919  16.438  1.00  0.00     0.041 C 
ATOM      8  O   UNL     1      55.515  -0.989  17.530  1.00  0.00    -0.550 OA
ATOM      9  O   UNL     1      57.310  -0.177  16.361  1.00  0.00    -0.550 OA
ENDBRANCH   6   7
ENDBRANCH   5   6
ENDBRANCH   4   5
ENDBRANCH   3   4
ENDBRANCH   2   3
ENDBRANCH   1   2
BRANCH   1  10
ATOM     10  C   UNL     1      51.488  -2.649  12.077  1.00  0.00     0.000 C 
BRANCH  10  11
ATOM     11  C   UNL     1      52.177  -1.377  11.553  1.00  0.00    -0.000 C 
BRANCH  11  12
ATOM     12  C   UNL     1      51.806  -1.065  10.093  1.00  0.00    -0.000 C 
BRANCH  12  13
ATOM     13  C   UNL     1      52.599  -1.921   9.089  1.00  0.00    -0.000 C 
BRANCH  13  14
ATOM     14  C   UNL     1      51.728  -2.985   8.402  1.00  0.00    -0.000 C 
BRANCH  14  15
ATOM     15  C   UNL     1      52.330  -4.395   8.493  1.00  0.00    -0.000 C 
BRANCH  15  16
ATOM     16  C   UNL     1      53.862  -4.335   8.517  1.00  0.00    -0.003 C 
ATOM     17  C   UNL     1      54.439  -4.417   7.106  1.00  0.00     0.004 C 
ENDBRANCH  15  16
ENDBRANCH  14  15
ENDBRANCH  13  14
ENDBRANCH  12  13
ENDBRANCH  11  12
ENDBRANCH  10  11
ENDBRANCH   1  10
TORSDOF 13
ENDMDL
MODEL 3
REMARK VINA RESULT:    -4.405      4.134      7.487
REMARK INTER + INTRA:          -9.040
REMARK INTER:                  -8.434
REMARK INTRA:                  -0.605
REMARK UNBOUND:                -1.287
REMARK SMILES CCCCCCCCCCCCCCC(=O)[O-]
REMARK SMILES IDX 9 1 10 2 11 3 12 4 13 5 14 6 15 7 16 8 17 9 8 10 7 11 6 12
REMARK SMILES IDX 5 13 4 14 3 15 2 16 1 17
REMARK H PARENT
REMARK Flexibility Score: inf
ROOT
ATOM      1  C   UNL     1      53.208  -2.486  12.671  1.00  0.00     0.000 C 
ENDROOT
BRANCH   1   2
ATOM      2  C   UNL     1      54.065  -3.564  13.362  1.00  0.00     0.000 C 
BRANCH   2   3
ATOM      3  C   UNL     1      55.537  -3.147  13.521  1.00  0.00     0.000 C 
BRANCH   3   4
ATOM      4  C   UNL     1      55.719  -2.001  14.530  1.00  0.00     0.000 C 
BRANCH   4   5
ATOM      5  C   UNL     1      57.193  -1.772  14.906  1.00  0.00     0.006 C 
BRANCH   5   6
ATOM      6  C   UNL     1      57.368  -0.592  15.872  1.00  0.00     0.053 C 
BRANCH   6   7
ATOM      7  C   UNL     1      57.393  -1.040  17.301  1.00  0.00     0.041 C 
ATOM      8  O   UNL     1      58.406  -1.629  17.762  1.00  0.00    -0.550 OA
ATOM      9  O   UNL     1      56.286  -0.836  18.115  1.00  0.00    -0.550 OA
ENDBRANCH   6   7
ENDBRANCH   5   6
ENDBRANCH   4   5
ENDBRANCH   3   4
ENDBRANCH   2   3
ENDBRANCH   1   2
BRANCH   1  10
ATOM     10  C   UNL     1      51.833  -2.964  12.167  1.00  0.00     0.000 C 
BRANCH  10  11
ATOM     11  C   UNL     1      51.751  -3.041  10.633  1.00  0.00    -0.000 C 
BRANCH  11  12
ATOM     12  C   UNL     1      52.709  -4.092  10.045  1.00  0.00    -0.000 C 
BRANCH  12  13
ATOM     13  C   UNL     1      52.346  -4.477   8.600  1.00  0.00    -0.000 C 
BRANCH  13  14
ATOM     14  C   UNL     1      53.555  -4.423   7.653  1.00  0.00    -0.000 C 
BRANCH  14  15
ATOM     15  C   UNL     1      54.878  -4.168   8.392  1.00  0.00    -0.000 C 
BRANCH  15  16
ATOM     16  C   UNL     1      56.076  -4.547   7.514  1.00  0.00    -0.003 C 
ATOM     17  C   UNL     1      57.381  -4.478   8.303  1.00  0.00     0.004 C 
ENDBRANCH  15  16
ENDBRANCH  14  15
ENDBRANCH  13  14
ENDBRANCH  12  13
ENDBRANCH  11  12
ENDBRANCH  10  11
ENDBRANCH   1  10
TORSDOF 13
ENDMDL
MODEL 4
REMARK VINA RESULT:    -4.403      1.415      2.181
REMARK INTER + INTRA:          -9.037
REMARK INTER:                  -7.692
REMARK INTRA:                  -1.346
REMARK UNBOUND:                -1.287
REMARK SMILES CCCCCCCCCCCCCCC(=O)[O-]
REMARK SMILES IDX 9 1 10 2 11 3 12 4 13 5 14 6 15 7 16 8 17 9 8 10 7 11 6 12
REMARK SMILES IDX 5 13 4 14 3 15 2 16 1 17
REMARK H PARENT
REMARK Flexibility Score: inf
ROOT
ATOM      1  C   UNL     1      54.750  -3.130  12.831  1.00  0.00     0.000 C 
ENDROOT
BRANCH   1   2
ATOM      2  C   UNL     1      53.530  -4.055  13.003  1.00  0.00     0.000 C 
BRANCH   2   3
ATOM      3  C   UNL     1      52.193  -3.295  12.969  1.00  0.00     0.000 C 
BRANCH   3   4
ATOM      4  C   UNL     1      52.202  -2.133  11.961  1.00  0.00     0.000 C 
BRANCH   4   5
ATOM      5  C   UNL     1      51.727  -2.561  10.561  1.00  0.00     0.006 C 
BRANCH   5   6
ATOM      6  C   UNL     1      52.854  -2.491   9.521  1.00  0.00     0.053 C 
BRANCH   6   7
ATOM      7  C   UNL     1      53.540  -3.812   9.352  1.00  0.00     0.041 C 
ATOM      8  O   UNL     1      52.914  -4.883   9.567  1.00  0.00    -0.550 OA
ATOM      9  O   UNL     1      54.880  -3.859   8.990  1.00  0.00    -0.550 OA
ENDBRANCH   6   7
ENDBRANCH   5   6
ENDBRANCH   4   5
ENDBRANCH   3   4
ENDBRANCH   2   3
ENDBRANCH   1   2
BRANCH   1  10
ATOM     10  C   UNL     1      55.398  -2.649  14.143  1.00  0.00     0.000 C 
BRANCH  10  11
ATOM     11  C   UNL     1      56.927  -2.821  14.154  1.00  0.00    -0.000 C 
BRANCH  11  12
ATOM     12  C   UNL     1      57.630  -1.781  15.042  1.00  0.00    -0.000 C 
BRANCH  12  13
ATOM     13  C   UNL     1      57.089  -0.357  14.821  1.00  0.00    -0.000 C 
BRANCH  13  14
ATOM     14  C   UNL     1      56.660   0.322  16.132  1.00  0.00    -0.000 C 
BRANCH  14  15
ATOM     15  C   UNL     1      56.805  -0.599  17.353  1.00  0.00    -0.000 C 
BRANCH  15  16
ATOM     16  C   UNL     1      55.443  -0.856  18.009  1.00  0.00    -0.003 C 
ATOM     17  C   UNL     1      54.317  -0.198  17.216  1.00  0.00     0.004 C 
ENDBRANCH  15  16
ENDBRANCH  14  15
ENDBRANCH  13  14
ENDBRANCH  12  13
ENDBRANCH  11  12
ENDBRANCH  10  11
ENDBRANCH   1  10
TORSDOF 13
ENDMDL
MODEL 5
REMARK VINA RESULT:    -4.399      4.844      7.126
REMARK INTER + INTRA:          -9.029
REMARK INTER:                  -6.990
REMARK INTRA:                  -2.039
REMARK UNBOUND:                -1.287
REMARK SMILES CCCCCCCCCCCCCCC(=O)[O-]
REMARK SMILES IDX 9 1 10 2 11 3 12 4 13 5 14 6 15 7 16 8 17 9 8 10 7 11 6 12
REMARK SMILES IDX 5 13 4 14 3 15 2 16 1 17
REMARK H PARENT
REMARK Flexibility Score: inf
ROOT
ATOM      1  C   UNL     1      57.692   0.144  18.099  1.00  0.00     0.000 C 
ENDROOT
BRANCH   1   2
ATOM      2  C   UNL     1      56.170   0.209  18.336  1.00  0.00     0.000 C 
BRANCH   2   3
ATOM      3  C   UNL     1      55.424  -1.012  17.772  1.00  0.00     0.000 C 
BRANCH   3   4
ATOM      4  C   UNL     1      54.605  -0.674  16.515  1.00  0.00     0.000 C 
BRANCH   4   5
ATOM      5  C   UNL     1      55.454  -0.702  15.232  1.00  0.00     0.006 C 
BRANCH   5   6
ATOM      6  C   UNL     1      55.579  -2.118  14.652  1.00  0.00     0.053 C 
BRANCH   6   7
ATOM      7  C   UNL     1      57.003  -2.473  14.351  1.00  0.00     0.041 C 
ATOM      8  O   UNL     1      57.932  -1.679  14.656  1.00  0.00    -0.550 OA
ATOM      9  O   UNL     1      57.302  -3.666  13.705  1.00  0.00    -0.550 OA
ENDBRANCH   6   7
ENDBRANCH   5   6
ENDBRANCH   4   5
ENDBRANCH   3   4
ENDBRANCH   2   3
ENDBRANCH   1   2
BRANCH   1  10
ATOM     10  C   UNL     1      58.291  -1.275  18.070  1.00  0.00     0.000 C 
BRANCH  10  11
ATOM     11  C   UNL     1      59.045  -1.632  19.363  1.00  0.00    -0.000 C 
BRANCH  11  12
ATOM     12  C   UNL     1      58.740  -3.061  19.845  1.00  0.00    -0.000 C 
BRANCH  12  13
ATOM     13  C   UNL     1      57.914  -3.081  21.143  1.00  0.00    -0.000 C 
BRANCH  13  14
ATOM     14  C   UNL     1      56.414  -2.859  20.892  1.00  0.00    -0.000 C 
BRANCH  14  15
ATOM     15  C   UNL     1      55.909  -1.522  21.456  1.00  0.00    -0.000 C 
BRANCH  15  16
ATOM     16  C   UNL     1      56.988  -0.845  22.309  1.00  0.00    -0.003 C 
ATOM     17  C   UNL     1      57.109   0.638  21.971  1.00  0.00     0.004 C 
ENDBRANCH  15  16
ENDBRANCH  14  15
ENDBRANCH  13  14
ENDBRANCH  12  13
ENDBRANCH  11  12
ENDBRANCH  10  11
ENDBRANCH   1  10
TORSDOF 13
ENDMDL
MODEL 6
REMARK VINA RESULT:    -4.348      2.598      6.179
REMARK INTER + INTRA:          -8.939
REMARK INTER:                  -7.463
REMARK INTRA:                  -1.477
REMARK UNBOUND:                -1.287
REMARK SMILES CCCCCCCCCCCCCCC(=O)[O-]
REMARK SMILES IDX 9 1 10 2 11 3 12 4 13 5 14 6 15 7 16 8 17 9 8 10 7 11 6 12
REMARK SMILES IDX 5 13 4 14 3 15 2 16 1 17
REMARK H PARENT
REMARK Flexibility Score: inf
ROOT
ATOM      1  C   UNL     1      52.002   0.197  10.849  1.00  0.00     0.000 C 
ENDROOT
BRANCH   1   2
ATOM      2  C   UNL     1      52.527  -0.032  12.279  1.00  0.00     0.000 C 
BRANCH   2   3
ATOM      3  C   UNL     1      53.717   0.876  12.632  1.00  0.00     0.000 C 
BRANCH   3   4
ATOM      4  C   UNL     1      54.638   0.254  13.695  1.00  0.00     0.000 C 
BRANCH   4   5
ATOM      5  C   UNL     1      54.451  -1.268  13.822  1.00  0.00     0.006 C 
BRANCH   5   6
ATOM      6  C   UNL     1      55.546  -1.917  14.681  1.00  0.00     0.053 C 
BRANCH   6   7
ATOM      7  C   UNL     1      56.027  -3.206  14.090  1.00  0.00     0.041 C 
ATOM      8  O   UNL     1      57.240  -3.347  13.780  1.00  0.00    -0.550 OA
ATOM      9  O   UNL     1      55.132  -4.241  13.851  1.00  0.00    -0.550 OA
ENDBRANCH   6   7
ENDBRANCH   5   6
ENDBRANCH   4   5
ENDBRANCH   3   4
ENDBRANCH   2   3
ENDBRANCH   1   2
BRANCH   1  10
ATOM     10  C   UNL     1      52.645  -0.686   9.764  1.00  0.00     0.000 C 
BRANCH  10  11
ATOM     11  C   UNL     1      51.616  -1.533   8.994  1.00  0.00    -0.000 C 
BRANCH  11  12
ATOM     12  C   UNL     1      52.268  -2.403   7.906  1.00  0.00    -0.000 C 
BRANCH  12  13
ATOM     13  C   UNL     1      52.184  -3.906   8.225  1.00  0.00    -0.000 C 
BRANCH  13  14
ATOM     14  C   UNL     1      53.126  -4.322   9.366  1.00  0.00    -0.000 C 
BRANCH  14  15
ATOM     15  C   UNL     1      52.375  -4.888  10.581  1.00  0.00    -0.000 C 
BRANCH  15  16
ATOM     16  C   UNL     1      52.573  -3.995  11.811  1.00  0.00    -0.003 C 
ATOM     17  C   UNL     1      51.234  -3.537  12.381  1.00  0.00     0.004 C 
ENDBRANCH  15  16
ENDBRANCH  14  15
ENDBRANCH  13  14
ENDBRANCH  12  13
ENDBRANCH  11  12
ENDBRANCH  10  11
ENDBRANCH   1  10
TORSDOF 13
ENDMDL
MODEL 7
REMARK VINA RESULT:    -4.287      7.102     10.274
REMARK INTER + INTRA:          -8.833
REMARK INTER:                  -7.994
REMARK INTRA:                  -0.838
REMARK UNBOUND:                -1.287
REMARK SMILES CCCCCCCCCCCCCCC(=O)[O-]
REMARK SMILES IDX 9 1 10 2 11 3 12 4 13 5 14 6 15 7 16 8 17 9 8 10 7 11 6 12
REMARK SMILES IDX 5 13 4 14 3 15 2 16 1 17
REMARK H PARENT
REMARK Flexibility Score: inf
ROOT
ATOM      1  C   UNL     1      58.447  -0.943  20.260  1.00  0.00     0.000 C 
ENDROOT
BRANCH   1   2
ATOM      2  C   UNL     1      57.937  -1.864  21.385  1.00  0.00     0.000 C 
BRANCH   2   3
ATOM      3  C   UNL     1      57.344  -3.181  20.856  1.00  0.00     0.000 C 
BRANCH   3   4
ATOM      4  C   UNL     1      58.406  -4.283  20.696  1.00  0.00     0.000 C 
BRANCH   4   5
ATOM      5  C   UNL     1      59.612  -4.080  21.630  1.00  0.00     0.006 C 
BRANCH   5   6
ATOM      6  C   UNL     1      60.922  -3.896  20.850  1.00  0.00     0.053 C 
BRANCH   6   7
ATOM      7  C   UNL     1      62.121  -3.991  21.744  1.00  0.00     0.041 C 
ATOM      8  O   UNL     1      62.862  -5.008  21.703  1.00  0.00    -0.550 OA
ATOM      9  O   UNL     1      62.401  -2.971  22.644  1.00  0.00    -0.550 OA
ENDBRANCH   6   7
ENDBRANCH   5   6
ENDBRANCH   4   5
ENDBRANCH   3   4
ENDBRANCH   2   3
ENDBRANCH   1   2
BRANCH   1  10
ATOM     10  C   UNL     1      57.900  -1.256  18.855  1.00  0.00     0.000 C 
BRANCH  10  11
ATOM     11  C   UNL     1      56.520  -0.627  18.595  1.00  0.00    -0.000 C 
BRANCH  11  12
ATOM     12  C   UNL     1      56.036  -0.845  17.152  1.00  0.00    -0.000 C 
BRANCH  12  13
ATOM     13  C   UNL     1      57.094  -0.445  16.109  1.00  0.00    -0.000 C 
BRANCH  13  14
ATOM     14  C   UNL     1      57.059  -1.338  14.859  1.00  0.00    -0.000 C 
BRANCH  14  15
ATOM     15  C   UNL     1      55.630  -1.707  14.431  1.00  0.00    -0.000 C 
BRANCH  15  16
ATOM     16  C   UNL     1      55.601  -3.079  13.748  1.00  0.00    -0.003 C 
ATOM     17  C   UNL     1      57.004  -3.669  13.635  1.00  0.00     0.004 C 
ENDBRANCH  15  16
ENDBRANCH  14  15
ENDBRANCH  13  14
ENDBRANCH  12  13
ENDBRANCH  11  12
ENDBRANCH  10  11
ENDBRANCH   1  10
TORSDOF 13
ENDMDL
MODEL 8
REMARK VINA RESULT:    -4.283      3.922      6.093
REMARK INTER + INTRA:          -8.825
REMARK INTER:                  -7.712
REMARK INTRA:                  -1.113
REMARK UNBOUND:                -1.287
REMARK SMILES CCCCCCCCCCCCCCC(=O)[O-]
REMARK SMILES IDX 9 1 10 2 11 3 12 4 13 5 14 6 15 7 16 8 17 9 8 10 7 11 6 12
REMARK SMILES IDX 5 13 4 14 3 15 2 16 1 17
REMARK H PARENT
REMARK Flexibility Score: inf
ROOT
ATOM      1  C   UNL     1      57.299  -0.709  16.825  1.00  0.00     0.000 C 
ENDROOT
BRANCH   1   2
ATOM      2  C   UNL     1      57.600  -1.244  15.411  1.00  0.00     0.000 C 
BRANCH   2   3
ATOM      3  C   UNL     1      56.361  -1.834  14.718  1.00  0.00     0.000 C 
BRANCH   3   4
ATOM      4  C   UNL     1      56.636  -3.213  14.094  1.00  0.00     0.000 C 
BRANCH   4   5
ATOM      5  C   UNL     1      55.367  -3.865  13.517  1.00  0.00     0.006 C 
BRANCH   5   6
ATOM      6  C   UNL     1      54.218  -2.858  13.362  1.00  0.00     0.053 C 
BRANCH   6   7
ATOM      7  C   UNL     1      53.103  -3.408  12.527  1.00  0.00     0.041 C 
ATOM      8  O   UNL     1      51.991  -3.676  13.053  1.00  0.00    -0.550 OA
ATOM      9  O   UNL     1      53.301  -3.655  11.174  1.00  0.00    -0.550 OA
ENDBRANCH   6   7
ENDBRANCH   5   6
ENDBRANCH   4   5
ENDBRANCH   3   4
ENDBRANCH   2   3
ENDBRANCH   1   2
BRANCH   1  10
ATOM     10  C   UNL     1      55.838  -0.866  17.288  1.00  0.00     0.000 C 
BRANCH  10  11
ATOM     11  C   UNL     1      55.508  -0.012  18.524  1.00  0.00    -0.000 C 
BRANCH  11  12
ATOM     12  C   UNL     1      56.652   0.003  19.552  1.00  0.00    -0.000 C 
BRANCH  12  13
ATOM     13  C   UNL     1      56.162  -0.277  20.983  1.00  0.00    -0.000 C 
BRANCH  13  14
ATOM     14  C   UNL     1      56.841  -1.504  21.611  1.00  0.00    -0.000 C 
BRANCH  14  15
ATOM     15  C   UNL     1      56.577  -2.797  20.824  1.00  0.00    -0.000 C 
BRANCH  15  16
ATOM     16  C   UNL     1      57.844  -3.657  20.743  1.00  0.00    -0.003 C 
ATOM     17  C   UNL     1      58.892  -3.011  19.841  1.00  0.00     0.004 C 
ENDBRANCH  15  16
ENDBRANCH  14  15
ENDBRANCH  13  14
ENDBRANCH  12  13
ENDBRANCH  11  12
ENDBRANCH  10  11
ENDBRANCH   1  10
TORSDOF 13
ENDMDL
MODEL 9
REMARK VINA RESULT:    -4.265      4.283      7.816
REMARK INTER + INTRA:          -8.793
REMARK INTER:                  -7.944
REMARK INTRA:                  -0.850
REMARK UNBOUND:                -1.287
REMARK SMILES CCCCCCCCCCCCCCC(=O)[O-]
REMARK SMILES IDX 9 1 10 2 11 3 12 4 13 5 14 6 15 7 16 8 17 9 8 10 7 11 6 12
REMARK SMILES IDX 5 13 4 14 3 15 2 16 1 17
REMARK H PARENT
REMARK Flexibility Score: inf
ROOT
ATOM      1  C   UNL     1      54.961  -3.350  13.779  1.00  0.00     0.000 C 
ENDROOT
BRANCH   1   2
ATOM      2  C   UNL     1      56.494  -3.480  13.695  1.00  0.00     0.000 C 
BRANCH   2   3
ATOM      3  C   UNL     1      57.231  -2.373  14.468  1.00  0.00     0.000 C 
BRANCH   3   4
ATOM      4  C   UNL     1      56.284  -1.260  14.949  1.00  0.00     0.000 C 
BRANCH   4   5
ATOM      5  C   UNL     1      56.279  -1.108  16.480  1.00  0.00     0.006 C 
BRANCH   5   6
ATOM      6  C   UNL     1      57.221   0.008  16.953  1.00  0.00     0.053 C 
BRANCH   6   7
ATOM      7  C   UNL     1      58.048  -0.421  18.127  1.00  0.00     0.041 C 
ATOM      8  O   UNL     1      58.408   0.423  18.989  1.00  0.00    -0.550 OA
ATOM      9  O   UNL     1      58.448  -1.745  18.252  1.00  0.00    -0.550 OA
ENDBRANCH   6   7
ENDBRANCH   5   6
ENDBRANCH   4   5
ENDBRANCH   3   4
ENDBRANCH   2   3
ENDBRANCH   1   2
BRANCH   1  10
ATOM     10  C   UNL     1      54.241  -3.199  12.426  1.00  0.00     0.000 C 
BRANCH  10  11
ATOM     11  C   UNL     1      52.914  -3.976  12.363  1.00  0.00    -0.000 C 
BRANCH  11  12
ATOM     12  C   UNL     1      52.529  -4.368  10.927  1.00  0.00    -0.000 C 
BRANCH  12  13
ATOM     13  C   UNL     1      52.102  -3.156  10.080  1.00  0.00    -0.000 C 
BRANCH  13  14
ATOM     14  C   UNL     1      53.082  -2.862   8.932  1.00  0.00    -0.000 C 
BRANCH  14  15
ATOM     15  C   UNL     1      54.154  -3.951   8.773  1.00  0.00    -0.000 C 
BRANCH  15  16
ATOM     16  C   UNL     1      54.338  -4.325   7.297  1.00  0.00    -0.003 C 
ATOM     17  C   UNL     1      53.005  -4.696   6.652  1.00  0.00     0.004 C 
ENDBRANCH  15  16
ENDBRANCH  14  15
ENDBRANCH  13  14
ENDBRANCH  12  13
ENDBRANCH  11  12
ENDBRANCH  10  11
ENDBRANCH   1  10
TORSDOF 13
ENDMDL
