MODEL 1
REMARK VINA RESULT:    -3.081      0.000      0.000
REMARK INTER + INTRA:          -9.207
REMARK INTER:                  -5.783
REMARK INTRA:                  -3.424
REMARK UNBOUND:                -3.424
REMARK SMILES CCCCCCCCC=CCCCCCCCC(=O)[O-]
REMARK SMILES IDX 10 1 9 2 11 3 12 4 13 5 14 6 15 7 16 8 17 9 18 10 19 11
REMARK SMILES IDX 20 12 8 13 7 14 6 15 5 16 4 17 3 18 2 19 1 20
REMARK H PARENT
REMARK Flexibility Score: inf
ROOT
ATOM      1  C   UNL     1      29.762  -1.138  -2.823  1.00  0.00    -0.031 C 
ATOM      2  C   UNL     1      28.985  -2.161  -2.422  1.00  0.00    -0.031 C 
ENDROOT
BRANCH   1   3
ATOM      3  C   UNL     1      29.454   0.327  -2.623  1.00  0.00     0.027 C 
BRANCH   3   4
ATOM      4  C   UNL     1      30.536   1.032  -1.787  1.00  0.00     0.004 C 
BRANCH   4   5
ATOM      5  C   UNL     1      30.143   1.304  -0.320  1.00  0.00     0.000 C 
BRANCH   5   6
ATOM      6  C   UNL     1      30.447   0.157   0.663  1.00  0.00     0.000 C 
BRANCH   6   7
ATOM      7  C   UNL     1      31.785  -0.570   0.425  1.00  0.00     0.000 C 
BRANCH   7   8
ATOM      8  C   UNL     1      31.669  -2.090   0.212  1.00  0.00     0.006 C 
BRANCH   8   9
ATOM      9  C   UNL     1      30.982  -2.803   1.384  1.00  0.00     0.053 C 
BRANCH   9  10
ATOM     10  C   UNL     1      30.582  -4.190   0.989  1.00  0.00     0.041 C 
ATOM     11  O   UNL     1      30.541  -4.515  -0.227  1.00  0.00    -0.550 OA
ATOM     12  O   UNL     1      30.209  -5.109   1.961  1.00  0.00    -0.550 OA
ENDBRANCH   9  10
ENDBRANCH   8   9
ENDBRANCH   7   8
ENDBRANCH   6   7
ENDBRANCH   5   6
ENDBRANCH   4   5
ENDBRANCH   3   4
ENDBRANCH   1   3
BRANCH   2  13
ATOM     13  C   UNL     1      27.640  -2.029  -1.746  1.00  0.00     0.027 C 
BRANCH  13  14
ATOM     14  C   UNL     1      27.673  -2.340  -0.238  1.00  0.00     0.004 C 
BRANCH  14  15
ATOM     15  C   UNL     1      27.205  -1.183   0.667  1.00  0.00     0.000 C 
BRANCH  15  16
ATOM     16  C   UNL     1      26.141  -0.263   0.042  1.00  0.00     0.000 C 
BRANCH  16  17
ATOM     17  C   UNL     1      26.599   1.199  -0.060  1.00  0.00    -0.000 C 
BRANCH  17  18
ATOM     18  C   UNL     1      26.157   1.821  -1.392  1.00  0.00    -0.000 C 
BRANCH  18  19
ATOM     19  C   UNL     1      25.322   0.855  -2.247  1.00  0.00    -0.003 C 
ATOM     20  C   UNL     1      25.909   0.641  -3.642  1.00  0.00     0.004 C 
ENDBRANCH  18  19
ENDBRANCH  17  18
ENDBRANCH  16  17
ENDBRANCH  15  16
ENDBRANCH  14  15
ENDBRANCH  13  14
ENDBRANCH   2  13
TORSDOF 15
ENDMDL
MODEL 2
REMARK VINA RESULT:    -3.013      2.527      5.431
REMARK INTER + INTRA:          -9.079
REMARK INTER:                  -6.299
REMARK INTRA:                  -2.780
REMARK UNBOUND:                -3.424
REMARK SMILES CCCCCCCCC=CCCCCCCCC(=O)[O-]
REMARK SMILES IDX 10 1 9 2 11 3 12 4 13 5 14 6 15 7 16 8 17 9 18 10 19 11
REMARK SMILES IDX 20 12 8 13 7 14 6 15 5 16 4 17 3 18 2 19 1 20
REMARK H PARENT
REMARK Flexibility Score: inf
ROOT
ATOM      1  C   UNL     1      30.669   0.372  -0.094  1.00  0.00    -0.031 C 
ATOM      2  C   UNL     1      31.687  -0.239   0.539  1.00  0.00    -0.031 C 
ENDROOT
BRANCH   1   3
ATOM      3  C   UNL     1      30.437   0.372  -1.586  1.00  0.00     0.027 C 
BRANCH   3   4
ATOM      4  C   UNL     1      29.827   1.698  -2.072  1.00  0.00     0.004 C 
BRANCH   4   5
ATOM      5  C   UNL     1      30.145   2.918  -1.184  1.00  0.00     0.000 C 
BRANCH   5   6
ATOM      6  C   UNL     1      28.917   3.678  -0.649  1.00  0.00     0.000 C 
BRANCH   6   7
ATOM      7  C   UNL     1      27.553   3.066  -1.030  1.00  0.00     0.000 C 
BRANCH   7   8
ATOM      8  C   UNL     1      26.822   2.347   0.118  1.00  0.00     0.006 C 
BRANCH   8   9
ATOM      9  C   UNL     1      26.876   0.819  -0.007  1.00  0.00     0.053 C 
BRANCH   9  10
ATOM     10  C   UNL     1      26.242   0.377  -1.288  1.00  0.00     0.041 C 
ATOM     11  O   UNL     1      26.888  -0.332  -2.104  1.00  0.00    -0.550 OA
ATOM     12  O   UNL     1      24.952   0.786  -1.602  1.00  0.00    -0.550 OA
ENDBRANCH   9  10
ENDBRANCH   8   9
ENDBRANCH   7   8
ENDBRANCH   6   7
ENDBRANCH   5   6
ENDBRANCH   4   5
ENDBRANCH   3   4
ENDBRANCH   1   3
BRANCH   2  13
ATOM     13  C   UNL     1      32.812  -0.993  -0.134  1.00  0.00     0.027 C 
BRANCH  13  14
ATOM     14  C   UNL     1      32.813  -2.502   0.172  1.00  0.00     0.004 C 
BRANCH  14  15
ATOM     15  C   UNL     1      32.042  -2.900   1.446  1.00  0.00     0.000 C 
BRANCH  15  16
ATOM     16  C   UNL     1      31.370  -4.284   1.389  1.00  0.00     0.000 C 
BRANCH  16  17
ATOM     17  C   UNL     1      29.881  -4.241   1.760  1.00  0.00    -0.000 C 
BRANCH  17  18
ATOM     18  C   UNL     1      29.380  -2.793   1.858  1.00  0.00    -0.000 C 
BRANCH  18  19
ATOM     19  C   UNL     1      28.341  -2.452   0.778  1.00  0.00    -0.003 C 
ATOM     20  C   UNL     1      28.808  -2.824  -0.629  1.00  0.00     0.004 C 
ENDBRANCH  18  19
ENDBRANCH  17  18
ENDBRANCH  16  17
ENDBRANCH  15  16
ENDBRANCH  14  15
ENDBRANCH  13  14
ENDBRANCH   2  13
TORSDOF 15
ENDMDL
MODEL 3
REMARK VINA RESULT:    -2.979      3.199      6.122
REMARK INTER + INTRA:          -9.016
REMARK INTER:                  -5.864
REMARK INTRA:                  -3.152
REMARK UNBOUND:                -3.424
REMARK SMILES CCCCCCCCC=CCCCCCCCC(=O)[O-]
REMARK SMILES IDX 10 1 9 2 11 3 12 4 13 5 14 6 15 7 16 8 17 9 18 10 19 11
REMARK SMILES IDX 20 12 8 13 7 14 6 15 5 16 4 17 3 18 2 19 1 20
REMARK H PARENT
REMARK Flexibility Score: inf
ROOT
ATOM      1  C   UNL     1      29.380  -0.417  -3.156  1.00  0.00    -0.031 C 
ATOM      2  C   UNL     1      29.707   0.788  -2.654  1.00  0.00    -0.031 C 
ENDROOT
BRANCH   1   3
ATOM      3  C   UNL     1      29.985  -1.735  -2.736  1.00  0.00     0.027 C 
BRANCH   3   4
ATOM      4  C   UNL     1      29.026  -2.549  -1.850  1.00  0.00     0.004 C 
BRANCH   4   5
ATOM      5  C   UNL     1      27.622  -1.931  -1.681  1.00  0.00     0.000 C 
BRANCH   5   6
ATOM      6  C   UNL     1      27.097  -1.884  -0.233  1.00  0.00     0.000 C 
BRANCH   6   7
ATOM      7  C   UNL     1      26.746  -0.477   0.290  1.00  0.00     0.000 C 
BRANCH   7   8
ATOM      8  C   UNL     1      25.913   0.385  -0.675  1.00  0.00     0.006 C 
BRANCH   8   9
ATOM      9  C   UNL     1      26.531   1.767  -0.923  1.00  0.00     0.053 C 
BRANCH   9  10
ATOM     10  C   UNL     1      25.656   2.575  -1.828  1.00  0.00     0.041 C 
ATOM     11  O   UNL     1      26.002   3.736  -2.175  1.00  0.00    -0.550 OA
ATOM     12  O   UNL     1      24.434   2.066  -2.251  1.00  0.00    -0.550 OA
ENDBRANCH   9  10
ENDBRANCH   8   9
ENDBRANCH   7   8
ENDBRANCH   6   7
ENDBRANCH   5   6
ENDBRANCH   4   5
ENDBRANCH   3   4
ENDBRANCH   1   3
BRANCH   2  13
ATOM     13  C   UNL     1      30.775   1.045  -1.615  1.00  0.00     0.027 C 
BRANCH  13  14
ATOM     14  C   UNL     1      30.220   1.229  -0.191  1.00  0.00     0.004 C 
BRANCH  14  15
ATOM     15  C   UNL     1      30.327  -0.020   0.706  1.00  0.00     0.000 C 
BRANCH  15  16
ATOM     16  C   UNL     1      31.607  -0.852   0.507  1.00  0.00     0.000 C 
BRANCH  16  17
ATOM     17  C   UNL     1      31.448  -2.312   0.958  1.00  0.00    -0.000 C 
BRANCH  17  18
ATOM     18  C   UNL     1      30.147  -2.503   1.750  1.00  0.00    -0.000 C 
BRANCH  18  19
ATOM     19  C   UNL     1      29.577  -3.924   1.617  1.00  0.00    -0.003 C 
ATOM     20  C   UNL     1      30.652  -5.005   1.737  1.00  0.00     0.004 C 
ENDBRANCH  18  19
ENDBRANCH  17  18
ENDBRANCH  16  17
ENDBRANCH  15  16
ENDBRANCH  14  15
ENDBRANCH  13  14
ENDBRANCH   2  13
TORSDOF 15
ENDMDL
MODEL 4
REMARK VINA RESULT:    -2.976      1.642      3.152
REMARK INTER + INTRA:          -9.010
REMARK INTER:                  -6.018
REMARK INTRA:                  -2.993
REMARK UNBOUND:                -3.424
REMARK SMILES CCCCCCCCC=CCCCCCCCC(=O)[O-]
REMARK SMILES IDX 10 1 9 2 11 3 12 4 13 5 14 6 15 7 16 8 17 9 18 10 19 11
REMARK SMILES IDX 20 12 8 13 7 14 6 15 5 16 4 17 3 18 2 19 1 20
REMARK H PARENT
REMARK Flexibility Score: inf
ROOT
ATOM      1  C   UNL     1      31.085   0.532  -0.663  1.00  0.00    -0.031 C 
ATOM      2  C   UNL     1      30.889   0.108  -1.925  1.00  0.00    -0.031 C 
ENDROOT
BRANCH   1   3
ATOM      3  C   UNL     1      30.263   0.123   0.536  1.00  0.00     0.027 C 
BRANCH   3   4
ATOM      4  C   UNL     1      30.645  -1.280   1.042  1.00  0.00     0.004 C 
BRANCH   4   5
ATOM      5  C   UNL     1      29.504  -2.045   1.744  1.00  0.00     0.000 C 
BRANCH   5   6
ATOM      6  C   UNL     1      29.201  -3.442   1.169  1.00  0.00     0.000 C 
BRANCH   6   7
ATOM      7  C   UNL     1      29.924  -3.776  -0.151  1.00  0.00     0.000 C 
BRANCH   7   8
ATOM      8  C   UNL     1      31.059  -4.808  -0.025  1.00  0.00     0.006 C 
BRANCH   8   9
ATOM      9  C   UNL     1      31.180  -5.390   1.389  1.00  0.00     0.053 C 
BRANCH   9  10
ATOM     10  C   UNL     1      32.507  -5.042   1.985  1.00  0.00     0.041 C 
ATOM     11  O   UNL     1      32.736  -3.869   2.383  1.00  0.00    -0.550 OA
ATOM     12  O   UNL     1      33.509  -6.002   2.059  1.00  0.00    -0.550 OA
ENDBRANCH   9  10
ENDBRANCH   8   9
ENDBRANCH   7   8
ENDBRANCH   6   7
ENDBRANCH   5   6
ENDBRANCH   4   5
ENDBRANCH   3   4
ENDBRANCH   1   3
BRANCH   2  13
ATOM     13  C   UNL     1      29.780  -0.813  -2.380  1.00  0.00     0.027 C 
BRANCH  13  14
ATOM     14  C   UNL     1      28.592  -0.077  -3.025  1.00  0.00     0.004 C 
BRANCH  14  15
ATOM     15  C   UNL     1      27.209  -0.484  -2.477  1.00  0.00     0.000 C 
BRANCH  15  16
ATOM     16  C   UNL     1      27.237  -1.178  -1.104  1.00  0.00     0.000 C 
BRANCH  16  17
ATOM     17  C   UNL     1      26.576  -0.342   0.002  1.00  0.00    -0.000 C 
BRANCH  17  18
ATOM     18  C   UNL     1      26.320   1.095  -0.474  1.00  0.00    -0.000 C 
BRANCH  18  19
ATOM     19  C   UNL     1      27.173   2.128   0.279  1.00  0.00    -0.003 C 
ATOM     20  C   UNL     1      28.048   2.964  -0.655  1.00  0.00     0.004 C 
ENDBRANCH  18  19
ENDBRANCH  17  18
ENDBRANCH  16  17
ENDBRANCH  15  16
ENDBRANCH  14  15
ENDBRANCH  13  14
ENDBRANCH   2  13
TORSDOF 15
ENDMDL
MODEL 5
REMARK VINA RESULT:    -2.973      3.032      6.957
REMARK INTER + INTRA:          -9.003
REMARK INTER:                  -6.919
REMARK INTRA:                  -2.085
REMARK UNBOUND:                -3.424
REMARK SMILES CCCCCCCCC=CCCCCCCCC(=O)[O-]
REMARK SMILES IDX 10 1 9 2 11 3 12 4 13 5 14 6 15 7 16 8 17 9 18 10 19 11
REMARK SMILES IDX 20 12 8 13 7 14 6 15 5 16 4 17 3 18 2 19 1 20
REMARK H PARENT
REMARK Flexibility Score: inf
ROOT
ATOM      1  C   UNL     1      30.400  -2.645   1.340  1.00  0.00    -0.031 C 
ATOM      2  C   UNL     1      30.010  -3.931   1.420  1.00  0.00    -0.031 C 
ENDROOT
BRANCH   1   3
ATOM      3  C   UNL     1      31.779  -2.172   0.945  1.00  0.00     0.027 C 
BRANCH   3   4
ATOM      4  C   UNL     1      31.781  -0.689   0.535  1.00  0.00     0.004 C 
BRANCH   4   5
ATOM      5  C   UNL     1      30.413   0.014   0.653  1.00  0.00     0.000 C 
BRANCH   5   6
ATOM      6  C   UNL     1      30.072   0.982  -0.496  1.00  0.00     0.000 C 
BRANCH   6   7
ATOM      7  C   UNL     1      29.388   0.334  -1.716  1.00  0.00     0.000 C 
BRANCH   7   8
ATOM      8  C   UNL     1      28.615  -0.962  -1.414  1.00  0.00     0.006 C 
BRANCH   8   9
ATOM      9  C   UNL     1      27.103  -0.736  -1.282  1.00  0.00     0.053 C 
BRANCH   9  10
ATOM     10  C   UNL     1      26.644  -1.074   0.101  1.00  0.00     0.041 C 
ATOM     11  O   UNL     1      27.021  -2.143   0.651  1.00  0.00    -0.550 OA
ATOM     12  O   UNL     1      25.763  -0.230   0.767  1.00  0.00    -0.550 OA
ENDBRANCH   9  10
ENDBRANCH   8   9
ENDBRANCH   7   8
ENDBRANCH   6   7
ENDBRANCH   5   6
ENDBRANCH   4   5
ENDBRANCH   3   4
ENDBRANCH   1   3
BRANCH   2  13
ATOM     13  C   UNL     1      30.893  -5.133   1.179  1.00  0.00     0.027 C 
BRANCH  13  14
ATOM     14  C   UNL     1      30.720  -6.247   2.228  1.00  0.00     0.004 C 
BRANCH  14  15
ATOM     15  C   UNL     1      31.816  -7.330   2.202  1.00  0.00     0.000 C 
BRANCH  15  16
ATOM     16  C   UNL     1      32.516  -7.576   3.551  1.00  0.00     0.000 C 
BRANCH  16  17
ATOM     17  C   UNL     1      32.606  -6.310   4.417  1.00  0.00    -0.000 C 
BRANCH  17  18
ATOM     18  C   UNL     1      33.951  -5.599   4.210  1.00  0.00    -0.000 C 
BRANCH  18  19
ATOM     19  C   UNL     1      33.821  -4.327   3.357  1.00  0.00    -0.003 C 
ATOM     20  C   UNL     1      34.524  -4.448   2.004  1.00  0.00     0.004 C 
ENDBRANCH  18  19
ENDBRANCH  17  18
ENDBRANCH  16  17
ENDBRANCH  15  16
ENDBRANCH  14  15
ENDBRANCH  13  14
ENDBRANCH   2  13
TORSDOF 15
ENDMDL
MODEL 6
REMARK VINA RESULT:    -2.970      3.368      6.450
REMARK INTER + INTRA:          -8.998
REMARK INTER:                  -6.124
REMARK INTRA:                  -2.874
REMARK UNBOUND:                -3.424
REMARK SMILES CCCCCCCCC=CCCCCCCCC(=O)[O-]
REMARK SMILES IDX 10 1 9 2 11 3 12 4 13 5 14 6 15 7 16 8 17 9 18 10 19 11
REMARK SMILES IDX 20 12 8 13 7 14 6 15 5 16 4 17 3 18 2 19 1 20
REMARK H PARENT
REMARK Flexibility Score: inf
ROOT
ATOM      1  C   UNL     1      26.881  -1.014  -0.708  1.00  0.00    -0.031 C 
ATOM      2  C   UNL     1      27.751  -1.312  -1.690  1.00  0.00    -0.031 C 
ENDROOT
BRANCH   1   3
ATOM      3  C   UNL     1      26.163   0.304  -0.544  1.00  0.00     0.027 C 
BRANCH   3   4
ATOM      4  C   UNL     1      26.962   1.289   0.327  1.00  0.00     0.004 C 
BRANCH   4   5
ATOM      5  C   UNL     1      27.025   2.730  -0.220  1.00  0.00     0.000 C 
BRANCH   5   6
ATOM      6  C   UNL     1      26.905   2.855  -1.751  1.00  0.00     0.000 C 
BRANCH   6   7
ATOM      7  C   UNL     1      25.787   3.795  -2.245  1.00  0.00     0.000 C 
BRANCH   7   8
ATOM      8  C   UNL     1      24.440   3.107  -2.530  1.00  0.00     0.006 C 
BRANCH   8   9
ATOM      9  C   UNL     1      24.595   1.804  -3.327  1.00  0.00     0.053 C 
BRANCH   9  10
ATOM     10  C   UNL     1      23.388   0.938  -3.150  1.00  0.00     0.041 C 
ATOM     11  O   UNL     1      22.825   0.857  -2.026  1.00  0.00    -0.550 OA
ATOM     12  O   UNL     1      22.910   0.185  -4.215  1.00  0.00    -0.550 OA
ENDBRANCH   9  10
ENDBRANCH   8   9
ENDBRANCH   7   8
ENDBRANCH   6   7
ENDBRANCH   5   6
ENDBRANCH   4   5
ENDBRANCH   3   4
ENDBRANCH   1   3
BRANCH   2  13
ATOM     13  C   UNL     1      28.207  -0.366  -2.777  1.00  0.00     0.027 C 
BRANCH  13  14
ATOM     14  C   UNL     1      29.712  -0.048  -2.728  1.00  0.00     0.004 C 
BRANCH  14  15
ATOM     15  C   UNL     1      30.104   1.057  -1.728  1.00  0.00     0.000 C 
BRANCH  15  16
ATOM     16  C   UNL     1      31.118   0.627  -0.654  1.00  0.00     0.000 C 
BRANCH  16  17
ATOM     17  C   UNL     1      30.450   0.134   0.638  1.00  0.00    -0.000 C 
BRANCH  17  18
ATOM     18  C   UNL     1      30.571  -1.390   0.772  1.00  0.00    -0.000 C 
BRANCH  18  19
ATOM     19  C   UNL     1      29.467  -1.996   1.653  1.00  0.00    -0.003 C 
ATOM     20  C   UNL     1      29.105  -3.425   1.248  1.00  0.00     0.004 C 
ENDBRANCH  18  19
ENDBRANCH  17  18
ENDBRANCH  16  17
ENDBRANCH  15  16
ENDBRANCH  14  15
ENDBRANCH  13  14
ENDBRANCH   2  13
TORSDOF 15
ENDMDL
MODEL 7
REMARK VINA RESULT:    -2.948      2.794      5.251
REMARK INTER + INTRA:          -8.958
REMARK INTER:                  -5.861
REMARK INTRA:                  -3.097
REMARK UNBOUND:                -3.424
REMARK SMILES CCCCCCCCC=CCCCCCCCC(=O)[O-]
REMARK SMILES IDX 10 1 9 2 11 3 12 4 13 5 14 6 15 7 16 8 17 9 18 10 19 11
REMARK SMILES IDX 20 12 8 13 7 14 6 15 5 16 4 17 3 18 2 19 1 20
REMARK H PARENT
REMARK Flexibility Score: inf
ROOT
ATOM      1  C   UNL     1      31.748  -0.882   0.574  1.00  0.00    -0.031 C 
ATOM      2  C   UNL     1      31.031  -1.936   1.006  1.00  0.00    -0.031 C 
ENDROOT
BRANCH   1   3
ATOM      3  C   UNL     1      31.292   0.557   0.599  1.00  0.00     0.027 C 
BRANCH   3   4
ATOM      4  C   UNL     1      31.037   1.103  -0.817  1.00  0.00     0.004 C 
BRANCH   4   5
ATOM      5  C   UNL     1      29.680   1.814  -0.999  1.00  0.00     0.000 C 
BRANCH   5   6
ATOM      6  C   UNL     1      28.539   1.285  -0.109  1.00  0.00     0.000 C 
BRANCH   6   7
ATOM      7  C   UNL     1      27.240   2.114  -0.151  1.00  0.00     0.000 C 
BRANCH   7   8
ATOM      8  C   UNL     1      26.585   2.223  -1.540  1.00  0.00     0.006 C 
BRANCH   8   9
ATOM      9  C   UNL     1      25.312   1.376  -1.665  1.00  0.00     0.053 C 
BRANCH   9  10
ATOM     10  C   UNL     1      25.250   0.722  -3.009  1.00  0.00     0.041 C 
ATOM     11  O   UNL     1      26.312   0.410  -3.611  1.00  0.00    -0.550 OA
ATOM     12  O   UNL     1      24.022   0.498  -3.618  1.00  0.00    -0.550 OA
ENDBRANCH   9  10
ENDBRANCH   8   9
ENDBRANCH   7   8
ENDBRANCH   6   7
ENDBRANCH   5   6
ENDBRANCH   4   5
ENDBRANCH   3   4
ENDBRANCH   1   3
BRANCH   2  13
ATOM     13  C   UNL     1      29.621  -1.875   1.546  1.00  0.00     0.027 C 
BRANCH  13  14
ATOM     14  C   UNL     1      28.675  -2.918   0.922  1.00  0.00     0.004 C 
BRANCH  14  15
ATOM     15  C   UNL     1      27.296  -2.368   0.509  1.00  0.00     0.000 C 
BRANCH  15  16
ATOM     16  C   UNL     1      27.252  -1.708  -0.880  1.00  0.00     0.000 C 
BRANCH  16  17
ATOM     17  C   UNL     1      28.088  -2.460  -1.927  1.00  0.00    -0.000 C 
BRANCH  17  18
ATOM     18  C   UNL     1      29.098  -1.521  -2.601  1.00  0.00    -0.000 C 
BRANCH  18  19
ATOM     19  C   UNL     1      30.498  -2.145  -2.718  1.00  0.00    -0.003 C 
ATOM     20  C   UNL     1      30.533  -3.605  -2.268  1.00  0.00     0.004 C 
ENDBRANCH  18  19
ENDBRANCH  17  18
ENDBRANCH  16  17
ENDBRANCH  15  16
ENDBRANCH  14  15
ENDBRANCH  13  14
ENDBRANCH   2  13
TORSDOF 15
ENDMDL
MODEL 8
REMARK VINA RESULT:    -2.937      3.239      6.113
REMARK INTER + INTRA:          -8.937
REMARK INTER:                  -6.068
REMARK INTRA:                  -2.869
REMARK UNBOUND:                -3.424
REMARK SMILES CCCCCCCCC=CCCCCCCCC(=O)[O-]
REMARK SMILES IDX 10 1 9 2 11 3 12 4 13 5 14 6 15 7 16 8 17 9 18 10 19 11
REMARK SMILES IDX 20 12 8 13 7 14 6 15 5 16 4 17 3 18 2 19 1 20
REMARK H PARENT
REMARK Flexibility Score: inf
ROOT
ATOM      1  C   UNL     1      30.085  -3.968   1.072  1.00  0.00    -0.031 C 
ATOM      2  C   UNL     1      31.367  -3.965   0.662  1.00  0.00    -0.031 C 
ENDROOT
BRANCH   1   3
ATOM      3  C   UNL     1      29.457  -2.948   1.992  1.00  0.00     0.027 C 
BRANCH   3   4
ATOM      4  C   UNL     1      28.704  -1.857   1.210  1.00  0.00     0.004 C 
BRANCH   4   5
ATOM      5  C   UNL     1      27.416  -2.339   0.509  1.00  0.00     0.000 C 
BRANCH   5   6
ATOM      6  C   UNL     1      26.865  -1.390  -0.572  1.00  0.00     0.000 C 
BRANCH   6   7
ATOM      7  C   UNL     1      26.894   0.107  -0.205  1.00  0.00     0.000 C 
BRANCH   7   8
ATOM      8  C   UNL     1      26.767   1.070  -1.398  1.00  0.00     0.006 C 
BRANCH   8   9
ATOM      9  C   UNL     1      25.904   0.502  -2.532  1.00  0.00     0.053 C 
BRANCH   9  10
ATOM     10  C   UNL     1      24.612   1.250  -2.630  1.00  0.00     0.041 C 
ATOM     11  O   UNL     1      24.522   2.421  -2.175  1.00  0.00    -0.550 OA
ATOM     12  O   UNL     1      23.494   0.638  -3.184  1.00  0.00    -0.550 OA
ENDBRANCH   9  10
ENDBRANCH   8   9
ENDBRANCH   7   8
ENDBRANCH   6   7
ENDBRANCH   5   6
ENDBRANCH   4   5
ENDBRANCH   3   4
ENDBRANCH   1   3
BRANCH   2  13
ATOM     13  C   UNL     1      32.423  -2.972   1.089  1.00  0.00     0.027 C 
BRANCH  13  14
ATOM     14  C   UNL     1      33.242  -2.399  -0.082  1.00  0.00     0.004 C 
BRANCH  14  15
ATOM     15  C   UNL     1      33.101  -0.877  -0.281  1.00  0.00     0.000 C 
BRANCH  15  16
ATOM     16  C   UNL     1      32.045  -0.203   0.612  1.00  0.00     0.000 C 
BRANCH  16  17
ATOM     17  C   UNL     1      30.876   0.392  -0.187  1.00  0.00    -0.000 C 
BRANCH  17  18
ATOM     18  C   UNL     1      31.098   0.219  -1.696  1.00  0.00    -0.000 C 
BRANCH  18  19
ATOM     19  C   UNL     1      29.959  -0.557  -2.376  1.00  0.00    -0.003 C 
ATOM     20  C   UNL     1      30.136  -2.073  -2.279  1.00  0.00     0.004 C 
ENDBRANCH  18  19
ENDBRANCH  17  18
ENDBRANCH  16  17
ENDBRANCH  15  16
ENDBRANCH  14  15
ENDBRANCH  13  14
ENDBRANCH   2  13
TORSDOF 15
ENDMDL
MODEL 9
REMARK VINA RESULT:    -2.906      2.861      5.314
REMARK INTER + INTRA:          -8.877
REMARK INTER:                  -5.533
REMARK INTRA:                  -3.344
REMARK UNBOUND:                -3.424
REMARK SMILES CCCCCCCCC=CCCCCCCCC(=O)[O-]
REMARK SMILES IDX 10 1 9 2 11 3 12 4 13 5 14 6 15 7 16 8 17 9 18 10 19 11
REMARK SMILES IDX 20 12 8 13 7 14 6 15 5 16 4 17 3 18 2 19 1 20
REMARK H PARENT
REMARK Flexibility Score: inf
ROOT
ATOM      1  C   UNL     1      30.454  -3.686  -2.018  1.00  0.00    -0.031 C 
ATOM      2  C   UNL     1      29.109  -3.663  -1.967  1.00  0.00    -0.031 C 
ENDROOT
BRANCH   1   3
ATOM      3  C   UNL     1      31.334  -2.528  -2.427  1.00  0.00     0.027 C 
BRANCH   3   4
ATOM      4  C   UNL     1      32.062  -1.908  -1.221  1.00  0.00     0.004 C 
BRANCH   4   5
ATOM      5  C   UNL     1      31.622  -0.471  -0.872  1.00  0.00     0.000 C 
BRANCH   5   6
ATOM      6  C   UNL     1      30.680   0.192  -1.894  1.00  0.00     0.000 C 
BRANCH   6   7
ATOM      7  C   UNL     1      29.568   1.070  -1.286  1.00  0.00     0.000 C 
BRANCH   7   8
ATOM      8  C   UNL     1      28.475   1.512  -2.276  1.00  0.00     0.006 C 
BRANCH   8   9
ATOM      9  C   UNL     1      27.497   2.525  -1.668  1.00  0.00     0.053 C 
BRANCH   9  10
ATOM     10  C   UNL     1      26.655   1.873  -0.617  1.00  0.00     0.041 C 
ATOM     11  O   UNL     1      25.758   1.051  -0.943  1.00  0.00    -0.550 OA
ATOM     12  O   UNL     1      26.830   2.207   0.720  1.00  0.00    -0.550 OA
ENDBRANCH   9  10
ENDBRANCH   8   9
ENDBRANCH   7   8
ENDBRANCH   6   7
ENDBRANCH   5   6
ENDBRANCH   4   5
ENDBRANCH   3   4
ENDBRANCH   1   3
BRANCH   2  13
ATOM     13  C   UNL     1      28.235  -2.494  -2.359  1.00  0.00     0.027 C 
BRANCH  13  14
ATOM     14  C   UNL     1      27.382  -1.945  -1.201  1.00  0.00     0.004 C 
BRANCH  14  15
ATOM     15  C   UNL     1      27.762  -2.487   0.191  1.00  0.00     0.000 C 
BRANCH  15  16
ATOM     16  C   UNL     1      28.675  -1.564   1.017  1.00  0.00     0.000 C 
BRANCH  16  17
ATOM     17  C   UNL     1      29.745  -2.332   1.808  1.00  0.00    -0.000 C 
BRANCH  17  18
ATOM     18  C   UNL     1      29.463  -3.841   1.790  1.00  0.00    -0.000 C 
BRANCH  18  19
ATOM     19  C   UNL     1      30.724  -4.674   1.508  1.00  0.00    -0.003 C 
ATOM     20  C   UNL     1      32.015  -3.912   1.808  1.00  0.00     0.004 C 
ENDBRANCH  18  19
ENDBRANCH  17  18
ENDBRANCH  16  17
ENDBRANCH  15  16
ENDBRANCH  14  15
ENDBRANCH  13  14
ENDBRANCH   2  13
TORSDOF 15
ENDMDL
