MODEL 1
REMARK VINA RESULT:    -0.414      0.000      0.000
REMARK INTER + INTRA:          -1.874
REMARK INTER:                  -1.043
REMARK INTRA:                  -0.831
REMARK UNBOUND:                -0.831
REMARK SMILES CCCCCCCCCCCCCCCCCCCCCCCCCCCC(=O)[O-]
REMARK SMILES IDX 15 1 16 2 17 3 18 4 19 5 20 6 21 7 22 8 23 9 24 10 25 11
REMARK SMILES IDX 26 12 27 13 28 14 29 15 30 16 14 17 13 18 12 19 11 20 10 21
REMARK SMILES IDX 9 22 8 23 7 24 6 25 5 26 4 27 3 28 2 29 1 30
REMARK H PARENT
REMARK Flexibility Score: inf
ROOT
ATOM      1  C   UNL     1     -10.788  -9.084 -11.363  1.00  0.00     0.000 C 
ENDROOT
BRANCH   1   2
ATOM      2  C   UNL     1     -12.252  -8.916 -11.799  1.00  0.00     0.000 C 
BRANCH   2   3
ATOM      3  C   UNL     1     -13.148 -10.066 -11.316  1.00  0.00     0.000 C 
BRANCH   3   4
ATOM      4  C   UNL     1     -12.971 -10.312  -9.810  1.00  0.00     0.000 C 
BRANCH   4   5
ATOM      5  C   UNL     1     -12.749 -11.798  -9.470  1.00  0.00     0.000 C 
BRANCH   5   6
ATOM      6  C   UNL     1     -12.998 -12.775 -10.637  1.00  0.00     0.000 C 
BRANCH   6   7
ATOM      7  C   UNL     1     -14.478 -13.125 -10.892  1.00  0.00     0.000 C 
BRANCH   7   8
ATOM      8  C   UNL     1     -15.477 -12.006 -10.543  1.00  0.00     0.000 C 
BRANCH   8   9
ATOM      9  C   UNL     1     -16.915 -12.340 -10.963  1.00  0.00     0.000 C 
BRANCH   9  10
ATOM     10  C   UNL     1     -17.886 -11.228 -10.538  1.00  0.00     0.000 C 
BRANCH  10  11
ATOM     11  C   UNL     1     -19.359 -11.658 -10.651  1.00  0.00     0.000 C 
BRANCH  11  12
ATOM     12  C   UNL     1     -19.798 -12.704  -9.606  1.00  0.00     0.006 C 
BRANCH  12  13
ATOM     13  C   UNL     1     -20.892 -12.188  -8.643  1.00  0.00     0.053 C 
BRANCH  13  14
ATOM     14  C   UNL     1     -20.356 -11.723  -7.317  1.00  0.00     0.041 C 
ATOM     15  O   UNL     1     -19.917 -12.572  -6.496  1.00  0.00    -0.550 OA
ATOM     16  O   UNL     1     -20.277 -10.373  -7.003  1.00  0.00    -0.550 OA
ENDBRANCH  13  14
ENDBRANCH  12  13
ENDBRANCH  11  12
ENDBRANCH  10  11
ENDBRANCH   9  10
ENDBRANCH   8   9
ENDBRANCH   7   8
ENDBRANCH   6   7
ENDBRANCH   5   6
ENDBRANCH   4   5
ENDBRANCH   3   4
ENDBRANCH   2   3
ENDBRANCH   1   2
BRANCH   1  17
ATOM     17  C   UNL     1     -10.082 -10.242 -12.090  1.00  0.00     0.000 C 
BRANCH  17  18
ATOM     18  C   UNL     1      -8.555 -10.080 -12.123  1.00  0.00     0.000 C 
BRANCH  18  19
ATOM     19  C   UNL     1      -7.815 -11.414 -11.930  1.00  0.00     0.000 C 
BRANCH  19  20
ATOM     20  C   UNL     1      -6.749 -11.299 -10.832  1.00  0.00     0.000 C 
BRANCH  20  21
ATOM     21  C   UNL     1      -5.315 -11.254 -11.390  1.00  0.00     0.000 C 
BRANCH  21  22
ATOM     22  C   UNL     1      -4.893  -9.903 -12.003  1.00  0.00    -0.000 C 
BRANCH  22  23
ATOM     23  C   UNL     1      -3.772  -9.160 -11.254  1.00  0.00    -0.000 C 
BRANCH  23  24
ATOM     24  C   UNL     1      -2.366  -9.543 -11.749  1.00  0.00    -0.000 C 
BRANCH  24  25
ATOM     25  C   UNL     1      -2.121 -11.061 -11.744  1.00  0.00    -0.000 C 
BRANCH  25  26
ATOM     26  C   UNL     1      -1.453 -11.612 -10.471  1.00  0.00    -0.000 C 
BRANCH  26  27
ATOM     27  C   UNL     1      -0.926 -10.503  -9.544  1.00  0.00    -0.000 C 
BRANCH  27  28
ATOM     28  C   UNL     1      -1.500 -10.601  -8.121  1.00  0.00    -0.000 C 
BRANCH  28  29
ATOM     29  C   UNL     1      -1.409  -9.272  -7.356  1.00  0.00    -0.003 C 
ATOM     30  C   UNL     1      -0.877  -8.158  -8.254  1.00  0.00     0.004 C 
ENDBRANCH  28  29
ENDBRANCH  27  28
ENDBRANCH  26  27
ENDBRANCH  25  26
ENDBRANCH  24  25
ENDBRANCH  23  24
ENDBRANCH  22  23
ENDBRANCH  21  22
ENDBRANCH  20  21
ENDBRANCH  19  20
ENDBRANCH  18  19
ENDBRANCH  17  18
ENDBRANCH   1  17
TORSDOF 26
ENDMDL
MODEL 2
REMARK VINA RESULT:     0.321      1.210      2.249
REMARK INTER + INTRA:          -0.021
REMARK INTER:                   0.503
REMARK INTRA:                  -0.524
REMARK UNBOUND:                -0.831
REMARK SMILES CCCCCCCCCCCCCCCCCCCCCCCCCCCC(=O)[O-]
REMARK SMILES IDX 15 1 16 2 17 3 18 4 19 5 20 6 21 7 22 8 23 9 24 10 25 11
REMARK SMILES IDX 26 12 27 13 28 14 29 15 30 16 14 17 13 18 12 19 11 20 10 21
REMARK SMILES IDX 9 22 8 23 7 24 6 25 5 26 4 27 3 28 2 29 1 30
REMARK H PARENT
REMARK Flexibility Score: inf
ROOT
ATOM      1  C   UNL     1     -11.743  -9.443 -10.051  1.00  0.00     0.000 C 
ENDROOT
BRANCH   1   2
ATOM      2  C   UNL     1     -13.168  -9.645 -10.590  1.00  0.00     0.000 C 
BRANCH   2   3
ATOM      3  C   UNL     1     -13.273 -10.840 -11.549  1.00  0.00     0.000 C 
BRANCH   3   4
ATOM      4  C   UNL     1     -14.169 -11.943 -10.964  1.00  0.00     0.000 C 
BRANCH   4   5
ATOM      5  C   UNL     1     -14.974 -12.692 -12.043  1.00  0.00     0.000 C 
BRANCH   5   6
ATOM      6  C   UNL     1     -16.469 -12.887 -11.720  1.00  0.00     0.000 C 
BRANCH   6   7
ATOM      7  C   UNL     1     -17.045 -11.905 -10.680  1.00  0.00     0.000 C 
BRANCH   7   8
ATOM      8  C   UNL     1     -18.545 -11.596 -10.844  1.00  0.00     0.000 C 
BRANCH   8   9
ATOM      9  C   UNL     1     -19.139 -12.200 -12.125  1.00  0.00     0.000 C 
BRANCH   9  10
ATOM     10  C   UNL     1     -20.666 -12.328 -12.017  1.00  0.00     0.000 C 
BRANCH  10  11
ATOM     11  C   UNL     1     -21.115 -12.907 -10.665  1.00  0.00     0.000 C 
BRANCH  11  12
ATOM     12  C   UNL     1     -20.993 -11.926  -9.482  1.00  0.00     0.006 C 
BRANCH  12  13
ATOM     13  C   UNL     1     -20.752 -12.627  -8.125  1.00  0.00     0.053 C 
BRANCH  13  14
ATOM     14  C   UNL     1     -19.485 -12.194  -7.441  1.00  0.00     0.041 C 
ATOM     15  O   UNL     1     -19.463 -11.103  -6.811  1.00  0.00    -0.550 OA
ATOM     16  O   UNL     1     -18.355 -13.001  -7.436  1.00  0.00    -0.550 OA
ENDBRANCH  13  14
ENDBRANCH  12  13
ENDBRANCH  11  12
ENDBRANCH  10  11
ENDBRANCH   9  10
ENDBRANCH   8   9
ENDBRANCH   7   8
ENDBRANCH   6   7
ENDBRANCH   5   6
ENDBRANCH   4   5
ENDBRANCH   3   4
ENDBRANCH   2   3
ENDBRANCH   1   2
BRANCH   1  17
ATOM     17  C   UNL     1     -10.705  -9.262 -11.172  1.00  0.00     0.000 C 
BRANCH  17  18
ATOM     18  C   UNL     1     -10.114 -10.596 -11.654  1.00  0.00     0.000 C 
BRANCH  18  19
ATOM     19  C   UNL     1      -8.657 -10.461 -12.125  1.00  0.00     0.000 C 
BRANCH  19  20
ATOM     20  C   UNL     1      -7.915 -11.800 -12.012  1.00  0.00     0.000 C 
BRANCH  20  21
ATOM     21  C   UNL     1      -6.617 -11.698 -11.189  1.00  0.00     0.000 C 
BRANCH  21  22
ATOM     22  C   UNL     1      -5.356 -11.331 -11.998  1.00  0.00    -0.000 C 
BRANCH  22  23
ATOM     23  C   UNL     1      -4.637 -10.046 -11.552  1.00  0.00    -0.000 C 
BRANCH  23  24
ATOM     24  C   UNL     1      -3.135 -10.054 -11.885  1.00  0.00    -0.000 C 
BRANCH  24  25
ATOM     25  C   UNL     1      -2.313  -9.134 -10.966  1.00  0.00    -0.000 C 
BRANCH  25  26
ATOM     26  C   UNL     1      -1.854  -9.773  -9.641  1.00  0.00    -0.000 C 
BRANCH  26  27
ATOM     27  C   UNL     1      -1.027 -11.053  -9.850  1.00  0.00    -0.000 C 
BRANCH  27  28
ATOM     28  C   UNL     1      -1.316 -12.121  -8.781  1.00  0.00    -0.000 C 
BRANCH  28  29
ATOM     29  C   UNL     1      -0.901 -11.671  -7.372  1.00  0.00    -0.003 C 
ATOM     30  C   UNL     1      -1.554 -12.544  -6.304  1.00  0.00     0.004 C 
ENDBRANCH  28  29
ENDBRANCH  27  28
ENDBRANCH  26  27
ENDBRANCH  25  26
ENDBRANCH  24  25
ENDBRANCH  23  24
ENDBRANCH  22  23
ENDBRANCH  21  22
ENDBRANCH  20  21
ENDBRANCH  19  20
ENDBRANCH  18  19
ENDBRANCH  17  18
ENDBRANCH   1  17
TORSDOF 26
ENDMDL
MODEL 3
REMARK VINA RESULT:     0.752      5.075     13.933
REMARK INTER + INTRA:           1.063
REMARK INTER:                   1.892
REMARK INTRA:                  -0.829
REMARK UNBOUND:                -0.831
REMARK SMILES CCCCCCCCCCCCCCCCCCCCCCCCCCCC(=O)[O-]
REMARK SMILES IDX 15 1 16 2 17 3 18 4 19 5 20 6 21 7 22 8 23 9 24 10 25 11
REMARK SMILES IDX 26 12 27 13 28 14 29 15 30 16 14 17 13 18 12 19 11 20 10 21
REMARK SMILES IDX 9 22 8 23 7 24 6 25 5 26 4 27 3 28 2 29 1 30
REMARK H PARENT
REMARK Flexibility Score: inf
ROOT
ATOM      1  C   UNL     1     -11.875  -9.353 -10.013  1.00  0.00     0.000 C 
ENDROOT
BRANCH   1   2
ATOM      2  C   UNL     1     -10.630  -9.404 -10.913  1.00  0.00     0.000 C 
BRANCH   2   3
ATOM      3  C   UNL     1     -10.691 -10.542 -11.942  1.00  0.00     0.000 C 
BRANCH   3   4
ATOM      4  C   UNL     1     -10.056 -11.827 -11.388  1.00  0.00     0.000 C 
BRANCH   4   5
ATOM      5  C   UNL     1      -8.761 -12.218 -12.125  1.00  0.00     0.000 C 
BRANCH   5   6
ATOM      6  C   UNL     1      -7.584 -11.240 -11.933  1.00  0.00     0.000 C 
BRANCH   6   7
ATOM      7  C   UNL     1      -6.303 -11.867 -11.346  1.00  0.00     0.000 C 
BRANCH   7   8
ATOM      8  C   UNL     1      -4.989 -11.320 -11.933  1.00  0.00     0.000 C 
BRANCH   8   9
ATOM      9  C   UNL     1      -4.324 -10.273 -11.029  1.00  0.00     0.000 C 
BRANCH   9  10
ATOM     10  C   UNL     1      -2.817 -10.177 -11.311  1.00  0.00     0.000 C 
BRANCH  10  11
ATOM     11  C   UNL     1      -2.242  -8.790 -10.975  1.00  0.00     0.000 C 
BRANCH  11  12
ATOM     12  C   UNL     1      -1.069  -8.815  -9.975  1.00  0.00     0.006 C 
BRANCH  12  13
ATOM     13  C   UNL     1      -1.450  -8.298  -8.568  1.00  0.00     0.053 C 
BRANCH  13  14
ATOM     14  C   UNL     1      -1.165  -9.284  -7.469  1.00  0.00     0.041 C 
ATOM     15  O   UNL     1      -1.127 -10.515  -7.736  1.00  0.00    -0.550 OA
ATOM     16  O   UNL     1      -0.881  -8.862  -6.177  1.00  0.00    -0.550 OA
ENDBRANCH  13  14
ENDBRANCH  12  13
ENDBRANCH  11  12
ENDBRANCH  10  11
ENDBRANCH   9  10
ENDBRANCH   8   9
ENDBRANCH   7   8
ENDBRANCH   6   7
ENDBRANCH   5   6
ENDBRANCH   4   5
ENDBRANCH   3   4
ENDBRANCH   2   3
ENDBRANCH   1   2
BRANCH   1  17
ATOM     17  C   UNL     1     -12.920  -8.336 -10.505  1.00  0.00     0.000 C 
BRANCH  17  18
ATOM     18  C   UNL     1     -14.155  -9.008 -11.126  1.00  0.00     0.000 C 
BRANCH  18  19
ATOM     19  C   UNL     1     -13.800 -10.266 -11.934  1.00  0.00     0.000 C 
BRANCH  19  20
ATOM     20  C   UNL     1     -14.843 -11.372 -11.719  1.00  0.00     0.000 C 
BRANCH  20  21
ATOM     21  C   UNL     1     -15.106 -11.667 -10.231  1.00  0.00     0.000 C 
BRANCH  21  22
ATOM     22  C   UNL     1     -15.780 -13.024  -9.943  1.00  0.00    -0.000 C 
BRANCH  22  23
ATOM     23  C   UNL     1     -17.294 -13.080 -10.214  1.00  0.00    -0.000 C 
BRANCH  23  24
ATOM     24  C   UNL     1     -17.713 -12.253 -11.441  1.00  0.00    -0.000 C 
BRANCH  24  25
ATOM     25  C   UNL     1     -19.158 -11.733 -11.349  1.00  0.00    -0.000 C 
BRANCH  25  26
ATOM     26  C   UNL     1     -20.023 -12.393 -10.259  1.00  0.00    -0.000 C 
BRANCH  26  27
ATOM     27  C   UNL     1     -21.101 -11.451  -9.698  1.00  0.00    -0.000 C 
BRANCH  27  28
ATOM     28  C   UNL     1     -20.735 -10.894  -8.313  1.00  0.00    -0.000 C 
BRANCH  28  29
ATOM     29  C   UNL     1     -20.902 -11.936  -7.196  1.00  0.00    -0.003 C 
ATOM     30  C   UNL     1     -19.563 -12.576  -6.839  1.00  0.00     0.004 C 
ENDBRANCH  28  29
ENDBRANCH  27  28
ENDBRANCH  26  27
ENDBRANCH  25  26
ENDBRANCH  24  25
ENDBRANCH  23  24
ENDBRANCH  22  23
ENDBRANCH  21  22
ENDBRANCH  20  21
ENDBRANCH  19  20
ENDBRANCH  18  19
ENDBRANCH  17  18
ENDBRANCH   1  17
TORSDOF 26
ENDMDL
MODEL 4
REMARK VINA RESULT:     1.982      5.119     13.585
REMARK INTER + INTRA:           4.164
REMARK INTER:                   2.314
REMARK INTRA:                   1.850
REMARK UNBOUND:                -0.831
REMARK SMILES CCCCCCCCCCCCCCCCCCCCCCCCCCCC(=O)[O-]
REMARK SMILES IDX 15 1 16 2 17 3 18 4 19 5 20 6 21 7 22 8 23 9 24 10 25 11
REMARK SMILES IDX 26 12 27 13 28 14 29 15 30 16 14 17 13 18 12 19 11 20 10 21
REMARK SMILES IDX 9 22 8 23 7 24 6 25 5 26 4 27 3 28 2 29 1 30
REMARK H PARENT
REMARK Flexibility Score: inf
ROOT
ATOM      1  C   UNL     1     -11.336 -10.204 -11.647  1.00  0.00     0.000 C 
ENDROOT
BRANCH   1   2
ATOM      2  C   UNL     1      -9.873 -10.391 -11.214  1.00  0.00     0.000 C 
BRANCH   2   3
ATOM      3  C   UNL     1      -9.132 -11.429 -12.069  1.00  0.00     0.000 C 
BRANCH   3   4
ATOM      4  C   UNL     1      -7.626 -11.129 -12.125  1.00  0.00     0.000 C 
BRANCH   4   5
ATOM      5  C   UNL     1      -6.917 -11.389 -10.782  1.00  0.00     0.000 C 
BRANCH   5   6
ATOM      6  C   UNL     1      -5.965 -12.601 -10.775  1.00  0.00     0.000 C 
BRANCH   6   7
ATOM      7  C   UNL     1      -4.482 -12.270 -11.041  1.00  0.00     0.000 C 
BRANCH   7   8
ATOM      8  C   UNL     1      -4.244 -11.006 -11.888  1.00  0.00     0.000 C 
BRANCH   8   9
ATOM      9  C   UNL     1      -2.940 -10.282 -11.523  1.00  0.00     0.000 C 
BRANCH   9  10
ATOM     10  C   UNL     1      -2.937  -8.845 -12.065  1.00  0.00     0.000 C 
BRANCH  10  11
ATOM     11  C   UNL     1      -1.742  -8.025 -11.549  1.00  0.00     0.000 C 
BRANCH  11  12
ATOM     12  C   UNL     1      -0.886  -8.747 -10.490  1.00  0.00     0.006 C 
BRANCH  12  13
ATOM     13  C   UNL     1      -1.709  -9.665  -9.556  1.00  0.00     0.053 C 
BRANCH  13  14
ATOM     14  C   UNL     1      -1.436  -9.436  -8.095  1.00  0.00     0.041 C 
ATOM     15  O   UNL     1      -1.113 -10.411  -7.366  1.00  0.00    -0.550 OA
ATOM     16  O   UNL     1      -1.471  -8.161  -7.545  1.00  0.00    -0.550 OA
ENDBRANCH  13  14
ENDBRANCH  12  13
ENDBRANCH  11  12
ENDBRANCH  10  11
ENDBRANCH   9  10
ENDBRANCH   8   9
ENDBRANCH   7   8
ENDBRANCH   6   7
ENDBRANCH   5   6
ENDBRANCH   4   5
ENDBRANCH   3   4
ENDBRANCH   2   3
ENDBRANCH   1   2
BRANCH   1  17
ATOM     17  C   UNL     1     -12.306 -10.147 -10.453  1.00  0.00     0.000 C 
BRANCH  17  18
ATOM     18  C   UNL     1     -13.320  -8.998 -10.566  1.00  0.00     0.000 C 
BRANCH  18  19
ATOM     19  C   UNL     1     -14.068  -9.001 -11.909  1.00  0.00     0.000 C 
BRANCH  19  20
ATOM     20  C   UNL     1     -14.818  -7.679 -12.125  1.00  0.00     0.000 C 
BRANCH  20  21
ATOM     21  C   UNL     1     -16.349  -7.851 -12.118  1.00  0.00     0.000 C 
BRANCH  21  22
ATOM     22  C   UNL     1     -16.863  -9.112 -11.395  1.00  0.00    -0.000 C 
BRANCH  22  23
ATOM     23  C   UNL     1     -16.592 -10.444 -12.117  1.00  0.00    -0.000 C 
BRANCH  23  24
ATOM     24  C   UNL     1     -15.566 -11.325 -11.384  1.00  0.00    -0.000 C 
BRANCH  24  25
ATOM     25  C   UNL     1     -15.960 -12.812 -11.361  1.00  0.00    -0.000 C 
BRANCH  25  26
ATOM     26  C   UNL     1     -17.413 -13.097 -10.938  1.00  0.00    -0.000 C 
BRANCH  26  27
ATOM     27  C   UNL     1     -17.933 -12.108  -9.881  1.00  0.00    -0.000 C 
BRANCH  27  28
ATOM     28  C   UNL     1     -19.451 -11.880  -9.983  1.00  0.00    -0.000 C 
BRANCH  28  29
ATOM     29  C   UNL     1     -20.174 -12.127  -8.650  1.00  0.00    -0.003 C 
ATOM     30  C   UNL     1     -19.222 -12.710  -7.610  1.00  0.00     0.004 C 
ENDBRANCH  28  29
ENDBRANCH  27  28
ENDBRANCH  26  27
ENDBRANCH  25  26
ENDBRANCH  24  25
ENDBRANCH  23  24
ENDBRANCH  22  23
ENDBRANCH  21  22
ENDBRANCH  20  21
ENDBRANCH  19  20
ENDBRANCH  18  19
ENDBRANCH  17  18
ENDBRANCH   1  17
TORSDOF 26
ENDMDL
MODEL 5
REMARK VINA RESULT:     2.091      5.157     13.609
REMARK INTER + INTRA:           4.439
REMARK INTER:                   3.743
REMARK INTRA:                   0.696
REMARK UNBOUND:                -0.831
REMARK SMILES CCCCCCCCCCCCCCCCCCCCCCCCCCCC(=O)[O-]
REMARK SMILES IDX 15 1 16 2 17 3 18 4 19 5 20 6 21 7 22 8 23 9 24 10 25 11
REMARK SMILES IDX 26 12 27 13 28 14 29 15 30 16 14 17 13 18 12 19 11 20 10 21
REMARK SMILES IDX 9 22 8 23 7 24 6 25 5 26 4 27 3 28 2 29 1 30
REMARK H PARENT
REMARK Flexibility Score: inf
ROOT
ATOM      1  C   UNL     1     -13.420  -9.953  -9.629  1.00  0.00     0.000 C 
ENDROOT
BRANCH   1   2
ATOM      2  C   UNL     1     -12.764  -9.328 -10.872  1.00  0.00     0.000 C 
BRANCH   2   3
ATOM      3  C   UNL     1     -11.238  -9.220 -10.743  1.00  0.00     0.000 C 
BRANCH   3   4
ATOM      4  C   UNL     1     -10.552  -9.391 -12.107  1.00  0.00     0.000 C 
BRANCH   4   5
ATOM      5  C   UNL     1      -9.286 -10.265 -12.032  1.00  0.00     0.000 C 
BRANCH   5   6
ATOM      6  C   UNL     1      -9.543 -11.756 -11.741  1.00  0.00     0.000 C 
BRANCH   6   7
ATOM      7  C   UNL     1      -8.314 -12.548 -11.250  1.00  0.00     0.000 C 
BRANCH   7   8
ATOM      8  C   UNL     1      -7.055 -12.394 -12.123  1.00  0.00     0.000 C 
BRANCH   8   9
ATOM      9  C   UNL     1      -5.800 -12.986 -11.467  1.00  0.00     0.000 C 
BRANCH   9  10
ATOM     10  C   UNL     1      -4.650 -11.967 -11.456  1.00  0.00     0.000 C 
BRANCH  10  11
ATOM     11  C   UNL     1      -5.035 -10.654 -10.753  1.00  0.00     0.000 C 
BRANCH  11  12
ATOM     12  C   UNL     1      -3.924  -9.585 -10.753  1.00  0.00     0.006 C 
BRANCH  12  13
ATOM     13  C   UNL     1      -2.578 -10.097 -10.189  1.00  0.00     0.053 C 
BRANCH  13  14
ATOM     14  C   UNL     1      -1.631  -8.996  -9.800  1.00  0.00     0.041 C 
ATOM     15  O   UNL     1      -1.138  -8.984  -8.641  1.00  0.00    -0.550 OA
ATOM     16  O   UNL     1      -1.238  -8.026 -10.713  1.00  0.00    -0.550 OA
ENDBRANCH  13  14
ENDBRANCH  12  13
ENDBRANCH  11  12
ENDBRANCH  10  11
ENDBRANCH   9  10
ENDBRANCH   8   9
ENDBRANCH   7   8
ENDBRANCH   6   7
ENDBRANCH   5   6
ENDBRANCH   4   5
ENDBRANCH   3   4
ENDBRANCH   2   3
ENDBRANCH   1   2
BRANCH   1  17
ATOM     17  C   UNL     1     -13.563 -11.481  -9.740  1.00  0.00     0.000 C 
BRANCH  17  18
ATOM     18  C   UNL     1     -13.166 -12.016 -11.125  1.00  0.00     0.000 C 
BRANCH  18  19
ATOM     19  C   UNL     1     -14.377 -12.220 -12.049  1.00  0.00     0.000 C 
BRANCH  19  20
ATOM     20  C   UNL     1     -15.691 -11.954 -11.301  1.00  0.00     0.000 C 
BRANCH  20  21
ATOM     21  C   UNL     1     -15.653 -12.426  -9.836  1.00  0.00     0.000 C 
BRANCH  21  22
ATOM     22  C   UNL     1     -16.938 -13.119  -9.338  1.00  0.00    -0.000 C 
BRANCH  22  23
ATOM     23  C   UNL     1     -17.660 -12.415  -8.176  1.00  0.00    -0.000 C 
BRANCH  23  24
ATOM     24  C   UNL     1     -19.054 -13.002  -7.894  1.00  0.00    -0.000 C 
BRANCH  24  25
ATOM     25  C   UNL     1     -20.088 -11.931  -7.503  1.00  0.00    -0.000 C 
BRANCH  25  26
ATOM     26  C   UNL     1     -21.122 -11.592  -8.592  1.00  0.00    -0.000 C 
BRANCH  26  27
ATOM     27  C   UNL     1     -20.971 -12.462  -9.852  1.00  0.00    -0.000 C 
BRANCH  27  28
ATOM     28  C   UNL     1     -20.706 -11.627 -11.116  1.00  0.00    -0.000 C 
BRANCH  28  29
ATOM     29  C   UNL     1     -19.417 -12.048 -11.839  1.00  0.00    -0.003 C 
ATOM     30  C   UNL     1     -18.287 -11.059 -11.564  1.00  0.00     0.004 C 
ENDBRANCH  28  29
ENDBRANCH  27  28
ENDBRANCH  26  27
ENDBRANCH  25  26
ENDBRANCH  24  25
ENDBRANCH  23  24
ENDBRANCH  22  23
ENDBRANCH  21  22
ENDBRANCH  20  21
ENDBRANCH  19  20
ENDBRANCH  18  19
ENDBRANCH  17  18
ENDBRANCH   1  17
TORSDOF 26
ENDMDL
MODEL 6
REMARK VINA RESULT:     2.240      1.947      3.892
REMARK INTER + INTRA:           4.813
REMARK INTER:                   6.639
REMARK INTRA:                  -1.826
REMARK UNBOUND:                -0.831
REMARK SMILES CCCCCCCCCCCCCCCCCCCCCCCCCCCC(=O)[O-]
REMARK SMILES IDX 15 1 16 2 17 3 18 4 19 5 20 6 21 7 22 8 23 9 24 10 25 11
REMARK SMILES IDX 26 12 27 13 28 14 29 15 30 16 14 17 13 18 12 19 11 20 10 21
REMARK SMILES IDX 9 22 8 23 7 24 6 25 5 26 4 27 3 28 2 29 1 30
REMARK H PARENT
REMARK Flexibility Score: inf
ROOT
ATOM      1  C   UNL     1     -12.173  -8.569  -8.892  1.00  0.00     0.000 C 
ENDROOT
BRANCH   1   2
ATOM      2  C   UNL     1     -13.426  -8.361  -9.758  1.00  0.00     0.000 C 
BRANCH   2   3
ATOM      3  C   UNL     1     -13.127  -7.594 -11.055  1.00  0.00     0.000 C 
BRANCH   3   4
ATOM      4  C   UNL     1     -14.200  -7.866 -12.120  1.00  0.00     0.000 C 
BRANCH   4   5
ATOM      5  C   UNL     1     -15.051  -9.111 -11.806  1.00  0.00     0.000 C 
BRANCH   5   6
ATOM      6  C   UNL     1     -16.553  -8.967 -12.122  1.00  0.00     0.000 C 
BRANCH   6   7
ATOM      7  C   UNL     1     -17.379 -10.260 -11.969  1.00  0.00     0.000 C 
BRANCH   7   8
ATOM      8  C   UNL     1     -16.561 -11.510 -11.594  1.00  0.00     0.000 C 
BRANCH   8   9
ATOM      9  C   UNL     1     -17.405 -12.584 -10.892  1.00  0.00     0.000 C 
BRANCH   9  10
ATOM     10  C   UNL     1     -17.306 -12.453  -9.365  1.00  0.00     0.000 C 
BRANCH  10  11
ATOM     11  C   UNL     1     -18.523 -13.056  -8.643  1.00  0.00     0.000 C 
BRANCH  11  12
ATOM     12  C   UNL     1     -19.872 -12.788  -9.339  1.00  0.00     0.006 C 
BRANCH  12  13
ATOM     13  C   UNL     1     -20.372 -11.334  -9.170  1.00  0.00     0.053 C 
BRANCH  13  14
ATOM     14  C   UNL     1     -20.270 -10.824  -7.759  1.00  0.00     0.041 C 
ATOM     15  O   UNL     1     -19.445  -9.912  -7.489  1.00  0.00    -0.550 OA
ATOM     16  O   UNL     1     -21.113 -11.293  -6.760  1.00  0.00    -0.550 OA
ENDBRANCH  13  14
ENDBRANCH  12  13
ENDBRANCH  11  12
ENDBRANCH  10  11
ENDBRANCH   9  10
ENDBRANCH   8   9
ENDBRANCH   7   8
ENDBRANCH   6   7
ENDBRANCH   5   6
ENDBRANCH   4   5
ENDBRANCH   3   4
ENDBRANCH   2   3
ENDBRANCH   1   2
BRANCH   1  17
ATOM     17  C   UNL     1     -11.391  -9.838  -9.275  1.00  0.00     0.000 C 
BRANCH  17  18
ATOM     18  C   UNL     1     -12.259 -11.104  -9.239  1.00  0.00     0.000 C 
BRANCH  18  19
ATOM     19  C   UNL     1     -11.482 -12.365  -9.652  1.00  0.00     0.000 C 
BRANCH  19  20
ATOM     20  C   UNL     1     -12.170 -13.077 -10.825  1.00  0.00     0.000 C 
BRANCH  20  21
ATOM     21  C   UNL     1     -11.332 -13.052 -12.116  1.00  0.00     0.000 C 
BRANCH  21  22
ATOM     22  C   UNL     1      -9.984 -12.310 -12.007  1.00  0.00    -0.000 C 
BRANCH  22  23
ATOM     23  C   UNL     1      -8.830 -13.124 -11.396  1.00  0.00    -0.000 C 
BRANCH  23  24
ATOM     24  C   UNL     1      -7.480 -12.861 -12.086  1.00  0.00    -0.000 C 
BRANCH  24  25
ATOM     25  C   UNL     1      -6.520 -12.023 -11.225  1.00  0.00    -0.000 C 
BRANCH  25  26
ATOM     26  C   UNL     1      -5.024 -12.335 -11.421  1.00  0.00    -0.000 C 
BRANCH  26  27
ATOM     27  C   UNL     1      -4.104 -11.310 -10.738  1.00  0.00    -0.000 C 
BRANCH  27  28
ATOM     28  C   UNL     1      -2.812 -11.944 -10.198  1.00  0.00    -0.000 C 
BRANCH  28  29
ATOM     29  C   UNL     1      -1.632 -11.795 -11.171  1.00  0.00    -0.003 C 
ATOM     30  C   UNL     1      -1.757 -10.515 -11.992  1.00  0.00     0.004 C 
ENDBRANCH  28  29
ENDBRANCH  27  28
ENDBRANCH  26  27
ENDBRANCH  25  26
ENDBRANCH  24  25
ENDBRANCH  23  24
ENDBRANCH  22  23
ENDBRANCH  21  22
ENDBRANCH  20  21
ENDBRANCH  19  20
ENDBRANCH  18  19
ENDBRANCH  17  18
ENDBRANCH   1  17
TORSDOF 26
ENDMDL
