MODEL 1
REMARK VINA RESULT:    -3.733      0.000      0.000
REMARK INTER + INTRA:          -4.415
REMARK INTER:                  -4.388
REMARK INTRA:                  -0.027
REMARK UNBOUND:                -0.027
REMARK SMILES O=C([O-])CCC(=O)[O-]
REMARK SMILES IDX 4 1 2 2 1 3 3 4 5 5 6 6 7 7 8 8
REMARK H PARENT
REMARK Flexibility Score: inf
ROOT
ATOM      1  C   UNL     1      -3.442  37.144  18.467  1.00  0.00     0.059 C 
ENDROOT
BRANCH   1   2
ATOM      2  C   UNL     1      -4.357  36.785  19.598  1.00  0.00     0.042 C 
ATOM      3  O   UNL     1      -5.281  37.569  19.941  1.00  0.00    -0.550 OA
ATOM      4  O   UNL     1      -4.215  35.564  20.245  1.00  0.00    -0.550 OA
ENDBRANCH   1   2
BRANCH   1   5
ATOM      5  C   UNL     1      -3.516  36.118  17.332  1.00  0.00     0.059 C 
BRANCH   5   6
ATOM      6  C   UNL     1      -2.927  36.655  16.063  1.00  0.00     0.042 C 
ATOM      7  O   UNL     1      -1.802  36.252  15.667  1.00  0.00    -0.550 OA
ATOM      8  O   UNL     1      -3.601  37.631  15.340  1.00  0.00    -0.550 OA
ENDBRANCH   5   6
ENDBRANCH   1   5
TORSDOF 3
ENDMDL
MODEL 2
REMARK VINA RESULT:    -3.727      0.047      4.415
REMARK INTER + INTRA:          -4.408
REMARK INTER:                  -4.381
REMARK INTRA:                  -0.027
REMARK UNBOUND:                -0.027
REMARK SMILES O=C([O-])CCC(=O)[O-]
REMARK SMILES IDX 4 1 2 2 1 3 3 4 5 5 6 6 7 7 8 8
REMARK H PARENT
REMARK Flexibility Score: inf
ROOT
ATOM      1  C   UNL     1      -3.534  36.113  17.340  1.00  0.00     0.059 C 
ENDROOT
BRANCH   1   2
ATOM      2  C   UNL     1      -2.922  36.661  16.087  1.00  0.00     0.042 C 
ATOM      3  O   UNL     1      -1.812  36.228  15.681  1.00  0.00    -0.550 OA
ATOM      4  O   UNL     1      -3.600  37.621  15.346  1.00  0.00    -0.550 OA
ENDBRANCH   1   2
BRANCH   1   5
ATOM      5  C   UNL     1      -3.479  37.128  18.487  1.00  0.00     0.059 C 
BRANCH   5   6
ATOM      6  C   UNL     1      -4.394  36.742  19.610  1.00  0.00     0.042 C 
ATOM      7  O   UNL     1      -5.271  37.549  20.017  1.00  0.00    -0.550 OA
ATOM      8  O   UNL     1      -4.251  35.510  20.233  1.00  0.00    -0.550 OA
ENDBRANCH   5   6
ENDBRANCH   1   5
TORSDOF 3
ENDMDL
MODEL 3
REMARK VINA RESULT:    -3.722      0.102      4.279
REMARK INTER + INTRA:          -4.402
REMARK INTER:                  -4.374
REMARK INTRA:                  -0.028
REMARK UNBOUND:                -0.027
REMARK SMILES O=C([O-])CCC(=O)[O-]
REMARK SMILES IDX 4 1 2 2 1 3 3 4 5 5 6 6 7 7 8 8
REMARK H PARENT
REMARK Flexibility Score: inf
ROOT
ATOM      1  C   UNL     1      -3.518  36.101  17.344  1.00  0.00     0.059 C 
ENDROOT
BRANCH   1   2
ATOM      2  C   UNL     1      -2.915  36.665  16.094  1.00  0.00     0.042 C 
ATOM      3  O   UNL     1      -1.808  36.237  15.674  1.00  0.00    -0.550 OA
ATOM      4  O   UNL     1      -3.597  37.635  15.370  1.00  0.00    -0.550 OA
ENDBRANCH   1   2
BRANCH   1   5
ATOM      5  C   UNL     1      -3.439  37.095  18.507  1.00  0.00     0.059 C 
BRANCH   5   6
ATOM      6  C   UNL     1      -4.361  36.712  19.625  1.00  0.00     0.042 C 
ATOM      7  O   UNL     1      -4.333  35.545  20.097  1.00  0.00    -0.550 OA
ATOM      8  O   UNL     1      -5.280  37.630  20.115  1.00  0.00    -0.550 OA
ENDBRANCH   5   6
ENDBRANCH   1   5
TORSDOF 3
ENDMDL
MODEL 4
REMARK VINA RESULT:    -3.717      0.134      1.146
REMARK INTER + INTRA:          -4.396
REMARK INTER:                  -4.365
REMARK INTRA:                  -0.030
REMARK UNBOUND:                -0.027
REMARK SMILES O=C([O-])CCC(=O)[O-]
REMARK SMILES IDX 4 1 2 2 1 3 3 4 5 5 6 6 7 7 8 8
REMARK H PARENT
REMARK Flexibility Score: inf
ROOT
ATOM      1  C   UNL     1      -3.394  37.147  18.411  1.00  0.00     0.059 C 
ENDROOT
BRANCH   1   2
ATOM      2  C   UNL     1      -4.315  36.777  19.533  1.00  0.00     0.042 C 
ATOM      3  O   UNL     1      -5.216  37.575  19.904  1.00  0.00    -0.550 OA
ATOM      4  O   UNL     1      -4.204  35.534  20.141  1.00  0.00    -0.550 OA
ENDBRANCH   1   2
BRANCH   1   5
ATOM      5  C   UNL     1      -3.477  36.143  17.257  1.00  0.00     0.059 C 
BRANCH   5   6
ATOM      6  C   UNL     1      -2.977  36.735  15.973  1.00  0.00     0.042 C 
ATOM      7  O   UNL     1      -3.619  37.660  15.410  1.00  0.00    -0.550 OA
ATOM      8  O   UNL     1      -1.826  36.235  15.378  1.00  0.00    -0.550 OA
ENDBRANCH   5   6
ENDBRANCH   1   5
TORSDOF 3
ENDMDL
MODEL 5
REMARK VINA RESULT:    -3.698      0.104      1.150
REMARK INTER + INTRA:          -4.373
REMARK INTER:                  -4.346
REMARK INTRA:                  -0.027
REMARK UNBOUND:                -0.027
REMARK SMILES O=C([O-])CCC(=O)[O-]
REMARK SMILES IDX 4 1 2 2 1 3 3 4 5 5 6 6 7 7 8 8
REMARK H PARENT
REMARK Flexibility Score: inf
ROOT
ATOM      1  C   UNL     1      -3.356  37.014  18.448  1.00  0.00     0.059 C 
ENDROOT
BRANCH   1   2
ATOM      2  C   UNL     1      -4.331  36.693  19.539  1.00  0.00     0.042 C 
ATOM      3  O   UNL     1      -4.237  35.611  20.176  1.00  0.00    -0.550 OA
ATOM      4  O   UNL     1      -5.318  37.609  19.880  1.00  0.00    -0.550 OA
ENDBRANCH   1   2
BRANCH   1   5
ATOM      5  C   UNL     1      -3.498  36.054  17.263  1.00  0.00     0.059 C 
BRANCH   5   6
ATOM      6  C   UNL     1      -2.867  36.610  16.022  1.00  0.00     0.042 C 
ATOM      7  O   UNL     1      -1.742  36.193  15.643  1.00  0.00    -0.550 OA
ATOM      8  O   UNL     1      -3.504  37.618  15.309  1.00  0.00    -0.550 OA
ENDBRANCH   5   6
ENDBRANCH   1   5
TORSDOF 3
ENDMDL
MODEL 6
REMARK VINA RESULT:    -3.469      1.737      4.362
REMARK INTER + INTRA:          -4.105
REMARK INTER:                  -4.063
REMARK INTRA:                  -0.042
REMARK UNBOUND:                -0.027
REMARK SMILES O=C([O-])CCC(=O)[O-]
REMARK SMILES IDX 4 1 2 2 1 3 3 4 5 5 6 6 7 7 8 8
REMARK H PARENT
REMARK Flexibility Score: inf
ROOT
ATOM      1  C   UNL     1      -3.878  37.238  18.672  1.00  0.00     0.059 C 
ENDROOT
BRANCH   1   2
ATOM      2  C   UNL     1      -2.443  37.247  18.242  1.00  0.00     0.042 C 
ATOM      3  O   UNL     1      -1.557  37.727  18.998  1.00  0.00    -0.550 OA
ATOM      4  O   UNL     1      -2.078  36.687  17.024  1.00  0.00    -0.550 OA
ENDBRANCH   1   2
BRANCH   1   5
ATOM      5  C   UNL     1      -4.140  36.176  19.745  1.00  0.00     0.059 C 
BRANCH   5   6
ATOM      6  C   UNL     1      -5.268  36.571  20.649  1.00  0.00     0.042 C 
ATOM      7  O   UNL     1      -5.963  35.688  21.216  1.00  0.00    -0.550 OA
ATOM      8  O   UNL     1      -5.578  37.912  20.830  1.00  0.00    -0.550 OA
ENDBRANCH   5   6
ENDBRANCH   1   5
TORSDOF 3
ENDMDL
MODEL 7
REMARK VINA RESULT:    -3.211      1.707      4.424
REMARK INTER + INTRA:          -3.801
REMARK INTER:                  -3.759
REMARK INTRA:                  -0.042
REMARK UNBOUND:                -0.027
REMARK SMILES O=C([O-])CCC(=O)[O-]
REMARK SMILES IDX 4 1 2 2 1 3 3 4 5 5 6 6 7 7 8 8
REMARK H PARENT
REMARK Flexibility Score: inf
ROOT
ATOM      1  C   UNL     1      -3.323  37.410  16.217  1.00  0.00     0.059 C 
ENDROOT
BRANCH   1   2
ATOM      2  C   UNL     1      -3.209  36.708  14.899  1.00  0.00     0.042 C 
ATOM      3  O   UNL     1      -2.330  35.822  14.726  1.00  0.00    -0.550 OA
ATOM      4  O   UNL     1      -4.100  37.002  13.875  1.00  0.00    -0.550 OA
ENDBRANCH   1   2
BRANCH   1   5
ATOM      5  C   UNL     1      -2.272  36.914  17.215  1.00  0.00     0.059 C 
BRANCH   5   6
ATOM      6  C   UNL     1      -2.655  37.238  18.628  1.00  0.00     0.042 C 
ATOM      7  O   UNL     1      -3.855  37.138  18.996  1.00  0.00    -0.550 OA
ATOM      8  O   UNL     1      -1.695  37.689  19.524  1.00  0.00    -0.550 OA
ENDBRANCH   5   6
ENDBRANCH   1   5
TORSDOF 3
ENDMDL
MODEL 8
REMARK VINA RESULT:    -3.146      2.958      4.485
REMARK INTER + INTRA:          -3.725
REMARK INTER:                  -3.690
REMARK INTRA:                  -0.034
REMARK UNBOUND:                -0.027
REMARK SMILES O=C([O-])CCC(=O)[O-]
REMARK SMILES IDX 4 1 2 2 1 3 3 4 5 5 6 6 7 7 8 8
REMARK H PARENT
REMARK Flexibility Score: inf
ROOT
ATOM      1  C   UNL     1      -5.820  35.278  21.845  1.00  0.00     0.059 C 
ENDROOT
BRANCH   1   2
ATOM      2  C   UNL     1      -5.945  35.533  23.315  1.00  0.00     0.042 C 
ATOM      3  O   UNL     1      -5.863  34.580  24.134  1.00  0.00    -0.550 OA
ATOM      4  O   UNL     1      -6.112  36.830  23.784  1.00  0.00    -0.550 OA
ENDBRANCH   1   2
BRANCH   1   5
ATOM      5  C   UNL     1      -5.503  36.564  21.073  1.00  0.00     0.059 C 
BRANCH   5   6
ATOM      6  C   UNL     1      -4.778  36.275  19.794  1.00  0.00     0.042 C 
ATOM      7  O   UNL     1      -4.119  37.182  19.221  1.00  0.00    -0.550 OA
ATOM      8  O   UNL     1      -4.864  35.017  19.213  1.00  0.00    -0.550 OA
ENDBRANCH   5   6
ENDBRANCH   1   5
TORSDOF 3
ENDMDL
