MODEL 1
REMARK VINA RESULT:    -5.172      0.000      0.000
REMARK INTER + INTRA:          -7.814
REMARK INTER:                  -6.985
REMARK INTRA:                  -0.829
REMARK UNBOUND:                -0.829
REMARK SMILES CC(=O)CCC=C(C)CCC=C(C)C
REMARK SMILES IDX 7 1 6 2 8 3 9 4 10 5 11 6 13 7 12 8 14 9 5 10 4 11 2 12 3 13
REMARK SMILES IDX 1 14
REMARK H PARENT
REMARK Flexibility Score: inf
ROOT
ATOM      1  C   UNL     1      15.393  15.772  25.591  1.00  0.00    -0.077 C 
ATOM      2  C   UNL     1      15.760  16.558  24.554  1.00  0.00    -0.028 C 
ATOM      3  C   UNL     1      14.022  15.142  25.669  1.00  0.00     0.039 C 
ENDROOT
BRANCH   1   4
ATOM      4  C   UNL     1      16.391  15.507  26.695  1.00  0.00     0.034 C 
BRANCH   4   5
ATOM      5  C   UNL     1      17.820  15.486  26.137  1.00  0.00     0.032 C 
BRANCH   5   6
ATOM      6  C   UNL     1      18.403  14.098  26.212  1.00  0.00    -0.028 C 
ATOM      7  C   UNL     1      17.909  13.595  23.809  1.00  0.00     0.039 C 
ATOM      8  C   UNL     1      18.428  13.226  25.179  1.00  0.00    -0.080 C 
ATOM      9  C   UNL     1      19.010  11.856  25.411  1.00  0.00     0.039 C 
ENDBRANCH   5   6
ENDBRANCH   4   5
ENDBRANCH   1   4
BRANCH   2  10
ATOM     10  C   UNL     1      14.841  16.982  23.432  1.00  0.00     0.035 C 
BRANCH  10  11
ATOM     11  C   UNL     1      15.334  18.270  22.761  1.00  0.00     0.079 C 
BRANCH  11  12
ATOM     12  C   UNL     1      14.204  19.241  22.526  1.00  0.00     0.130 C 
ATOM     13  O   UNL     1      13.875  19.516  21.382  1.00  0.00    -0.300 OA
ATOM     14  C   UNL     1      13.477  19.883  23.672  1.00  0.00     0.087 C 
ENDBRANCH  11  12
ENDBRANCH  10  11
ENDBRANCH   2  10
TORSDOF 6
ENDMDL
MODEL 2
REMARK VINA RESULT:    -5.088      2.637      6.259
REMARK INTER + INTRA:          -7.702
REMARK INTER:                  -6.851
REMARK INTRA:                  -0.851
REMARK UNBOUND:                -0.829
REMARK SMILES CC(=O)CCC=C(C)CCC=C(C)C
REMARK SMILES IDX 7 1 6 2 8 3 9 4 10 5 11 6 13 7 12 8 14 9 5 10 4 11 2 12 3 13
REMARK SMILES IDX 1 14
REMARK H PARENT
REMARK Flexibility Score: inf
ROOT
ATOM      1  C   UNL     1      14.923  15.627  25.987  1.00  0.00    -0.077 C 
ATOM      2  C   UNL     1      15.562  14.758  25.171  1.00  0.00    -0.028 C 
ATOM      3  C   UNL     1      15.633  16.322  27.125  1.00  0.00     0.039 C 
ENDROOT
BRANCH   1   4
ATOM      4  C   UNL     1      13.460  15.918  25.741  1.00  0.00     0.034 C 
BRANCH   4   5
ATOM      5  C   UNL     1      13.218  16.252  24.263  1.00  0.00     0.032 C 
BRANCH   5   6
ATOM      6  C   UNL     1      13.040  17.737  24.073  1.00  0.00    -0.028 C 
ATOM      7  C   UNL     1      15.346  18.051  23.148  1.00  0.00     0.039 C 
ATOM      8  C   UNL     1      13.996  18.564  23.595  1.00  0.00    -0.080 C 
ATOM      9  C   UNL     1      13.689  20.035  23.495  1.00  0.00     0.039 C 
ENDBRANCH   5   6
ENDBRANCH   4   5
ENDBRANCH   1   4
BRANCH   2  10
ATOM     10  C   UNL     1      16.991  14.303  25.354  1.00  0.00     0.035 C 
BRANCH  10  11
ATOM     11  C   UNL     1      17.578  13.762  24.044  1.00  0.00     0.079 C 
BRANCH  11  12
ATOM     12  C   UNL     1      18.880  13.038  24.276  1.00  0.00     0.130 C 
ATOM     13  O   UNL     1      19.825  13.244  23.529  1.00  0.00    -0.300 OA
ATOM     14  C   UNL     1      19.039  12.063  25.406  1.00  0.00     0.087 C 
ENDBRANCH  11  12
ENDBRANCH  10  11
ENDBRANCH   2  10
TORSDOF 6
ENDMDL
MODEL 3
REMARK VINA RESULT:    -5.013      1.646      2.384
REMARK INTER + INTRA:          -7.601
REMARK INTER:                  -6.518
REMARK INTRA:                  -1.083
REMARK UNBOUND:                -0.829
REMARK SMILES CC(=O)CCC=C(C)CCC=C(C)C
REMARK SMILES IDX 7 1 6 2 8 3 9 4 10 5 11 6 13 7 12 8 14 9 5 10 4 11 2 12 3 13
REMARK SMILES IDX 1 14
REMARK H PARENT
REMARK Flexibility Score: inf
ROOT
ATOM      1  C   UNL     1      13.434  16.443  24.500  1.00  0.00    -0.077 C 
ATOM      2  C   UNL     1      14.166  17.578  24.565  1.00  0.00    -0.028 C 
ATOM      3  C   UNL     1      12.351  16.250  23.465  1.00  0.00     0.039 C 
ENDROOT
BRANCH   1   4
ATOM      4  C   UNL     1      13.721  15.332  25.485  1.00  0.00     0.034 C 
BRANCH   4   5
ATOM      5  C   UNL     1      15.198  15.346  25.898  1.00  0.00     0.032 C 
BRANCH   5   6
ATOM      6  C   UNL     1      16.002  14.403  25.041  1.00  0.00    -0.028 C 
ATOM      7  C   UNL     1      17.465  16.225  24.139  1.00  0.00     0.039 C 
ATOM      8  C   UNL     1      17.010  14.787  24.225  1.00  0.00    -0.080 C 
ATOM      9  C   UNL     1      17.702  13.737  23.397  1.00  0.00     0.039 C 
ENDBRANCH   5   6
ENDBRANCH   4   5
ENDBRANCH   1   4
BRANCH   2  10
ATOM     10  C   UNL     1      13.930  18.801  23.710  1.00  0.00     0.035 C 
BRANCH  10  11
ATOM     11  C   UNL     1      14.932  18.877  22.551  1.00  0.00     0.079 C 
BRANCH  11  12
ATOM     12  C   UNL     1      14.233  18.958  21.217  1.00  0.00     0.130 C 
ATOM     13  O   UNL     1      14.875  18.789  20.191  1.00  0.00    -0.300 OA
ATOM     14  C   UNL     1      12.765  19.249  21.123  1.00  0.00     0.087 C 
ENDBRANCH  11  12
ENDBRANCH  10  11
ENDBRANCH   2  10
TORSDOF 6
ENDMDL
MODEL 4
REMARK VINA RESULT:    -4.943      9.098     10.592
REMARK INTER + INTRA:          -7.506
REMARK INTER:                  -6.577
REMARK INTRA:                  -0.930
REMARK UNBOUND:                -0.829
REMARK SMILES CC(=O)CCC=C(C)CCC=C(C)C
REMARK SMILES IDX 7 1 6 2 8 3 9 4 10 5 11 6 13 7 12 8 14 9 5 10 4 11 2 12 3 13
REMARK SMILES IDX 1 14
REMARK H PARENT
REMARK Flexibility Score: inf
ROOT
ATOM      1  C   UNL     1      16.125  16.658  14.942  1.00  0.00    -0.077 C 
ATOM      2  C   UNL     1      16.584  17.270  13.827  1.00  0.00    -0.028 C 
ATOM      3  C   UNL     1      15.260  15.421  14.874  1.00  0.00     0.039 C 
ENDROOT
BRANCH   1   4
ATOM      4  C   UNL     1      16.503  17.222  16.293  1.00  0.00     0.034 C 
BRANCH   4   5
ATOM      5  C   UNL     1      17.720  18.147  16.169  1.00  0.00     0.032 C 
BRANCH   5   6
ATOM      6  C   UNL     1      18.826  17.702  17.091  1.00  0.00    -0.028 C 
ATOM      7  C   UNL     1      19.914  16.271  15.347  1.00  0.00     0.039 C 
ATOM      8  C   UNL     1      19.807  16.839  16.744  1.00  0.00    -0.080 C 
ATOM      9  C   UNL     1      20.827  16.454  17.783  1.00  0.00     0.039 C 
ENDBRANCH   5   6
ENDBRANCH   4   5
ENDBRANCH   1   4
BRANCH   2  10
ATOM     10  C   UNL     1      16.213  16.875  12.417  1.00  0.00     0.035 C 
BRANCH  10  11
ATOM     11  C   UNL     1      15.330  17.938  11.751  1.00  0.00     0.079 C 
BRANCH  11  12
ATOM     12  C   UNL     1      14.067  17.338  11.188  1.00  0.00     0.130 C 
ATOM     13  O   UNL     1      13.853  17.404   9.987  1.00  0.00    -0.300 OA
ATOM     14  C   UNL     1      13.061  16.664  12.075  1.00  0.00     0.087 C 
ENDBRANCH  11  12
ENDBRANCH  10  11
ENDBRANCH   2  10
TORSDOF 6
ENDMDL
MODEL 5
REMARK VINA RESULT:    -4.884      2.447      5.558
REMARK INTER + INTRA:          -7.426
REMARK INTER:                  -6.431
REMARK INTRA:                  -0.995
REMARK UNBOUND:                -0.829
REMARK SMILES CC(=O)CCC=C(C)CCC=C(C)C
REMARK SMILES IDX 7 1 6 2 8 3 9 4 10 5 11 6 13 7 12 8 14 9 5 10 4 11 2 12 3 13
REMARK SMILES IDX 1 14
REMARK H PARENT
REMARK Flexibility Score: inf
ROOT
ATOM      1  C   UNL     1      15.320  15.284  25.854  1.00  0.00    -0.077 C 
ATOM      2  C   UNL     1      16.043  14.362  25.178  1.00  0.00    -0.028 C 
ATOM      3  C   UNL     1      15.882  16.020  27.047  1.00  0.00     0.039 C 
ENDROOT
BRANCH   1   4
ATOM      4  C   UNL     1      13.915  15.595  25.389  1.00  0.00     0.034 C 
BRANCH   4   5
ATOM      5  C   UNL     1      13.777  17.083  25.046  1.00  0.00     0.032 C 
BRANCH   5   6
ATOM      6  C   UNL     1      14.526  17.412  23.779  1.00  0.00    -0.028 C 
ATOM      7  C   UNL     1      13.592  19.732  23.646  1.00  0.00     0.039 C 
ATOM      8  C   UNL     1      14.434  18.591  23.124  1.00  0.00    -0.080 C 
ATOM      9  C   UNL     1      15.212  18.765  21.847  1.00  0.00     0.039 C 
ENDBRANCH   5   6
ENDBRANCH   4   5
ENDBRANCH   1   4
BRANCH   2  10
ATOM     10  C   UNL     1      17.418  13.886  25.582  1.00  0.00     0.035 C 
BRANCH  10  11
ATOM     11  C   UNL     1      18.482  14.322  24.567  1.00  0.00     0.079 C 
BRANCH  11  12
ATOM     12  C   UNL     1      18.802  15.791  24.695  1.00  0.00     0.130 C 
ATOM     13  O   UNL     1      19.486  16.178  25.630  1.00  0.00    -0.300 OA
ATOM     14  C   UNL     1      18.291  16.789  23.698  1.00  0.00     0.087 C 
ENDBRANCH  11  12
ENDBRANCH  10  11
ENDBRANCH   2  10
TORSDOF 6
ENDMDL
MODEL 6
REMARK VINA RESULT:    -4.835      3.224      6.226
REMARK INTER + INTRA:          -7.360
REMARK INTER:                  -6.349
REMARK INTRA:                  -1.011
REMARK UNBOUND:                -0.829
REMARK SMILES CC(=O)CCC=C(C)CCC=C(C)C
REMARK SMILES IDX 7 1 6 2 8 3 9 4 10 5 11 6 13 7 12 8 14 9 5 10 4 11 2 12 3 13
REMARK SMILES IDX 1 14
REMARK H PARENT
REMARK Flexibility Score: inf
ROOT
ATOM      1  C   UNL     1      17.003  14.013  24.918  1.00  0.00    -0.077 C 
ATOM      2  C   UNL     1      17.705  13.484  25.946  1.00  0.00    -0.028 C 
ATOM      3  C   UNL     1      17.494  13.932  23.492  1.00  0.00     0.039 C 
ENDROOT
BRANCH   1   4
ATOM      4  C   UNL     1      15.683  14.690  25.207  1.00  0.00     0.034 C 
BRANCH   4   5
ATOM      5  C   UNL     1      15.882  16.198  25.404  1.00  0.00     0.032 C 
BRANCH   5   6
ATOM      6  C   UNL     1      15.277  16.971  24.260  1.00  0.00    -0.028 C 
ATOM      7  C   UNL     1      17.504  17.570  23.283  1.00  0.00     0.039 C 
ATOM      8  C   UNL     1      15.994  17.615  23.312  1.00  0.00    -0.080 C 
ATOM      9  C   UNL     1      15.253  18.381  22.247  1.00  0.00     0.039 C 
ENDBRANCH   5   6
ENDBRANCH   4   5
ENDBRANCH   1   4
BRANCH   2  10
ATOM     10  C   UNL     1      19.076  12.863  25.818  1.00  0.00     0.035 C 
BRANCH  10  11
ATOM     11  C   UNL     1      20.095  13.564  26.725  1.00  0.00     0.079 C 
BRANCH  11  12
ATOM     12  C   UNL     1      20.938  14.549  25.955  1.00  0.00     0.130 C 
ATOM     13  O   UNL     1      22.132  14.334  25.809  1.00  0.00    -0.300 OA
ATOM     14  C   UNL     1      20.341  15.794  25.368  1.00  0.00     0.087 C 
ENDBRANCH  11  12
ENDBRANCH  10  11
ENDBRANCH   2  10
TORSDOF 6
ENDMDL
MODEL 7
REMARK VINA RESULT:    -4.831      9.508     11.551
REMARK INTER + INTRA:          -7.354
REMARK INTER:                  -6.454
REMARK INTRA:                  -0.900
REMARK UNBOUND:                -0.829
REMARK SMILES CC(=O)CCC=C(C)CCC=C(C)C
REMARK SMILES IDX 7 1 6 2 8 3 9 4 10 5 11 6 13 7 12 8 14 9 5 10 4 11 2 12 3 13
REMARK SMILES IDX 1 14
REMARK H PARENT
REMARK Flexibility Score: inf
ROOT
ATOM      1  C   UNL     1      16.083  16.728  14.461  1.00  0.00    -0.077 C 
ATOM      2  C   UNL     1      16.846  17.631  15.116  1.00  0.00    -0.028 C 
ATOM      3  C   UNL     1      15.587  15.468  15.130  1.00  0.00     0.039 C 
ENDROOT
BRANCH   1   4
ATOM      4  C   UNL     1      15.706  16.997  13.021  1.00  0.00     0.034 C 
BRANCH   4   5
ATOM      5  C   UNL     1      16.786  17.839  12.330  1.00  0.00     0.032 C 
BRANCH   5   6
ATOM      6  C   UNL     1      17.441  17.060  11.218  1.00  0.00    -0.028 C 
ATOM      7  C   UNL     1      19.350  16.311  12.656  1.00  0.00     0.039 C 
ATOM      8  C   UNL     1      18.607  16.388  11.342  1.00  0.00    -0.080 C 
ATOM      9  C   UNL     1      19.163  15.683  10.132  1.00  0.00     0.039 C 
ENDBRANCH   5   6
ENDBRANCH   4   5
ENDBRANCH   1   4
BRANCH   2  10
ATOM     10  C   UNL     1      17.374  17.451  16.520  1.00  0.00     0.035 C 
BRANCH  10  11
ATOM     11  C   UNL     1      18.747  18.113  16.692  1.00  0.00     0.079 C 
BRANCH  11  12
ATOM     12  C   UNL     1      19.818  17.098  17.000  1.00  0.00     0.130 C 
ATOM     13  O   UNL     1      20.025  16.185  16.215  1.00  0.00    -0.300 OA
ATOM     14  C   UNL     1      20.633  17.181  18.257  1.00  0.00     0.087 C 
ENDBRANCH  11  12
ENDBRANCH  10  11
ENDBRANCH   2  10
TORSDOF 6
ENDMDL
MODEL 8
REMARK VINA RESULT:    -4.776      3.002      6.890
REMARK INTER + INTRA:          -7.280
REMARK INTER:                  -6.639
REMARK INTRA:                  -0.641
REMARK UNBOUND:                -0.829
REMARK SMILES CC(=O)CCC=C(C)CCC=C(C)C
REMARK SMILES IDX 7 1 6 2 8 3 9 4 10 5 11 6 13 7 12 8 14 9 5 10 4 11 2 12 3 13
REMARK SMILES IDX 1 14
REMARK H PARENT
REMARK Flexibility Score: inf
ROOT
ATOM      1  C   UNL     1      15.580  15.933  24.885  1.00  0.00    -0.077 C 
ATOM      2  C   UNL     1      15.855  14.718  25.411  1.00  0.00    -0.028 C 
ATOM      3  C   UNL     1      16.490  16.589  23.874  1.00  0.00     0.039 C 
ENDROOT
BRANCH   1   4
ATOM      4  C   UNL     1      14.317  16.645  25.314  1.00  0.00     0.034 C 
BRANCH   4   5
ATOM      5  C   UNL     1      13.500  17.079  24.091  1.00  0.00     0.032 C 
BRANCH   5   6
ATOM      6  C   UNL     1      13.258  18.566  24.109  1.00  0.00    -0.028 C 
ATOM      7  C   UNL     1      14.440  18.942  21.934  1.00  0.00     0.039 C 
ATOM      8  C   UNL     1      13.696  19.422  23.159  1.00  0.00    -0.080 C 
ATOM      9  C   UNL     1      13.411  20.891  23.328  1.00  0.00     0.039 C 
ENDBRANCH   5   6
ENDBRANCH   4   5
ENDBRANCH   1   4
BRANCH   2  10
ATOM     10  C   UNL     1      17.120  13.935  25.146  1.00  0.00     0.035 C 
BRANCH  10  11
ATOM     11  C   UNL     1      18.143  14.126  26.273  1.00  0.00     0.079 C 
BRANCH  11  12
ATOM     12  C   UNL     1      19.275  13.136  26.169  1.00  0.00     0.130 C 
ATOM     13  O   UNL     1      20.319  13.350  26.767  1.00  0.00    -0.300 OA
ATOM     14  C   UNL     1      19.148  11.892  25.339  1.00  0.00     0.087 C 
ENDBRANCH  11  12
ENDBRANCH  10  11
ENDBRANCH   2  10
TORSDOF 6
ENDMDL
MODEL 9
REMARK VINA RESULT:    -4.738      1.372      2.113
REMARK INTER + INTRA:          -7.229
REMARK INTER:                  -6.748
REMARK INTRA:                  -0.481
REMARK UNBOUND:                -0.829
REMARK SMILES CC(=O)CCC=C(C)CCC=C(C)C
REMARK SMILES IDX 7 1 6 2 8 3 9 4 10 5 11 6 13 7 12 8 14 9 5 10 4 11 2 12 3 13
REMARK SMILES IDX 1 14
REMARK H PARENT
REMARK Flexibility Score: inf
ROOT
ATOM      1  C   UNL     1      16.997  15.933  23.745  1.00  0.00    -0.077 C 
ATOM      2  C   UNL     1      15.774  16.497  23.627  1.00  0.00    -0.028 C 
ATOM      3  C   UNL     1      18.262  16.758  23.722  1.00  0.00     0.039 C 
ENDROOT
BRANCH   1   4
ATOM      4  C   UNL     1      17.096  14.433  23.917  1.00  0.00     0.034 C 
BRANCH   4   5
ATOM      5  C   UNL     1      16.936  14.049  25.393  1.00  0.00     0.032 C 
BRANCH   5   6
ATOM      6  C   UNL     1      18.256  14.137  26.115  1.00  0.00    -0.028 C 
ATOM      7  C   UNL     1      18.968  11.840  25.414  1.00  0.00     0.039 C 
ATOM      8  C   UNL     1      19.171  13.142  26.155  1.00  0.00    -0.080 C 
ATOM      9  C   UNL     1      20.432  13.357  26.949  1.00  0.00     0.039 C 
ENDBRANCH   5   6
ENDBRANCH   4   5
ENDBRANCH   1   4
BRANCH   2  10
ATOM     10  C   UNL     1      15.528  17.963  23.358  1.00  0.00     0.035 C 
BRANCH  10  11
ATOM     11  C   UNL     1      14.684  18.166  22.093  1.00  0.00     0.079 C 
BRANCH  11  12
ATOM     12  C   UNL     1      13.649  19.246  22.285  1.00  0.00     0.130 C 
ATOM     13  O   UNL     1      12.975  19.609  21.332  1.00  0.00    -0.300 OA
ATOM     14  C   UNL     1      13.432  19.889  23.623  1.00  0.00     0.087 C 
ENDBRANCH  11  12
ENDBRANCH  10  11
ENDBRANCH   2  10
TORSDOF 6
ENDMDL
