MODEL 1
REMARK VINA RESULT:    -4.770      0.000      0.000
REMARK INTER + INTRA:          -5.720
REMARK INTER:                  -5.607
REMARK INTRA:                  -0.113
REMARK UNBOUND:                -0.113
REMARK SMILES O=C([O-])CCC(=O)[O-]
REMARK SMILES IDX 4 1 2 2 1 3 3 4 5 5 6 6 7 7 8 8
REMARK H PARENT
REMARK Flexibility Score: inf
ROOT
ATOM      1  C   UNL     1      11.603  34.311  23.388  1.00  0.00     0.059 C 
ENDROOT
BRANCH   1   2
ATOM      2  C   UNL     1      11.059  33.578  24.575  1.00  0.00     0.042 C 
ATOM      3  O   UNL     1      11.117  34.097  25.722  1.00  0.00    -0.550 OA
ATOM      4  O   UNL     1      10.451  32.340  24.410  1.00  0.00    -0.550 OA
ENDBRANCH   1   2
BRANCH   1   5
ATOM      5  C   UNL     1      11.587  35.827  23.605  1.00  0.00     0.059 C 
BRANCH   5   6
ATOM      6  C   UNL     1      10.261  36.423  23.242  1.00  0.00     0.042 C 
ATOM      7  O   UNL     1       9.719  37.270  23.998  1.00  0.00    -0.550 OA
ATOM      8  O   UNL     1       9.605  36.011  22.089  1.00  0.00    -0.550 OA
ENDBRANCH   5   6
ENDBRANCH   1   5
TORSDOF 3
ENDMDL
MODEL 2
REMARK VINA RESULT:    -4.762      0.099      3.612
REMARK INTER + INTRA:          -5.710
REMARK INTER:                  -5.604
REMARK INTRA:                  -0.106
REMARK UNBOUND:                -0.113
REMARK SMILES O=C([O-])CCC(=O)[O-]
REMARK SMILES IDX 4 1 2 2 1 3 3 4 5 5 6 6 7 7 8 8
REMARK H PARENT
REMARK Flexibility Score: inf
ROOT
ATOM      1  C   UNL     1      11.627  35.833  23.537  1.00  0.00     0.059 C 
ENDROOT
BRANCH   1   2
ATOM      2  C   UNL     1      10.296  36.455  23.243  1.00  0.00     0.042 C 
ATOM      3  O   UNL     1       9.642  36.103  22.226  1.00  0.00    -0.550 OA
ATOM      4  O   UNL     1       9.760  37.395  24.115  1.00  0.00    -0.550 OA
ENDBRANCH   1   2
BRANCH   1   5
ATOM      5  C   UNL     1      11.592  34.313  23.352  1.00  0.00     0.059 C 
BRANCH   5   6
ATOM      6  C   UNL     1      11.051  33.620  24.565  1.00  0.00     0.042 C 
ATOM      7  O   UNL     1      11.152  34.157  25.699  1.00  0.00    -0.550 OA
ATOM      8  O   UNL     1      10.473  32.362  24.448  1.00  0.00    -0.550 OA
ENDBRANCH   5   6
ENDBRANCH   1   5
TORSDOF 3
ENDMDL
MODEL 3
REMARK VINA RESULT:    -4.736      0.926      1.739
REMARK INTER + INTRA:          -5.680
REMARK INTER:                  -5.571
REMARK INTRA:                  -0.109
REMARK UNBOUND:                -0.113
REMARK SMILES O=C([O-])CCC(=O)[O-]
REMARK SMILES IDX 4 1 2 2 1 3 3 4 5 5 6 6 7 7 8 8
REMARK H PARENT
REMARK Flexibility Score: inf
ROOT
ATOM      1  C   UNL     1      10.913  33.804  23.653  1.00  0.00     0.059 C 
ENDROOT
BRANCH   1   2
ATOM      2  C   UNL     1      11.425  33.759  25.060  1.00  0.00     0.042 C 
ATOM      3  O   UNL     1      10.925  32.955  25.891  1.00  0.00    -0.550 OA
ATOM      4  O   UNL     1      12.483  34.575  25.442  1.00  0.00    -0.550 OA
ENDBRANCH   1   2
BRANCH   1   5
ATOM      5  C   UNL     1      11.250  35.135  22.973  1.00  0.00     0.059 C 
BRANCH   5   6
ATOM      6  C   UNL     1      10.091  36.084  23.010  1.00  0.00     0.042 C 
ATOM      7  O   UNL     1       9.209  36.042  22.113  1.00  0.00    -0.550 OA
ATOM      8  O   UNL     1      10.008  37.042  24.013  1.00  0.00    -0.550 OA
ENDBRANCH   5   6
ENDBRANCH   1   5
TORSDOF 3
ENDMDL
MODEL 4
REMARK VINA RESULT:    -4.722      0.283      1.174
REMARK INTER + INTRA:          -5.663
REMARK INTER:                  -5.544
REMARK INTRA:                  -0.118
REMARK UNBOUND:                -0.113
REMARK SMILES O=C([O-])CCC(=O)[O-]
REMARK SMILES IDX 4 1 2 2 1 3 3 4 5 5 6 6 7 7 8 8
REMARK H PARENT
REMARK Flexibility Score: inf
ROOT
ATOM      1  C   UNL     1      11.876  34.476  23.511  1.00  0.00     0.059 C 
ENDROOT
BRANCH   1   2
ATOM      2  C   UNL     1      11.228  33.850  24.708  1.00  0.00     0.042 C 
ATOM      3  O   UNL     1      11.213  34.458  25.811  1.00  0.00    -0.550 OA
ATOM      4  O   UNL     1      10.605  32.614  24.596  1.00  0.00    -0.550 OA
ENDBRANCH   1   2
BRANCH   1   5
ATOM      5  C   UNL     1      11.705  35.998  23.508  1.00  0.00     0.059 C 
BRANCH   5   6
ATOM      6  C   UNL     1      10.309  36.397  23.140  1.00  0.00     0.042 C 
ATOM      7  O   UNL     1       9.799  35.997  22.061  1.00  0.00    -0.550 OA
ATOM      8  O   UNL     1       9.585  37.245  23.969  1.00  0.00    -0.550 OA
ENDBRANCH   5   6
ENDBRANCH   1   5
TORSDOF 3
ENDMDL
MODEL 5
REMARK VINA RESULT:    -4.661      2.297      3.405
REMARK INTER + INTRA:          -5.591
REMARK INTER:                  -5.512
REMARK INTRA:                  -0.079
REMARK UNBOUND:                -0.113
REMARK SMILES O=C([O-])CCC(=O)[O-]
REMARK SMILES IDX 4 1 2 2 1 3 3 4 5 5 6 6 7 7 8 8
REMARK H PARENT
REMARK Flexibility Score: inf
ROOT
ATOM      1  C   UNL     1      11.272  35.238  22.886  1.00  0.00     0.059 C 
ENDROOT
BRANCH   1   2
ATOM      2  C   UNL     1      10.136  36.203  23.035  1.00  0.00     0.042 C 
ATOM      3  O   UNL     1       9.176  36.184  22.220  1.00  0.00    -0.550 OA
ATOM      4  O   UNL     1      10.118  37.098  24.098  1.00  0.00    -0.550 OA
ENDBRANCH   1   2
BRANCH   1   5
ATOM      5  C   UNL     1      12.623  35.958  22.854  1.00  0.00     0.059 C 
BRANCH   5   6
ATOM      6  C   UNL     1      12.732  36.877  21.676  1.00  0.00     0.042 C 
ATOM      7  O   UNL     1      13.334  37.977  21.784  1.00  0.00    -0.550 OA
ATOM      8  O   UNL     1      12.133  36.536  20.470  1.00  0.00    -0.550 OA
ENDBRANCH   5   6
ENDBRANCH   1   5
TORSDOF 3
ENDMDL
MODEL 6
REMARK VINA RESULT:    -4.640      1.854      2.178
REMARK INTER + INTRA:          -5.567
REMARK INTER:                  -5.523
REMARK INTRA:                  -0.044
REMARK UNBOUND:                -0.113
REMARK SMILES O=C([O-])CCC(=O)[O-]
REMARK SMILES IDX 4 1 2 2 1 3 3 4 5 5 6 6 7 7 8 8
REMARK H PARENT
REMARK Flexibility Score: inf
ROOT
ATOM      1  C   UNL     1      11.828  34.554  23.268  1.00  0.00     0.059 C 
ENDROOT
BRANCH   1   2
ATOM      2  C   UNL     1      11.292  34.094  24.589  1.00  0.00     0.042 C 
ATOM      3  O   UNL     1      11.284  34.876  25.577  1.00  0.00    -0.550 OA
ATOM      4  O   UNL     1      10.763  32.817  24.718  1.00  0.00    -0.550 OA
ENDBRANCH   1   2
BRANCH   1   5
ATOM      5  C   UNL     1      12.326  36.002  23.335  1.00  0.00     0.059 C 
BRANCH   5   6
ATOM      6  C   UNL     1      12.368  36.634  21.977  1.00  0.00     0.042 C 
ATOM      7  O   UNL     1      11.630  36.202  21.053  1.00  0.00    -0.550 OA
ATOM      8  O   UNL     1      13.253  37.674  21.721  1.00  0.00    -0.550 OA
ENDBRANCH   5   6
ENDBRANCH   1   5
TORSDOF 3
ENDMDL
MODEL 7
REMARK VINA RESULT:    -4.611      2.176      3.880
REMARK INTER + INTRA:          -5.532
REMARK INTER:                  -5.418
REMARK INTRA:                  -0.114
REMARK UNBOUND:                -0.113
REMARK SMILES O=C([O-])CCC(=O)[O-]
REMARK SMILES IDX 4 1 2 2 1 3 3 4 5 5 6 6 7 7 8 8
REMARK H PARENT
REMARK Flexibility Score: inf
ROOT
ATOM      1  C   UNL     1      12.929  35.416  22.362  1.00  0.00     0.059 C 
ENDROOT
BRANCH   1   2
ATOM      2  C   UNL     1      12.632  36.418  21.288  1.00  0.00     0.042 C 
ATOM      3  O   UNL     1      11.730  36.188  20.439  1.00  0.00    -0.550 OA
ATOM      4  O   UNL     1      13.322  37.623  21.250  1.00  0.00    -0.550 OA
ENDBRANCH   1   2
BRANCH   1   5
ATOM      5  C   UNL     1      11.657  34.712  22.844  1.00  0.00     0.059 C 
BRANCH   5   6
ATOM      6  C   UNL     1      11.039  35.424  24.009  1.00  0.00     0.042 C 
ATOM      7  O   UNL     1      11.285  35.048  25.184  1.00  0.00    -0.550 OA
ATOM      8  O   UNL     1      10.159  36.478  23.793  1.00  0.00    -0.550 OA
ENDBRANCH   5   6
ENDBRANCH   1   5
TORSDOF 3
ENDMDL
MODEL 8
REMARK VINA RESULT:    -4.530      1.272      3.716
REMARK INTER + INTRA:          -5.438
REMARK INTER:                  -5.355
REMARK INTRA:                  -0.083
REMARK UNBOUND:                -0.113
REMARK SMILES O=C([O-])CCC(=O)[O-]
REMARK SMILES IDX 4 1 2 2 1 3 3 4 5 5 6 6 7 7 8 8
REMARK H PARENT
REMARK Flexibility Score: inf
ROOT
ATOM      1  C   UNL     1      12.150  35.741  23.461  1.00  0.00     0.059 C 
ENDROOT
BRANCH   1   2
ATOM      2  C   UNL     1      11.353  36.108  22.247  1.00  0.00     0.042 C 
ATOM      3  O   UNL     1      10.094  36.133  22.298  1.00  0.00    -0.550 OA
ATOM      4  O   UNL     1      12.001  36.462  21.070  1.00  0.00    -0.550 OA
ENDBRANCH   1   2
BRANCH   1   5
ATOM      5  C   UNL     1      12.027  34.250  23.787  1.00  0.00     0.059 C 
BRANCH   5   6
ATOM      6  C   UNL     1      11.395  34.027  25.127  1.00  0.00     0.042 C 
ATOM      7  O   UNL     1      11.329  34.967  25.960  1.00  0.00    -0.550 OA
ATOM      8  O   UNL     1      10.916  32.768  25.470  1.00  0.00    -0.550 OA
ENDBRANCH   5   6
ENDBRANCH   1   5
TORSDOF 3
ENDMDL
MODEL 9
REMARK VINA RESULT:    -4.328      2.333      4.196
REMARK INTER + INTRA:          -5.200
REMARK INTER:                  -5.122
REMARK INTRA:                  -0.078
REMARK UNBOUND:                -0.113
REMARK SMILES O=C([O-])CCC(=O)[O-]
REMARK SMILES IDX 4 1 2 2 1 3 3 4 5 5 6 6 7 7 8 8
REMARK H PARENT
REMARK Flexibility Score: inf
ROOT
ATOM      1  C   UNL     1      11.577  37.009  23.082  1.00  0.00     0.059 C 
ENDROOT
BRANCH   1   2
ATOM      2  C   UNL     1      12.753  37.217  22.179  1.00  0.00     0.042 C 
ATOM      3  O   UNL     1      13.069  36.336  21.336  1.00  0.00    -0.550 OA
ATOM      4  O   UNL     1      13.476  38.401  22.239  1.00  0.00    -0.550 OA
ENDBRANCH   1   2
BRANCH   1   5
ATOM      5  C   UNL     1      10.795  35.746  22.709  1.00  0.00     0.059 C 
BRANCH   5   6
ATOM      6  C   UNL     1      10.898  34.697  23.774  1.00  0.00     0.042 C 
ATOM      7  O   UNL     1      10.696  33.487  23.493  1.00  0.00    -0.550 OA
ATOM      8  O   UNL     1      11.174  35.062  25.086  1.00  0.00    -0.550 OA
ENDBRANCH   5   6
ENDBRANCH   1   5
TORSDOF 3
ENDMDL
