MODEL 1
REMARK VINA RESULT:    -4.324      0.000      0.000
REMARK INTER + INTRA:          -6.041
REMARK INTER:                  -5.841
REMARK INTRA:                  -0.200
REMARK UNBOUND:                -0.200
REMARK SMILES CCCCCCC=CC(=O)[O-]
REMARK SMILES IDX 5 1 6 2 7 3 8 4 9 5 10 6 11 7 4 8 3 9 2 10 1 11
REMARK H PARENT
REMARK Flexibility Score: inf
ROOT
ATOM      1  C   UNL     1      19.786 -23.804  16.684  1.00  0.00     0.004 C 
ENDROOT
BRANCH   1   2
ATOM      2  C   UNL     1      20.896 -23.771  15.627  1.00  0.00     0.027 C 
BRANCH   2   3
ATOM      3  C   UNL     1      22.249 -23.956  16.253  1.00  0.00    -0.025 C 
ATOM      4  C   UNL     1      23.214 -23.041  16.112  1.00  0.00     0.020 C 
BRANCH   4   5
ATOM      5  C   UNL     1      24.552 -23.207  16.703  1.00  0.00     0.064 C 
ATOM      6  O   UNL     1      24.832 -24.214  17.407  1.00  0.00    -0.545 OA
ATOM      7  O   UNL     1      25.520 -22.238  16.484  1.00  0.00    -0.545 OA
ENDBRANCH   4   5
ENDBRANCH   2   3
ENDBRANCH   1   2
BRANCH   1   8
ATOM      8  C   UNL     1      18.400 -23.768  16.028  1.00  0.00     0.000 C 
BRANCH   8   9
ATOM      9  C   UNL     1      17.962 -25.169  15.589  1.00  0.00    -0.000 C 
BRANCH   9  10
ATOM     10  C   UNL     1      16.510 -25.445  16.000  1.00  0.00    -0.003 C 
ATOM     11  C   UNL     1      16.446 -26.205  17.321  1.00  0.00     0.004 C 
ENDBRANCH   9  10
ENDBRANCH   8   9
ENDBRANCH   1   8
TORSDOF 6
ENDMDL
MODEL 2
REMARK VINA RESULT:    -4.153      3.775      6.663
REMARK INTER + INTRA:          -5.810
REMARK INTER:                  -5.564
REMARK INTRA:                  -0.246
REMARK UNBOUND:                -0.200
REMARK SMILES CCCCCCC=CC(=O)[O-]
REMARK SMILES IDX 5 1 6 2 7 3 8 4 9 5 10 6 11 7 4 8 3 9 2 10 1 11
REMARK H PARENT
REMARK Flexibility Score: inf
ROOT
ATOM      1  C   UNL     1      21.489 -23.512  17.393  1.00  0.00     0.004 C 
ENDROOT
BRANCH   1   2
ATOM      2  C   UNL     1      20.311 -23.096  16.504  1.00  0.00     0.027 C 
BRANCH   2   3
ATOM      3  C   UNL     1      19.079 -23.895  16.825  1.00  0.00    -0.025 C 
ATOM      4  C   UNL     1      18.440 -24.601  15.886  1.00  0.00     0.020 C 
BRANCH   4   5
ATOM      5  C   UNL     1      17.225 -25.379  16.174  1.00  0.00     0.064 C 
ATOM      6  O   UNL     1      17.179 -26.181  17.144  1.00  0.00    -0.545 OA
ATOM      7  O   UNL     1      16.109 -25.228  15.362  1.00  0.00    -0.545 OA
ENDBRANCH   4   5
ENDBRANCH   2   3
ENDBRANCH   1   2
BRANCH   1   8
ATOM      8  C   UNL     1      22.565 -24.237  16.575  1.00  0.00     0.000 C 
BRANCH   8   9
ATOM      9  C   UNL     1      23.943 -23.601  16.792  1.00  0.00    -0.000 C 
BRANCH   9  10
ATOM     10  C   UNL     1      24.072 -22.289  16.010  1.00  0.00    -0.003 C 
ATOM     11  C   UNL     1      25.448 -21.660  16.212  1.00  0.00     0.004 C 
ENDBRANCH   9  10
ENDBRANCH   8   9
ENDBRANCH   1   8
TORSDOF 6
ENDMDL
MODEL 3
REMARK VINA RESULT:    -4.110      3.242      5.981
REMARK INTER + INTRA:          -5.752
REMARK INTER:                  -5.319
REMARK INTRA:                  -0.433
REMARK UNBOUND:                -0.200
REMARK SMILES CCCCCCC=CC(=O)[O-]
REMARK SMILES IDX 5 1 6 2 7 3 8 4 9 5 10 6 11 7 4 8 3 9 2 10 1 11
REMARK H PARENT
REMARK Flexibility Score: inf
ROOT
ATOM      1  C   UNL     1      24.653 -22.498  16.366  1.00  0.00     0.004 C 
ENDROOT
BRANCH   1   2
ATOM      2  C   UNL     1      23.929 -23.757  16.857  1.00  0.00     0.027 C 
BRANCH   2   3
ATOM      3  C   UNL     1      22.505 -23.787  16.381  1.00  0.00    -0.025 C 
ATOM      4  C   UNL     1      21.480 -23.755  17.239  1.00  0.00     0.020 C 
BRANCH   4   5
ATOM      5  C   UNL     1      20.077 -23.798  16.796  1.00  0.00     0.064 C 
ATOM      6  O   UNL     1      19.773 -23.649  15.582  1.00  0.00    -0.545 OA
ATOM      7  O   UNL     1      19.072 -24.004  17.730  1.00  0.00    -0.545 OA
ENDBRANCH   4   5
ENDBRANCH   2   3
ENDBRANCH   1   2
BRANCH   1   8
ATOM      8  C   UNL     1      23.744 -21.659  15.461  1.00  0.00     0.000 C 
BRANCH   8   9
ATOM      9  C   UNL     1      24.563 -20.891  14.418  1.00  0.00    -0.000 C 
BRANCH   9  10
ATOM     10  C   UNL     1      23.972 -21.071  13.014  1.00  0.00    -0.003 C 
ATOM     11  C   UNL     1      22.827 -22.079  13.022  1.00  0.00     0.004 C 
ENDBRANCH   9  10
ENDBRANCH   8   9
ENDBRANCH   1   8
TORSDOF 6
ENDMDL
MODEL 4
REMARK VINA RESULT:    -4.105      3.001      5.642
REMARK INTER + INTRA:          -5.745
REMARK INTER:                  -5.025
REMARK INTRA:                  -0.720
REMARK UNBOUND:                -0.200
REMARK SMILES CCCCCCC=CC(=O)[O-]
REMARK SMILES IDX 5 1 6 2 7 3 8 4 9 5 10 6 11 7 4 8 3 9 2 10 1 11
REMARK H PARENT
REMARK Flexibility Score: inf
ROOT
ATOM      1  C   UNL     1      22.185 -21.378  14.180  1.00  0.00     0.004 C 
ENDROOT
BRANCH   1   2
ATOM      2  C   UNL     1      21.693 -22.755  13.716  1.00  0.00     0.027 C 
BRANCH   2   3
ATOM      3  C   UNL     1      21.148 -23.554  14.865  1.00  0.00    -0.025 C 
ATOM      4  C   UNL     1      20.582 -22.961  15.922  1.00  0.00     0.020 C 
BRANCH   4   5
ATOM      5  C   UNL     1      20.054 -23.723  17.065  1.00  0.00     0.064 C 
ATOM      6  O   UNL     1      18.889 -24.202  17.047  1.00  0.00    -0.545 OA
ATOM      7  O   UNL     1      20.853 -23.917  18.183  1.00  0.00    -0.545 OA
ENDBRANCH   4   5
ENDBRANCH   2   3
ENDBRANCH   1   2
BRANCH   1   8
ATOM      8  C   UNL     1      23.692 -21.398  14.458  1.00  0.00     0.000 C 
BRANCH   8   9
ATOM      9  C   UNL     1      23.975 -21.349  15.964  1.00  0.00    -0.000 C 
BRANCH   9  10
ATOM     10  C   UNL     1      24.930 -22.475  16.380  1.00  0.00    -0.003 C 
ATOM     11  C   UNL     1      24.165 -23.657  16.968  1.00  0.00     0.004 C 
ENDBRANCH   9  10
ENDBRANCH   8   9
ENDBRANCH   1   8
TORSDOF 6
ENDMDL
MODEL 5
REMARK VINA RESULT:    -4.104     15.696     16.969
REMARK INTER + INTRA:          -5.744
REMARK INTER:                  -5.208
REMARK INTRA:                  -0.536
REMARK UNBOUND:                -0.200
REMARK SMILES CCCCCCC=CC(=O)[O-]
REMARK SMILES IDX 5 1 6 2 7 3 8 4 9 5 10 6 11 7 4 8 3 9 2 10 1 11
REMARK H PARENT
REMARK Flexibility Score: inf
ROOT
ATOM      1  C   UNL     1      28.772 -35.211  28.647  1.00  0.00     0.004 C 
ENDROOT
BRANCH   1   2
ATOM      2  C   UNL     1      29.969 -34.272  28.453  1.00  0.00     0.027 C 
BRANCH   2   3
ATOM      3  C   UNL     1      30.190 -33.966  26.999  1.00  0.00    -0.025 C 
ATOM      4  C   UNL     1      31.241 -34.456  26.333  1.00  0.00     0.020 C 
BRANCH   4   5
ATOM      5  C   UNL     1      31.485 -34.157  24.913  1.00  0.00     0.064 C 
ATOM      6  O   UNL     1      32.645 -34.215  24.425  1.00  0.00    -0.545 OA
ATOM      7  O   UNL     1      30.420 -33.803  24.097  1.00  0.00    -0.545 OA
ENDBRANCH   4   5
ENDBRANCH   2   3
ENDBRANCH   1   2
BRANCH   1   8
ATOM      8  C   UNL     1      27.550 -34.444  29.167  1.00  0.00     0.000 C 
BRANCH   8   9
ATOM      9  C   UNL     1      26.354 -34.610  28.223  1.00  0.00    -0.000 C 
BRANCH   9  10
ATOM     10  C   UNL     1      26.417 -33.598  27.072  1.00  0.00    -0.003 C 
ATOM     11  C   UNL     1      26.637 -34.297  25.734  1.00  0.00     0.004 C 
ENDBRANCH   9  10
ENDBRANCH   8   9
ENDBRANCH   1   8
TORSDOF 6
ENDMDL
MODEL 6
REMARK VINA RESULT:    -4.095      3.860      6.499
REMARK INTER + INTRA:          -5.731
REMARK INTER:                  -5.428
REMARK INTRA:                  -0.303
REMARK UNBOUND:                -0.200
REMARK SMILES CCCCCCC=CC(=O)[O-]
REMARK SMILES IDX 5 1 6 2 7 3 8 4 9 5 10 6 11 7 4 8 3 9 2 10 1 11
REMARK H PARENT
REMARK Flexibility Score: inf
ROOT
ATOM      1  C   UNL     1      20.600 -23.273  15.752  1.00  0.00     0.004 C 
ENDROOT
BRANCH   1   2
ATOM      2  C   UNL     1      20.136 -24.127  14.565  1.00  0.00     0.027 C 
BRANCH   2   3
ATOM      3  C   UNL     1      18.868 -24.864  14.887  1.00  0.00    -0.025 C 
ATOM      4  C   UNL     1      18.234 -24.688  16.052  1.00  0.00     0.020 C 
BRANCH   4   5
ATOM      5  C   UNL     1      16.998 -25.410  16.394  1.00  0.00     0.064 C 
ATOM      6  O   UNL     1      15.898 -25.111  15.858  1.00  0.00    -0.545 OA
ATOM      7  O   UNL     1      17.044 -26.438  17.326  1.00  0.00    -0.545 OA
ENDBRANCH   4   5
ENDBRANCH   2   3
ENDBRANCH   1   2
BRANCH   1   8
ATOM      8  C   UNL     1      22.125 -23.111  15.750  1.00  0.00     0.000 C 
BRANCH   8   9
ATOM      9  C   UNL     1      22.796 -24.206  16.587  1.00  0.00    -0.000 C 
BRANCH   9  10
ATOM     10  C   UNL     1      24.224 -23.803  16.975  1.00  0.00    -0.003 C 
ATOM     11  C   UNL     1      24.585 -22.434  16.408  1.00  0.00     0.004 C 
ENDBRANCH   9  10
ENDBRANCH   8   9
ENDBRANCH   1   8
TORSDOF 6
ENDMDL
MODEL 7
REMARK VINA RESULT:    -4.049     15.583     16.766
REMARK INTER + INTRA:          -5.670
REMARK INTER:                  -5.158
REMARK INTRA:                  -0.512
REMARK UNBOUND:                -0.200
REMARK SMILES CCCCCCC=CC(=O)[O-]
REMARK SMILES IDX 5 1 6 2 7 3 8 4 9 5 10 6 11 7 4 8 3 9 2 10 1 11
REMARK H PARENT
REMARK Flexibility Score: inf
ROOT
ATOM      1  C   UNL     1      26.333 -35.829  26.572  1.00  0.00     0.004 C 
ENDROOT
BRANCH   1   2
ATOM      2  C   UNL     1      27.766 -36.297  26.290  1.00  0.00     0.027 C 
BRANCH   2   3
ATOM      3  C   UNL     1      28.560 -35.228  25.596  1.00  0.00    -0.025 C 
ATOM      4  C   UNL     1      28.824 -35.292  24.286  1.00  0.00     0.020 C 
BRANCH   4   5
ATOM      5  C   UNL     1      29.612 -34.264  23.588  1.00  0.00     0.064 C 
ATOM      6  O   UNL     1      30.645 -33.767  24.112  1.00  0.00    -0.545 OA
ATOM      7  O   UNL     1      29.211 -33.832  22.332  1.00  0.00    -0.545 OA
ENDBRANCH   4   5
ENDBRANCH   2   3
ENDBRANCH   1   2
BRANCH   1   8
ATOM      8  C   UNL     1      26.057 -35.785  28.080  1.00  0.00     0.000 C 
BRANCH   8   9
ATOM      9  C   UNL     1      26.482 -34.440  28.678  1.00  0.00    -0.000 C 
BRANCH   9  10
ATOM     10  C   UNL     1      27.526 -34.635  29.784  1.00  0.00    -0.003 C 
ATOM     11  C   UNL     1      28.935 -34.353  29.269  1.00  0.00     0.004 C 
ENDBRANCH   9  10
ENDBRANCH   8   9
ENDBRANCH   1   8
TORSDOF 6
ENDMDL
MODEL 8
REMARK VINA RESULT:    -4.035     15.889     16.928
REMARK INTER + INTRA:          -5.651
REMARK INTER:                  -4.987
REMARK INTRA:                  -0.664
REMARK UNBOUND:                -0.200
REMARK SMILES CCCCCCC=CC(=O)[O-]
REMARK SMILES IDX 5 1 6 2 7 3 8 4 9 5 10 6 11 7 4 8 3 9 2 10 1 11
REMARK H PARENT
REMARK Flexibility Score: inf
ROOT
ATOM      1  C   UNL     1      26.466 -33.679  26.880  1.00  0.00     0.004 C 
ENDROOT
BRANCH   1   2
ATOM      2  C   UNL     1      26.839 -34.880  26.002  1.00  0.00     0.027 C 
BRANCH   2   3
ATOM      3  C   UNL     1      28.220 -34.728  25.430  1.00  0.00    -0.025 C 
ATOM      4  C   UNL     1      29.244 -34.306  26.180  1.00  0.00     0.020 C 
BRANCH   4   5
ATOM      5  C   UNL     1      30.602 -34.136  25.637  1.00  0.00     0.064 C 
ATOM      6  O   UNL     1      30.786 -33.713  24.465  1.00  0.00    -0.545 OA
ATOM      7  O   UNL     1      31.698 -34.449  26.428  1.00  0.00    -0.545 OA
ENDBRANCH   4   5
ENDBRANCH   2   3
ENDBRANCH   1   2
BRANCH   1   8
ATOM      8  C   UNL     1      26.166 -34.120  28.317  1.00  0.00     0.000 C 
BRANCH   8   9
ATOM      9  C   UNL     1      25.926 -35.632  28.390  1.00  0.00    -0.000 C 
BRANCH   9  10
ATOM     10  C   UNL     1      26.712 -36.258  29.548  1.00  0.00    -0.003 C 
ATOM     11  C   UNL     1      28.215 -36.203  29.289  1.00  0.00     0.004 C 
ENDBRANCH   9  10
ENDBRANCH   8   9
ENDBRANCH   1   8
TORSDOF 6
ENDMDL
MODEL 9
REMARK VINA RESULT:    -4.034      2.201      3.715
REMARK INTER + INTRA:          -5.649
REMARK INTER:                  -5.329
REMARK INTRA:                  -0.320
REMARK UNBOUND:                -0.200
REMARK SMILES CCCCCCC=CC(=O)[O-]
REMARK SMILES IDX 5 1 6 2 7 3 8 4 9 5 10 6 11 7 4 8 3 9 2 10 1 11
REMARK H PARENT
REMARK Flexibility Score: inf
ROOT
ATOM      1  C   UNL     1      16.144 -25.411  15.764  1.00  0.00     0.004 C 
ENDROOT
BRANCH   1   2
ATOM      2  C   UNL     1      17.359 -24.783  15.070  1.00  0.00     0.027 C 
BRANCH   2   3
ATOM      3  C   UNL     1      18.512 -24.633  16.020  1.00  0.00    -0.025 C 
ATOM      4  C   UNL     1      19.603 -23.934  15.690  1.00  0.00     0.020 C 
BRANCH   4   5
ATOM      5  C   UNL     1      20.751 -23.787  16.600  1.00  0.00     0.064 C 
ATOM      6  O   UNL     1      20.621 -23.940  17.843  1.00  0.00    -0.545 OA
ATOM      7  O   UNL     1      21.999 -23.472  16.079  1.00  0.00    -0.545 OA
ENDBRANCH   4   5
ENDBRANCH   2   3
ENDBRANCH   1   2
BRANCH   1   8
ATOM      8  C   UNL     1      16.563 -26.149  17.042  1.00  0.00     0.000 C 
BRANCH   8   9
ATOM      9  C   UNL     1      15.341 -26.510  17.894  1.00  0.00    -0.000 C 
BRANCH   9  10
ATOM     10  C   UNL     1      14.063 -26.518  17.046  1.00  0.00    -0.003 C 
ATOM     11  C   UNL     1      12.933 -27.255  17.759  1.00  0.00     0.004 C 
ENDBRANCH   9  10
ENDBRANCH   8   9
ENDBRANCH   1   8
TORSDOF 6
ENDMDL
