MODEL 1
REMARK VINA RESULT:    -3.972      0.000      0.000
REMARK INTER + INTRA:          -5.171
REMARK INTER:                  -4.901
REMARK INTRA:                  -0.271
REMARK UNBOUND:                -0.271
REMARK SMILES CCCCC=CC(C)=O
REMARK SMILES IDX 4 1 3 2 2 3 1 4 5 5 6 6 7 7 9 8 8 9
REMARK H PARENT
REMARK Flexibility Score: inf
ROOT
ATOM      1  C   UNL     1      41.308 -41.298  -5.647  1.00  0.00     0.027 C 
ENDROOT
BRANCH   1   2
ATOM      2  C   UNL     1      42.499 -40.677  -4.898  1.00  0.00     0.004 C 
BRANCH   2   3
ATOM      3  C   UNL     1      43.759 -41.548  -4.996  1.00  0.00    -0.003 C 
ATOM      4  C   UNL     1      43.790 -42.329  -6.306  1.00  0.00     0.004 C 
ENDBRANCH   2   3
ENDBRANCH   1   2
BRANCH   1   5
ATOM      5  C   UNL     1      40.035 -41.247  -4.843  1.00  0.00    -0.023 C 
ATOM      6  C   UNL     1      39.032 -40.369  -5.008  1.00  0.00     0.042 C 
BRANCH   6   7
ATOM      7  C   UNL     1      38.996 -39.244  -5.970  1.00  0.00     0.152 C 
ATOM      8  O   UNL     1      39.410 -38.096  -5.661  1.00  0.00    -0.295 OA
ATOM      9  C   UNL     1      38.387 -39.455  -7.318  1.00  0.00     0.093 C 
ENDBRANCH   6   7
ENDBRANCH   1   5
TORSDOF 4
ENDMDL
MODEL 2
REMARK VINA RESULT:    -3.853      1.173      1.351
REMARK INTER + INTRA:          -5.025
REMARK INTER:                  -4.796
REMARK INTRA:                  -0.228
REMARK UNBOUND:                -0.271
REMARK SMILES CCCCC=CC(C)=O
REMARK SMILES IDX 4 1 3 2 2 3 1 4 5 5 6 6 7 7 9 8 8 9
REMARK H PARENT
REMARK Flexibility Score: inf
ROOT
ATOM      1  C   UNL     1      40.461 -40.513  -4.651  1.00  0.00     0.027 C 
ENDROOT
BRANCH   1   2
ATOM      2  C   UNL     1      41.424 -41.286  -5.567  1.00  0.00     0.004 C 
BRANCH   2   3
ATOM      3  C   UNL     1      42.885 -41.149  -5.115  1.00  0.00    -0.003 C 
ATOM      4  C   UNL     1      43.797 -42.080  -5.908  1.00  0.00     0.004 C 
ENDBRANCH   2   3
ENDBRANCH   1   2
BRANCH   1   5
ATOM      5  C   UNL     1      39.171 -41.255  -4.416  1.00  0.00    -0.023 C 
ATOM      6  C   UNL     1      37.952 -40.869  -4.826  1.00  0.00     0.042 C 
BRANCH   6   7
ATOM      7  C   UNL     1      37.620 -39.614  -5.540  1.00  0.00     0.152 C 
ATOM      8  O   UNL     1      37.147 -38.614  -4.937  1.00  0.00    -0.295 OA
ATOM      9  C   UNL     1      37.780 -39.555  -7.024  1.00  0.00     0.093 C 
ENDBRANCH   6   7
ENDBRANCH   1   5
TORSDOF 4
ENDMDL
MODEL 3
REMARK VINA RESULT:    -3.813      1.978      2.958
REMARK INTER + INTRA:          -4.976
REMARK INTER:                  -4.570
REMARK INTRA:                  -0.406
REMARK UNBOUND:                -0.271
REMARK SMILES CCCCC=CC(C)=O
REMARK SMILES IDX 4 1 3 2 2 3 1 4 5 5 6 6 7 7 9 8 8 9
REMARK H PARENT
REMARK Flexibility Score: inf
ROOT
ATOM      1  C   UNL     1      40.143 -40.673  -5.436  1.00  0.00     0.027 C 
ENDROOT
BRANCH   1   2
ATOM      2  C   UNL     1      41.336 -41.542  -5.867  1.00  0.00     0.004 C 
BRANCH   2   3
ATOM      3  C   UNL     1      42.637 -41.125  -5.166  1.00  0.00    -0.003 C 
ATOM      4  C   UNL     1      43.809 -41.991  -5.619  1.00  0.00     0.004 C 
ENDBRANCH   2   3
ENDBRANCH   1   2
BRANCH   1   5
ATOM      5  C   UNL     1      39.367 -41.284  -4.299  1.00  0.00    -0.023 C 
ATOM      6  C   UNL     1      39.430 -40.911  -3.010  1.00  0.00     0.042 C 
BRANCH   6   7
ATOM      7  C   UNL     1      40.310 -39.865  -2.438  1.00  0.00     0.152 C 
ATOM      8  O   UNL     1      40.051 -38.639  -2.567  1.00  0.00    -0.295 OA
ATOM      9  C   UNL     1      41.575 -40.270  -1.754  1.00  0.00     0.093 C 
ENDBRANCH   6   7
ENDBRANCH   1   5
TORSDOF 4
ENDMDL
MODEL 4
REMARK VINA RESULT:    -3.641      1.788      4.536
REMARK INTER + INTRA:          -4.763
REMARK INTER:                  -4.485
REMARK INTRA:                  -0.278
REMARK UNBOUND:                -0.271
REMARK SMILES CCCCC=CC(C)=O
REMARK SMILES IDX 4 1 3 2 2 3 1 4 5 5 6 6 7 7 9 8 8 9
REMARK H PARENT
REMARK Flexibility Score: inf
ROOT
ATOM      1  C   UNL     1      40.238 -40.675  -5.519  1.00  0.00     0.027 C 
ENDROOT
BRANCH   1   2
ATOM      2  C   UNL     1      39.363 -41.256  -4.395  1.00  0.00     0.004 C 
BRANCH   2   3
ATOM      3  C   UNL     1      37.868 -41.019  -4.648  1.00  0.00    -0.003 C 
ATOM      4  C   UNL     1      37.651 -39.915  -5.679  1.00  0.00     0.004 C 
ENDBRANCH   2   3
ENDBRANCH   1   2
BRANCH   1   5
ATOM      5  C   UNL     1      41.598 -41.321  -5.579  1.00  0.00    -0.023 C 
ATOM      6  C   UNL     1      42.660 -40.997  -4.823  1.00  0.00     0.042 C 
BRANCH   6   7
ATOM      7  C   UNL     1      42.727 -39.909  -3.820  1.00  0.00     0.152 C 
ATOM      8  O   UNL     1      42.791 -38.698  -4.159  1.00  0.00    -0.295 OA
ATOM      9  C   UNL     1      42.792 -40.257  -2.368  1.00  0.00     0.093 C 
ENDBRANCH   6   7
ENDBRANCH   1   5
TORSDOF 4
ENDMDL
MODEL 5
REMARK VINA RESULT:    -3.568      2.228      3.135
REMARK INTER + INTRA:          -4.673
REMARK INTER:                  -4.309
REMARK INTRA:                  -0.365
REMARK UNBOUND:                -0.271
REMARK SMILES CCCCC=CC(C)=O
REMARK SMILES IDX 4 1 3 2 2 3 1 4 5 5 6 6 7 7 9 8 8 9
REMARK H PARENT
REMARK Flexibility Score: inf
ROOT
ATOM      1  C   UNL     1      40.367 -40.862  -4.766  1.00  0.00     0.027 C 
ENDROOT
BRANCH   1   2
ATOM      2  C   UNL     1      41.403 -41.444  -5.742  1.00  0.00     0.004 C 
BRANCH   2   3
ATOM      3  C   UNL     1      42.838 -41.294  -5.217  1.00  0.00    -0.003 C 
ATOM      4  C   UNL     1      43.807 -42.176  -6.000  1.00  0.00     0.004 C 
ENDBRANCH   2   3
ENDBRANCH   1   2
BRANCH   1   5
ATOM      5  C   UNL     1      40.134 -39.390  -4.985  1.00  0.00    -0.023 C 
ATOM      6  C   UNL     1      40.700 -38.389  -4.290  1.00  0.00     0.042 C 
BRANCH   6   7
ATOM      7  C   UNL     1      41.620 -38.528  -3.138  1.00  0.00     0.152 C 
ATOM      8  O   UNL     1      41.211 -38.902  -2.007  1.00  0.00    -0.295 OA
ATOM      9  C   UNL     1      43.055 -38.147  -3.299  1.00  0.00     0.093 C 
ENDBRANCH   6   7
ENDBRANCH   1   5
TORSDOF 4
ENDMDL
MODEL 6
REMARK VINA RESULT:    -3.475      1.674      2.241
REMARK INTER + INTRA:          -4.558
REMARK INTER:                  -4.335
REMARK INTRA:                  -0.222
REMARK UNBOUND:                -0.271
REMARK SMILES CCCCC=CC(C)=O
REMARK SMILES IDX 4 1 3 2 2 3 1 4 5 5 6 6 7 7 9 8 8 9
REMARK H PARENT
REMARK Flexibility Score: inf
ROOT
ATOM      1  C   UNL     1      42.580 -40.984  -5.102  1.00  0.00     0.027 C 
ENDROOT
BRANCH   1   2
ATOM      2  C   UNL     1      43.935 -41.710  -5.136  1.00  0.00     0.004 C 
BRANCH   2   3
ATOM      3  C   UNL     1      44.125 -42.516  -6.429  1.00  0.00    -0.003 C 
ATOM      4  C   UNL     1      42.783 -42.974  -6.995  1.00  0.00     0.004 C 
ENDBRANCH   2   3
ENDBRANCH   1   2
BRANCH   1   5
ATOM      5  C   UNL     1      42.281 -40.390  -3.750  1.00  0.00    -0.023 C 
ATOM      6  C   UNL     1      41.073 -40.006  -3.306  1.00  0.00     0.042 C 
BRANCH   6   7
ATOM      7  C   UNL     1      39.804 -40.037  -4.070  1.00  0.00     0.152 C 
ATOM      8  O   UNL     1      39.335 -39.004  -4.615  1.00  0.00    -0.295 OA
ATOM      9  C   UNL     1      39.022 -41.309  -4.136  1.00  0.00     0.093 C 
ENDBRANCH   6   7
ENDBRANCH   1   5
TORSDOF 4
ENDMDL
MODEL 7
REMARK VINA RESULT:    -3.436      1.881      3.213
REMARK INTER + INTRA:          -4.511
REMARK INTER:                  -3.894
REMARK INTRA:                  -0.616
REMARK UNBOUND:                -0.271
REMARK SMILES CCCCC=CC(C)=O
REMARK SMILES IDX 4 1 3 2 2 3 1 4 5 5 6 6 7 7 9 8 8 9
REMARK H PARENT
REMARK Flexibility Score: inf
ROOT
ATOM      1  C   UNL     1      42.788 -39.950  -4.266  1.00  0.00     0.027 C 
ENDROOT
BRANCH   1   2
ATOM      2  C   UNL     1      42.924 -40.438  -2.815  1.00  0.00     0.004 C 
BRANCH   2   3
ATOM      3  C   UNL     1      41.723 -40.025  -1.952  1.00  0.00    -0.003 C 
ATOM      4  C   UNL     1      41.201 -38.649  -2.356  1.00  0.00     0.004 C 
ENDBRANCH   2   3
ENDBRANCH   1   2
BRANCH   1   5
ATOM      5  C   UNL     1      42.407 -41.059  -5.212  1.00  0.00    -0.023 C 
ATOM      6  C   UNL     1      41.165 -41.341  -5.638  1.00  0.00     0.042 C 
BRANCH   6   7
ATOM      7  C   UNL     1      39.916 -40.659  -5.224  1.00  0.00     0.152 C 
ATOM      8  O   UNL     1      39.593 -39.533  -5.686  1.00  0.00    -0.295 OA
ATOM      9  C   UNL     1      39.053 -41.288  -4.180  1.00  0.00     0.093 C 
ENDBRANCH   6   7
ENDBRANCH   1   5
TORSDOF 4
ENDMDL
MODEL 8
REMARK VINA RESULT:    -3.326      2.172      2.708
REMARK INTER + INTRA:          -4.374
REMARK INTER:                  -4.141
REMARK INTRA:                  -0.233
REMARK UNBOUND:                -0.271
REMARK SMILES CCCCC=CC(C)=O
REMARK SMILES IDX 4 1 3 2 2 3 1 4 5 5 6 6 7 7 9 8 8 9
REMARK H PARENT
REMARK Flexibility Score: inf
ROOT
ATOM      1  C   UNL     1      42.019 -40.448  -4.070  1.00  0.00     0.027 C 
ENDROOT
BRANCH   1   2
ATOM      2  C   UNL     1      42.342 -41.273  -5.327  1.00  0.00     0.004 C 
BRANCH   2   3
ATOM      3  C   UNL     1      43.823 -41.675  -5.388  1.00  0.00    -0.003 C 
ATOM      4  C   UNL     1      44.070 -42.702  -6.490  1.00  0.00     0.004 C 
ENDBRANCH   2   3
ENDBRANCH   1   2
BRANCH   1   5
ATOM      5  C   UNL     1      42.657 -39.083  -4.100  1.00  0.00    -0.023 C 
ATOM      6  C   UNL     1      42.007 -37.909  -4.146  1.00  0.00     0.042 C 
BRANCH   6   7
ATOM      7  C   UNL     1      40.541 -37.717  -4.234  1.00  0.00     0.152 C 
ATOM      8  O   UNL     1      39.907 -37.939  -5.299  1.00  0.00    -0.295 OA
ATOM      9  C   UNL     1      39.803 -37.178  -3.052  1.00  0.00     0.093 C 
ENDBRANCH   6   7
ENDBRANCH   1   5
TORSDOF 4
ENDMDL
MODEL 9
REMARK VINA RESULT:    -3.313      1.268      2.061
REMARK INTER + INTRA:          -4.359
REMARK INTER:                  -3.873
REMARK INTRA:                  -0.486
REMARK UNBOUND:                -0.271
REMARK SMILES CCCCC=CC(C)=O
REMARK SMILES IDX 4 1 3 2 2 3 1 4 5 5 6 6 7 7 9 8 8 9
REMARK H PARENT
REMARK Flexibility Score: inf
ROOT
ATOM      1  C   UNL     1      41.317 -41.291  -5.657  1.00  0.00     0.027 C 
ENDROOT
BRANCH   1   2
ATOM      2  C   UNL     1      42.609 -40.981  -4.884  1.00  0.00     0.004 C 
BRANCH   2   3
ATOM      3  C   UNL     1      42.658 -39.524  -4.403  1.00  0.00    -0.003 C 
ATOM      4  C   UNL     1      42.755 -39.448  -2.882  1.00  0.00     0.004 C 
ENDBRANCH   2   3
ENDBRANCH   1   2
BRANCH   1   5
ATOM      5  C   UNL     1      40.099 -41.272  -4.770  1.00  0.00    -0.023 C 
ATOM      6  C   UNL     1      39.041 -40.454  -4.899  1.00  0.00     0.042 C 
BRANCH   6   7
ATOM      7  C   UNL     1      38.882 -39.372  -5.898  1.00  0.00     0.152 C 
ATOM      8  O   UNL     1      38.440 -39.600  -7.055  1.00  0.00    -0.295 OA
ATOM      9  C   UNL     1      39.322 -37.987  -5.551  1.00  0.00     0.093 C 
ENDBRANCH   6   7
ENDBRANCH   1   5
TORSDOF 4
ENDMDL
