MODEL 1
REMARK VINA RESULT:    -7.673      0.000      0.000
REMARK INTER + INTRA:          -9.062
REMARK INTER:                  -8.794
REMARK INTRA:                  -0.268
REMARK UNBOUND:                -0.268
REMARK SMILES CC1(C)CC[C@@]23CO[C@]4(C=C[C@@H]5[C@@]6(C)CC[C@@H](O)[C@@](C)(CO)[C@H]6CC[C@]5(C)[C@]4(C)C[C@H]2O)[C@@H]3C1
REMARK SMILES IDX 1 1 2 2 4 3 5 4 6 5 7 6 8 7 9 8 33 9 34 10 10 11 11 12 12 13
REMARK SMILES IDX 13 14 15 15 16 16 17 17 19 18 23 19 24 20 25 21 26 22 28 23
REMARK SMILES IDX 30 24 31 25 29 26 27 27 20 28 14 29 3 30 32 31 21 33 22 34
REMARK SMILES IDX 18 36
REMARK H PARENT 32 32 22 35 18 37
REMARK Flexibility Score: inf
ROOT
ATOM      1  C   UNL     1      19.239 -28.323   1.436  1.00  0.00     0.011 C 
ATOM      2  C   UNL     1      18.840 -29.127   2.696  1.00  0.00    -0.035 C 
ATOM      3  C   UNL     1      18.863 -28.239   3.960  1.00  0.00     0.007 C 
ATOM      4  C   UNL     1      17.776 -27.154   3.948  1.00  0.00     0.013 C 
ATOM      5  C   UNL     1      16.344 -27.667   3.612  1.00  0.00     0.026 C 
ATOM      6  C   UNL     1      15.736 -28.516   4.742  1.00  0.00     0.171 C 
ATOM      7  O   UNL     1      14.834 -29.438   4.167  1.00  0.00    -0.369 OA
ATOM      8  C   UNL     1      14.872 -29.261   2.758  1.00  0.00     0.096 C 
ATOM      9  C   UNL     1      16.292 -28.681   2.477  1.00  0.00     0.037 C 
ATOM     10  C   UNL     1      17.431 -29.742   2.540  1.00  0.00     0.014 C 
ATOM     11  C   UNL     1      14.736 -30.633   2.155  1.00  0.00     0.005 C 
ATOM     12  C   UNL     1      14.317 -30.869   0.919  1.00  0.00    -0.024 C 
ATOM     13  C   UNL     1      13.592 -29.859   0.076  1.00  0.00     0.024 C 
ATOM     14  C   UNL     1      14.253 -29.456  -1.304  1.00  0.00    -0.022 C 
ATOM     15  C   UNL     1      14.902 -30.697  -2.024  1.00  0.00     0.010 C 
ATOM     16  C   UNL     1      13.959 -31.511  -2.882  1.00  0.00     0.033 C 
ATOM     17  C   UNL     1      13.426 -30.617  -3.997  1.00  0.00     0.123 C 
ATOM     18  C   UNL     1      12.475 -29.516  -3.438  1.00  0.00     0.020 C 
ATOM     19  C   UNL     1      13.155 -28.710  -2.219  1.00  0.00     0.006 C 
ATOM     20  C   UNL     1      12.077 -27.922  -1.393  1.00  0.00     0.005 C 
ATOM     21  C   UNL     1      12.510 -27.510   0.013  1.00  0.00     0.008 C 
ATOM     22  C   UNL     1      12.874 -28.725   0.946  1.00  0.00    -0.017 C 
ATOM     23  C   UNL     1      13.694 -28.249   2.315  1.00  0.00     0.009 C 
ATOM     24  C   UNL     1      14.312 -26.794   2.205  1.00  0.00     0.043 C 
ATOM     25  C   UNL     1      15.414 -26.445   3.246  1.00  0.00     0.124 C 
ATOM     26  C   UNL     1      12.681 -28.093   3.509  1.00  0.00     0.015 C 
ATOM     27  C   UNL     1      11.493 -29.376   1.350  1.00  0.00     0.013 C 
ATOM     28  C   UNL     1      12.234 -28.511  -4.600  1.00  0.00     0.017 C 
ATOM     29  C   UNL     1      15.472 -28.527  -1.069  1.00  0.00     0.012 C 
ATOM     30  C   UNL     1      19.863 -30.270   2.876  1.00  0.00     0.011 C 
ENDROOT
BRANCH  25  31
ATOM     31  O   UNL     1      14.834 -25.855   4.383  1.00  0.00    -0.392 OA
ATOM     32  H   UNL     1      15.204 -24.936   4.451  1.00  0.00     0.210 HD
ENDBRANCH  25  31
BRANCH  18  33
ATOM     33  C   UNL     1      11.063 -30.136  -3.129  1.00  0.00     0.165 C 
BRANCH  33  34
ATOM     34  O   UNL     1      10.153 -29.940  -4.174  1.00  0.00    -0.396 OA
ATOM     35  H   UNL     1      10.467 -29.141  -4.672  1.00  0.00     0.210 HD
ENDBRANCH  33  34
ENDBRANCH  18  33
BRANCH  17  36
ATOM     36  O   UNL     1      12.781 -31.406  -4.969  1.00  0.00    -0.392 OA
ATOM     37  H   UNL     1      11.992 -31.822  -4.531  1.00  0.00     0.210 HD
ENDBRANCH  17  36
TORSDOF 4
ENDMDL
MODEL 2
REMARK VINA RESULT:    -7.557     12.761     16.297
REMARK INTER + INTRA:          -8.929
REMARK INTER:                  -8.640
REMARK INTRA:                  -0.289
REMARK UNBOUND:                -0.268
REMARK SMILES CC1(C)CC[C@@]23CO[C@]4(C=C[C@@H]5[C@@]6(C)CC[C@@H](O)[C@@](C)(CO)[C@H]6CC[C@]5(C)[C@]4(C)C[C@H]2O)[C@@H]3C1
REMARK SMILES IDX 1 1 2 2 4 3 5 4 6 5 7 6 8 7 9 8 33 9 34 10 10 11 11 12 12 13
REMARK SMILES IDX 13 14 15 15 16 16 17 17 19 18 23 19 24 20 25 21 26 22 28 23
REMARK SMILES IDX 30 24 31 25 29 26 27 27 20 28 14 29 3 30 32 31 21 33 22 34
REMARK SMILES IDX 18 36
REMARK H PARENT 32 32 22 35 18 37
REMARK Flexibility Score: inf
ROOT
ATOM      1  C   UNL     1      15.437 -41.215   9.739  1.00  0.00     0.011 C 
ATOM      2  C   UNL     1      16.118 -42.096  10.814  1.00  0.00    -0.035 C 
ATOM      3  C   UNL     1      17.183 -43.024  10.188  1.00  0.00     0.007 C 
ATOM      4  C   UNL     1      18.390 -42.256   9.630  1.00  0.00     0.013 C 
ATOM      5  C   UNL     1      19.013 -41.217  10.609  1.00  0.00     0.026 C 
ATOM      6  C   UNL     1      19.751 -41.877  11.787  1.00  0.00     0.171 C 
ATOM      7  O   UNL     1      19.694 -41.000  12.893  1.00  0.00    -0.369 OA
ATOM      8  C   UNL     1      18.932 -39.865  12.507  1.00  0.00     0.096 C 
ATOM      9  C   UNL     1      17.992 -40.391  11.379  1.00  0.00     0.037 C 
ATOM     10  C   UNL     1      16.786 -41.228  11.903  1.00  0.00     0.014 C 
ATOM     11  C   UNL     1      18.130 -39.463  13.715  1.00  0.00     0.005 C 
ATOM     12  C   UNL     1      17.627 -38.251  13.909  1.00  0.00    -0.024 C 
ATOM     13  C   UNL     1      18.071 -37.031  13.153  1.00  0.00     0.024 C 
ATOM     14  C   UNL     1      16.973 -36.253  12.321  1.00  0.00    -0.022 C 
ATOM     15  C   UNL     1      15.596 -36.195  13.084  1.00  0.00     0.010 C 
ATOM     16  C   UNL     1      15.450 -35.054  14.065  1.00  0.00     0.033 C 
ATOM     17  C   UNL     1      15.554 -33.739  13.298  1.00  0.00     0.123 C 
ATOM     18  C   UNL     1      16.997 -33.509  12.757  1.00  0.00     0.020 C 
ATOM     19  C   UNL     1      17.535 -34.790  11.940  1.00  0.00     0.006 C 
ATOM     20  C   UNL     1      19.096 -34.739  11.773  1.00  0.00     0.005 C 
ATOM     21  C   UNL     1      19.756 -36.076  11.439  1.00  0.00     0.008 C 
ATOM     22  C   UNL     1      19.539 -37.183  12.537  1.00  0.00    -0.017 C 
ATOM     23  C   UNL     1      19.929 -38.705  11.987  1.00  0.00     0.009 C 
ATOM     24  C   UNL     1      20.013 -38.802  10.408  1.00  0.00     0.043 C 
ATOM     25  C   UNL     1      19.963 -40.238   9.812  1.00  0.00     0.124 C 
ATOM     26  C   UNL     1      21.398 -39.064  12.422  1.00  0.00     0.015 C 
ATOM     27  C   UNL     1      20.494 -36.786  13.732  1.00  0.00     0.013 C 
ATOM     28  C   UNL     1      16.912 -32.312  11.766  1.00  0.00     0.017 C 
ATOM     29  C   UNL     1      16.612 -37.038  11.033  1.00  0.00     0.012 C 
ATOM     30  C   UNL     1      15.029 -42.969  11.474  1.00  0.00     0.011 C 
ENDROOT
BRANCH  25  31
ATOM     31  O   UNL     1      21.265 -40.750   9.675  1.00  0.00    -0.392 OA
ATOM     32  H   UNL     1      21.215 -41.722   9.872  1.00  0.00     0.210 HD
ENDBRANCH  25  31
BRANCH  18  33
ATOM     33  C   UNL     1      17.932 -33.014  13.922  1.00  0.00     0.165 C 
BRANCH  33  34
ATOM     34  O   UNL     1      17.884 -31.626  14.093  1.00  0.00    -0.396 OA
ATOM     35  H   UNL     1      18.221 -31.445  15.009  1.00  0.00     0.210 HD
ENDBRANCH  33  34
ENDBRANCH  18  33
BRANCH  17  36
ATOM     36  O   UNL     1      15.140 -32.675  14.122  1.00  0.00    -0.392 OA
ATOM     37  H   UNL     1      15.187 -31.847  13.576  1.00  0.00     0.210 HD
ENDBRANCH  17  36
TORSDOF 4
ENDMDL
MODEL 3
REMARK VINA RESULT:    -7.470     12.937     15.217
REMARK INTER + INTRA:          -8.830
REMARK INTER:                  -8.543
REMARK INTRA:                  -0.287
REMARK UNBOUND:                -0.268
REMARK SMILES CC1(C)CC[C@@]23CO[C@]4(C=C[C@@H]5[C@@]6(C)CC[C@@H](O)[C@@](C)(CO)[C@H]6CC[C@]5(C)[C@]4(C)C[C@H]2O)[C@@H]3C1
REMARK SMILES IDX 1 1 2 2 4 3 5 4 6 5 7 6 8 7 9 8 33 9 34 10 10 11 11 12 12 13
REMARK SMILES IDX 13 14 15 15 16 16 17 17 19 18 23 19 24 20 25 21 26 22 28 23
REMARK SMILES IDX 30 24 31 25 29 26 27 27 20 28 14 29 3 30 32 31 21 33 22 34
REMARK SMILES IDX 18 36
REMARK H PARENT 32 32 22 35 18 37
REMARK Flexibility Score: inf
ROOT
ATOM      1  C   UNL     1      20.274 -36.569   8.378  1.00  0.00     0.011 C 
ATOM      2  C   UNL     1      21.297 -37.721   8.522  1.00  0.00    -0.035 C 
ATOM      3  C   UNL     1      22.292 -37.448   9.672  1.00  0.00     0.007 C 
ATOM      4  C   UNL     1      21.626 -37.472  11.056  1.00  0.00     0.013 C 
ATOM      5  C   UNL     1      20.733 -38.718  11.330  1.00  0.00     0.026 C 
ATOM      6  C   UNL     1      21.550 -40.010  11.504  1.00  0.00     0.171 C 
ATOM      7  O   UNL     1      20.751 -41.098  11.092  1.00  0.00    -0.369 OA
ATOM      8  C   UNL     1      19.513 -40.576  10.627  1.00  0.00     0.096 C 
ATOM      9  C   UNL     1      19.854 -39.129  10.157  1.00  0.00     0.037 C 
ATOM     10  C   UNL     1      20.585 -39.067   8.782  1.00  0.00     0.014 C 
ATOM     11  C   UNL     1      19.109 -41.428   9.454  1.00  0.00     0.005 C 
ATOM     12  C   UNL     1      17.865 -41.546   9.009  1.00  0.00    -0.024 C 
ATOM     13  C   UNL     1      16.653 -41.147   9.802  1.00  0.00     0.024 C 
ATOM     14  C   UNL     1      15.702 -40.050   9.172  1.00  0.00    -0.022 C 
ATOM     15  C   UNL     1      15.545 -40.239   7.617  1.00  0.00     0.010 C 
ATOM     16  C   UNL     1      14.464 -41.207   7.191  1.00  0.00     0.033 C 
ATOM     17  C   UNL     1      13.119 -40.681   7.683  1.00  0.00     0.123 C 
ATOM     18  C   UNL     1      13.014 -40.752   9.236  1.00  0.00     0.020 C 
ATOM     19  C   UNL     1      14.289 -40.067   9.947  1.00  0.00     0.006 C 
ATOM     20  C   UNL     1      14.399 -40.507  11.451  1.00  0.00     0.005 C 
ATOM     21  C   UNL     1      15.775 -40.307  12.085  1.00  0.00     0.008 C 
ATOM     22  C   UNL     1      16.924 -41.118  11.378  1.00  0.00    -0.017 C 
ATOM     23  C   UNL     1      18.439 -40.597  11.832  1.00  0.00     0.009 C 
ATOM     24  C   UNL     1      18.435 -39.166  12.511  1.00  0.00     0.043 C 
ATOM     25  C   UNL     1      19.813 -38.446  12.585  1.00  0.00     0.124 C 
ATOM     26  C   UNL     1      18.987 -41.514  12.988  1.00  0.00     0.015 C 
ATOM     27  C   UNL     1      16.719 -42.619  11.825  1.00  0.00     0.013 C 
ATOM     28  C   UNL     1      11.751 -39.935   9.630  1.00  0.00     0.017 C 
ATOM     29  C   UNL     1      16.352 -38.646   9.278  1.00  0.00     0.012 C 
ATOM     30  C   UNL     1      22.087 -37.825   7.200  1.00  0.00     0.011 C 
ENDROOT
BRANCH  25  31
ATOM     31  O   UNL     1      20.455 -38.757  13.796  1.00  0.00    -0.392 OA
ATOM     32  H   UNL     1      20.886 -39.643  13.676  1.00  0.00     0.210 HD
ENDBRANCH  25  31
BRANCH  18  33
ATOM     33  C   UNL     1      12.708 -42.228   9.684  1.00  0.00     0.165 C 
BRANCH  33  34
ATOM     34  O   UNL     1      11.345 -42.537   9.609  1.00  0.00    -0.396 OA
ATOM     35  H   UNL     1      10.974 -42.389  10.518  1.00  0.00     0.210 HD
ENDBRANCH  33  34
ENDBRANCH  18  33
BRANCH  17  36
ATOM     36  O   UNL     1      12.076 -41.396   7.065  1.00  0.00    -0.392 OA
ATOM     37  H   UNL     1      12.482 -42.196   6.639  1.00  0.00     0.210 HD
ENDBRANCH  17  36
TORSDOF 4
ENDMDL
MODEL 4
REMARK VINA RESULT:    -7.365      1.802      2.123
REMARK INTER + INTRA:          -8.709
REMARK INTER:                  -8.545
REMARK INTRA:                  -0.164
REMARK UNBOUND:                -0.268
REMARK SMILES CC1(C)CC[C@@]23CO[C@]4(C=C[C@@H]5[C@@]6(C)CC[C@@H](O)[C@@](C)(CO)[C@H]6CC[C@]5(C)[C@]4(C)C[C@H]2O)[C@@H]3C1
REMARK SMILES IDX 1 1 2 2 4 3 5 4 6 5 7 6 8 7 9 8 33 9 34 10 10 11 11 12 12 13
REMARK SMILES IDX 13 14 15 15 16 16 17 17 19 18 23 19 24 20 25 21 26 22 28 23
REMARK SMILES IDX 30 24 31 25 29 26 27 27 20 28 14 29 3 30 32 31 21 33 22 34
REMARK SMILES IDX 18 36
REMARK H PARENT 32 32 22 35 18 37
REMARK Flexibility Score: inf
ROOT
ATOM      1  C   UNL     1      19.547 -28.334   1.352  1.00  0.00     0.011 C 
ATOM      2  C   UNL     1      19.316 -28.548   2.867  1.00  0.00    -0.035 C 
ATOM      3  C   UNL     1      19.238 -27.200   3.619  1.00  0.00     0.007 C 
ATOM      4  C   UNL     1      17.995 -26.380   3.245  1.00  0.00     0.013 C 
ATOM      5  C   UNL     1      16.651 -27.166   3.299  1.00  0.00     0.026 C 
ATOM      6  C   UNL     1      16.216 -27.503   4.736  1.00  0.00     0.171 C 
ATOM      7  O   UNL     1      15.453 -28.690   4.701  1.00  0.00    -0.369 OA
ATOM      8  C   UNL     1      15.422 -29.146   3.355  1.00  0.00     0.096 C 
ATOM      9  C   UNL     1      16.725 -28.572   2.719  1.00  0.00     0.037 C 
ATOM     10  C   UNL     1      18.017 -29.343   3.124  1.00  0.00     0.014 C 
ATOM     11  C   UNL     1      15.484 -30.648   3.415  1.00  0.00     0.005 C 
ATOM     12  C   UNL     1      15.071 -31.453   2.446  1.00  0.00    -0.024 C 
ATOM     13  C   UNL     1      14.172 -31.017   1.324  1.00  0.00     0.024 C 
ATOM     14  C   UNL     1      14.721 -31.180  -0.151  1.00  0.00    -0.022 C 
ATOM     15  C   UNL     1      15.535 -32.516  -0.326  1.00  0.00     0.010 C 
ATOM     16  C   UNL     1      14.706 -33.737  -0.659  1.00  0.00     0.033 C 
ATOM     17  C   UNL     1      14.007 -33.499  -1.994  1.00  0.00     0.123 C 
ATOM     18  C   UNL     1      12.913 -32.396  -1.874  1.00  0.00     0.020 C 
ATOM     19  C   UNL     1      13.494 -31.057  -1.190  1.00  0.00     0.006 C 
ATOM     20  C   UNL     1      12.330 -30.131  -0.684  1.00  0.00     0.005 C 
ATOM     21  C   UNL     1      12.736 -29.093   0.362  1.00  0.00     0.008 C 
ATOM     22  C   UNL     1      13.312 -29.719   1.687  1.00  0.00    -0.017 C 
ATOM     23  C   UNL     1      14.087 -28.590   2.634  1.00  0.00     0.009 C 
ATOM     24  C   UNL     1      14.467 -27.266   1.853  1.00  0.00     0.043 C 
ATOM     25  C   UNL     1      15.531 -26.357   2.534  1.00  0.00     0.124 C 
ATOM     26  C   UNL     1      13.098 -28.057   3.736  1.00  0.00     0.015 C 
ATOM     27  C   UNL     1      12.062 -30.297   2.460  1.00  0.00     0.013 C 
ATOM     28  C   UNL     1      12.483 -32.041  -3.327  1.00  0.00     0.017 C 
ATOM     29  C   UNL     1      15.787 -30.094  -0.454  1.00  0.00     0.012 C 
ATOM     30  C   UNL     1      20.510 -29.354   3.422  1.00  0.00     0.011 C 
ENDROOT
BRANCH  25  31
ATOM     31  O   UNL     1      14.900 -25.408   3.357  1.00  0.00    -0.392 OA
ATOM     32  H   UNL     1      15.245 -24.517   3.087  1.00  0.00     0.210 HD
ENDBRANCH  25  31
BRANCH  18  33
ATOM     33  C   UNL     1      11.624 -32.992  -1.196  1.00  0.00     0.165 C 
BRANCH  33  34
ATOM     34  O   UNL     1      10.989 -33.944  -2.002  1.00  0.00    -0.396 OA
ATOM     35  H   UNL     1      10.125 -34.153  -1.560  1.00  0.00     0.210 HD
ENDBRANCH  33  34
ENDBRANCH  18  33
BRANCH  17  36
ATOM     36  O   UNL     1      13.465 -34.709  -2.467  1.00  0.00    -0.392 OA
ATOM     37  H   UNL     1      14.025 -35.443  -2.102  1.00  0.00     0.210 HD
ENDBRANCH  17  36
TORSDOF 4
ENDMDL
MODEL 5
REMARK VINA RESULT:    -7.365      8.389     13.054
REMARK INTER + INTRA:          -8.709
REMARK INTER:                  -8.432
REMARK INTRA:                  -0.277
REMARK UNBOUND:                -0.268
REMARK SMILES CC1(C)CC[C@@]23CO[C@]4(C=C[C@@H]5[C@@]6(C)CC[C@@H](O)[C@@](C)(CO)[C@H]6CC[C@]5(C)[C@]4(C)C[C@H]2O)[C@@H]3C1
REMARK SMILES IDX 1 1 2 2 4 3 5 4 6 5 7 6 8 7 9 8 33 9 34 10 10 11 11 12 12 13
REMARK SMILES IDX 13 14 15 15 16 16 17 17 19 18 23 19 24 20 25 21 26 22 28 23
REMARK SMILES IDX 30 24 31 25 29 26 27 27 20 28 14 29 3 30 32 31 21 33 22 34
REMARK SMILES IDX 18 36
REMARK H PARENT 32 32 22 35 18 37
REMARK Flexibility Score: inf
ROOT
ATOM      1  C   UNL     1      17.166 -25.380  11.501  1.00  0.00     0.011 C 
ATOM      2  C   UNL     1      16.781 -26.870  11.345  1.00  0.00    -0.035 C 
ATOM      3  C   UNL     1      15.664 -27.054  10.293  1.00  0.00     0.007 C 
ATOM      4  C   UNL     1      16.126 -26.720   8.867  1.00  0.00     0.013 C 
ATOM      5  C   UNL     1      17.462 -27.397   8.437  1.00  0.00     0.026 C 
ATOM      6  C   UNL     1      17.319 -28.914   8.226  1.00  0.00     0.171 C 
ATOM      7  O   UNL     1      18.566 -29.518   8.498  1.00  0.00    -0.369 OA
ATOM      8  C   UNL     1      19.463 -28.496   8.911  1.00  0.00     0.096 C 
ATOM      9  C   UNL     1      18.542 -27.390   9.510  1.00  0.00     0.037 C 
ATOM     10  C   UNL     1      18.003 -27.721  10.935  1.00  0.00     0.014 C 
ATOM     11  C   UNL     1      20.327 -29.099   9.984  1.00  0.00     0.005 C 
ATOM     12  C   UNL     1      21.522 -28.639  10.329  1.00  0.00    -0.024 C 
ATOM     13  C   UNL     1      22.330 -27.695   9.483  1.00  0.00     0.024 C 
ATOM     14  C   UNL     1      22.725 -26.304  10.123  1.00  0.00    -0.022 C 
ATOM     15  C   UNL     1      23.104 -26.448  11.645  1.00  0.00     0.010 C 
ATOM     16  C   UNL     1      24.545 -26.816  11.919  1.00  0.00     0.033 C 
ATOM     17  C   UNL     1      25.440 -25.708  11.373  1.00  0.00     0.123 C 
ATOM     18  C   UNL     1      25.413 -25.671   9.815  1.00  0.00     0.020 C 
ATOM     19  C   UNL     1      23.903 -25.635   9.250  1.00  0.00     0.006 C 
ATOM     20  C   UNL     1      23.861 -26.026   7.729  1.00  0.00     0.005 C 
ATOM     21  C   UNL     1      22.493 -26.469   7.212  1.00  0.00     0.008 C 
ATOM     22  C   UNL     1      21.922 -27.745   7.938  1.00  0.00    -0.017 C 
ATOM     23  C   UNL     1      20.302 -27.974   7.633  1.00  0.00     0.009 C 
ATOM     24  C   UNL     1      19.579 -26.684   7.065  1.00  0.00     0.043 C 
ATOM     25  C   UNL     1      18.025 -26.687   7.143  1.00  0.00     0.124 C 
ATOM     26  C   UNL     1      20.127 -29.002   6.454  1.00  0.00     0.015 C 
ATOM     27  C   UNL     1      22.751 -28.962   7.366  1.00  0.00     0.013 C 
ATOM     28  C   UNL     1      26.112 -24.347   9.393  1.00  0.00     0.017 C 
ATOM     29  C   UNL     1      21.494 -25.361  10.170  1.00  0.00     0.012 C 
ATOM     30  C   UNL     1      16.262 -27.374  12.709  1.00  0.00     0.011 C 
ENDROOT
BRANCH  25  31
ATOM     31  O   UNL     1      17.482 -27.221   5.961  1.00  0.00    -0.392 OA
ATOM     32  H   UNL     1      18.037 -26.884   5.211  1.00  0.00     0.210 HD
ENDBRANCH  25  31
BRANCH  18  33
ATOM     33  C   UNL     1      26.319 -26.819   9.237  1.00  0.00     0.165 C 
BRANCH  33  34
ATOM     34  O   UNL     1      27.619 -26.384   8.957  1.00  0.00    -0.396 OA
ATOM     35  H   UNL     1      27.529 -25.614   8.336  1.00  0.00     0.210 HD
ENDBRANCH  33  34
ENDBRANCH  18  33
BRANCH  17  36
ATOM     36  O   UNL     1      26.751 -25.875  11.858  1.00  0.00    -0.392 OA
ATOM     37  H   UNL     1      26.993 -25.040  12.339  1.00  0.00     0.210 HD
ENDBRANCH  17  36
TORSDOF 4
ENDMDL
MODEL 6
REMARK VINA RESULT:    -7.359     12.590     14.977
REMARK INTER + INTRA:          -8.702
REMARK INTER:                  -8.425
REMARK INTRA:                  -0.277
REMARK UNBOUND:                -0.268
REMARK SMILES CC1(C)CC[C@@]23CO[C@]4(C=C[C@@H]5[C@@]6(C)CC[C@@H](O)[C@@](C)(CO)[C@H]6CC[C@]5(C)[C@]4(C)C[C@H]2O)[C@@H]3C1
REMARK SMILES IDX 1 1 2 2 4 3 5 4 6 5 7 6 8 7 9 8 33 9 34 10 10 11 11 12 12 13
REMARK SMILES IDX 13 14 15 15 16 16 17 17 19 18 23 19 24 20 25 21 26 22 28 23
REMARK SMILES IDX 30 24 31 25 29 26 27 27 20 28 14 29 3 30 32 31 21 33 22 34
REMARK SMILES IDX 18 36
REMARK H PARENT 32 32 22 35 18 37
REMARK Flexibility Score: inf
ROOT
ATOM      1  C   UNL     1      15.737 -35.464  13.401  1.00  0.00     0.011 C 
ATOM      2  C   UNL     1      17.091 -35.291  12.672  1.00  0.00    -0.035 C 
ATOM      3  C   UNL     1      18.279 -35.530  13.630  1.00  0.00     0.007 C 
ATOM      4  C   UNL     1      18.383 -36.988  14.101  1.00  0.00     0.013 C 
ATOM      5  C   UNL     1      18.319 -38.048  12.962  1.00  0.00     0.026 C 
ATOM      6  C   UNL     1      19.582 -38.055  12.083  1.00  0.00     0.171 C 
ATOM      7  O   UNL     1      19.220 -38.490  10.790  1.00  0.00    -0.369 OA
ATOM      8  C   UNL     1      17.815 -38.707  10.783  1.00  0.00     0.096 C 
ATOM      9  C   UNL     1      17.270 -37.762  11.897  1.00  0.00     0.037 C 
ATOM     10  C   UNL     1      17.206 -36.263  11.477  1.00  0.00     0.014 C 
ATOM     11  C   UNL     1      17.325 -38.264   9.431  1.00  0.00     0.005 C 
ATOM     12  C   UNL     1      16.191 -38.672   8.876  1.00  0.00    -0.024 C 
ATOM     13  C   UNL     1      15.422 -39.878   9.337  1.00  0.00     0.024 C 
ATOM     14  C   UNL     1      13.931 -39.649   9.813  1.00  0.00    -0.022 C 
ATOM     15  C   UNL     1      13.187 -38.591   8.914  1.00  0.00     0.010 C 
ATOM     16  C   UNL     1      12.546 -39.145   7.662  1.00  0.00     0.033 C 
ATOM     17  C   UNL     1      11.484 -40.162   8.070  1.00  0.00     0.123 C 
ATOM     18  C   UNL     1      12.127 -41.439   8.689  1.00  0.00     0.020 C 
ATOM     19  C   UNL     1      13.168 -41.068   9.864  1.00  0.00     0.006 C 
ATOM     20  C   UNL     1      14.113 -42.281  10.183  1.00  0.00     0.005 C 
ATOM     21  C   UNL     1      15.402 -41.921  10.922  1.00  0.00     0.008 C 
ATOM     22  C   UNL     1      16.331 -40.928  10.129  1.00  0.00    -0.017 C 
ATOM     23  C   UNL     1      17.515 -40.264  11.093  1.00  0.00     0.009 C 
ATOM     24  C   UNL     1      17.219 -40.407  12.643  1.00  0.00     0.043 C 
ATOM     25  C   UNL     1      18.042 -39.476  13.579  1.00  0.00     0.124 C 
ATOM     26  C   UNL     1      18.849 -41.082  10.930  1.00  0.00     0.015 C 
ATOM     27  C   UNL     1      16.996 -41.792   8.986  1.00  0.00     0.013 C 
ATOM     28  C   UNL     1      10.964 -42.255   9.322  1.00  0.00     0.017 C 
ATOM     29  C   UNL     1      13.906 -38.979  11.212  1.00  0.00     0.012 C 
ATOM     30  C   UNL     1      17.166 -33.843  12.143  1.00  0.00     0.011 C 
ENDROOT
BRANCH  25  31
ATOM     31  O   UNL     1      19.222 -40.121  13.987  1.00  0.00    -0.392 OA
ATOM     32  H   UNL     1      18.975 -40.733  14.728  1.00  0.00     0.210 HD
ENDBRANCH  25  31
BRANCH  18  33
ATOM     33  C   UNL     1      12.702 -42.355   7.547  1.00  0.00     0.165 C 
BRANCH  33  34
ATOM     34  O   UNL     1      11.790 -43.336   7.140  1.00  0.00    -0.396 OA
ATOM     35  H   UNL     1      11.416 -43.028   6.273  1.00  0.00     0.210 HD
ENDBRANCH  33  34
ENDBRANCH  18  33
BRANCH  17  36
ATOM     36  O   UNL     1      10.680 -40.480   6.959  1.00  0.00    -0.392 OA
ATOM     37  H   UNL     1      10.042 -41.182   7.251  1.00  0.00     0.210 HD
ENDBRANCH  17  36
TORSDOF 4
ENDMDL
MODEL 7
REMARK VINA RESULT:    -7.266      5.170     10.960
REMARK INTER + INTRA:          -8.596
REMARK INTER:                  -8.371
REMARK INTRA:                  -0.224
REMARK UNBOUND:                -0.268
REMARK SMILES CC1(C)CC[C@@]23CO[C@]4(C=C[C@@H]5[C@@]6(C)CC[C@@H](O)[C@@](C)(CO)[C@H]6CC[C@]5(C)[C@]4(C)C[C@H]2O)[C@@H]3C1
REMARK SMILES IDX 1 1 2 2 4 3 5 4 6 5 7 6 8 7 9 8 33 9 34 10 10 11 11 12 12 13
REMARK SMILES IDX 13 14 15 15 16 16 17 17 19 18 23 19 24 20 25 21 26 22 28 23
REMARK SMILES IDX 30 24 31 25 29 26 27 27 20 28 14 29 3 30 32 31 21 33 22 34
REMARK SMILES IDX 18 36
REMARK H PARENT 32 32 22 35 18 37
REMARK Flexibility Score: inf
ROOT
ATOM      1  C   UNL     1      16.988 -26.405   2.909  1.00  0.00     0.011 C 
ATOM      2  C   UNL     1      17.443 -27.793   2.397  1.00  0.00    -0.035 C 
ATOM      3  C   UNL     1      18.299 -27.666   1.117  1.00  0.00     0.007 C 
ATOM      4  C   UNL     1      19.653 -26.988   1.369  1.00  0.00     0.013 C 
ATOM      5  C   UNL     1      20.462 -27.568   2.567  1.00  0.00     0.026 C 
ATOM      6  C   UNL     1      21.018 -28.974   2.284  1.00  0.00     0.171 C 
ATOM      7  O   UNL     1      21.126 -29.664   3.512  1.00  0.00    -0.369 OA
ATOM      8  C   UNL     1      20.631 -28.809   4.533  1.00  0.00     0.096 C 
ATOM      9  C   UNL     1      19.624 -27.870   3.802  1.00  0.00     0.037 C 
ATOM     10  C   UNL     1      18.257 -28.543   3.474  1.00  0.00     0.014 C 
ATOM     11  C   UNL     1      19.908 -29.694   5.512  1.00  0.00     0.005 C 
ATOM     12  C   UNL     1      19.670 -29.373   6.777  1.00  0.00    -0.024 C 
ATOM     13  C   UNL     1      20.379 -28.267   7.505  1.00  0.00     0.024 C 
ATOM     14  C   UNL     1      19.489 -27.100   8.096  1.00  0.00    -0.022 C 
ATOM     15  C   UNL     1      18.141 -27.644   8.701  1.00  0.00     0.010 C 
ATOM     16  C   UNL     1      18.220 -28.111  10.137  1.00  0.00     0.033 C 
ATOM     17  C   UNL     1      18.617 -26.925  11.011  1.00  0.00     0.123 C 
ATOM     18  C   UNL     1      20.087 -26.486  10.739  1.00  0.00     0.020 C 
ATOM     19  C   UNL     1      20.357 -26.262   9.165  1.00  0.00     0.006 C 
ATOM     20  C   UNL     1      21.896 -26.245   8.854  1.00  0.00     0.005 C 
ATOM     21  C   UNL     1      22.264 -26.500   7.393  1.00  0.00     0.008 C 
ATOM     22  C   UNL     1      21.794 -27.903   6.855  1.00  0.00    -0.017 C 
ATOM     23  C   UNL     1      21.862 -27.999   5.194  1.00  0.00     0.009 C 
ATOM     24  C   UNL     1      21.957 -26.586   4.484  1.00  0.00     0.043 C 
ATOM     25  C   UNL     1      21.615 -26.564   2.966  1.00  0.00     0.124 C 
ATOM     26  C   UNL     1      23.213 -28.682   4.760  1.00  0.00     0.015 C 
ATOM     27  C   UNL     1      22.786 -28.954   7.492  1.00  0.00     0.013 C 
ATOM     28  C   UNL     1      20.279 -25.118  11.456  1.00  0.00     0.017 C 
ATOM     29  C   UNL     1      18.997 -26.166   6.959  1.00  0.00     0.012 C 
ATOM     30  C   UNL     1      16.180 -28.617   2.067  1.00  0.00     0.011 C 
ENDROOT
BRANCH  25  31
ATOM     31  O   UNL     1      22.781 -26.759   2.206  1.00  0.00    -0.392 OA
ATOM     32  H   UNL     1      23.401 -27.300   2.761  1.00  0.00     0.210 HD
ENDBRANCH  25  31
BRANCH  18  33
ATOM     33  C   UNL     1      21.081 -27.471  11.457  1.00  0.00     0.165 C 
BRANCH  33  34
ATOM     34  O   UNL     1      21.625 -26.924  12.625  1.00  0.00    -0.396 OA
ATOM     35  H   UNL     1      21.127 -26.083  12.798  1.00  0.00     0.210 HD
ENDBRANCH  33  34
ENDBRANCH  18  33
BRANCH  17  36
ATOM     36  O   UNL     1      18.422 -27.250  12.367  1.00  0.00    -0.392 OA
ATOM     37  H   UNL     1      19.246 -26.984  12.853  1.00  0.00     0.210 HD
ENDBRANCH  17  36
TORSDOF 4
ENDMDL
MODEL 8
REMARK VINA RESULT:    -7.237      9.898     12.494
REMARK INTER + INTRA:          -8.562
REMARK INTER:                  -8.307
REMARK INTRA:                  -0.255
REMARK UNBOUND:                -0.268
REMARK SMILES CC1(C)CC[C@@]23CO[C@]4(C=C[C@@H]5[C@@]6(C)CC[C@@H](O)[C@@](C)(CO)[C@H]6CC[C@]5(C)[C@]4(C)C[C@H]2O)[C@@H]3C1
REMARK SMILES IDX 1 1 2 2 4 3 5 4 6 5 7 6 8 7 9 8 33 9 34 10 10 11 11 12 12 13
REMARK SMILES IDX 13 14 15 15 16 16 17 17 19 18 23 19 24 20 25 21 26 22 28 23
REMARK SMILES IDX 30 24 31 25 29 26 27 27 20 28 14 29 3 30 32 31 21 33 22 34
REMARK SMILES IDX 18 36
REMARK H PARENT 32 32 22 35 18 37
REMARK Flexibility Score: inf
ROOT
ATOM      1  C   UNL     1      23.627 -27.285   4.533  1.00  0.00     0.011 C 
ATOM      2  C   UNL     1      24.625 -28.267   5.193  1.00  0.00    -0.035 C 
ATOM      3  C   UNL     1      26.043 -27.659   5.270  1.00  0.00     0.007 C 
ATOM      4  C   UNL     1      26.128 -26.464   6.231  1.00  0.00     0.013 C 
ATOM      5  C   UNL     1      25.513 -26.713   7.640  1.00  0.00     0.026 C 
ATOM      6  C   UNL     1      26.349 -27.685   8.491  1.00  0.00     0.171 C 
ATOM      7  O   UNL     1      25.481 -28.351   9.384  1.00  0.00    -0.369 OA
ATOM      8  C   UNL     1      24.159 -27.903   9.118  1.00  0.00     0.096 C 
ATOM      9  C   UNL     1      24.189 -27.465   7.622  1.00  0.00     0.037 C 
ATOM     10  C   UNL     1      24.165 -28.654   6.616  1.00  0.00     0.014 C 
ATOM     11  C   UNL     1      23.263 -29.099   9.298  1.00  0.00     0.005 C 
ATOM     12  C   UNL     1      21.963 -29.029   9.549  1.00  0.00    -0.024 C 
ATOM     13  C   UNL     1      21.273 -27.786  10.038  1.00  0.00     0.024 C 
ATOM     14  C   UNL     1      20.106 -27.205   9.142  1.00  0.00    -0.022 C 
ATOM     15  C   UNL     1      19.223 -28.350   8.519  1.00  0.00     0.010 C 
ATOM     16  C   UNL     1      18.099 -28.849   9.398  1.00  0.00     0.033 C 
ATOM     17  C   UNL     1      17.144 -27.691   9.669  1.00  0.00     0.123 C 
ATOM     18  C   UNL     1      17.803 -26.611  10.579  1.00  0.00     0.020 C 
ATOM     19  C   UNL     1      19.242 -26.157  10.012  1.00  0.00     0.006 C 
ATOM     20  C   UNL     1      20.077 -25.419  11.119  1.00  0.00     0.005 C 
ATOM     21  C   UNL     1      21.582 -25.354  10.861  1.00  0.00     0.008 C 
ATOM     22  C   UNL     1      22.270 -26.767  10.762  1.00  0.00    -0.017 C 
ATOM     23  C   UNL     1      23.800 -26.682  10.112  1.00  0.00     0.009 C 
ATOM     24  C   UNL     1      24.084 -25.325   9.345  1.00  0.00     0.043 C 
ATOM     25  C   UNL     1      25.305 -25.333   8.381  1.00  0.00     0.124 C 
ATOM     26  C   UNL     1      24.864 -26.639  11.272  1.00  0.00     0.015 C 
ATOM     27  C   UNL     1      22.348 -27.304  12.245  1.00  0.00     0.013 C 
ATOM     28  C   UNL     1      16.863 -25.372  10.544  1.00  0.00     0.017 C 
ATOM     29  C   UNL     1      20.686 -26.504   7.886  1.00  0.00     0.012 C 
ATOM     30  C   UNL     1      24.681 -29.543   4.326  1.00  0.00     0.011 C 
ENDROOT
BRANCH  25  31
ATOM     31  O   UNL     1      26.461 -24.913   9.062  1.00  0.00    -0.392 OA
ATOM     32  H   UNL     1      26.713 -25.646   9.683  1.00  0.00     0.210 HD
ENDBRANCH  25  31
BRANCH  18  33
ATOM     33  C   UNL     1      17.793 -27.095  12.076  1.00  0.00     0.165 C 
BRANCH  33  34
ATOM     34  O   UNL     1      16.514 -27.052  12.642  1.00  0.00    -0.396 OA
ATOM     35  H   UNL     1      16.386 -26.125  12.974  1.00  0.00     0.210 HD
ENDBRANCH  33  34
ENDBRANCH  18  33
BRANCH  17  36
ATOM     36  O   UNL     1      15.952 -28.182  10.237  1.00  0.00    -0.392 OA
ATOM     37  H   UNL     1      15.657 -28.948   9.678  1.00  0.00     0.210 HD
ENDBRANCH  17  36
TORSDOF 4
ENDMDL
MODEL 9
REMARK VINA RESULT:    -7.188      9.832     13.383
REMARK INTER + INTRA:          -8.506
REMARK INTER:                  -8.219
REMARK INTRA:                  -0.287
REMARK UNBOUND:                -0.268
REMARK SMILES CC1(C)CC[C@@]23CO[C@]4(C=C[C@@H]5[C@@]6(C)CC[C@@H](O)[C@@](C)(CO)[C@H]6CC[C@]5(C)[C@]4(C)C[C@H]2O)[C@@H]3C1
REMARK SMILES IDX 1 1 2 2 4 3 5 4 6 5 7 6 8 7 9 8 33 9 34 10 10 11 11 12 12 13
REMARK SMILES IDX 13 14 15 15 16 16 17 17 19 18 23 19 24 20 25 21 26 22 28 23
REMARK SMILES IDX 30 24 31 25 29 26 27 27 20 28 14 29 3 30 32 31 21 33 22 34
REMARK SMILES IDX 18 36
REMARK H PARENT 32 32 22 35 18 37
REMARK Flexibility Score: inf
ROOT
ATOM      1  C   UNL     1      17.166 -29.133  14.125  1.00  0.00     0.011 C 
ATOM      2  C   UNL     1      16.420 -29.572  12.842  1.00  0.00    -0.035 C 
ATOM      3  C   UNL     1      15.162 -28.708  12.600  1.00  0.00     0.007 C 
ATOM      4  C   UNL     1      15.498 -27.248  12.259  1.00  0.00     0.013 C 
ATOM      5  C   UNL     1      16.566 -27.067  11.140  1.00  0.00     0.026 C 
ATOM      6  C   UNL     1      16.041 -27.457   9.748  1.00  0.00     0.171 C 
ATOM      7  O   UNL     1      17.133 -27.898   8.969  1.00  0.00    -0.369 OA
ATOM      8  C   UNL     1      18.293 -27.859   9.789  1.00  0.00     0.096 C 
ATOM      9  C   UNL     1      17.749 -28.019  11.242  1.00  0.00     0.037 C 
ATOM     10  C   UNL     1      17.341 -29.479  11.605  1.00  0.00     0.014 C 
ATOM     11  C   UNL     1      19.124 -29.053   9.404  1.00  0.00     0.005 C 
ATOM     12  C   UNL     1      20.429 -29.156   9.617  1.00  0.00    -0.024 C 
ATOM     13  C   UNL     1      21.318 -27.987   9.937  1.00  0.00     0.024 C 
ATOM     14  C   UNL     1      22.114 -28.033  11.303  1.00  0.00    -0.022 C 
ATOM     15  C   UNL     1      22.645 -29.481  11.621  1.00  0.00     0.010 C 
ATOM     16  C   UNL     1      23.981 -29.828  11.003  1.00  0.00     0.033 C 
ATOM     17  C   UNL     1      25.033 -28.870  11.554  1.00  0.00     0.123 C 
ATOM     18  C   UNL     1      24.810 -27.419  11.032  1.00  0.00     0.020 C 
ATOM     19  C   UNL     1      23.291 -26.932  11.268  1.00  0.00     0.006 C 
ATOM     20  C   UNL     1      22.956 -25.680  10.382  1.00  0.00     0.005 C 
ATOM     21  C   UNL     1      21.466 -25.416  10.169  1.00  0.00     0.008 C 
ATOM     22  C   UNL     1      20.710 -26.593   9.445  1.00  0.00    -0.017 C 
ATOM     23  C   UNL     1      19.055 -26.452   9.568  1.00  0.00     0.009 C 
ATOM     24  C   UNL     1      18.590 -25.457  10.710  1.00  0.00     0.043 C 
ATOM     25  C   UNL     1      17.105 -25.582  11.155  1.00  0.00     0.124 C 
ATOM     26  C   UNL     1      18.487 -25.763   8.272  1.00  0.00     0.015 C 
ATOM     27  C   UNL     1      21.142 -26.504   7.929  1.00  0.00     0.013 C 
ATOM     28  C   UNL     1      25.741 -26.500  11.874  1.00  0.00     0.017 C 
ATOM     29  C   UNL     1      21.159 -27.756  12.494  1.00  0.00     0.012 C 
ATOM     30  C   UNL     1      15.982 -31.041  13.024  1.00  0.00     0.011 C 
ENDROOT
BRANCH  25  31
ATOM     31  O   UNL     1      16.299 -24.713  10.399  1.00  0.00    -0.392 OA
ATOM     32  H   UNL     1      16.254 -23.855  10.896  1.00  0.00     0.210 HD
ENDBRANCH  25  31
BRANCH  18  33
ATOM     33  C   UNL     1      25.333 -27.295   9.554  1.00  0.00     0.165 C 
BRANCH  33  34
ATOM     34  O   UNL     1      26.681 -26.926   9.494  1.00  0.00    -0.396 OA
ATOM     35  H   UNL     1      27.029 -27.275   8.632  1.00  0.00     0.210 HD
ENDBRANCH  33  34
ENDBRANCH  18  33
BRANCH  17  36
ATOM     36  O   UNL     1      26.319 -29.340  11.226  1.00  0.00    -0.392 OA
ATOM     37  H   UNL     1      26.945 -28.575  11.329  1.00  0.00     0.210 HD
ENDBRANCH  17  36
TORSDOF 4
ENDMDL
