MODEL 1
REMARK VINA RESULT:    -3.494      0.000      0.000
REMARK INTER + INTRA:          -4.632
REMARK INTER:                  -4.209
REMARK INTRA:                  -0.424
REMARK UNBOUND:                -0.424
REMARK SMILES NC(=O)C[C@@H]([NH3+])C(=O)[O-]
REMARK SMILES IDX 4 1 5 2 6 3 7 7 8 8 9 9 2 10 3 11 1 12
REMARK H PARENT 6 4 6 5 6 6 1 13 1 14
REMARK Flexibility Score: inf
ROOT
ATOM      1  C   UNL     1     178.789 162.083 170.282  1.00  0.00     0.171 C 
ENDROOT
BRANCH   1   2
ATOM      2  C   UNL     1     178.275 161.941 168.836  1.00  0.00     0.237 C 
BRANCH   2   3
ATOM      3  N   UNL     1     177.677 160.618 168.604  1.00  0.00    -0.350 N 
ATOM      4  H   UNL     1     177.817 160.010 169.442  1.00  0.00     0.345 HD
ATOM      5  H   UNL     1     178.146 160.155 167.791  1.00  0.00     0.345 HD
ATOM      6  H   UNL     1     176.653 160.704 168.407  1.00  0.00     0.345 HD
ENDBRANCH   2   3
BRANCH   2   7
ATOM      7  C   UNL     1     177.271 163.025 168.542  1.00  0.00     0.100 C 
ATOM      8  O   UNL     1     177.437 163.801 167.564  1.00  0.00    -0.544 OA
ATOM      9  O   UNL     1     176.143 163.161 169.340  1.00  0.00    -0.544 OA
ENDBRANCH   2   7
ENDBRANCH   1   2
BRANCH   1  10
ATOM     10  C   UNL     1     178.199 161.041 171.187  1.00  0.00     0.223 C 
ATOM     11  O   UNL     1     178.859 160.003 171.460  1.00  0.00    -0.275 OA
ATOM     12  N   UNL     1     176.881 161.199 171.711  1.00  0.00    -0.369 N 
ATOM     13  H   UNL     1     176.310 162.040 171.476  1.00  0.00     0.159 HD
ATOM     14  H   UNL     1     176.469 160.466 172.331  1.00  0.00     0.159 HD
ENDBRANCH   1  10
TORSDOF 4
ENDMDL
MODEL 2
REMARK VINA RESULT:    -3.383     21.487     22.799
REMARK INTER + INTRA:          -4.499
REMARK INTER:                  -4.215
REMARK INTRA:                  -0.284
REMARK UNBOUND:                -0.424
REMARK SMILES NC(=O)C[C@@H]([NH3+])C(=O)[O-]
REMARK SMILES IDX 4 1 5 2 6 3 7 7 8 8 9 9 2 10 3 11 1 12
REMARK H PARENT 6 4 6 5 6 6 1 13 1 14
REMARK Flexibility Score: inf
ROOT
ATOM      1  C   UNL     1     161.817 178.638 167.941  1.00  0.00     0.171 C 
ENDROOT
BRANCH   1   2
ATOM      2  C   UNL     1     162.803 178.790 169.116  1.00  0.00     0.237 C 
BRANCH   2   3
ATOM      3  N   UNL     1     162.427 177.934 170.249  1.00  0.00    -0.350 N 
ATOM      4  H   UNL     1     161.476 177.530 170.093  1.00  0.00     0.345 HD
ATOM      5  H   UNL     1     162.392 178.502 171.127  1.00  0.00     0.345 HD
ATOM      6  H   UNL     1     163.116 177.155 170.371  1.00  0.00     0.345 HD
ENDBRANCH   2   3
BRANCH   2   7
ATOM      7  C   UNL     1     164.199 178.461 168.656  1.00  0.00     0.100 C 
ATOM      8  O   UNL     1     164.421 177.422 167.980  1.00  0.00    -0.544 OA
ATOM      9  O   UNL     1     165.250 179.316 168.961  1.00  0.00    -0.544 OA
ENDBRANCH   2   7
ENDBRANCH   1   2
BRANCH   1  10
ATOM     10  C   UNL     1     160.436 178.290 168.416  1.00  0.00     0.223 C 
ATOM     11  O   UNL     1     159.803 179.100 169.145  1.00  0.00    -0.275 OA
ATOM     12  N   UNL     1     159.849 177.033 168.078  1.00  0.00    -0.369 N 
ATOM     13  H   UNL     1     160.368 176.340 167.496  1.00  0.00     0.159 HD
ATOM     14  H   UNL     1     158.892 176.790 168.420  1.00  0.00     0.159 HD
ENDBRANCH   1  10
TORSDOF 4
ENDMDL
MODEL 3
REMARK VINA RESULT:    -3.366      2.102      3.835
REMARK INTER + INTRA:          -4.479
REMARK INTER:                  -4.349
REMARK INTRA:                  -0.129
REMARK UNBOUND:                -0.424
REMARK SMILES NC(=O)C[C@@H]([NH3+])C(=O)[O-]
REMARK SMILES IDX 4 1 5 2 6 3 7 7 8 8 9 9 2 10 3 11 1 12
REMARK H PARENT 6 4 6 5 6 6 1 13 1 14
REMARK Flexibility Score: inf
ROOT
ATOM      1  C   UNL     1     177.148 161.900 167.987  1.00  0.00     0.171 C 
ENDROOT
BRANCH   1   2
ATOM      2  C   UNL     1     176.832 162.323 169.435  1.00  0.00     0.237 C 
BRANCH   2   3
ATOM      3  N   UNL     1     175.558 161.756 169.896  1.00  0.00    -0.350 N 
ATOM      4  H   UNL     1     175.677 160.743 170.124  1.00  0.00     0.345 HD
ATOM      5  H   UNL     1     174.841 161.830 169.137  1.00  0.00     0.345 HD
ATOM      6  H   UNL     1     175.212 162.262 170.745  1.00  0.00     0.345 HD
ENDBRANCH   2   3
BRANCH   2   7
ATOM      7  C   UNL     1     177.952 161.896 170.348  1.00  0.00     0.100 C 
ATOM      8  O   UNL     1     179.121 162.332 170.172  1.00  0.00    -0.544 OA
ATOM      9  O   UNL     1     177.696 161.030 171.403  1.00  0.00    -0.544 OA
ENDBRANCH   2   7
ENDBRANCH   1   2
BRANCH   1  10
ATOM     10  C   UNL     1     177.584 163.068 167.150  1.00  0.00     0.223 C 
ATOM     11  O   UNL     1     178.100 162.868 166.018  1.00  0.00    -0.275 OA
ATOM     12  N   UNL     1     177.450 164.401 167.642  1.00  0.00    -0.369 N 
ATOM     13  H   UNL     1     177.047 164.585 168.587  1.00  0.00     0.159 HD
ATOM     14  H   UNL     1     177.765 165.211 167.061  1.00  0.00     0.159 HD
ENDBRANCH   1  10
TORSDOF 4
ENDMDL
MODEL 4
REMARK VINA RESULT:    -3.303     21.420     22.630
REMARK INTER + INTRA:          -4.403
REMARK INTER:                  -4.326
REMARK INTRA:                  -0.076
REMARK UNBOUND:                -0.424
REMARK SMILES NC(=O)C[C@@H]([NH3+])C(=O)[O-]
REMARK SMILES IDX 4 1 5 2 6 3 7 7 8 8 9 9 2 10 3 11 1 12
REMARK H PARENT 6 4 6 5 6 6 1 13 1 14
REMARK Flexibility Score: inf
ROOT
ATOM      1  C   UNL     1     163.463 178.958 169.541  1.00  0.00     0.171 C 
ENDROOT
BRANCH   1   2
ATOM      2  C   UNL     1     162.181 178.133 169.308  1.00  0.00     0.237 C 
BRANCH   2   3
ATOM      3  N   UNL     1     161.502 177.824 170.574  1.00  0.00    -0.350 N 
ATOM      4  H   UNL     1     160.467 177.903 170.453  1.00  0.00     0.345 HD
ATOM      5  H   UNL     1     161.792 178.510 171.309  1.00  0.00     0.345 HD
ATOM      6  H   UNL     1     161.739 176.857 170.895  1.00  0.00     0.345 HD
ENDBRANCH   2   3
BRANCH   2   7
ATOM      7  C   UNL     1     161.253 178.882 168.388  1.00  0.00     0.100 C 
ATOM      8  O   UNL     1     161.585 179.113 167.196  1.00  0.00    -0.544 OA
ATOM      9  O   UNL     1     160.012 179.305 168.847  1.00  0.00    -0.544 OA
ENDBRANCH   2   7
ENDBRANCH   1   2
BRANCH   1  10
ATOM     10  C   UNL     1     164.558 178.563 168.594  1.00  0.00     0.223 C 
ATOM     11  O   UNL     1     164.503 177.451 168.003  1.00  0.00    -0.275 OA
ATOM     12  N   UNL     1     165.680 179.420 168.385  1.00  0.00    -0.369 N 
ATOM     13  H   UNL     1     165.755 180.334 168.884  1.00  0.00     0.159 HD
ATOM     14  H   UNL     1     166.446 179.137 167.733  1.00  0.00     0.159 HD
ENDBRANCH   1  10
TORSDOF 4
ENDMDL
MODEL 5
REMARK VINA RESULT:    -3.213      1.760      2.068
REMARK INTER + INTRA:          -4.294
REMARK INTER:                  -3.968
REMARK INTRA:                  -0.326
REMARK UNBOUND:                -0.424
REMARK SMILES NC(=O)C[C@@H]([NH3+])C(=O)[O-]
REMARK SMILES IDX 4 1 5 2 6 3 7 7 8 8 9 9 2 10 3 11 1 12
REMARK H PARENT 6 4 6 5 6 6 1 13 1 14
REMARK Flexibility Score: inf
ROOT
ATOM      1  C   UNL     1     178.127 162.449 169.462  1.00  0.00     0.171 C 
ENDROOT
BRANCH   1   2
ATOM      2  C   UNL     1     178.286 161.892 168.034  1.00  0.00     0.237 C 
BRANCH   2   3
ATOM      3  N   UNL     1     177.513 160.656 167.848  1.00  0.00    -0.350 N 
ATOM      4  H   UNL     1     178.004 160.024 167.177  1.00  0.00     0.345 HD
ATOM      5  H   UNL     1     176.574 160.882 167.446  1.00  0.00     0.345 HD
ATOM      6  H   UNL     1     177.386 160.158 168.760  1.00  0.00     0.345 HD
ENDBRANCH   2   3
BRANCH   2   7
ATOM      7  C   UNL     1     177.858 162.930 167.030  1.00  0.00     0.100 C 
ATOM      8  O   UNL     1     177.783 162.642 165.806  1.00  0.00    -0.544 OA
ATOM      9  O   UNL     1     177.523 164.209 167.453  1.00  0.00    -0.544 OA
ENDBRANCH   2   7
ENDBRANCH   1   2
BRANCH   1  10
ATOM     10  C   UNL     1     176.859 161.971 170.107  1.00  0.00     0.223 C 
ATOM     11  O   UNL     1     175.747 162.248 169.582  1.00  0.00    -0.275 OA
ATOM     12  N   UNL     1     176.900 161.235 171.330  1.00  0.00    -0.369 N 
ATOM     13  H   UNL     1     177.810 161.018 171.792  1.00  0.00     0.159 HD
ATOM     14  H   UNL     1     176.015 160.914 171.781  1.00  0.00     0.159 HD
ENDBRANCH   1  10
TORSDOF 4
ENDMDL
MODEL 6
REMARK VINA RESULT:    -3.112      2.313      3.707
REMARK INTER + INTRA:          -4.172
REMARK INTER:                  -3.803
REMARK INTRA:                  -0.369
REMARK UNBOUND:                -0.424
REMARK SMILES NC(=O)C[C@@H]([NH3+])C(=O)[O-]
REMARK SMILES IDX 4 1 5 2 6 3 7 7 8 8 9 9 2 10 3 11 1 12
REMARK H PARENT 6 4 6 5 6 6 1 13 1 14
REMARK Flexibility Score: inf
ROOT
ATOM      1  C   UNL     1     178.989 162.365 167.815  1.00  0.00     0.171 C 
ENDROOT
BRANCH   1   2
ATOM      2  C   UNL     1     178.226 163.251 168.820  1.00  0.00     0.237 C 
BRANCH   2   3
ATOM      3  N   UNL     1     177.574 164.385 168.152  1.00  0.00    -0.350 N 
ATOM      4  H   UNL     1     177.952 165.285 168.523  1.00  0.00     0.345 HD
ATOM      5  H   UNL     1     176.545 164.366 168.344  1.00  0.00     0.345 HD
ATOM      6  H   UNL     1     177.730 164.346 167.118  1.00  0.00     0.345 HD
ENDBRANCH   2   3
BRANCH   2   7
ATOM      7  C   UNL     1     177.206 162.424 169.558  1.00  0.00     0.100 C 
ATOM      8  O   UNL     1     177.563 161.418 170.227  1.00  0.00    -0.544 OA
ATOM      9  O   UNL     1     175.865 162.781 169.520  1.00  0.00    -0.544 OA
ENDBRANCH   2   7
ENDBRANCH   1   2
BRANCH   1  10
ATOM     10  C   UNL     1     178.088 161.856 166.728  1.00  0.00     0.223 C 
ATOM     11  O   UNL     1     177.627 162.657 165.871  1.00  0.00    -0.275 OA
ATOM     12  N   UNL     1     177.720 160.478 166.677  1.00  0.00    -0.369 N 
ATOM     13  H   UNL     1     178.073 159.804 167.392  1.00  0.00     0.159 HD
ATOM     14  H   UNL     1     177.084 160.129 165.925  1.00  0.00     0.159 HD
ENDBRANCH   1  10
TORSDOF 4
ENDMDL
MODEL 7
REMARK VINA RESULT:    -3.037     21.445     22.099
REMARK INTER + INTRA:          -4.081
REMARK INTER:                  -3.588
REMARK INTRA:                  -0.493
REMARK UNBOUND:                -0.424
REMARK SMILES NC(=O)C[C@@H]([NH3+])C(=O)[O-]
REMARK SMILES IDX 4 1 5 2 6 3 7 7 8 8 9 9 2 10 3 11 1 12
REMARK H PARENT 6 4 6 5 6 6 1 13 1 14
REMARK Flexibility Score: inf
ROOT
ATOM      1  C   UNL     1     164.152 177.657 167.645  1.00  0.00     0.171 C 
ENDROOT
BRANCH   1   2
ATOM      2  C   UNL     1     163.004 178.192 166.766  1.00  0.00     0.237 C 
BRANCH   2   3
ATOM      3  N   UNL     1     162.245 179.245 167.455  1.00  0.00    -0.350 N 
ATOM      4  H   UNL     1     162.057 178.963 168.444  1.00  0.00     0.345 HD
ATOM      5  H   UNL     1     161.322 179.385 166.982  1.00  0.00     0.345 HD
ATOM      6  H   UNL     1     162.774 180.148 167.449  1.00  0.00     0.345 HD
ENDBRANCH   2   3
BRANCH   2   7
ATOM      7  C   UNL     1     163.557 178.715 165.466  1.00  0.00     0.100 C 
ATOM      8  O   UNL     1     163.167 178.236 164.369  1.00  0.00    -0.544 OA
ATOM      9  O   UNL     1     164.489 179.744 165.472  1.00  0.00    -0.544 OA
ENDBRANCH   2   7
ENDBRANCH   1   2
BRANCH   1  10
ATOM     10  C   UNL     1     164.587 178.666 168.667  1.00  0.00     0.223 C 
ATOM     11  O   UNL     1     163.950 178.777 169.748  1.00  0.00    -0.275 OA
ATOM     12  N   UNL     1     165.696 179.527 168.408  1.00  0.00    -0.369 N 
ATOM     13  H   UNL     1     166.221 179.466 167.508  1.00  0.00     0.159 HD
ATOM     14  H   UNL     1     165.989 180.237 169.117  1.00  0.00     0.159 HD
ENDBRANCH   1  10
TORSDOF 4
ENDMDL
MODEL 8
REMARK VINA RESULT:    -3.028     16.219     16.972
REMARK INTER + INTRA:          -4.071
REMARK INTER:                  -3.699
REMARK INTRA:                  -0.372
REMARK UNBOUND:                -0.424
REMARK SMILES NC(=O)C[C@@H]([NH3+])C(=O)[O-]
REMARK SMILES IDX 4 1 5 2 6 3 7 7 8 8 9 9 2 10 3 11 1 12
REMARK H PARENT 6 4 6 5 6 6 1 13 1 14
REMARK Flexibility Score: inf
ROOT
ATOM      1  C   UNL     1     176.162 177.543 170.665  1.00  0.00     0.171 C 
ENDROOT
BRANCH   1   2
ATOM      2  C   UNL     1     176.157 178.061 169.213  1.00  0.00     0.237 C 
BRANCH   2   3
ATOM      3  N   UNL     1     175.138 179.101 169.016  1.00  0.00    -0.350 N 
ATOM      4  H   UNL     1     174.485 179.121 169.831  1.00  0.00     0.345 HD
ATOM      5  H   UNL     1     174.574 178.887 168.160  1.00  0.00     0.345 HD
ATOM      6  H   UNL     1     175.583 180.041 168.908  1.00  0.00     0.345 HD
ENDBRANCH   2   3
BRANCH   2   7
ATOM      7  C   UNL     1     177.520 178.594 168.856  1.00  0.00     0.100 C 
ATOM      8  O   UNL     1     178.510 177.820 168.786  1.00  0.00    -0.544 OA
ATOM      9  O   UNL     1     177.688 179.946 168.584  1.00  0.00    -0.544 OA
ENDBRANCH   2   7
ENDBRANCH   1   2
BRANCH   1  10
ATOM     10  C   UNL     1     176.555 178.617 171.637  1.00  0.00     0.223 C 
ATOM     11  O   UNL     1     175.884 179.682 171.696  1.00  0.00    -0.275 OA
ATOM     12  N   UNL     1     177.702 178.456 172.470  1.00  0.00    -0.369 N 
ATOM     13  H   UNL     1     178.284 177.590 172.418  1.00  0.00     0.159 HD
ATOM     14  H   UNL     1     177.979 179.210 173.138  1.00  0.00     0.159 HD
ENDBRANCH   1  10
TORSDOF 4
ENDMDL
MODEL 9
REMARK VINA RESULT:    -3.006     21.703     22.798
REMARK INTER + INTRA:          -4.045
REMARK INTER:                  -3.762
REMARK INTRA:                  -0.282
REMARK UNBOUND:                -0.424
REMARK SMILES NC(=O)C[C@@H]([NH3+])C(=O)[O-]
REMARK SMILES IDX 4 1 5 2 6 3 7 7 8 8 9 9 2 10 3 11 1 12
REMARK H PARENT 6 4 6 5 6 6 1 13 1 14
REMARK Flexibility Score: inf
ROOT
ATOM      1  C   UNL     1     162.281 178.087 166.497  1.00  0.00     0.171 C 
ENDROOT
BRANCH   1   2
ATOM      2  C   UNL     1     162.128 178.643 167.927  1.00  0.00     0.237 C 
BRANCH   2   3
ATOM      3  N   UNL     1     161.050 177.962 168.657  1.00  0.00    -0.350 N 
ATOM      4  H   UNL     1     160.709 177.140 168.109  1.00  0.00     0.345 HD
ATOM      5  H   UNL     1     160.244 178.615 168.789  1.00  0.00     0.345 HD
ATOM      6  H   UNL     1     161.385 177.636 169.593  1.00  0.00     0.345 HD
ENDBRANCH   2   3
BRANCH   2   7
ATOM      7  C   UNL     1     163.431 178.503 168.671  1.00  0.00     0.100 C 
ATOM      8  O   UNL     1     163.562 178.990 169.825  1.00  0.00    -0.544 OA
ATOM      9  O   UNL     1     164.490 177.817 168.093  1.00  0.00    -0.544 OA
ENDBRANCH   2   7
ENDBRANCH   1   2
BRANCH   1  10
ATOM     10  C   UNL     1     161.037 177.384 166.038  1.00  0.00     0.223 C 
ATOM     11  O   UNL     1     159.971 178.038 165.882  1.00  0.00    -0.275 OA
ATOM     12  N   UNL     1     161.042 175.975 165.811  1.00  0.00    -0.369 N 
ATOM     13  H   UNL     1     161.909 175.413 165.959  1.00  0.00     0.159 HD
ATOM     14  H   UNL     1     160.171 175.487 165.503  1.00  0.00     0.159 HD
ENDBRANCH   1  10
TORSDOF 4
ENDMDL
