MODEL 1
REMARK VINA RESULT:    -2.209      0.000      0.000
REMARK INTER + INTRA:          -2.209
REMARK INTER:                  -2.209
REMARK INTRA:                   0.000
REMARK UNBOUND:                 0.000
REMARK SMILES CC(=O)[O-]
REMARK SMILES IDX 1 1 2 2 3 3 4 4
REMARK H PARENT
REMARK Flexibility Score: inf
ROOT
ATOM      1  C   UNL     1      23.474 -26.797  19.991  1.00  0.00     0.063 C 
ATOM      2  C   UNL     1      22.830 -25.485  19.696  1.00  0.00     0.038 C 
ATOM      3  O   UNL     1      21.588 -25.344  19.843  1.00  0.00    -0.550 OA
ATOM      4  O   UNL     1      23.607 -24.400  19.310  1.00  0.00    -0.550 OA
ENDROOT
TORSDOF 0
ENDMDL
MODEL 2
REMARK VINA RESULT:    -2.200     11.712     11.965
REMARK INTER + INTRA:          -2.200
REMARK INTER:                  -2.200
REMARK INTRA:                   0.000
REMARK UNBOUND:                 0.000
REMARK SMILES CC(=O)[O-]
REMARK SMILES IDX 1 1 2 2 3 3 4 4
REMARK H PARENT
REMARK Flexibility Score: inf
ROOT
ATOM      1  C   UNL     1      12.728 -27.610  24.945  1.00  0.00     0.063 C 
ATOM      2  C   UNL     1      12.452 -28.800  24.089  1.00  0.00     0.038 C 
ATOM      3  O   UNL     1      13.144 -29.843  24.217  1.00  0.00    -0.550 OA
ATOM      4  O   UNL     1      11.396 -28.778  23.188  1.00  0.00    -0.550 OA
ENDROOT
TORSDOF 0
ENDMDL
MODEL 3
REMARK VINA RESULT:    -2.190      1.829      2.502
REMARK INTER + INTRA:          -2.190
REMARK INTER:                  -2.190
REMARK INTRA:                   0.000
REMARK UNBOUND:                 0.000
REMARK SMILES CC(=O)[O-]
REMARK SMILES IDX 1 1 2 2 3 3 4 4
REMARK H PARENT
REMARK Flexibility Score: inf
ROOT
ATOM      1  C   UNL     1      23.232 -25.111  19.326  1.00  0.00     0.063 C 
ATOM      2  C   UNL     1      23.662 -24.116  20.350  1.00  0.00     0.038 C 
ATOM      3  O   UNL     1      24.517 -23.239  20.059  1.00  0.00    -0.550 OA
ATOM      4  O   UNL     1      23.081 -24.120  21.611  1.00  0.00    -0.550 OA
ENDROOT
TORSDOF 0
ENDMDL
MODEL 4
REMARK VINA RESULT:    -2.185      1.412      1.751
REMARK INTER + INTRA:          -2.185
REMARK INTER:                  -2.185
REMARK INTRA:                   0.000
REMARK UNBOUND:                 0.000
REMARK SMILES CC(=O)[O-]
REMARK SMILES IDX 1 1 2 2 3 3 4 4
REMARK H PARENT
REMARK Flexibility Score: inf
ROOT
ATOM      1  C   UNL     1      23.749 -24.268  19.590  1.00  0.00     0.063 C 
ATOM      2  C   UNL     1      22.949 -25.525  19.654  1.00  0.00     0.038 C 
ATOM      3  O   UNL     1      21.700 -25.471  19.798  1.00  0.00    -0.550 OA
ATOM      4  O   UNL     1      23.573 -26.756  19.502  1.00  0.00    -0.550 OA
ENDROOT
TORSDOF 0
ENDMDL
MODEL 5
REMARK VINA RESULT:    -2.184     11.803     11.956
REMARK INTER + INTRA:          -2.184
REMARK INTER:                  -2.184
REMARK INTRA:                   0.000
REMARK UNBOUND:                 0.000
REMARK SMILES CC(=O)[O-]
REMARK SMILES IDX 1 1 2 2 3 3 4 4
REMARK H PARENT
REMARK Flexibility Score: inf
ROOT
ATOM      1  C   UNL     1      11.434 -28.423  23.150  1.00  0.00     0.063 C 
ATOM      2  C   UNL     1      12.433 -28.655  24.233  1.00  0.00     0.038 C 
ATOM      3  O   UNL     1      13.081 -29.733  24.274  1.00  0.00    -0.550 OA
ATOM      4  O   UNL     1      12.689 -27.660  25.168  1.00  0.00    -0.550 OA
ENDROOT
TORSDOF 0
ENDMDL
MODEL 6
REMARK VINA RESULT:    -2.140     11.606     11.838
REMARK INTER + INTRA:          -2.140
REMARK INTER:                  -2.140
REMARK INTRA:                   0.000
REMARK UNBOUND:                 0.000
REMARK SMILES CC(=O)[O-]
REMARK SMILES IDX 1 1 2 2 3 3 4 4
REMARK H PARENT
REMARK Flexibility Score: inf
ROOT
ATOM      1  C   UNL     1      13.190 -29.789  23.992  1.00  0.00     0.063 C 
ATOM      2  C   UNL     1      12.367 -28.557  24.163  1.00  0.00     0.038 C 
ATOM      3  O   UNL     1      11.371 -28.355  23.420  1.00  0.00    -0.550 OA
ATOM      4  O   UNL     1      12.665 -27.655  25.176  1.00  0.00    -0.550 OA
ENDROOT
TORSDOF 0
ENDMDL
MODEL 7
REMARK VINA RESULT:    -2.135      1.477      1.905
REMARK INTER + INTRA:          -2.135
REMARK INTER:                  -2.135
REMARK INTRA:                   0.000
REMARK UNBOUND:                 0.000
REMARK SMILES CC(=O)[O-]
REMARK SMILES IDX 1 1 2 2 3 3 4 4
REMARK H PARENT
REMARK Flexibility Score: inf
ROOT
ATOM      1  C   UNL     1      21.226 -25.614  20.065  1.00  0.00     0.063 C 
ATOM      2  C   UNL     1      22.583 -24.995  20.076  1.00  0.00     0.038 C 
ATOM      3  O   UNL     1      23.301 -25.028  19.042  1.00  0.00    -0.550 OA
ATOM      4  O   UNL     1      23.037 -24.333  21.210  1.00  0.00    -0.550 OA
ENDROOT
TORSDOF 0
ENDMDL
MODEL 8
REMARK VINA RESULT:    -2.123     15.750     16.315
REMARK INTER + INTRA:          -2.123
REMARK INTER:                  -2.123
REMARK INTRA:                   0.000
REMARK UNBOUND:                 0.000
REMARK SMILES CC(=O)[O-]
REMARK SMILES IDX 1 1 2 2 3 3 4 4
REMARK H PARENT
REMARK Flexibility Score: inf
ROOT
ATOM      1  C   UNL     1      16.097 -37.989  28.756  1.00  0.00     0.063 C 
ATOM      2  C   UNL     1      17.523 -37.660  29.042  1.00  0.00     0.038 C 
ATOM      3  O   UNL     1      17.949 -37.673  30.226  1.00  0.00    -0.550 OA
ATOM      4  O   UNL     1      18.398 -37.390  27.997  1.00  0.00    -0.550 OA
ENDROOT
TORSDOF 0
ENDMDL
MODEL 9
REMARK VINA RESULT:    -2.106     11.907     12.244
REMARK INTER + INTRA:          -2.106
REMARK INTER:                  -2.106
REMARK INTRA:                   0.000
REMARK UNBOUND:                 0.000
REMARK SMILES CC(=O)[O-]
REMARK SMILES IDX 1 1 2 2 3 3 4 4
REMARK H PARENT
REMARK Flexibility Score: inf
ROOT
ATOM      1  C   UNL     1      10.878 -30.295  21.576  1.00  0.00     0.063 C 
ATOM      2  C   UNL     1      12.256 -30.807  21.829  1.00  0.00     0.038 C 
ATOM      3  O   UNL     1      12.759 -30.723  22.979  1.00  0.00    -0.550 OA
ATOM      4  O   UNL     1      12.966 -31.427  20.809  1.00  0.00    -0.550 OA
ENDROOT
TORSDOF 0
ENDMDL
