MODEL 1
REMARK VINA RESULT:    -3.514      0.000      0.000
REMARK INTER + INTRA:          -4.395
REMARK INTER:                  -4.952
REMARK INTRA:                   0.556
REMARK UNBOUND:                 0.556
REMARK SMILES CC1=CCC(=C(C)C)C(=O)CC(C)=CCC1
REMARK SMILES IDX 12 1 14 2 13 3 15 4 16 5 2 6 1 7 3 8 11 10 9 11 10 12 5 13
REMARK SMILES IDX 6 14 7 15 8 16 4 17
REMARK H PARENT
REMARK Flexibility Score: 60.00
ROOT
ATOM      1  C   UNL     1      -3.475  71.638  24.730  1.00  0.00    -0.070 C 
ATOM      2  C   UNL     1      -3.517  70.654  25.660  1.00  0.00    -0.027 C 
ATOM      3  C   UNL     1      -2.296  71.652  23.787  1.00  0.00     0.039 C 
ENDROOT
BRANCH   2   4
ATOM      4  C   UNL     1      -4.539  70.510  26.763  1.00  0.00     0.032 C 
BRANCH   4   5
ATOM      5  C   UNL     1      -5.311  69.179  26.684  1.00  0.00     0.034 C 
BRANCH   5   6
ATOM      6  C   UNL     1      -5.883  68.930  25.303  1.00  0.00    -0.077 C 
ATOM      7  C   UNL     1      -5.492  67.663  24.584  1.00  0.00     0.039 C 
ATOM      8  C   UNL     1      -6.747  69.767  24.685  1.00  0.00    -0.023 CG0
ATOM      9  G   UNL     1      -7.282  71.060  25.254  1.00  0.00     0.000 G0
ENDBRANCH   5   6
ENDBRANCH   4   5
ENDBRANCH   2   4
BRANCH   1  10
ATOM     10  C   UNL     1      -4.503  72.751  24.630  1.00  0.00     0.111 C 
BRANCH  10  11
ATOM     11  C   UNL     1      -5.664  72.357  23.749  1.00  0.00     0.163 C 
ATOM     12  O   UNL     1      -5.430  72.106  22.537  1.00  0.00    -0.294 OA
BRANCH  11  13
ATOM     13  C   UNL     1      -7.052  72.211  24.287  1.00  0.00    -0.002 C 
ATOM     14  C   UNL     1      -8.039  73.106  23.984  1.00  0.00    -0.069 C 
ATOM     15  C   UNL     1      -9.451  72.931  24.501  1.00  0.00     0.039 C 
ATOM     16  C   UNL     1      -7.764  74.335  23.147  1.00  0.00     0.039 C 
BRANCH  13  17
ATOM     17  C   UNL     1      -7.303  71.063  25.249  1.00  0.00     0.066 CG0
ATOM     18  G   UNL     1      -6.740  69.783  24.676  1.00  0.00     0.000 G0
ENDBRANCH  13  17
ENDBRANCH  11  13
ENDBRANCH  10  11
ENDBRANCH   1  10
TORSDOF 0
ENDMDL
MODEL 2
REMARK VINA RESULT:    -3.465      9.866     11.874
REMARK INTER + INTRA:          -4.327
REMARK INTER:                  -4.691
REMARK INTRA:                   0.364
REMARK UNBOUND:                 0.556
REMARK SMILES CC1=CCC(=C(C)C)C(=O)CC(C)=CCC1
REMARK SMILES IDX 12 1 14 2 13 3 15 4 16 5 2 6 1 7 3 8 11 10 9 11 10 12 5 13
REMARK SMILES IDX 6 14 7 15 8 16 4 17
REMARK H PARENT
REMARK Flexibility Score: 60.00
ROOT
ATOM      1  C   UNL     1      -3.676  68.174  33.856  1.00  0.00    -0.070 C 
ATOM      2  C   UNL     1      -2.910  69.156  34.388  1.00  0.00    -0.027 C 
ATOM      3  C   UNL     1      -3.570  67.938  32.368  1.00  0.00     0.039 C 
ENDROOT
BRANCH   2   4
ATOM      4  C   UNL     1      -2.933  69.632  35.820  1.00  0.00     0.032 C 
BRANCH   4   5
ATOM      5  C   UNL     1      -4.159  70.512  36.132  1.00  0.00     0.034 C 
BRANCH   5   6
ATOM      6  C   UNL     1      -4.855  70.091  37.411  1.00  0.00    -0.077 C 
ATOM      7  C   UNL     1      -4.096  70.203  38.709  1.00  0.00     0.039 C 
ATOM      8  C   UNL     1      -6.130  69.643  37.460  1.00  0.00    -0.023 CG0
ATOM      9  G   UNL     1      -7.059  69.495  36.278  1.00  0.00     0.000 G0
ENDBRANCH   5   6
ENDBRANCH   4   5
ENDBRANCH   2   4
BRANCH   1  10
ATOM     10  C   UNL     1      -4.672  67.353  34.657  1.00  0.00     0.111 C 
BRANCH  10  11
ATOM     11  C   UNL     1      -6.074  67.898  34.525  1.00  0.00     0.163 C 
ATOM     12  O   UNL     1      -6.503  68.157  33.368  1.00  0.00    -0.294 OA
BRANCH  11  13
ATOM     13  C   UNL     1      -6.966  68.083  35.711  1.00  0.00    -0.002 C 
ATOM     14  C   UNL     1      -7.698  67.051  36.228  1.00  0.00    -0.069 C 
ATOM     15  C   UNL     1      -8.570  67.237  37.452  1.00  0.00     0.039 C 
ATOM     16  C   UNL     1      -7.704  65.683  35.584  1.00  0.00     0.039 C 
BRANCH  13  17
ATOM     17  C   UNL     1      -7.082  69.488  36.275  1.00  0.00     0.066 CG0
ATOM     18  G   UNL     1      -6.145  69.647  37.450  1.00  0.00     0.000 G0
ENDBRANCH  13  17
ENDBRANCH  11  13
ENDBRANCH  10  11
ENDBRANCH   1  10
TORSDOF 0
ENDMDL
MODEL 3
REMARK VINA RESULT:    -3.289      9.808     11.734
REMARK INTER + INTRA:          -4.079
REMARK INTER:                  -4.702
REMARK INTRA:                   0.623
REMARK UNBOUND:                 0.556
REMARK SMILES CC1=CCC(=C(C)C)C(=O)CC(C)=CCC1
REMARK SMILES IDX 12 1 14 2 13 3 15 4 16 5 2 6 1 7 3 8 11 10 9 11 10 12 5 13
REMARK SMILES IDX 6 14 7 15 8 16 4 17
REMARK H PARENT
REMARK Flexibility Score: 60.00
ROOT
ATOM      1  C   UNL     1      -4.601  70.316  37.120  1.00  0.00    -0.070 C 
ATOM      2  C   UNL     1      -5.899  70.433  37.488  1.00  0.00    -0.027 C 
ATOM      3  C   UNL     1      -3.555  70.502  38.192  1.00  0.00     0.039 C 
ENDROOT
BRANCH   2   4
ATOM      4  C   UNL     1      -7.096  70.391  36.569  1.00  0.00     0.032 C 
BRANCH   4   5
ATOM      5  C   UNL     1      -8.096  69.282  36.950  1.00  0.00     0.034 C 
BRANCH   5   6
ATOM      6  C   UNL     1      -7.451  67.911  36.965  1.00  0.00    -0.077 C 
ATOM      7  C   UNL     1      -7.547  67.090  38.227  1.00  0.00     0.039 C 
ATOM      8  C   UNL     1      -6.814  67.367  35.904  1.00  0.00    -0.023 CG0
ATOM      9  G   UNL     1      -6.645  68.016  34.550  1.00  0.00     0.000 G0
ENDBRANCH   5   6
ENDBRANCH   4   5
ENDBRANCH   2   4
BRANCH   1  10
ATOM     10  C   UNL     1      -4.147  70.076  35.690  1.00  0.00     0.111 C 
BRANCH  10  11
ATOM     11  C   UNL     1      -4.258  68.619  35.309  1.00  0.00     0.163 C 
ATOM     12  O   UNL     1      -3.597  67.779  35.979  1.00  0.00    -0.294 OA
BRANCH  11  13
ATOM     13  C   UNL     1      -5.159  68.154  34.209  1.00  0.00    -0.002 C 
ATOM     14  C   UNL     1      -4.694  67.935  32.943  1.00  0.00    -0.069 C 
ATOM     15  C   UNL     1      -5.604  67.429  31.845  1.00  0.00     0.039 C 
ATOM     16  C   UNL     1      -3.258  68.220  32.566  1.00  0.00     0.039 C 
BRANCH  13  17
ATOM     17  C   UNL     1      -6.633  68.007  34.541  1.00  0.00     0.066 CG0
ATOM     18  G   UNL     1      -6.791  67.365  35.899  1.00  0.00     0.000 G0
ENDBRANCH  13  17
ENDBRANCH  11  13
ENDBRANCH  10  11
ENDBRANCH   1  10
TORSDOF 0
ENDMDL
MODEL 4
REMARK VINA RESULT:    -3.212      2.037      4.127
REMARK INTER + INTRA:          -3.970
REMARK INTER:                  -4.417
REMARK INTRA:                   0.447
REMARK UNBOUND:                 0.556
REMARK SMILES CC1=CCC(=C(C)C)C(=O)CC(C)=CCC1
REMARK SMILES IDX 12 1 14 2 13 3 15 4 16 5 2 6 1 7 3 8 11 10 9 11 10 12 5 13
REMARK SMILES IDX 6 14 7 15 8 16 4 17
REMARK H PARENT
REMARK Flexibility Score: 60.00
ROOT
ATOM      1  C   UNL     1      -6.794  66.979  24.809  1.00  0.00    -0.070 C 
ATOM      2  C   UNL     1      -6.165  66.275  25.780  1.00  0.00    -0.027 C 
ATOM      3  C   UNL     1      -7.197  66.233  23.559  1.00  0.00     0.039 C 
ENDROOT
BRANCH   2   4
ATOM      4  C   UNL     1      -5.584  66.835  27.056  1.00  0.00     0.032 C 
BRANCH   4   5
ATOM      5  C   UNL     1      -4.129  67.312  26.885  1.00  0.00     0.034 C 
BRANCH   5   6
ATOM      6  C   UNL     1      -3.935  68.738  27.361  1.00  0.00    -0.077 C 
ATOM      7  C   UNL     1      -3.842  68.990  28.845  1.00  0.00     0.039 C 
ATOM      8  C   UNL     1      -3.814  69.797  26.530  1.00  0.00    -0.023 CG0
ATOM      9  G   UNL     1      -3.845  69.743  25.021  1.00  0.00     0.000 G0
ENDBRANCH   5   6
ENDBRANCH   4   5
ENDBRANCH   2   4
BRANCH   1  10
ATOM     10  C   UNL     1      -7.052  68.474  24.882  1.00  0.00     0.111 C 
BRANCH  10  11
ATOM     11  C   UNL     1      -6.124  69.243  23.973  1.00  0.00     0.163 C 
ATOM     12  O   UNL     1      -6.199  69.032  22.733  1.00  0.00    -0.294 OA
BRANCH  11  13
ATOM     13  C   UNL     1      -5.172  70.270  24.499  1.00  0.00    -0.002 C 
ATOM     14  C   UNL     1      -5.457  71.606  24.452  1.00  0.00    -0.069 C 
ATOM     15  C   UNL     1      -4.505  72.637  25.021  1.00  0.00     0.039 C 
ATOM     16  C   UNL     1      -6.718  72.124  23.799  1.00  0.00     0.039 C 
BRANCH  13  17
ATOM     17  C   UNL     1      -3.837  69.770  25.023  1.00  0.00     0.066 CG0
ATOM     18  G   UNL     1      -3.836  69.800  26.533  1.00  0.00     0.000 G0
ENDBRANCH  13  17
ENDBRANCH  11  13
ENDBRANCH  10  11
ENDBRANCH   1  10
TORSDOF 0
ENDMDL
MODEL 5
REMARK VINA RESULT:    -3.197     10.840     12.593
REMARK INTER + INTRA:          -3.948
REMARK INTER:                  -4.746
REMARK INTRA:                   0.797
REMARK UNBOUND:                 0.556
REMARK SMILES CC1=CCC(=C(C)C)C(=O)CC(C)=CCC1
REMARK SMILES IDX 12 1 14 2 13 3 15 4 16 5 2 6 1 7 3 8 11 10 9 11 10 12 5 13
REMARK SMILES IDX 6 14 7 15 8 16 4 17
REMARK H PARENT
REMARK Flexibility Score: 60.00
ROOT
ATOM      1  C   UNL     1      -5.426  67.451  34.924  1.00  0.00    -0.070 C 
ATOM      2  C   UNL     1      -4.277  68.118  34.660  1.00  0.00    -0.027 C 
ATOM      3  C   UNL     1      -6.435  67.335  33.806  1.00  0.00     0.039 C 
ENDROOT
BRANCH   2   4
ATOM      4  C   UNL     1      -3.185  68.444  35.650  1.00  0.00     0.032 C 
BRANCH   4   5
ATOM      5  C   UNL     1      -3.056  69.958  35.912  1.00  0.00     0.034 C 
BRANCH   5   6
ATOM      6  C   UNL     1      -3.566  70.345  37.286  1.00  0.00    -0.077 C 
ATOM      7  C   UNL     1      -2.562  70.530  38.396  1.00  0.00     0.039 C 
ATOM      8  C   UNL     1      -4.870  70.562  37.570  1.00  0.00    -0.023 CG0
ATOM      9  G   UNL     1      -6.015  70.462  36.590  1.00  0.00     0.000 G0
ENDBRANCH   5   6
ENDBRANCH   4   5
ENDBRANCH   2   4
BRANCH   1  10
ATOM     10  C   UNL     1      -5.777  66.880  36.286  1.00  0.00     0.111 C 
BRANCH  10  11
ATOM     11  C   UNL     1      -6.103  67.970  37.279  1.00  0.00     0.163 C 
ATOM     12  O   UNL     1      -5.686  67.839  38.461  1.00  0.00    -0.294 OA
BRANCH  11  13
ATOM     13  C   UNL     1      -6.850  69.204  36.882  1.00  0.00    -0.002 C 
ATOM     14  C   UNL     1      -8.207  69.201  36.719  1.00  0.00    -0.069 C 
ATOM     15  C   UNL     1      -8.961  70.462  36.355  1.00  0.00     0.039 C 
ATOM     16  C   UNL     1      -9.019  67.933  36.858  1.00  0.00     0.039 C 
BRANCH  13  17
ATOM     17  C   UNL     1      -6.028  70.447  36.595  1.00  0.00     0.066 CG0
ATOM     18  G   UNL     1      -4.886  70.544  37.580  1.00  0.00     0.000 G0
ENDBRANCH  13  17
ENDBRANCH  11  13
ENDBRANCH  10  11
ENDBRANCH   1  10
TORSDOF 0
ENDMDL
MODEL 6
REMARK VINA RESULT:    -3.163     11.037     13.002
REMARK INTER + INTRA:          -3.901
REMARK INTER:                  -4.304
REMARK INTRA:                   0.403
REMARK UNBOUND:                 0.556
REMARK SMILES CC1=CCC(=C(C)C)C(=O)CC(C)=CCC1
REMARK SMILES IDX 12 1 14 2 13 3 15 4 16 5 2 6 1 7 3 8 11 10 9 11 10 12 5 13
REMARK SMILES IDX 6 14 7 15 8 16 4 17
REMARK H PARENT
REMARK Flexibility Score: 60.00
ROOT
ATOM      1  C   UNL     1      -4.114  68.614  34.247  1.00  0.00    -0.070 C 
ATOM      2  C   UNL     1      -5.331  68.142  33.886  1.00  0.00    -0.027 C 
ATOM      3  C   UNL     1      -2.936  68.235  33.382  1.00  0.00     0.039 C 
ENDROOT
BRANCH   2   4
ATOM      4  C   UNL     1      -6.619  68.306  34.657  1.00  0.00     0.032 C 
BRANCH   4   5
ATOM      5  C   UNL     1      -6.774  67.261  35.779  1.00  0.00     0.034 C 
BRANCH   5   6
ATOM      6  C   UNL     1      -7.331  67.867  37.052  1.00  0.00    -0.077 C 
ATOM      7  C   UNL     1      -8.776  68.303  37.063  1.00  0.00     0.039 C 
ATOM      8  C   UNL     1      -6.616  68.017  38.188  1.00  0.00    -0.023 CG0
ATOM      9  G   UNL     1      -5.174  67.612  38.383  1.00  0.00     0.000 G0
ENDBRANCH   5   6
ENDBRANCH   4   5
ENDBRANCH   2   4
BRANCH   1  10
ATOM     10  C   UNL     1      -3.866  69.440  35.498  1.00  0.00     0.111 C 
BRANCH  10  11
ATOM     11  C   UNL     1      -3.525  68.567  36.681  1.00  0.00     0.163 C 
ATOM     12  O   UNL     1      -2.590  67.731  36.551  1.00  0.00    -0.294 OA
BRANCH  11  13
ATOM     13  C   UNL     1      -4.224  68.707  37.996  1.00  0.00    -0.002 C 
ATOM     14  C   UNL     1      -3.971  69.755  38.837  1.00  0.00    -0.069 C 
ATOM     15  C   UNL     1      -4.710  69.910  40.149  1.00  0.00     0.039 C 
ATOM     16  C   UNL     1      -2.918  70.791  38.517  1.00  0.00     0.039 C 
BRANCH  13  17
ATOM     17  C   UNL     1      -5.175  67.593  38.394  1.00  0.00     0.066 CG0
ATOM     18  G   UNL     1      -6.602  68.031  38.163  1.00  0.00     0.000 G0
ENDBRANCH  13  17
ENDBRANCH  11  13
ENDBRANCH  10  11
ENDBRANCH   1  10
TORSDOF 0
ENDMDL
MODEL 7
REMARK VINA RESULT:    -3.150      2.017      4.694
REMARK INTER + INTRA:          -3.882
REMARK INTER:                  -4.541
REMARK INTRA:                   0.659
REMARK UNBOUND:                 0.556
REMARK SMILES CC1=CCC(=C(C)C)C(=O)CC(C)=CCC1
REMARK SMILES IDX 12 1 14 2 13 3 15 4 16 5 2 6 1 7 3 8 11 10 9 11 10 12 5 13
REMARK SMILES IDX 6 14 7 15 8 16 4 17
REMARK H PARENT
REMARK Flexibility Score: 60.00
ROOT
ATOM      1  C   UNL     1      -6.546  70.951  24.964  1.00  0.00    -0.070 C 
ATOM      2  C   UNL     1      -5.654  71.251  25.937  1.00  0.00    -0.027 C 
ATOM      3  C   UNL     1      -7.001  72.077  24.066  1.00  0.00     0.039 C 
ENDROOT
BRANCH   2   4
ATOM      4  C   UNL     1      -5.147  70.313  27.005  1.00  0.00     0.032 C 
BRANCH   4   5
ATOM      5  C   UNL     1      -3.628  70.068  26.906  1.00  0.00     0.034 C 
BRANCH   5   6
ATOM      6  C   UNL     1      -3.190  69.753  25.490  1.00  0.00    -0.077 C 
ATOM      7  C   UNL     1      -2.262  70.719  24.797  1.00  0.00     0.039 C 
ATOM      8  C   UNL     1      -3.563  68.641  24.817  1.00  0.00    -0.023 CG0
ATOM      9  G   UNL     1      -4.455  67.545  25.351  1.00  0.00     0.000 G0
ENDBRANCH   5   6
ENDBRANCH   4   5
ENDBRANCH   2   4
BRANCH   1  10
ATOM     10  C   UNL     1      -7.156  69.573  24.772  1.00  0.00     0.111 C 
BRANCH  10  11
ATOM     11  C   UNL     1      -6.285  68.696  23.905  1.00  0.00     0.163 C 
ATOM     12  O   UNL     1      -6.038  69.081  22.731  1.00  0.00    -0.294 OA
BRANCH  11  13
ATOM     13  C   UNL     1      -5.678  67.428  24.419  1.00  0.00    -0.002 C 
ATOM     14  C   UNL     1      -6.218  66.206  24.133  1.00  0.00    -0.069 C 
ATOM     15  C   UNL     1      -5.576  64.925  24.624  1.00  0.00     0.039 C 
ATOM     16  C   UNL     1      -7.500  66.070  23.343  1.00  0.00     0.039 C 
BRANCH  13  17
ATOM     17  C   UNL     1      -4.476  67.561  25.336  1.00  0.00     0.066 CG0
ATOM     18  G   UNL     1      -3.557  68.644  24.822  1.00  0.00     0.000 G0
ENDBRANCH  13  17
ENDBRANCH  11  13
ENDBRANCH  10  11
ENDBRANCH   1  10
TORSDOF 0
ENDMDL
MODEL 8
REMARK VINA RESULT:    -3.129      9.004     10.661
REMARK INTER + INTRA:          -3.854
REMARK INTER:                  -4.472
REMARK INTRA:                   0.618
REMARK UNBOUND:                 0.556
REMARK SMILES CC1=CCC(=C(C)C)C(=O)CC(C)=CCC1
REMARK SMILES IDX 12 1 14 2 13 3 15 4 16 5 2 6 1 7 3 8 11 10 9 11 10 12 5 13
REMARK SMILES IDX 6 14 7 15 8 16 4 17
REMARK H PARENT
REMARK Flexibility Score: 60.00
ROOT
ATOM      1  C   UNL     1      -5.404  67.125  31.862  1.00  0.00    -0.070 C 
ATOM      2  C   UNL     1      -4.067  67.311  31.749  1.00  0.00    -0.027 C 
ATOM      3  C   UNL     1      -5.999  65.922  31.170  1.00  0.00     0.039 C 
ENDROOT
BRANCH   2   4
ATOM      4  C   UNL     1      -3.283  68.493  32.266  1.00  0.00     0.032 C 
BRANCH   4   5
ATOM      5  C   UNL     1      -2.183  68.083  33.265  1.00  0.00     0.034 C 
BRANCH   5   6
ATOM      6  C   UNL     1      -2.720  67.204  34.377  1.00  0.00    -0.077 C 
ATOM      7  C   UNL     1      -2.079  65.856  34.595  1.00  0.00     0.039 C 
ATOM      8  C   UNL     1      -3.726  67.567  35.204  1.00  0.00    -0.023 CG0
ATOM      9  G   UNL     1      -4.467  68.883  35.166  1.00  0.00     0.000 G0
ENDBRANCH   5   6
ENDBRANCH   4   5
ENDBRANCH   2   4
BRANCH   1  10
ATOM     10  C   UNL     1      -6.333  68.087  32.581  1.00  0.00     0.111 C 
BRANCH  10  11
ATOM     11  C   UNL     1      -6.484  67.728  34.040  1.00  0.00     0.163 C 
ATOM     12  O   UNL     1      -7.018  66.623  34.326  1.00  0.00    -0.294 OA
BRANCH  11  13
ATOM     13  C   UNL     1      -5.973  68.615  35.131  1.00  0.00    -0.002 C 
ATOM     14  C   UNL     1      -6.818  69.225  36.016  1.00  0.00    -0.069 C 
ATOM     15  C   UNL     1      -6.291  70.091  37.141  1.00  0.00     0.039 C 
ATOM     16  C   UNL     1      -8.319  69.095  35.896  1.00  0.00     0.039 C 
BRANCH  13  17
ATOM     17  C   UNL     1      -4.477  68.871  35.169  1.00  0.00     0.066 CG0
ATOM     18  G   UNL     1      -3.734  67.556  35.209  1.00  0.00     0.000 G0
ENDBRANCH  13  17
ENDBRANCH  11  13
ENDBRANCH  10  11
ENDBRANCH   1  10
TORSDOF 0
ENDMDL
MODEL 9
REMARK VINA RESULT:    -3.057      9.896     12.100
REMARK INTER + INTRA:          -3.751
REMARK INTER:                  -4.488
REMARK INTRA:                   0.737
REMARK UNBOUND:                 0.556
REMARK SMILES CC1=CCC(=C(C)C)C(=O)CC(C)=CCC1
REMARK SMILES IDX 12 1 14 2 13 3 15 4 16 5 2 6 1 7 3 8 11 10 9 11 10 12 5 13
REMARK SMILES IDX 6 14 7 15 8 16 4 17
REMARK H PARENT
REMARK Flexibility Score: 60.00
ROOT
ATOM      1  C   UNL     1      -7.265  68.436  36.105  1.00  0.00    -0.070 C 
ATOM      2  C   UNL     1      -6.974  69.368  37.044  1.00  0.00    -0.027 C 
ATOM      3  C   UNL     1      -8.169  67.298  36.513  1.00  0.00     0.039 C 
ENDROOT
BRANCH   2   4
ATOM      4  C   UNL     1      -6.015  70.523  36.889  1.00  0.00     0.032 C 
BRANCH   4   5
ATOM      5  C   UNL     1      -4.858  70.473  37.906  1.00  0.00     0.034 C 
BRANCH   5   6
ATOM      6  C   UNL     1      -4.064  69.185  37.806  1.00  0.00    -0.077 C 
ATOM      7  C   UNL     1      -3.962  68.312  39.032  1.00  0.00     0.039 C 
ATOM      8  C   UNL     1      -3.463  68.759  36.674  1.00  0.00    -0.023 CG0
ATOM      9  G   UNL     1      -3.481  69.472  35.342  1.00  0.00     0.000 G0
ENDBRANCH   5   6
ENDBRANCH   4   5
ENDBRANCH   2   4
BRANCH   1  10
ATOM     10  C   UNL     1      -6.682  68.440  34.702  1.00  0.00     0.111 C 
BRANCH  10  11
ATOM     11  C   UNL     1      -5.320  67.790  34.665  1.00  0.00     0.163 C 
ATOM     12  O   UNL     1      -5.242  66.559  34.925  1.00  0.00    -0.294 OA
BRANCH  11  13
ATOM     13  C   UNL     1      -4.091  68.551  34.280  1.00  0.00    -0.002 C 
ATOM     14  C   UNL     1      -3.500  68.392  33.058  1.00  0.00    -0.069 C 
ATOM     15  C   UNL     1      -2.278  69.194  32.662  1.00  0.00     0.039 C 
ATOM     16  C   UNL     1      -4.014  67.385  32.054  1.00  0.00     0.039 C 
BRANCH  13  17
ATOM     17  C   UNL     1      -3.480  69.455  35.336  1.00  0.00     0.066 CG0
ATOM     18  G   UNL     1      -3.466  68.747  36.670  1.00  0.00     0.000 G0
ENDBRANCH  13  17
ENDBRANCH  11  13
ENDBRANCH  10  11
ENDBRANCH   1  10
TORSDOF 0
ENDMDL
