MODEL 1
REMARK VINA RESULT:    -5.125      0.000      0.000
REMARK INTER + INTRA:          -6.318
REMARK INTER:                  -6.024
REMARK INTRA:                  -0.294
REMARK UNBOUND:                -0.294
REMARK SMILES O=c1c(O)c(-c2ccc(O)cc2)oc2cc(O)cc(O)c12
REMARK SMILES IDX 5 1 3 2 2 3 1 4 21 5 19 6 18 7 16 8 15 9 14 10 13 11 6 12
REMARK SMILES IDX 7 13 8 14 9 15 12 16 11 17 10 18 4 20 20 22 17 24
REMARK H PARENT 10 19 4 21 20 23 17 25
REMARK Flexibility Score: inf
ROOT
ATOM      1  C   UNL     1     110.050 141.691  52.624  1.00  0.00     0.180 A 
ATOM      2  C   UNL     1     109.788 140.701  53.586  1.00  0.00     0.208 A 
ATOM      3  C   UNL     1     108.498 140.605  54.132  1.00  0.00     0.238 A 
ATOM      4  O   UNL     1     108.256 139.682  54.952  1.00  0.00    -0.285 OA
ATOM      5  C   UNL     1     107.491 141.511  53.720  1.00  0.00     0.111 A 
ATOM      6  C   UNL     1     106.160 141.532  54.237  1.00  0.00     0.134 A 
ATOM      7  C   UNL     1     105.210 142.386  53.664  1.00  0.00     0.093 A 
ATOM      8  C   UNL     1     105.560 143.267  52.636  1.00  0.00     0.123 A 
ATOM      9  C   UNL     1     106.872 143.295  52.167  1.00  0.00     0.094 A 
ATOM     10  C   UNL     1     107.832 142.430  52.694  1.00  0.00     0.146 A 
ATOM     11  O   UNL     1     109.068 142.482  52.210  1.00  0.00    -0.452 OA
ENDROOT
BRANCH   1  12
ATOM     12  C   UNL     1     111.391 141.868  52.021  1.00  0.00     0.021 A 
ATOM     13  C   UNL     1     111.665 141.304  50.764  1.00  0.00     0.016 A 
ATOM     14  C   UNL     1     112.917 141.479  50.166  1.00  0.00     0.047 A 
ATOM     15  C   UNL     1     113.905 142.234  50.812  1.00  0.00     0.115 A 
ATOM     16  C   UNL     1     112.382 142.642  52.653  1.00  0.00     0.016 A 
ATOM     17  C   UNL     1     113.633 142.816  52.052  1.00  0.00     0.047 A 
BRANCH  15  18
ATOM     18  O   UNL     1     115.156 142.415  50.226  1.00  0.00    -0.508 OA
ATOM     19  H   UNL     1     116.012 142.229  50.736  1.00  0.00     0.293 HD
ENDBRANCH  15  18
ENDBRANCH   1  12
BRANCH   2  20
ATOM     20  O   UNL     1     110.792 139.802  53.961  1.00  0.00    -0.502 OA
ATOM     21  H   UNL     1     110.754 139.274  54.825  1.00  0.00     0.293 HD
ENDBRANCH   2  20
BRANCH   6  22
ATOM     22  O   UNL     1     105.732 140.760  55.321  1.00  0.00    -0.507 OA
ATOM     23  H   UNL     1     105.973 139.792  55.469  1.00  0.00     0.293 HD
ENDBRANCH   6  22
BRANCH   8  24
ATOM     24  O   UNL     1     104.613 144.125  52.082  1.00  0.00    -0.508 OA
ATOM     25  H   UNL     1     104.194 144.872  52.623  1.00  0.00     0.293 HD
ENDBRANCH   8  24
TORSDOF 5
ENDMDL
MODEL 2
REMARK VINA RESULT:    -5.089      9.684     12.576
REMARK INTER + INTRA:          -6.275
REMARK INTER:                  -6.652
REMARK INTRA:                   0.377
REMARK UNBOUND:                -0.294
REMARK SMILES O=c1c(O)c(-c2ccc(O)cc2)oc2cc(O)cc(O)c12
REMARK SMILES IDX 5 1 3 2 2 3 1 4 21 5 19 6 18 7 16 8 15 9 14 10 13 11 6 12
REMARK SMILES IDX 7 13 8 14 9 15 12 16 11 17 10 18 4 20 20 22 17 24
REMARK H PARENT 10 19 4 21 20 23 17 25
REMARK Flexibility Score: inf
ROOT
ATOM      1  C   UNL     1     101.674 136.700  59.685  1.00  0.00     0.180 A 
ATOM      2  C   UNL     1     100.928 137.891  59.674  1.00  0.00     0.208 A 
ATOM      3  C   UNL     1      99.527 137.816  59.725  1.00  0.00     0.238 A 
ATOM      4  O   UNL     1      98.866 138.886  59.770  1.00  0.00    -0.285 OA
ATOM      5  C   UNL     1      98.889 136.553  59.769  1.00  0.00     0.111 A 
ATOM      6  C   UNL     1      97.475 136.358  59.781  1.00  0.00     0.134 A 
ATOM      7  C   UNL     1      96.957 135.070  59.957  1.00  0.00     0.093 A 
ATOM      8  C   UNL     1      97.802 133.960  60.056  1.00  0.00     0.123 A 
ATOM      9  C   UNL     1      99.182 134.134  59.985  1.00  0.00     0.094 A 
ATOM     10  C   UNL     1      99.730 135.411  59.846  1.00  0.00     0.146 A 
ATOM     11  O   UNL     1     101.051 135.534  59.793  1.00  0.00    -0.452 OA
ENDROOT
BRANCH   1  12
ATOM     12  C   UNL     1     103.153 136.698  59.609  1.00  0.00     0.021 A 
ATOM     13  C   UNL     1     103.875 137.782  60.137  1.00  0.00     0.016 A 
ATOM     14  C   UNL     1     105.273 137.789  60.097  1.00  0.00     0.047 A 
ATOM     15  C   UNL     1     105.966 136.705  59.543  1.00  0.00     0.115 A 
ATOM     16  C   UNL     1     103.858 135.604  59.074  1.00  0.00     0.016 A 
ATOM     17  C   UNL     1     105.256 135.614  59.036  1.00  0.00     0.047 A 
BRANCH  15  18
ATOM     18  O   UNL     1     107.359 136.701  59.498  1.00  0.00    -0.508 OA
ATOM     19  H   UNL     1     107.860 136.652  58.619  1.00  0.00     0.293 HD
ENDBRANCH  15  18
ENDBRANCH   1  12
BRANCH   2  20
ATOM     20  O   UNL     1     101.578 139.128  59.654  1.00  0.00    -0.502 OA
ATOM     21  H   UNL     1     101.506 139.767  58.871  1.00  0.00     0.293 HD
ENDBRANCH   2  20
BRANCH   6  22
ATOM     22  O   UNL     1      96.545 137.385  59.598  1.00  0.00    -0.507 OA
ATOM     23  H   UNL     1      95.764 137.570  60.208  1.00  0.00     0.293 HD
ENDBRANCH   6  22
BRANCH   8  24
ATOM     24  O   UNL     1      97.277 132.679  60.215  1.00  0.00    -0.508 OA
ATOM     25  H   UNL     1      96.952 132.348  61.116  1.00  0.00     0.293 HD
ENDBRANCH   8  24
TORSDOF 5
ENDMDL
MODEL 3
REMARK VINA RESULT:    -5.015      3.861      7.173
REMARK INTER + INTRA:          -6.189
REMARK INTER:                  -5.900
REMARK INTRA:                  -0.289
REMARK UNBOUND:                -0.294
REMARK SMILES O=c1c(O)c(-c2ccc(O)cc2)oc2cc(O)cc(O)c12
REMARK SMILES IDX 5 1 3 2 2 3 1 4 21 5 19 6 18 7 16 8 15 9 14 10 13 11 6 12
REMARK SMILES IDX 7 13 8 14 9 15 12 16 11 17 10 18 4 20 20 22 17 24
REMARK H PARENT 10 19 4 21 20 23 17 25
REMARK Flexibility Score: inf
ROOT
ATOM      1  C   UNL     1     108.618 139.323  56.771  1.00  0.00     0.180 A 
ATOM      2  C   UNL     1     109.928 139.705  57.110  1.00  0.00     0.208 A 
ATOM      3  C   UNL     1     110.591 140.647  56.308  1.00  0.00     0.238 A 
ATOM      4  O   UNL     1     111.743 141.025  56.647  1.00  0.00    -0.285 OA
ATOM      5  C   UNL     1     109.944 141.183  55.168  1.00  0.00     0.111 A 
ATOM      6  C   UNL     1     110.536 142.112  54.262  1.00  0.00     0.134 A 
ATOM      7  C   UNL     1     109.759 142.675  53.243  1.00  0.00     0.093 A 
ATOM      8  C   UNL     1     108.427 142.291  53.057  1.00  0.00     0.123 A 
ATOM      9  C   UNL     1     107.858 141.340  53.901  1.00  0.00     0.094 A 
ATOM     10  C   UNL     1     108.598 140.788  54.949  1.00  0.00     0.146 A 
ATOM     11  O   UNL     1     108.014 139.892  55.736  1.00  0.00    -0.452 OA
ENDROOT
BRANCH   1  12
ATOM     12  C   UNL     1     107.864 138.318  57.554  1.00  0.00     0.021 A 
ATOM     13  C   UNL     1     107.977 136.956  57.225  1.00  0.00     0.016 A 
ATOM     14  C   UNL     1     107.291 135.989  57.966  1.00  0.00     0.047 A 
ATOM     15  C   UNL     1     106.496 136.369  59.055  1.00  0.00     0.115 A 
ATOM     16  C   UNL     1     107.079 138.689  58.661  1.00  0.00     0.016 A 
ATOM     17  C   UNL     1     106.395 137.719  59.401  1.00  0.00     0.047 A 
BRANCH  15  18
ATOM     18  O   UNL     1     105.808 135.414  59.800  1.00  0.00    -0.508 OA
ATOM     19  H   UNL     1     105.113 134.811  59.376  1.00  0.00     0.293 HD
ENDBRANCH  15  18
ENDBRANCH   1  12
BRANCH   2  20
ATOM     20  O   UNL     1     110.540 139.180  58.252  1.00  0.00    -0.502 OA
ATOM     21  H   UNL     1     110.382 138.230  58.566  1.00  0.00     0.293 HD
ENDBRANCH   2  20
BRANCH   6  22
ATOM     22  O   UNL     1     111.881 142.492  54.302  1.00  0.00    -0.507 OA
ATOM     23  H   UNL     1     112.426 142.767  53.500  1.00  0.00     0.293 HD
ENDBRANCH   6  22
BRANCH   8  24
ATOM     24  O   UNL     1     107.665 142.845  52.031  1.00  0.00    -0.508 OA
ATOM     25  H   UNL     1     108.007 143.620  51.475  1.00  0.00     0.293 HD
ENDBRANCH   8  24
TORSDOF 5
ENDMDL
MODEL 4
REMARK VINA RESULT:    -4.995      1.853      2.070
REMARK INTER + INTRA:          -6.164
REMARK INTER:                  -5.917
REMARK INTRA:                  -0.247
REMARK UNBOUND:                -0.294
REMARK SMILES O=c1c(O)c(-c2ccc(O)cc2)oc2cc(O)cc(O)c12
REMARK SMILES IDX 5 1 3 2 2 3 1 4 21 5 19 6 18 7 16 8 15 9 14 10 13 11 6 12
REMARK SMILES IDX 7 13 8 14 9 15 12 16 11 17 10 18 4 20 20 22 17 24
REMARK H PARENT 10 19 4 21 20 23 17 25
REMARK Flexibility Score: inf
ROOT
ATOM      1  C   UNL     1     110.080 141.936  52.780  1.00  0.00     0.180 A 
ATOM      2  C   UNL     1     110.565 141.865  54.097  1.00  0.00     0.208 A 
ATOM      3  C   UNL     1     109.655 141.668  55.148  1.00  0.00     0.238 A 
ATOM      4  O   UNL     1     110.100 141.551  56.319  1.00  0.00    -0.285 OA
ATOM      5  C   UNL     1     108.270 141.560  54.870  1.00  0.00     0.111 A 
ATOM      6  C   UNL     1     107.255 141.400  55.861  1.00  0.00     0.134 A 
ATOM      7  C   UNL     1     105.932 141.173  55.464  1.00  0.00     0.093 A 
ATOM      8  C   UNL     1     105.577 141.166  54.112  1.00  0.00     0.123 A 
ATOM      9  C   UNL     1     106.551 141.382  53.140  1.00  0.00     0.094 A 
ATOM     10  C   UNL     1     107.886 141.574  53.504  1.00  0.00     0.146 A 
ATOM     11  O   UNL     1     108.784 141.765  52.546  1.00  0.00    -0.452 OA
ENDROOT
BRANCH   1  12
ATOM     12  C   UNL     1     110.974 142.166  51.623  1.00  0.00     0.021 A 
ATOM     13  C   UNL     1     111.719 141.095  51.100  1.00  0.00     0.016 A 
ATOM     14  C   UNL     1     112.553 141.285  49.993  1.00  0.00     0.047 A 
ATOM     15  C   UNL     1     112.640 142.545  49.386  1.00  0.00     0.115 A 
ATOM     16  C   UNL     1     111.052 143.422  50.995  1.00  0.00     0.016 A 
ATOM     17  C   UNL     1     111.886 143.609  49.887  1.00  0.00     0.047 A 
BRANCH  15  18
ATOM     18  O   UNL     1     113.467 142.746  48.283  1.00  0.00    -0.508 OA
ATOM     19  H   UNL     1     113.332 143.530  47.656  1.00  0.00     0.293 HD
ENDBRANCH  15  18
ENDBRANCH   1  12
BRANCH   2  20
ATOM     20  O   UNL     1     111.938 141.951  54.346  1.00  0.00    -0.502 OA
ATOM     21  H   UNL     1     112.622 142.024  53.603  1.00  0.00     0.293 HD
ENDBRANCH   2  20
BRANCH   6  22
ATOM     22  O   UNL     1     107.489 141.482  57.237  1.00  0.00    -0.507 OA
ATOM     23  H   UNL     1     108.188 140.952  57.735  1.00  0.00     0.293 HD
ENDBRANCH   6  22
BRANCH   8  24
ATOM     24  O   UNL     1     104.255 140.956  53.726  1.00  0.00    -0.508 OA
ATOM     25  H   UNL     1     103.495 140.997  54.394  1.00  0.00     0.293 HD
ENDBRANCH   8  24
TORSDOF 5
ENDMDL
MODEL 5
REMARK VINA RESULT:    -4.900      3.347      6.057
REMARK INTER + INTRA:          -6.053
REMARK INTER:                  -5.784
REMARK INTRA:                  -0.269
REMARK UNBOUND:                -0.294
REMARK SMILES O=c1c(O)c(-c2ccc(O)cc2)oc2cc(O)cc(O)c12
REMARK SMILES IDX 5 1 3 2 2 3 1 4 21 5 19 6 18 7 16 8 15 9 14 10 13 11 6 12
REMARK SMILES IDX 7 13 8 14 9 15 12 16 11 17 10 18 4 20 20 22 17 24
REMARK H PARENT 10 19 4 21 20 23 17 25
REMARK Flexibility Score: inf
ROOT
ATOM      1  C   UNL     1     108.165 140.066  56.168  1.00  0.00     0.180 A 
ATOM      2  C   UNL     1     109.032 140.437  55.126  1.00  0.00     0.208 A 
ATOM      3  C   UNL     1     108.523 141.177  54.047  1.00  0.00     0.238 A 
ATOM      4  O   UNL     1     109.315 141.553  53.145  1.00  0.00    -0.285 OA
ATOM      5  C   UNL     1     107.150 141.522  54.016  1.00  0.00     0.111 A 
ATOM      6  C   UNL     1     106.518 142.234  52.952  1.00  0.00     0.134 A 
ATOM      7  C   UNL     1     105.183 142.635  53.087  1.00  0.00     0.093 A 
ATOM      8  C   UNL     1     104.438 142.292  54.219  1.00  0.00     0.123 A 
ATOM      9  C   UNL     1     105.030 141.545  55.235  1.00  0.00     0.094 A 
ATOM     10  C   UNL     1     106.370 141.163  55.146  1.00  0.00     0.146 A 
ATOM     11  O   UNL     1     106.898 140.461  56.142  1.00  0.00    -0.452 OA
ENDROOT
BRANCH   1  12
ATOM     12  C   UNL     1     108.623 139.265  57.326  1.00  0.00     0.021 A 
ATOM     13  C   UNL     1     108.826 139.895  58.566  1.00  0.00     0.016 A 
ATOM     14  C   UNL     1     109.236 139.154  59.679  1.00  0.00     0.047 A 
ATOM     15  C   UNL     1     109.434 137.772  59.569  1.00  0.00     0.115 A 
ATOM     16  C   UNL     1     108.804 137.874  57.230  1.00  0.00     0.016 A 
ATOM     17  C   UNL     1     109.214 137.135  58.345  1.00  0.00     0.047 A 
BRANCH  15  18
ATOM     18  O   UNL     1     109.843 137.023  60.670  1.00  0.00    -0.508 OA
ATOM     19  H   UNL     1     110.603 137.329  61.266  1.00  0.00     0.293 HD
ENDBRANCH  15  18
ENDBRANCH   1  12
BRANCH   2  20
ATOM     20  O   UNL     1     110.389 140.106  55.189  1.00  0.00    -0.502 OA
ATOM     21  H   UNL     1     111.122 140.802  55.130  1.00  0.00     0.293 HD
ENDBRANCH   2  20
BRANCH   6  22
ATOM     22  O   UNL     1     107.144 142.546  51.742  1.00  0.00    -0.507 OA
ATOM     23  H   UNL     1     107.052 142.011  50.892  1.00  0.00     0.293 HD
ENDBRANCH   6  22
BRANCH   8  24
ATOM     24  O   UNL     1     103.106 142.681  54.338  1.00  0.00    -0.508 OA
ATOM     25  H   UNL     1     102.486 142.699  53.537  1.00  0.00     0.293 HD
ENDBRANCH   8  24
TORSDOF 5
ENDMDL
MODEL 6
REMARK VINA RESULT:    -4.899      4.411      8.179
REMARK INTER + INTRA:          -6.052
REMARK INTER:                  -5.764
REMARK INTRA:                  -0.288
REMARK UNBOUND:                -0.294
REMARK SMILES O=c1c(O)c(-c2ccc(O)cc2)oc2cc(O)cc(O)c12
REMARK SMILES IDX 5 1 3 2 2 3 1 4 21 5 19 6 18 7 16 8 15 9 14 10 13 11 6 12
REMARK SMILES IDX 7 13 8 14 9 15 12 16 11 17 10 18 4 20 20 22 17 24
REMARK H PARENT 10 19 4 21 20 23 17 25
REMARK Flexibility Score: inf
ROOT
ATOM      1  C   UNL     1     108.924 139.390  57.129  1.00  0.00     0.180 A 
ATOM      2  C   UNL     1     108.441 140.272  56.147  1.00  0.00     0.208 A 
ATOM      3  C   UNL     1     109.277 141.301  55.684  1.00  0.00     0.238 A 
ATOM      4  O   UNL     1     108.858 142.053  54.767  1.00  0.00    -0.285 OA
ATOM      5  C   UNL     1     110.580 141.445  56.220  1.00  0.00     0.111 A 
ATOM      6  C   UNL     1     111.497 142.475  55.855  1.00  0.00     0.134 A 
ATOM      7  C   UNL     1     112.805 142.444  56.353  1.00  0.00     0.093 A 
ATOM      8  C   UNL     1     113.209 141.455  57.255  1.00  0.00     0.123 A 
ATOM      9  C   UNL     1     112.303 140.480  57.663  1.00  0.00     0.094 A 
ATOM     10  C   UNL     1     111.002 140.464  57.156  1.00  0.00     0.146 A 
ATOM     11  O   UNL     1     110.173 139.510  57.563  1.00  0.00    -0.452 OA
ENDROOT
BRANCH   1  12
ATOM     12  C   UNL     1     108.094 138.297  57.683  1.00  0.00     0.021 A 
ATOM     13  C   UNL     1     108.266 136.987  57.205  1.00  0.00     0.016 A 
ATOM     14  C   UNL     1     107.508 135.935  57.731  1.00  0.00     0.047 A 
ATOM     15  C   UNL     1     106.580 136.179  58.751  1.00  0.00     0.115 A 
ATOM     16  C   UNL     1     107.174 138.529  58.722  1.00  0.00     0.016 A 
ATOM     17  C   UNL     1     106.418 137.476  59.246  1.00  0.00     0.047 A 
BRANCH  15  18
ATOM     18  O   UNL     1     105.820 135.139  59.282  1.00  0.00    -0.508 OA
ATOM     19  H   UNL     1     105.587 134.319  58.734  1.00  0.00     0.293 HD
ENDBRANCH  15  18
ENDBRANCH   1  12
BRANCH   2  20
ATOM     20  O   UNL     1     107.160 140.098  55.615  1.00  0.00    -0.502 OA
ATOM     21  H   UNL     1     106.354 139.893  56.193  1.00  0.00     0.293 HD
ENDBRANCH   2  20
BRANCH   6  22
ATOM     22  O   UNL     1     111.167 143.558  55.035  1.00  0.00    -0.507 OA
ATOM     23  H   UNL     1     111.619 144.459  55.062  1.00  0.00     0.293 HD
ENDBRANCH   6  22
BRANCH   8  24
ATOM     24  O   UNL     1     114.509 141.441  57.758  1.00  0.00    -0.508 OA
ATOM     25  H   UNL     1     114.729 141.005  58.645  1.00  0.00     0.293 HD
ENDBRANCH   8  24
TORSDOF 5
ENDMDL
MODEL 7
REMARK VINA RESULT:    -4.881      8.808     10.069
REMARK INTER + INTRA:          -6.031
REMARK INTER:                  -5.735
REMARK INTRA:                  -0.296
REMARK UNBOUND:                -0.294
REMARK SMILES O=c1c(O)c(-c2ccc(O)cc2)oc2cc(O)cc(O)c12
REMARK SMILES IDX 5 1 3 2 2 3 1 4 21 5 19 6 18 7 16 8 15 9 14 10 13 11 6 12
REMARK SMILES IDX 7 13 8 14 9 15 12 16 11 17 10 18 4 20 20 22 17 24
REMARK H PARENT 10 19 4 21 20 23 17 25
REMARK Flexibility Score: inf
ROOT
ATOM      1  C   UNL     1     105.611 137.151  60.134  1.00  0.00     0.180 A 
ATOM      2  C   UNL     1     105.334 135.970  59.424  1.00  0.00     0.208 A 
ATOM      3  C   UNL     1     104.000 135.661  59.112  1.00  0.00     0.238 A 
ATOM      4  O   UNL     1     103.763 134.631  58.429  1.00  0.00    -0.285 OA
ATOM      5  C   UNL     1     102.960 136.527  59.527  1.00  0.00     0.111 A 
ATOM      6  C   UNL     1     101.571 136.292  59.301  1.00  0.00     0.134 A 
ATOM      7  C   UNL     1     100.639 137.280  59.640  1.00  0.00     0.093 A 
ATOM      8  C   UNL     1     101.040 138.468  60.257  1.00  0.00     0.123 A 
ATOM      9  C   UNL     1     102.389 138.680  60.536  1.00  0.00     0.094 A 
ATOM     10  C   UNL     1     103.345 137.729  60.177  1.00  0.00     0.146 A 
ATOM     11  O   UNL     1     104.621 137.976  60.451  1.00  0.00    -0.452 OA
ENDROOT
BRANCH   1  12
ATOM     12  C   UNL     1     106.989 137.532  60.520  1.00  0.00     0.021 A 
ATOM     13  C   UNL     1     107.745 138.353  59.667  1.00  0.00     0.016 A 
ATOM     14  C   UNL     1     109.040 138.744  60.023  1.00  0.00     0.047 A 
ATOM     15  C   UNL     1     109.588 138.331  61.244  1.00  0.00     0.115 A 
ATOM     16  C   UNL     1     107.539 137.140  61.754  1.00  0.00     0.016 A 
ATOM     17  C   UNL     1     108.834 137.532  62.108  1.00  0.00     0.047 A 
BRANCH  15  18
ATOM     18  O   UNL     1     110.877 138.714  61.609  1.00  0.00    -0.508 OA
ATOM     19  H   UNL     1     111.391 139.412  61.085  1.00  0.00     0.293 HD
ENDBRANCH  15  18
ENDBRANCH   1  12
BRANCH   2  20
ATOM     20  O   UNL     1     106.378 135.140  59.004  1.00  0.00    -0.502 OA
ATOM     21  H   UNL     1     107.352 135.376  59.151  1.00  0.00     0.293 HD
ENDBRANCH   2  20
BRANCH   6  22
ATOM     22  O   UNL     1     101.057 135.103  58.775  1.00  0.00    -0.507 OA
ATOM     23  H   UNL     1     100.228 134.637  59.110  1.00  0.00     0.293 HD
ENDBRANCH   6  22
BRANCH   8  24
ATOM     24  O   UNL     1     100.104 139.439  60.606  1.00  0.00    -0.508 OA
ATOM     25  H   UNL     1      99.992 140.286  60.062  1.00  0.00     0.293 HD
ENDBRANCH   8  24
TORSDOF 5
ENDMDL
MODEL 8
REMARK VINA RESULT:    -4.868      2.995      6.229
REMARK INTER + INTRA:          -6.015
REMARK INTER:                  -5.722
REMARK INTRA:                  -0.293
REMARK UNBOUND:                -0.294
REMARK SMILES O=c1c(O)c(-c2ccc(O)cc2)oc2cc(O)cc(O)c12
REMARK SMILES IDX 5 1 3 2 2 3 1 4 21 5 19 6 18 7 16 8 15 9 14 10 13 11 6 12
REMARK SMILES IDX 7 13 8 14 9 15 12 16 11 17 10 18 4 20 20 22 17 24
REMARK H PARENT 10 19 4 21 20 23 17 25
REMARK Flexibility Score: inf
ROOT
ATOM      1  C   UNL     1     109.020 140.420  55.517  1.00  0.00     0.180 A 
ATOM      2  C   UNL     1     107.763 140.848  55.058  1.00  0.00     0.208 A 
ATOM      3  C   UNL     1     107.697 141.683  53.932  1.00  0.00     0.238 A 
ATOM      4  O   UNL     1     106.566 142.018  53.493  1.00  0.00    -0.285 OA
ATOM      5  C   UNL     1     108.890 142.094  53.289  1.00  0.00     0.111 A 
ATOM      6  C   UNL     1     108.944 142.973  52.165  1.00  0.00     0.134 A 
ATOM      7  C   UNL     1     110.169 143.207  51.530  1.00  0.00     0.093 A 
ATOM      8  C   UNL     1     111.353 142.647  52.018  1.00  0.00     0.123 A 
ATOM      9  C   UNL     1     111.318 141.836  53.150  1.00  0.00     0.094 A 
ATOM     10  C   UNL     1     110.106 141.555  53.784  1.00  0.00     0.146 A 
ATOM     11  O   UNL     1     110.116 140.769  54.854  1.00  0.00    -0.452 OA
ENDROOT
BRANCH   1  12
ATOM     12  C   UNL     1     109.171 139.558  56.712  1.00  0.00     0.021 A 
ATOM     13  C   UNL     1     109.170 138.161  56.562  1.00  0.00     0.016 A 
ATOM     14  C   UNL     1     109.334 137.329  57.674  1.00  0.00     0.047 A 
ATOM     15  C   UNL     1     109.517 137.884  58.947  1.00  0.00     0.115 A 
ATOM     16  C   UNL     1     109.376 140.107  57.991  1.00  0.00     0.016 A 
ATOM     17  C   UNL     1     109.540 139.272  59.101  1.00  0.00     0.047 A 
BRANCH  15  18
ATOM     18  O   UNL     1     109.681 137.065  60.061  1.00  0.00    -0.508 OA
ATOM     19  H   UNL     1     110.601 136.799  60.392  1.00  0.00     0.293 HD
ENDBRANCH  15  18
ENDBRANCH   1  12
BRANCH   2  20
ATOM     20  O   UNL     1     106.596 140.412  55.694  1.00  0.00    -0.502 OA
ATOM     21  H   UNL     1     105.994 139.701  55.296  1.00  0.00     0.293 HD
ENDBRANCH   2  20
BRANCH   6  22
ATOM     22  O   UNL     1     107.835 143.656  51.655  1.00  0.00    -0.507 OA
ATOM     23  H   UNL     1     107.364 144.416  52.120  1.00  0.00     0.293 HD
ENDBRANCH   6  22
BRANCH   8  24
ATOM     24  O   UNL     1     112.570 142.898  51.389  1.00  0.00    -0.508 OA
ATOM     25  H   UNL     1     112.854 142.388  50.561  1.00  0.00     0.293 HD
ENDBRANCH   8  24
TORSDOF 5
ENDMDL
MODEL 9
REMARK VINA RESULT:    -4.802      3.319      6.075
REMARK INTER + INTRA:          -5.938
REMARK INTER:                  -5.639
REMARK INTRA:                  -0.299
REMARK UNBOUND:                -0.294
REMARK SMILES O=c1c(O)c(-c2ccc(O)cc2)oc2cc(O)cc(O)c12
REMARK SMILES IDX 5 1 3 2 2 3 1 4 21 5 19 6 18 7 16 8 15 9 14 10 13 11 6 12
REMARK SMILES IDX 7 13 8 14 9 15 12 16 11 17 10 18 4 20 20 22 17 24
REMARK H PARENT 10 19 4 21 20 23 17 25
REMARK Flexibility Score: inf
ROOT
ATOM      1  C   UNL     1     109.334 140.324  56.064  1.00  0.00     0.180 A 
ATOM      2  C   UNL     1     110.450 141.040  55.601  1.00  0.00     0.208 A 
ATOM      3  C   UNL     1     110.321 141.833  54.450  1.00  0.00     0.238 A 
ATOM      4  O   UNL     1     111.309 142.515  54.071  1.00  0.00    -0.285 OA
ATOM      5  C   UNL     1     109.082 141.886  53.766  1.00  0.00     0.111 A 
ATOM      6  C   UNL     1     108.849 142.624  52.567  1.00  0.00     0.134 A 
ATOM      7  C   UNL     1     107.551 142.710  52.050  1.00  0.00     0.093 A 
ATOM      8  C   UNL     1     106.489 142.030  52.653  1.00  0.00     0.123 A 
ATOM      9  C   UNL     1     106.719 141.259  53.790  1.00  0.00     0.094 A 
ATOM     10  C   UNL     1     107.996 141.184  54.350  1.00  0.00     0.146 A 
ATOM     11  O   UNL     1     108.168 140.446  55.440  1.00  0.00    -0.452 OA
ENDROOT
BRANCH   1  12
ATOM     12  C   UNL     1     109.399 139.448  57.257  1.00  0.00     0.021 A 
ATOM     13  C   UNL     1     109.051 139.967  58.516  1.00  0.00     0.016 A 
ATOM     14  C   UNL     1     109.083 139.151  59.651  1.00  0.00     0.047 A 
ATOM     15  C   UNL     1     109.449 137.804  59.539  1.00  0.00     0.115 A 
ATOM     16  C   UNL     1     109.745 138.089  57.150  1.00  0.00     0.016 A 
ATOM     17  C   UNL     1     109.776 137.276  58.288  1.00  0.00     0.047 A 
BRANCH  15  18
ATOM     18  O   UNL     1     109.485 136.982  60.664  1.00  0.00    -0.508 OA
ATOM     19  H   UNL     1     110.330 136.494  60.937  1.00  0.00     0.293 HD
ENDBRANCH  15  18
ENDBRANCH   1  12
BRANCH   2  20
ATOM     20  O   UNL     1     111.658 140.992  56.304  1.00  0.00    -0.502 OA
ATOM     21  H   UNL     1     112.049 141.802  56.770  1.00  0.00     0.293 HD
ENDBRANCH   2  20
BRANCH   6  22
ATOM     22  O   UNL     1     109.856 143.262  51.836  1.00  0.00    -0.507 OA
ATOM     23  H   UNL     1     110.838 143.043  51.897  1.00  0.00     0.293 HD
ENDBRANCH   6  22
BRANCH   8  24
ATOM     24  O   UNL     1     105.203 142.109  52.123  1.00  0.00    -0.508 OA
ATOM     25  H   UNL     1     104.817 142.986  51.796  1.00  0.00     0.293 HD
ENDBRANCH   8  24
TORSDOF 5
ENDMDL
