MODEL 1
REMARK VINA RESULT:    -2.527      0.000      0.000
REMARK INTER + INTRA:          -9.621
REMARK INTER:                  -6.368
REMARK INTRA:                  -3.254
REMARK UNBOUND:                -3.254
REMARK SMILES CCCCCCCCCCCCCCCCCCCCCCCCCCCC(=O)[O-]
REMARK SMILES IDX 15 1 16 2 17 3 18 4 19 5 20 6 21 7 22 8 23 9 24 10 25 11
REMARK SMILES IDX 26 12 27 13 28 14 29 15 30 16 14 17 13 18 12 19 11 20 10 21
REMARK SMILES IDX 9 22 8 23 7 24 6 25 5 26 4 27 3 28 2 29 1 30
REMARK H PARENT
REMARK Flexibility Score: inf
ROOT
ATOM      1  C   UNL     1      -4.508  -6.034   5.641  1.00  0.00     0.000 C 
ENDROOT
BRANCH   1   2
ATOM      2  C   UNL     1      -4.391  -4.834   6.596  1.00  0.00     0.000 C 
BRANCH   2   3
ATOM      3  C   UNL     1      -4.072  -3.516   5.867  1.00  0.00     0.000 C 
BRANCH   3   4
ATOM      4  C   UNL     1      -5.233  -2.504   5.792  1.00  0.00     0.000 C 
BRANCH   4   5
ATOM      5  C   UNL     1      -6.275  -2.612   6.920  1.00  0.00     0.000 C 
BRANCH   5   6
ATOM      6  C   UNL     1      -5.635  -2.742   8.312  1.00  0.00     0.000 C 
BRANCH   6   7
ATOM      7  C   UNL     1      -6.683  -2.860   9.433  1.00  0.00     0.000 C 
BRANCH   7   8
ATOM      8  C   UNL     1      -8.091  -3.173   8.898  1.00  0.00     0.000 C 
BRANCH   8   9
ATOM      9  C   UNL     1      -9.169  -3.097  10.001  1.00  0.00     0.000 C 
BRANCH   9  10
ATOM     10  C   UNL     1      -9.853  -1.721  10.107  1.00  0.00     0.000 C 
BRANCH  10  11
ATOM     11  C   UNL     1      -9.125  -0.572   9.387  1.00  0.00     0.000 C 
BRANCH  11  12
ATOM     12  C   UNL     1      -9.991   0.667   9.083  1.00  0.00     0.006 C 
BRANCH  12  13
ATOM     13  C   UNL     1      -9.596   1.409   7.793  1.00  0.00     0.053 C 
BRANCH  13  14
ATOM     14  C   UNL     1      -9.073   2.788   8.060  1.00  0.00     0.041 C 
ATOM     15  O   UNL     1      -8.314   3.000   9.042  1.00  0.00    -0.550 OA
ATOM     16  O   UNL     1      -9.459   3.851   7.250  1.00  0.00    -0.550 OA
ENDBRANCH  13  14
ENDBRANCH  12  13
ENDBRANCH  11  12
ENDBRANCH  10  11
ENDBRANCH   9  10
ENDBRANCH   8   9
ENDBRANCH   7   8
ENDBRANCH   6   7
ENDBRANCH   5   6
ENDBRANCH   4   5
ENDBRANCH   3   4
ENDBRANCH   2   3
ENDBRANCH   1   2
BRANCH   1  17
ATOM     17  C   UNL     1      -5.941  -6.244   5.122  1.00  0.00     0.000 C 
BRANCH  17  18
ATOM     18  C   UNL     1      -6.966  -6.700   6.181  1.00  0.00     0.000 C 
BRANCH  18  19
ATOM     19  C   UNL     1      -8.136  -5.728   6.418  1.00  0.00     0.000 C 
BRANCH  19  20
ATOM     20  C   UNL     1      -9.412  -6.437   6.896  1.00  0.00     0.000 C 
BRANCH  20  21
ATOM     21  C   UNL     1     -10.125  -7.131   5.727  1.00  0.00     0.000 C 
BRANCH  21  22
ATOM     22  C   UNL     1      -9.819  -8.637   5.652  1.00  0.00    -0.000 C 
BRANCH  22  23
ATOM     23  C   UNL     1      -9.154  -9.239   6.908  1.00  0.00    -0.000 C 
BRANCH  23  24
ATOM     24  C   UNL     1     -10.081  -9.421   8.129  1.00  0.00    -0.000 C 
BRANCH  24  25
ATOM     25  C   UNL     1      -9.362  -9.352   9.496  1.00  0.00    -0.000 C 
BRANCH  25  26
ATOM     26  C   UNL     1      -7.927  -9.915   9.473  1.00  0.00    -0.000 C 
BRANCH  26  27
ATOM     27  C   UNL     1      -6.822  -8.890   9.790  1.00  0.00    -0.000 C 
BRANCH  27  28
ATOM     28  C   UNL     1      -7.324  -7.474  10.125  1.00  0.00    -0.000 C 
BRANCH  28  29
ATOM     29  C   UNL     1      -6.300  -6.380   9.785  1.00  0.00    -0.003 C 
ATOM     30  C   UNL     1      -4.929  -6.983   9.489  1.00  0.00     0.004 C 
ENDBRANCH  28  29
ENDBRANCH  27  28
ENDBRANCH  26  27
ENDBRANCH  25  26
ENDBRANCH  24  25
ENDBRANCH  23  24
ENDBRANCH  22  23
ENDBRANCH  21  22
ENDBRANCH  20  21
ENDBRANCH  19  20
ENDBRANCH  18  19
ENDBRANCH  17  18
ENDBRANCH   1  17
TORSDOF 26
ENDMDL
MODEL 2
REMARK VINA RESULT:    -2.046      1.677      3.460
REMARK INTER + INTRA:          -8.410
REMARK INTER:                  -6.199
REMARK INTRA:                  -2.211
REMARK UNBOUND:                -3.254
REMARK SMILES CCCCCCCCCCCCCCCCCCCCCCCCCCCC(=O)[O-]
REMARK SMILES IDX 15 1 16 2 17 3 18 4 19 5 20 6 21 7 22 8 23 9 24 10 25 11
REMARK SMILES IDX 26 12 27 13 28 14 29 15 30 16 14 17 13 18 12 19 11 20 10 21
REMARK SMILES IDX 9 22 8 23 7 24 6 25 5 26 4 27 3 28 2 29 1 30
REMARK H PARENT
REMARK Flexibility Score: inf
ROOT
ATOM      1  C   UNL     1      -5.514  -5.909   6.961  1.00  0.00     0.000 C 
ENDROOT
BRANCH   1   2
ATOM      2  C   UNL     1      -5.973  -4.577   6.346  1.00  0.00     0.000 C 
BRANCH   2   3
ATOM      3  C   UNL     1      -5.868  -3.395   7.326  1.00  0.00     0.000 C 
BRANCH   3   4
ATOM      4  C   UNL     1      -5.078  -3.677   8.620  1.00  0.00     0.000 C 
BRANCH   4   5
ATOM      5  C   UNL     1      -5.821  -3.357   9.929  1.00  0.00     0.000 C 
BRANCH   5   6
ATOM      6  C   UNL     1      -7.325  -3.118   9.718  1.00  0.00     0.000 C 
BRANCH   6   7
ATOM      7  C   UNL     1      -7.759  -1.698  10.123  1.00  0.00     0.000 C 
BRANCH   7   8
ATOM      8  C   UNL     1      -7.513  -0.662   9.012  1.00  0.00     0.000 C 
BRANCH   8   9
ATOM      9  C   UNL     1      -8.786  -0.369   8.191  1.00  0.00     0.000 C 
BRANCH   9  10
ATOM     10  C   UNL     1      -9.978   0.111   9.042  1.00  0.00     0.000 C 
BRANCH  10  11
ATOM     11  C   UNL     1     -10.124   1.638   9.159  1.00  0.00     0.000 C 
BRANCH  11  12
ATOM     12  C   UNL     1      -8.970   2.459   8.549  1.00  0.00     0.006 C 
BRANCH  12  13
ATOM     13  C   UNL     1      -8.695   3.789   9.273  1.00  0.00     0.053 C 
BRANCH  13  14
ATOM     14  C   UNL     1      -7.230   4.094   9.380  1.00  0.00     0.041 C 
ATOM     15  O   UNL     1      -6.844   5.255   9.676  1.00  0.00    -0.550 OA
ATOM     16  O   UNL     1      -6.289   3.106   9.108  1.00  0.00    -0.550 OA
ENDBRANCH  13  14
ENDBRANCH  12  13
ENDBRANCH  11  12
ENDBRANCH  10  11
ENDBRANCH   9  10
ENDBRANCH   8   9
ENDBRANCH   7   8
ENDBRANCH   6   7
ENDBRANCH   5   6
ENDBRANCH   4   5
ENDBRANCH   3   4
ENDBRANCH   2   3
ENDBRANCH   1   2
BRANCH   1  17
ATOM     17  C   UNL     1      -4.963  -6.891   5.912  1.00  0.00     0.000 C 
BRANCH  17  18
ATOM     18  C   UNL     1      -5.942  -7.996   5.464  1.00  0.00     0.000 C 
BRANCH  18  19
ATOM     19  C   UNL     1      -5.620  -9.406   5.993  1.00  0.00     0.000 C 
BRANCH  19  20
ATOM     20  C   UNL     1      -6.587  -9.863   7.095  1.00  0.00     0.000 C 
BRANCH  20  21
ATOM     21  C   UNL     1      -7.325  -8.664   7.708  1.00  0.00     0.000 C 
BRANCH  21  22
ATOM     22  C   UNL     1      -6.516  -7.969   8.816  1.00  0.00    -0.000 C 
BRANCH  22  23
ATOM     23  C   UNL     1      -7.337  -7.488  10.032  1.00  0.00    -0.000 C 
BRANCH  23  24
ATOM     24  C   UNL     1      -8.813  -7.937  10.056  1.00  0.00    -0.000 C 
BRANCH  24  25
ATOM     25  C   UNL     1      -9.737  -7.158   9.092  1.00  0.00    -0.000 C 
BRANCH  25  26
ATOM     26  C   UNL     1      -9.081  -5.906   8.478  1.00  0.00    -0.000 C 
BRANCH  26  27
ATOM     27  C   UNL     1     -10.051  -4.954   7.753  1.00  0.00    -0.000 C 
BRANCH  27  28
ATOM     28  C   UNL     1      -9.950  -4.968   6.217  1.00  0.00    -0.000 C 
BRANCH  28  29
ATOM     29  C   UNL     1      -9.011  -6.064   5.690  1.00  0.00    -0.003 C 
ATOM     30  C   UNL     1      -9.788  -7.326   5.327  1.00  0.00     0.004 C 
ENDBRANCH  28  29
ENDBRANCH  27  28
ENDBRANCH  26  27
ENDBRANCH  25  26
ENDBRANCH  24  25
ENDBRANCH  23  24
ENDBRANCH  22  23
ENDBRANCH  21  22
ENDBRANCH  20  21
ENDBRANCH  19  20
ENDBRANCH  18  19
ENDBRANCH  17  18
ENDBRANCH   1  17
TORSDOF 26
ENDMDL
MODEL 3
REMARK VINA RESULT:    -1.878      2.883      7.740
REMARK INTER + INTRA:          -7.987
REMARK INTER:                  -6.420
REMARK INTRA:                  -1.567
REMARK UNBOUND:                -3.254
REMARK SMILES CCCCCCCCCCCCCCCCCCCCCCCCCCCC(=O)[O-]
REMARK SMILES IDX 15 1 16 2 17 3 18 4 19 5 20 6 21 7 22 8 23 9 24 10 25 11
REMARK SMILES IDX 26 12 27 13 28 14 29 15 30 16 14 17 13 18 12 19 11 20 10 21
REMARK SMILES IDX 9 22 8 23 7 24 6 25 5 26 4 27 3 28 2 29 1 30
REMARK H PARENT
REMARK Flexibility Score: inf
ROOT
ATOM      1  C   UNL     1      -4.145  -4.414   5.388  1.00  0.00     0.000 C 
ENDROOT
BRANCH   1   2
ATOM      2  C   UNL     1      -3.688  -5.554   6.313  1.00  0.00     0.000 C 
BRANCH   2   3
ATOM      3  C   UNL     1      -4.377  -5.524   7.689  1.00  0.00     0.000 C 
BRANCH   3   4
ATOM      4  C   UNL     1      -4.935  -6.876   8.178  1.00  0.00     0.000 C 
BRANCH   4   5
ATOM      5  C   UNL     1      -5.047  -7.029   9.705  1.00  0.00     0.000 C 
BRANCH   5   6
ATOM      6  C   UNL     1      -5.734  -8.339  10.125  1.00  0.00     0.000 C 
BRANCH   6   7
ATOM      7  C   UNL     1      -5.336  -9.526   9.230  1.00  0.00     0.000 C 
BRANCH   7   8
ATOM      8  C   UNL     1      -6.529 -10.108   8.451  1.00  0.00     0.000 C 
BRANCH   8   9
ATOM      9  C   UNL     1      -6.522  -9.688   6.966  1.00  0.00     0.000 C 
BRANCH   9  10
ATOM     10  C   UNL     1      -7.798 -10.088   6.202  1.00  0.00     0.000 C 
BRANCH  10  11
ATOM     11  C   UNL     1      -9.118  -9.790   6.933  1.00  0.00     0.000 C 
BRANCH  11  12
ATOM     12  C   UNL     1     -10.110  -8.894   6.164  1.00  0.00     0.006 C 
BRANCH  12  13
ATOM     13  C   UNL     1      -9.439  -7.794   5.322  1.00  0.00     0.053 C 
BRANCH  13  14
ATOM     14  C   UNL     1      -8.633  -6.844   6.155  1.00  0.00     0.041 C 
ATOM     15  O   UNL     1      -7.803  -6.070   5.610  1.00  0.00    -0.550 OA
ATOM     16  O   UNL     1      -8.765  -6.843   7.539  1.00  0.00    -0.550 OA
ENDBRANCH  13  14
ENDBRANCH  12  13
ENDBRANCH  11  12
ENDBRANCH  10  11
ENDBRANCH   9  10
ENDBRANCH   8   9
ENDBRANCH   7   8
ENDBRANCH   6   7
ENDBRANCH   5   6
ENDBRANCH   4   5
ENDBRANCH   3   4
ENDBRANCH   2   3
ENDBRANCH   1   2
BRANCH   1  17
ATOM     17  C   UNL     1      -5.513  -3.835   5.789  1.00  0.00     0.000 C 
BRANCH  17  18
ATOM     18  C   UNL     1      -5.467  -2.680   6.811  1.00  0.00     0.000 C 
BRANCH  18  19
ATOM     19  C   UNL     1      -6.702  -2.567   7.724  1.00  0.00     0.000 C 
BRANCH  19  20
ATOM     20  C   UNL     1      -7.995  -2.287   6.944  1.00  0.00     0.000 C 
BRANCH  20  21
ATOM     21  C   UNL     1      -9.156  -3.134   7.485  1.00  0.00     0.000 C 
BRANCH  21  22
ATOM     22  C   UNL     1      -8.823  -3.817   8.823  1.00  0.00    -0.000 C 
BRANCH  22  23
ATOM     23  C   UNL     1      -8.889  -2.902  10.065  1.00  0.00    -0.000 C 
BRANCH  23  24
ATOM     24  C   UNL     1     -10.101  -1.948  10.125  1.00  0.00    -0.000 C 
BRANCH  24  25
ATOM     25  C   UNL     1      -9.869  -0.574   9.456  1.00  0.00    -0.000 C 
BRANCH  25  26
ATOM     26  C   UNL     1      -8.459   0.003   9.690  1.00  0.00    -0.000 C 
BRANCH  26  27
ATOM     27  C   UNL     1      -8.212   1.389   9.065  1.00  0.00    -0.000 C 
BRANCH  27  28
ATOM     28  C   UNL     1      -9.186   2.491   9.519  1.00  0.00    -0.000 C 
BRANCH  28  29
ATOM     29  C   UNL     1      -9.114   3.750   8.643  1.00  0.00    -0.003 C 
ATOM     30  C   UNL     1      -9.987   3.605   7.399  1.00  0.00     0.004 C 
ENDBRANCH  28  29
ENDBRANCH  27  28
ENDBRANCH  26  27
ENDBRANCH  25  26
ENDBRANCH  24  25
ENDBRANCH  23  24
ENDBRANCH  22  23
ENDBRANCH  21  22
ENDBRANCH  20  21
ENDBRANCH  19  20
ENDBRANCH  18  19
ENDBRANCH  17  18
ENDBRANCH   1  17
TORSDOF 26
ENDMDL
MODEL 4
REMARK VINA RESULT:    -1.645      1.863      4.283
REMARK INTER + INTRA:          -7.400
REMARK INTER:                  -5.713
REMARK INTRA:                  -1.686
REMARK UNBOUND:                -3.254
REMARK SMILES CCCCCCCCCCCCCCCCCCCCCCCCCCCC(=O)[O-]
REMARK SMILES IDX 15 1 16 2 17 3 18 4 19 5 20 6 21 7 22 8 23 9 24 10 25 11
REMARK SMILES IDX 26 12 27 13 28 14 29 15 30 16 14 17 13 18 12 19 11 20 10 21
REMARK SMILES IDX 9 22 8 23 7 24 6 25 5 26 4 27 3 28 2 29 1 30
REMARK H PARENT
REMARK Flexibility Score: inf
ROOT
ATOM      1  C   UNL     1      -5.749  -4.341   6.878  1.00  0.00     0.000 C 
ENDROOT
BRANCH   1   2
ATOM      2  C   UNL     1      -5.919  -2.815   6.782  1.00  0.00     0.000 C 
BRANCH   2   3
ATOM      3  C   UNL     1      -7.010  -2.272   7.722  1.00  0.00     0.000 C 
BRANCH   3   4
ATOM      4  C   UNL     1      -7.684  -3.321   8.629  1.00  0.00     0.000 C 
BRANCH   4   5
ATOM      5  C   UNL     1      -8.831  -2.792   9.508  1.00  0.00     0.000 C 
BRANCH   5   6
ATOM      6  C   UNL     1      -9.526  -1.560   8.904  1.00  0.00     0.000 C 
BRANCH   6   7
ATOM      7  C   UNL     1      -9.607  -0.385   9.894  1.00  0.00     0.000 C 
BRANCH   7   8
ATOM      8  C   UNL     1      -9.824   0.968   9.194  1.00  0.00     0.000 C 
BRANCH   8   9
ATOM      9  C   UNL     1      -9.243   2.147  10.002  1.00  0.00     0.000 C 
BRANCH   9  10
ATOM     10  C   UNL     1     -10.121   3.413   9.971  1.00  0.00     0.000 C 
BRANCH  10  11
ATOM     11  C   UNL     1      -9.471   4.643   9.315  1.00  0.00     0.000 C 
BRANCH  11  12
ATOM     12  C   UNL     1      -8.086   5.031   9.870  1.00  0.00     0.006 C 
BRANCH  12  13
ATOM     13  C   UNL     1      -7.048   3.895   9.819  1.00  0.00     0.053 C 
BRANCH  13  14
ATOM     14  C   UNL     1      -5.672   4.389   9.488  1.00  0.00     0.041 C 
ATOM     15  O   UNL     1      -5.285   5.515   9.898  1.00  0.00    -0.550 OA
ATOM     16  O   UNL     1      -4.829   3.624   8.688  1.00  0.00    -0.550 OA
ENDBRANCH  13  14
ENDBRANCH  12  13
ENDBRANCH  11  12
ENDBRANCH  10  11
ENDBRANCH   9  10
ENDBRANCH   8   9
ENDBRANCH   7   8
ENDBRANCH   6   7
ENDBRANCH   5   6
ENDBRANCH   4   5
ENDBRANCH   3   4
ENDBRANCH   2   3
ENDBRANCH   1   2
BRANCH   1  17
ATOM     17  C   UNL     1      -4.276  -4.770   6.992  1.00  0.00     0.000 C 
BRANCH  17  18
ATOM     18  C   UNL     1      -3.672  -4.688   8.409  1.00  0.00     0.000 C 
BRANCH  18  19
ATOM     19  C   UNL     1      -3.736  -5.994   9.222  1.00  0.00     0.000 C 
BRANCH  19  20
ATOM     20  C   UNL     1      -5.024  -6.118  10.049  1.00  0.00     0.000 C 
BRANCH  20  21
ATOM     21  C   UNL     1      -5.749  -7.436   9.740  1.00  0.00     0.000 C 
BRANCH  21  22
ATOM     22  C   UNL     1      -5.403  -7.996   8.350  1.00  0.00    -0.000 C 
BRANCH  22  23
ATOM     23  C   UNL     1      -6.245  -9.207   7.896  1.00  0.00    -0.000 C 
BRANCH  23  24
ATOM     24  C   UNL     1      -7.476  -9.526   8.771  1.00  0.00    -0.000 C 
BRANCH  24  25
ATOM     25  C   UNL     1      -8.815  -8.986   8.216  1.00  0.00    -0.000 C 
BRANCH  25  26
ATOM     26  C   UNL     1      -9.139  -9.473   6.790  1.00  0.00    -0.000 C 
BRANCH  26  27
ATOM     27  C   UNL     1      -9.693  -8.391   5.844  1.00  0.00    -0.000 C 
BRANCH  27  28
ATOM     28  C   UNL     1      -8.716  -7.247   5.520  1.00  0.00    -0.000 C 
BRANCH  28  29
ATOM     29  C   UNL     1      -8.547  -6.258   6.684  1.00  0.00    -0.003 C 
ATOM     30  C   UNL     1      -9.883  -5.979   7.367  1.00  0.00     0.004 C 
ENDBRANCH  28  29
ENDBRANCH  27  28
ENDBRANCH  26  27
ENDBRANCH  25  26
ENDBRANCH  24  25
ENDBRANCH  23  24
ENDBRANCH  22  23
ENDBRANCH  21  22
ENDBRANCH  20  21
ENDBRANCH  19  20
ENDBRANCH  18  19
ENDBRANCH  17  18
ENDBRANCH   1  17
TORSDOF 26
ENDMDL
MODEL 5
REMARK VINA RESULT:    -1.619      1.404      3.539
REMARK INTER + INTRA:          -7.334
REMARK INTER:                  -7.101
REMARK INTRA:                  -0.232
REMARK UNBOUND:                -3.254
REMARK SMILES CCCCCCCCCCCCCCCCCCCCCCCCCCCC(=O)[O-]
REMARK SMILES IDX 15 1 16 2 17 3 18 4 19 5 20 6 21 7 22 8 23 9 24 10 25 11
REMARK SMILES IDX 26 12 27 13 28 14 29 15 30 16 14 17 13 18 12 19 11 20 10 21
REMARK SMILES IDX 9 22 8 23 7 24 6 25 5 26 4 27 3 28 2 29 1 30
REMARK H PARENT
REMARK Flexibility Score: inf
ROOT
ATOM      1  C   UNL     1      -5.155  -6.745   9.787  1.00  0.00     0.000 C 
ENDROOT
BRANCH   1   2
ATOM      2  C   UNL     1      -5.563  -6.162   8.423  1.00  0.00     0.000 C 
BRANCH   2   3
ATOM      3  C   UNL     1      -5.330  -4.643   8.325  1.00  0.00     0.000 C 
BRANCH   3   4
ATOM      4  C   UNL     1      -4.996  -3.938   9.655  1.00  0.00     0.000 C 
BRANCH   4   5
ATOM      5  C   UNL     1      -6.024  -2.893  10.123  1.00  0.00     0.000 C 
BRANCH   5   6
ATOM      6  C   UNL     1      -7.369  -3.008   9.386  1.00  0.00     0.000 C 
BRANCH   6   7
ATOM      7  C   UNL     1      -7.409  -2.167   8.099  1.00  0.00     0.000 C 
BRANCH   7   8
ATOM      8  C   UNL     1      -8.421  -1.011   8.176  1.00  0.00     0.000 C 
BRANCH   8   9
ATOM      9  C   UNL     1      -9.263  -1.053   9.469  1.00  0.00     0.000 C 
BRANCH   9  10
ATOM     10  C   UNL     1     -10.071   0.234   9.726  1.00  0.00     0.000 C 
BRANCH  10  11
ATOM     11  C   UNL     1      -9.255   1.537   9.680  1.00  0.00     0.000 C 
BRANCH  11  12
ATOM     12  C   UNL     1      -8.848   2.009   8.270  1.00  0.00     0.006 C 
BRANCH  12  13
ATOM     13  C   UNL     1      -9.188   3.482   7.978  1.00  0.00     0.053 C 
BRANCH  13  14
ATOM     14  C   UNL     1      -8.537   4.425   8.945  1.00  0.00     0.041 C 
ATOM     15  O   UNL     1      -7.283   4.534   8.979  1.00  0.00    -0.550 OA
ATOM     16  O   UNL     1      -9.313   5.154   9.840  1.00  0.00    -0.550 OA
ENDBRANCH  13  14
ENDBRANCH  12  13
ENDBRANCH  11  12
ENDBRANCH  10  11
ENDBRANCH   9  10
ENDBRANCH   8   9
ENDBRANCH   7   8
ENDBRANCH   6   7
ENDBRANCH   5   6
ENDBRANCH   4   5
ENDBRANCH   3   4
ENDBRANCH   2   3
ENDBRANCH   1   2
BRANCH   1  17
ATOM     17  C   UNL     1      -5.753  -8.140  10.040  1.00  0.00     0.000 C 
BRANCH  17  18
ATOM     18  C   UNL     1      -7.283  -8.242   9.873  1.00  0.00     0.000 C 
BRANCH  18  19
ATOM     19  C   UNL     1      -7.969  -6.965   9.354  1.00  0.00     0.000 C 
BRANCH  19  20
ATOM     20  C   UNL     1      -9.388  -7.225   8.825  1.00  0.00     0.000 C 
BRANCH  20  21
ATOM     21  C   UNL     1      -9.589  -6.569   7.451  1.00  0.00     0.000 C 
BRANCH  21  22
ATOM     22  C   UNL     1      -8.556  -7.036   6.411  1.00  0.00    -0.000 C 
BRANCH  22  23
ATOM     23  C   UNL     1      -8.483  -8.562   6.192  1.00  0.00    -0.000 C 
BRANCH  23  24
ATOM     24  C   UNL     1      -7.106  -9.207   6.453  1.00  0.00    -0.000 C 
BRANCH  24  25
ATOM     25  C   UNL     1      -5.914  -8.225   6.382  1.00  0.00    -0.000 C 
BRANCH  25  26
ATOM     26  C   UNL     1      -5.829  -7.444   5.056  1.00  0.00    -0.000 C 
BRANCH  26  27
ATOM     27  C   UNL     1      -5.577  -5.931   5.209  1.00  0.00    -0.000 C 
BRANCH  27  28
ATOM     28  C   UNL     1      -4.113  -5.540   5.477  1.00  0.00    -0.000 C 
BRANCH  28  29
ATOM     29  C   UNL     1      -3.776  -4.121   4.993  1.00  0.00    -0.003 C 
ATOM     30  C   UNL     1      -4.847  -3.123   5.426  1.00  0.00     0.004 C 
ENDBRANCH  28  29
ENDBRANCH  27  28
ENDBRANCH  26  27
ENDBRANCH  25  26
ENDBRANCH  24  25
ENDBRANCH  23  24
ENDBRANCH  22  23
ENDBRANCH  21  22
ENDBRANCH  20  21
ENDBRANCH  19  20
ENDBRANCH  18  19
ENDBRANCH  17  18
ENDBRANCH   1  17
TORSDOF 26
ENDMDL
