MODEL 1
REMARK VINA RESULT:    -5.483      0.000      0.000
REMARK INTER + INTRA:          -7.932
REMARK INTER:                  -7.406
REMARK INTRA:                  -0.527
REMARK UNBOUND:                -0.527
REMARK SMILES CC(=O)CCC=C(C)CCC=C(C)C
REMARK SMILES IDX 7 1 6 2 8 3 9 4 10 5 11 6 13 7 12 8 14 9 5 10 4 11 2 12 3 13
REMARK SMILES IDX 1 14
REMARK H PARENT
REMARK Flexibility Score: inf
ROOT
ATOM      1  C   UNL     1     -23.518 -55.238  24.868  1.00  0.00    -0.077 C 
ATOM      2  C   UNL     1     -23.051 -54.191  24.148  1.00  0.00    -0.028 C 
ATOM      3  C   UNL     1     -22.827 -56.581  24.863  1.00  0.00     0.039 C 
ENDROOT
BRANCH   1   4
ATOM      4  C   UNL     1     -24.758 -55.051  25.715  1.00  0.00     0.034 C 
BRANCH   4   5
ATOM      5  C   UNL     1     -26.022 -55.331  24.897  1.00  0.00     0.032 C 
BRANCH   5   6
ATOM      6  C   UNL     1     -27.237 -54.748  25.576  1.00  0.00    -0.028 C 
ATOM      7  C   UNL     1     -27.554 -52.972  23.840  1.00  0.00     0.039 C 
ATOM      8  C   UNL     1     -27.922 -53.673  25.127  1.00  0.00    -0.080 C 
ATOM      9  C   UNL     1     -29.094 -53.179  25.934  1.00  0.00     0.039 C 
ENDBRANCH   5   6
ENDBRANCH   4   5
ENDBRANCH   1   4
BRANCH   2  10
ATOM     10  C   UNL     1     -21.850 -54.249  23.237  1.00  0.00     0.035 C 
BRANCH  10  11
ATOM     11  C   UNL     1     -20.590 -53.775  23.968  1.00  0.00     0.079 C 
BRANCH  11  12
ATOM     12  C   UNL     1     -20.058 -52.512  23.348  1.00  0.00     0.130 C 
ATOM     13  O   UNL     1     -19.892 -52.452  22.139  1.00  0.00    -0.300 OA
ATOM     14  C   UNL     1     -19.755 -51.317  24.200  1.00  0.00     0.087 C 
ENDBRANCH  11  12
ENDBRANCH  10  11
ENDBRANCH   2  10
TORSDOF 6
ENDMDL
MODEL 2
REMARK VINA RESULT:    -5.435      2.983      6.521
REMARK INTER + INTRA:          -7.867
REMARK INTER:                  -7.037
REMARK INTRA:                  -0.831
REMARK UNBOUND:                -0.527
REMARK SMILES CC(=O)CCC=C(C)CCC=C(C)C
REMARK SMILES IDX 7 1 6 2 8 3 9 4 10 5 11 6 13 7 12 8 14 9 5 10 4 11 2 12 3 13
REMARK SMILES IDX 1 14
REMARK H PARENT
REMARK Flexibility Score: inf
ROOT
ATOM      1  C   UNL     1     -24.002 -54.617  26.346  1.00  0.00    -0.077 C 
ATOM      2  C   UNL     1     -24.972 -54.284  27.229  1.00  0.00    -0.028 C 
ATOM      3  C   UNL     1     -24.305 -55.380  25.078  1.00  0.00     0.039 C 
ENDROOT
BRANCH   1   4
ATOM      4  C   UNL     1     -22.575 -54.198  26.629  1.00  0.00     0.034 C 
BRANCH   4   5
ATOM      5  C   UNL     1     -21.615 -54.814  25.606  1.00  0.00     0.032 C 
BRANCH   5   6
ATOM      6  C   UNL     1     -20.776 -53.745  24.951  1.00  0.00    -0.028 C 
ATOM      7  C   UNL     1     -21.757 -54.138  22.681  1.00  0.00     0.039 C 
ATOM      8  C   UNL     1     -20.810 -53.446  23.633  1.00  0.00    -0.080 C 
ATOM      9  C   UNL     1     -19.882 -52.378  23.114  1.00  0.00     0.039 C 
ENDBRANCH   5   6
ENDBRANCH   4   5
ENDBRANCH   1   4
BRANCH   2  10
ATOM     10  C   UNL     1     -26.423 -54.667  27.088  1.00  0.00     0.035 C 
BRANCH  10  11
ATOM     11  C   UNL     1     -27.296 -53.425  26.881  1.00  0.00     0.079 C 
BRANCH  11  12
ATOM     12  C   UNL     1     -28.062 -53.521  25.590  1.00  0.00     0.130 C 
ATOM     13  O   UNL     1     -29.279 -53.638  25.613  1.00  0.00    -0.300 OA
ATOM     14  C   UNL     1     -27.348 -53.447  24.275  1.00  0.00     0.087 C 
ENDBRANCH  11  12
ENDBRANCH  10  11
ENDBRANCH   2  10
TORSDOF 6
ENDMDL
MODEL 3
REMARK VINA RESULT:    -5.431      3.136      6.532
REMARK INTER + INTRA:          -7.863
REMARK INTER:                  -7.028
REMARK INTRA:                  -0.835
REMARK UNBOUND:                -0.527
REMARK SMILES CC(=O)CCC=C(C)CCC=C(C)C
REMARK SMILES IDX 7 1 6 2 8 3 9 4 10 5 11 6 13 7 12 8 14 9 5 10 4 11 2 12 3 13
REMARK SMILES IDX 1 14
REMARK H PARENT
REMARK Flexibility Score: inf
ROOT
ATOM      1  C   UNL     1     -27.163 -54.163  24.948  1.00  0.00    -0.077 C 
ATOM      2  C   UNL     1     -27.925 -53.920  26.040  1.00  0.00    -0.028 C 
ATOM      3  C   UNL     1     -27.186 -53.255  23.741  1.00  0.00     0.039 C 
ENDROOT
BRANCH   1   4
ATOM      4  C   UNL     1     -26.250 -55.370  24.944  1.00  0.00     0.034 C 
BRANCH   4   5
ATOM      5  C   UNL     1     -24.913 -55.042  25.617  1.00  0.00     0.032 C 
BRANCH   5   6
ATOM      6  C   UNL     1     -23.785 -55.090  24.617  1.00  0.00    -0.028 C 
ATOM      7  C   UNL     1     -23.572 -52.598  24.495  1.00  0.00     0.039 C 
ATOM      8  C   UNL     1     -23.189 -54.001  24.084  1.00  0.00    -0.080 C 
ATOM      9  C   UNL     1     -22.099 -54.205  23.064  1.00  0.00     0.039 C 
ENDBRANCH   5   6
ENDBRANCH   4   5
ENDBRANCH   1   4
BRANCH   2  10
ATOM     10  C   UNL     1     -28.901 -52.777  26.163  1.00  0.00     0.035 C 
BRANCH  10  11
ATOM     11  C   UNL     1     -29.140 -52.422  27.634  1.00  0.00     0.079 C 
BRANCH  11  12
ATOM     12  C   UNL     1     -27.845 -52.070  28.314  1.00  0.00     0.130 C 
ATOM     13  O   UNL     1     -27.409 -52.789  29.200  1.00  0.00    -0.300 OA
ATOM     14  C   UNL     1     -27.071 -50.857  27.893  1.00  0.00     0.087 C 
ENDBRANCH  11  12
ENDBRANCH  10  11
ENDBRANCH   2  10
TORSDOF 6
ENDMDL
MODEL 4
REMARK VINA RESULT:    -5.401      2.589      5.883
REMARK INTER + INTRA:          -7.821
REMARK INTER:                  -6.910
REMARK INTRA:                  -0.912
REMARK UNBOUND:                -0.527
REMARK SMILES CC(=O)CCC=C(C)CCC=C(C)C
REMARK SMILES IDX 7 1 6 2 8 3 9 4 10 5 11 6 13 7 12 8 14 9 5 10 4 11 2 12 3 13
REMARK SMILES IDX 1 14
REMARK H PARENT
REMARK Flexibility Score: inf
ROOT
ATOM      1  C   UNL     1     -23.202 -54.977  24.364  1.00  0.00    -0.077 C 
ATOM      2  C   UNL     1     -24.399 -54.379  24.566  1.00  0.00    -0.028 C 
ATOM      3  C   UNL     1     -22.854 -56.301  25.004  1.00  0.00     0.039 C 
ENDROOT
BRANCH   1   4
ATOM      4  C   UNL     1     -22.190 -54.310  23.458  1.00  0.00     0.034 C 
BRANCH   4   5
ATOM      5  C   UNL     1     -21.101 -53.613  24.279  1.00  0.00     0.032 C 
BRANCH   5   6
ATOM      6  C   UNL     1     -21.384 -52.136  24.398  1.00  0.00    -0.028 C 
ATOM      7  C   UNL     1     -22.218 -52.320  26.752  1.00  0.00     0.039 C 
ATOM      8  C   UNL     1     -21.910 -51.543  25.493  1.00  0.00    -0.080 C 
ATOM      9  C   UNL     1     -22.175 -50.061  25.451  1.00  0.00     0.039 C 
ENDBRANCH   5   6
ENDBRANCH   4   5
ENDBRANCH   1   4
BRANCH   2  10
ATOM     10  C   UNL     1     -25.480 -54.915  25.470  1.00  0.00     0.035 C 
BRANCH  10  11
ATOM     11  C   UNL     1     -26.768 -55.177  24.681  1.00  0.00     0.079 C 
BRANCH  11  12
ATOM     12  C   UNL     1     -27.580 -53.918  24.555  1.00  0.00     0.130 C 
ATOM     13  O   UNL     1     -27.441 -53.201  23.575  1.00  0.00    -0.300 OA
ATOM     14  C   UNL     1     -28.581 -53.550  25.609  1.00  0.00     0.087 C 
ENDBRANCH  11  12
ENDBRANCH  10  11
ENDBRANCH   2  10
TORSDOF 6
ENDMDL
MODEL 5
REMARK VINA RESULT:    -5.275      3.067      6.930
REMARK INTER + INTRA:          -7.652
REMARK INTER:                  -6.676
REMARK INTRA:                  -0.976
REMARK UNBOUND:                -0.527
REMARK SMILES CC(=O)CCC=C(C)CCC=C(C)C
REMARK SMILES IDX 7 1 6 2 8 3 9 4 10 5 11 6 13 7 12 8 14 9 5 10 4 11 2 12 3 13
REMARK SMILES IDX 1 14
REMARK H PARENT
REMARK Flexibility Score: inf
ROOT
ATOM      1  C   UNL     1     -20.788 -52.274  24.391  1.00  0.00    -0.077 C 
ATOM      2  C   UNL     1     -22.067 -51.906  24.636  1.00  0.00    -0.028 C 
ATOM      3  C   UNL     1     -20.246 -53.614  24.829  1.00  0.00     0.039 C 
ENDROOT
BRANCH   1   4
ATOM      4  C   UNL     1     -19.880 -51.323  23.641  1.00  0.00     0.034 C 
BRANCH   4   5
ATOM      5  C   UNL     1     -18.702 -50.889  24.519  1.00  0.00     0.032 C 
BRANCH   5   6
ATOM      6  C   UNL     1     -19.191 -50.157  25.744  1.00  0.00    -0.028 C 
ATOM      7  C   UNL     1     -18.068 -51.734  27.333  1.00  0.00     0.039 C 
ATOM      8  C   UNL     1     -18.935 -50.538  27.015  1.00  0.00    -0.080 C 
ATOM      9  C   UNL     1     -19.525 -49.727  28.141  1.00  0.00     0.039 C 
ENDBRANCH   5   6
ENDBRANCH   4   5
ENDBRANCH   1   4
BRANCH   2  10
ATOM     10  C   UNL     1     -23.064 -52.739  25.401  1.00  0.00     0.035 C 
BRANCH  10  11
ATOM     11  C   UNL     1     -23.908 -53.590  24.446  1.00  0.00     0.079 C 
BRANCH  11  12
ATOM     12  C   UNL     1     -24.108 -54.973  25.000  1.00  0.00     0.130 C 
ATOM     13  O   UNL     1     -25.077 -55.209  25.707  1.00  0.00    -0.300 OA
ATOM     14  C   UNL     1     -23.144 -56.072  24.670  1.00  0.00     0.087 C 
ENDBRANCH  11  12
ENDBRANCH  10  11
ENDBRANCH   2  10
TORSDOF 6
ENDMDL
MODEL 6
REMARK VINA RESULT:    -5.260      2.870      5.204
REMARK INTER + INTRA:          -7.632
REMARK INTER:                  -7.107
REMARK INTRA:                  -0.525
REMARK UNBOUND:                -0.527
REMARK SMILES CC(=O)CCC=C(C)CCC=C(C)C
REMARK SMILES IDX 7 1 6 2 8 3 9 4 10 5 11 6 13 7 12 8 14 9 5 10 4 11 2 12 3 13
REMARK SMILES IDX 1 14
REMARK H PARENT
REMARK Flexibility Score: inf
ROOT
ATOM      1  C   UNL     1     -20.029 -52.289  24.714  1.00  0.00    -0.077 C 
ATOM      2  C   UNL     1     -19.550 -51.641  25.802  1.00  0.00    -0.028 C 
ATOM      3  C   UNL     1     -19.894 -51.717  23.322  1.00  0.00     0.039 C 
ENDROOT
BRANCH   1   4
ATOM      4  C   UNL     1     -20.703 -53.631  24.897  1.00  0.00     0.034 C 
BRANCH   4   5
ATOM      5  C   UNL     1     -21.693 -53.901  23.759  1.00  0.00     0.032 C 
BRANCH   5   6
ATOM      6  C   UNL     1     -23.101 -54.013  24.291  1.00  0.00    -0.028 C 
ATOM      7  C   UNL     1     -22.920 -56.475  24.711  1.00  0.00     0.039 C 
ATOM      8  C   UNL     1     -23.675 -55.166  24.699  1.00  0.00    -0.080 C 
ATOM      9  C   UNL     1     -25.106 -55.129  25.170  1.00  0.00     0.039 C 
ENDBRANCH   5   6
ENDBRANCH   4   5
ENDBRANCH   1   4
BRANCH   2  10
ATOM     10  C   UNL     1     -18.890 -50.286  25.767  1.00  0.00     0.035 C 
BRANCH  10  11
ATOM     11  C   UNL     1     -19.614 -49.305  26.695  1.00  0.00     0.079 C 
BRANCH  11  12
ATOM     12  C   UNL     1     -19.463 -49.721  28.133  1.00  0.00     0.130 C 
ATOM     13  O   UNL     1     -20.444 -50.080  28.767  1.00  0.00    -0.300 OA
ATOM     14  C   UNL     1     -18.113 -49.726  28.785  1.00  0.00     0.087 C 
ENDBRANCH  11  12
ENDBRANCH  10  11
ENDBRANCH   2  10
TORSDOF 6
ENDMDL
MODEL 7
REMARK VINA RESULT:    -5.252      2.783      6.544
REMARK INTER + INTRA:          -7.620
REMARK INTER:                  -6.918
REMARK INTRA:                  -0.702
REMARK UNBOUND:                -0.527
REMARK SMILES CC(=O)CCC=C(C)CCC=C(C)C
REMARK SMILES IDX 7 1 6 2 8 3 9 4 10 5 11 6 13 7 12 8 14 9 5 10 4 11 2 12 3 13
REMARK SMILES IDX 1 14
REMARK H PARENT
REMARK Flexibility Score: inf
ROOT
ATOM      1  C   UNL     1     -21.749 -53.488  23.974  1.00  0.00    -0.077 C 
ATOM      2  C   UNL     1     -22.804 -53.223  24.780  1.00  0.00    -0.028 C 
ATOM      3  C   UNL     1     -21.907 -54.247  22.678  1.00  0.00     0.039 C 
ENDROOT
BRANCH   1   4
ATOM      4  C   UNL     1     -20.376 -52.995  24.376  1.00  0.00     0.034 C 
BRANCH   4   5
ATOM      5  C   UNL     1     -20.242 -51.491  24.118  1.00  0.00     0.032 C 
BRANCH   5   6
ATOM      6  C   UNL     1     -19.676 -50.790  25.328  1.00  0.00    -0.028 C 
ATOM      7  C   UNL     1     -21.878 -49.792  25.980  1.00  0.00     0.039 C 
ATOM      8  C   UNL     1     -20.393 -50.003  26.160  1.00  0.00    -0.080 C 
ATOM      9  C   UNL     1     -19.681 -49.334  27.308  1.00  0.00     0.039 C 
ENDBRANCH   5   6
ENDBRANCH   4   5
ENDBRANCH   1   4
BRANCH   2  10
ATOM     10  C   UNL     1     -24.216 -53.683  24.518  1.00  0.00     0.035 C 
BRANCH  10  11
ATOM     11  C   UNL     1     -24.503 -54.998  25.251  1.00  0.00     0.079 C 
BRANCH  11  12
ATOM     12  C   UNL     1     -25.955 -55.090  25.631  1.00  0.00     0.130 C 
ATOM     13  O   UNL     1     -26.275 -55.100  26.811  1.00  0.00    -0.300 OA
ATOM     14  C   UNL     1     -27.016 -55.141  24.574  1.00  0.00     0.087 C 
ENDBRANCH  11  12
ENDBRANCH  10  11
ENDBRANCH   2  10
TORSDOF 6
ENDMDL
MODEL 8
REMARK VINA RESULT:    -5.236      5.186      7.440
REMARK INTER + INTRA:          -7.599
REMARK INTER:                  -6.545
REMARK INTRA:                  -1.054
REMARK UNBOUND:                -0.527
REMARK SMILES CC(=O)CCC=C(C)CCC=C(C)C
REMARK SMILES IDX 7 1 6 2 8 3 9 4 10 5 11 6 13 7 12 8 14 9 5 10 4 11 2 12 3 13
REMARK SMILES IDX 1 14
REMARK H PARENT
REMARK Flexibility Score: inf
ROOT
ATOM      1  C   UNL     1     -20.323 -49.275  27.032  1.00  0.00    -0.077 C 
ATOM      2  C   UNL     1     -20.248 -50.006  28.169  1.00  0.00    -0.028 C 
ATOM      3  C   UNL     1     -19.131 -48.526  26.485  1.00  0.00     0.039 C 
ENDROOT
BRANCH   1   4
ATOM      4  C   UNL     1     -21.635 -49.222  26.279  1.00  0.00     0.034 C 
BRANCH   4   5
ATOM      5  C   UNL     1     -22.095 -50.630  25.888  1.00  0.00     0.032 C 
BRANCH   5   6
ATOM      6  C   UNL     1     -21.433 -51.071  24.607  1.00  0.00    -0.028 C 
ATOM      7  C   UNL     1     -20.047 -52.824  25.737  1.00  0.00     0.039 C 
ATOM      8  C   UNL     1     -20.492 -52.039  24.526  1.00  0.00    -0.080 C 
ATOM      9  C   UNL     1     -19.890 -52.345  23.179  1.00  0.00     0.039 C 
ENDBRANCH   5   6
ENDBRANCH   4   5
ENDBRANCH   1   4
BRANCH   2  10
ATOM     10  C   UNL     1     -19.017 -50.116  29.033  1.00  0.00     0.035 C 
BRANCH  10  11
ATOM     11  C   UNL     1     -18.223 -51.381  28.690  1.00  0.00     0.079 C 
BRANCH  11  12
ATOM     12  C   UNL     1     -17.012 -51.506  29.573  1.00  0.00     0.130 C 
ATOM     13  O   UNL     1     -15.902 -51.601  29.071  1.00  0.00    -0.300 OA
ATOM     14  C   UNL     1     -17.154 -51.486  31.065  1.00  0.00     0.087 C 
ENDBRANCH  11  12
ENDBRANCH  10  11
ENDBRANCH   2  10
TORSDOF 6
ENDMDL
MODEL 9
REMARK VINA RESULT:    -5.224      3.251      6.245
REMARK INTER + INTRA:          -7.583
REMARK INTER:                  -6.554
REMARK INTRA:                  -1.030
REMARK UNBOUND:                -0.527
REMARK SMILES CC(=O)CCC=C(C)CCC=C(C)C
REMARK SMILES IDX 7 1 6 2 8 3 9 4 10 5 11 6 13 7 12 8 14 9 5 10 4 11 2 12 3 13
REMARK SMILES IDX 1 14
REMARK H PARENT
REMARK Flexibility Score: inf
ROOT
ATOM      1  C   UNL     1     -23.204 -54.954  24.300  1.00  0.00    -0.077 C 
ATOM      2  C   UNL     1     -24.185 -54.296  24.960  1.00  0.00    -0.028 C 
ATOM      3  C   UNL     1     -22.865 -56.394  24.605  1.00  0.00     0.039 C 
ENDROOT
BRANCH   1   4
ATOM      4  C   UNL     1     -22.436 -54.232  23.214  1.00  0.00     0.034 C 
BRANCH   4   5
ATOM      5  C   UNL     1     -20.988 -53.982  23.647  1.00  0.00     0.032 C 
BRANCH   5   6
ATOM      6  C   UNL     1     -20.920 -52.875  24.670  1.00  0.00    -0.028 C 
ATOM      7  C   UNL     1     -20.273 -54.419  26.533  1.00  0.00     0.039 C 
ATOM      8  C   UNL     1     -20.625 -53.059  25.976  1.00  0.00    -0.080 C 
ATOM      9  C   UNL     1     -20.633 -51.861  26.890  1.00  0.00     0.039 C 
ENDBRANCH   5   6
ENDBRANCH   4   5
ENDBRANCH   1   4
BRANCH   2  10
ATOM     10  C   UNL     1     -25.001 -54.882  26.083  1.00  0.00     0.035 C 
BRANCH  10  11
ATOM     11  C   UNL     1     -24.534 -54.337  27.437  1.00  0.00     0.079 C 
BRANCH  11  12
ATOM     12  C   UNL     1     -25.657 -54.361  28.437  1.00  0.00     0.130 C 
ATOM     13  O   UNL     1     -26.816 -54.362  28.050  1.00  0.00    -0.300 OA
ATOM     14  C   UNL     1     -25.364 -54.411  29.907  1.00  0.00     0.087 C 
ENDBRANCH  11  12
ENDBRANCH  10  11
ENDBRANCH   2  10
TORSDOF 6
ENDMDL
