MODEL 1
REMARK VINA RESULT:    -4.730      0.000      0.000
REMARK INTER + INTRA:          -9.601
REMARK INTER:                  -8.325
REMARK INTRA:                  -1.276
REMARK UNBOUND:                -1.276
REMARK SMILES CCCCCCCCCCCCCCC(=O)[O-]
REMARK SMILES IDX 9 1 10 2 11 3 12 4 13 5 14 6 15 7 16 8 17 9 8 10 7 11 6 12
REMARK SMILES IDX 5 13 4 14 3 15 2 16 1 17
REMARK H PARENT
REMARK Flexibility Score: inf
ROOT
ATOM      1  C   UNL     1     -10.682 -37.074  44.081  1.00  0.00     0.000 C 
ENDROOT
BRANCH   1   2
ATOM      2  C   UNL     1      -9.754 -35.848  44.155  1.00  0.00     0.000 C 
BRANCH   2   3
ATOM      3  C   UNL     1     -10.451 -34.519  44.510  1.00  0.00     0.000 C 
BRANCH   3   4
ATOM      4  C   UNL     1     -10.636 -33.540  43.334  1.00  0.00     0.000 C 
BRANCH   4   5
ATOM      5  C   UNL     1      -9.969 -33.975  42.017  1.00  0.00     0.006 C 
BRANCH   5   6
ATOM      6  C   UNL     1      -9.151 -32.854  41.365  1.00  0.00     0.053 C 
BRANCH   6   7
ATOM      7  C   UNL     1      -7.720 -32.936  41.791  1.00  0.00     0.041 C 
ATOM      8  O   UNL     1      -7.358 -32.445  42.894  1.00  0.00    -0.550 OA
ATOM      9  O   UNL     1      -6.793 -33.595  40.994  1.00  0.00    -0.550 OA
ENDBRANCH   6   7
ENDBRANCH   5   6
ENDBRANCH   4   5
ENDBRANCH   3   4
ENDBRANCH   2   3
ENDBRANCH   1   2
BRANCH   1  10
ATOM     10  C   UNL     1      -9.976 -38.381  44.479  1.00  0.00     0.000 C 
BRANCH  10  11
ATOM     11  C   UNL     1      -8.618 -38.142  45.161  1.00  0.00    -0.000 C 
BRANCH  11  12
ATOM     12  C   UNL     1      -8.440 -38.820  46.535  1.00  0.00    -0.000 C 
BRANCH  12  13
ATOM     13  C   UNL     1      -8.744 -37.933  47.761  1.00  0.00    -0.000 C 
BRANCH  13  14
ATOM     14  C   UNL     1     -10.166 -37.338  47.790  1.00  0.00    -0.000 C 
BRANCH  14  15
ATOM     15  C   UNL     1     -11.140 -38.106  48.712  1.00  0.00    -0.000 C 
BRANCH  15  16
ATOM     16  C   UNL     1     -11.284 -39.594  48.347  1.00  0.00    -0.003 C 
ATOM     17  C   UNL     1     -12.112 -39.815  47.083  1.00  0.00     0.004 C 
ENDBRANCH  15  16
ENDBRANCH  14  15
ENDBRANCH  13  14
ENDBRANCH  12  13
ENDBRANCH  11  12
ENDBRANCH  10  11
ENDBRANCH   1  10
TORSDOF 13
ENDMDL
MODEL 2
REMARK VINA RESULT:    -4.708      1.195      2.245
REMARK INTER + INTRA:          -9.562
REMARK INTER:                  -8.248
REMARK INTRA:                  -1.314
REMARK UNBOUND:                -1.276
REMARK SMILES CCCCCCCCCCCCCCC(=O)[O-]
REMARK SMILES IDX 9 1 10 2 11 3 12 4 13 5 14 6 15 7 16 8 17 9 8 10 7 11 6 12
REMARK SMILES IDX 5 13 4 14 3 15 2 16 1 17
REMARK H PARENT
REMARK Flexibility Score: inf
ROOT
ATOM      1  C   UNL     1      -9.561 -36.867  44.364  1.00  0.00     0.000 C 
ENDROOT
BRANCH   1   2
ATOM      2  C   UNL     1     -10.215 -35.899  45.366  1.00  0.00     0.000 C 
BRANCH   2   3
ATOM      3  C   UNL     1     -10.466 -34.474  44.834  1.00  0.00     0.000 C 
BRANCH   3   4
ATOM      4  C   UNL     1      -9.573 -34.046  43.653  1.00  0.00     0.000 C 
BRANCH   4   5
ATOM      5  C   UNL     1     -10.329 -33.448  42.453  1.00  0.00     0.006 C 
BRANCH   5   6
ATOM      6  C   UNL     1      -9.557 -33.586  41.135  1.00  0.00     0.053 C 
BRANCH   6   7
ATOM      7  C   UNL     1      -8.281 -32.809  41.193  1.00  0.00     0.041 C 
ATOM      8  O   UNL     1      -8.307 -31.559  41.354  1.00  0.00    -0.550 OA
ATOM      9  O   UNL     1      -7.060 -33.467  41.118  1.00  0.00    -0.550 OA
ENDBRANCH   6   7
ENDBRANCH   5   6
ENDBRANCH   4   5
ENDBRANCH   3   4
ENDBRANCH   2   3
ENDBRANCH   1   2
BRANCH   1  10
ATOM     10  C   UNL     1     -10.005 -38.325  44.566  1.00  0.00     0.000 C 
BRANCH  10  11
ATOM     11  C   UNL     1     -11.514 -38.526  44.344  1.00  0.00    -0.000 C 
BRANCH  11  12
ATOM     12  C   UNL     1     -12.334 -38.834  45.613  1.00  0.00    -0.000 C 
BRANCH  12  13
ATOM     13  C   UNL     1     -12.228 -40.281  46.140  1.00  0.00    -0.000 C 
BRANCH  13  14
ATOM     14  C   UNL     1     -11.375 -40.444  47.414  1.00  0.00    -0.000 C 
BRANCH  14  15
ATOM     15  C   UNL     1     -11.052 -39.107  48.118  1.00  0.00    -0.000 C 
BRANCH  15  16
ATOM     16  C   UNL     1      -9.549 -38.783  48.156  1.00  0.00    -0.003 C 
ATOM     17  C   UNL     1      -8.673 -40.033  48.131  1.00  0.00     0.004 C 
ENDBRANCH  15  16
ENDBRANCH  14  15
ENDBRANCH  13  14
ENDBRANCH  12  13
ENDBRANCH  11  12
ENDBRANCH  10  11
ENDBRANCH   1  10
TORSDOF 13
ENDMDL
MODEL 3
REMARK VINA RESULT:    -4.698      1.416      2.080
REMARK INTER + INTRA:          -9.544
REMARK INTER:                  -8.129
REMARK INTRA:                  -1.415
REMARK UNBOUND:                -1.276
REMARK SMILES CCCCCCCCCCCCCCC(=O)[O-]
REMARK SMILES IDX 9 1 10 2 11 3 12 4 13 5 14 6 15 7 16 8 17 9 8 10 7 11 6 12
REMARK SMILES IDX 5 13 4 14 3 15 2 16 1 17
REMARK H PARENT
REMARK Flexibility Score: inf
ROOT
ATOM      1  C   UNL     1     -11.576 -38.914  44.637  1.00  0.00     0.000 C 
ENDROOT
BRANCH   1   2
ATOM      2  C   UNL     1     -10.998 -37.570  44.159  1.00  0.00     0.000 C 
BRANCH   2   3
ATOM      3  C   UNL     1     -10.821 -36.504  45.259  1.00  0.00     0.000 C 
BRANCH   3   4
ATOM      4  C   UNL     1     -10.589 -35.068  44.750  1.00  0.00     0.000 C 
BRANCH   4   5
ATOM      5  C   UNL     1     -10.007 -34.970  43.329  1.00  0.00     0.006 C 
BRANCH   5   6
ATOM      6  C   UNL     1     -10.181 -33.578  42.709  1.00  0.00     0.053 C 
BRANCH   6   7
ATOM      7  C   UNL     1      -9.279 -33.416  41.528  1.00  0.00     0.041 C 
ATOM      8  O   UNL     1      -8.029 -33.491  41.669  1.00  0.00    -0.550 OA
ATOM      9  O   UNL     1      -9.817 -33.229  40.261  1.00  0.00    -0.550 OA
ENDBRANCH   6   7
ENDBRANCH   5   6
ENDBRANCH   4   5
ENDBRANCH   3   4
ENDBRANCH   2   3
ENDBRANCH   1   2
BRANCH   1  10
ATOM     10  C   UNL     1     -10.566 -40.070  44.530  1.00  0.00     0.000 C 
BRANCH  10  11
ATOM     11  C   UNL     1      -9.136 -39.586  44.232  1.00  0.00    -0.000 C 
BRANCH  11  12
ATOM     12  C   UNL     1      -8.135 -39.726  45.397  1.00  0.00    -0.000 C 
BRANCH  12  13
ATOM     13  C   UNL     1      -8.566 -39.075  46.728  1.00  0.00    -0.000 C 
BRANCH  13  14
ATOM     14  C   UNL     1      -8.564 -40.024  47.942  1.00  0.00    -0.000 C 
BRANCH  14  15
ATOM     15  C   UNL     1      -9.883 -40.004  48.746  1.00  0.00    -0.000 C 
BRANCH  15  16
ATOM     16  C   UNL     1     -10.938 -39.046  48.168  1.00  0.00    -0.003 C 
ATOM     17  C   UNL     1     -11.645 -38.224  49.244  1.00  0.00     0.004 C 
ENDBRANCH  15  16
ENDBRANCH  14  15
ENDBRANCH  13  14
ENDBRANCH  12  13
ENDBRANCH  11  12
ENDBRANCH  10  11
ENDBRANCH   1  10
TORSDOF 13
ENDMDL
MODEL 4
REMARK VINA RESULT:    -4.693      1.608      2.618
REMARK INTER + INTRA:          -9.536
REMARK INTER:                  -8.091
REMARK INTRA:                  -1.445
REMARK UNBOUND:                -1.276
REMARK SMILES CCCCCCCCCCCCCCC(=O)[O-]
REMARK SMILES IDX 9 1 10 2 11 3 12 4 13 5 14 6 15 7 16 8 17 9 8 10 7 11 6 12
REMARK SMILES IDX 5 13 4 14 3 15 2 16 1 17
REMARK H PARENT
REMARK Flexibility Score: inf
ROOT
ATOM      1  C   UNL     1     -10.497 -37.890  44.199  1.00  0.00     0.000 C 
ENDROOT
BRANCH   1   2
ATOM      2  C   UNL     1     -10.741 -36.615  45.026  1.00  0.00     0.000 C 
BRANCH   2   3
ATOM      3  C   UNL     1     -10.036 -35.348  44.502  1.00  0.00     0.000 C 
BRANCH   3   4
ATOM      4  C   UNL     1     -10.170 -35.100  42.987  1.00  0.00     0.000 C 
BRANCH   4   5
ATOM      5  C   UNL     1     -10.234 -33.619  42.575  1.00  0.00     0.006 C 
BRANCH   5   6
ATOM      6  C   UNL     1      -9.675 -33.366  41.169  1.00  0.00     0.053 C 
BRANCH   6   7
ATOM      7  C   UNL     1      -8.338 -32.702  41.250  1.00  0.00     0.041 C 
ATOM      8  O   UNL     1      -7.288 -33.395  41.314  1.00  0.00    -0.550 OA
ATOM      9  O   UNL     1      -8.246 -31.317  41.208  1.00  0.00    -0.550 OA
ENDBRANCH   6   7
ENDBRANCH   5   6
ENDBRANCH   4   5
ENDBRANCH   3   4
ENDBRANCH   2   3
ENDBRANCH   1   2
BRANCH   1  10
ATOM     10  C   UNL     1     -11.783 -38.444  43.563  1.00  0.00     0.000 C 
BRANCH  10  11
ATOM     11  C   UNL     1     -11.695 -39.949  43.255  1.00  0.00    -0.000 C 
BRANCH  11  12
ATOM     12  C   UNL     1     -10.902 -40.788  44.278  1.00  0.00    -0.000 C 
BRANCH  12  13
ATOM     13  C   UNL     1     -11.740 -41.760  45.136  1.00  0.00    -0.000 C 
BRANCH  13  14
ATOM     14  C   UNL     1     -12.146 -41.215  46.520  1.00  0.00    -0.000 C 
BRANCH  14  15
ATOM     15  C   UNL     1     -11.178 -40.146  47.072  1.00  0.00    -0.000 C 
BRANCH  15  16
ATOM     16  C   UNL     1     -11.893 -38.958  47.739  1.00  0.00    -0.003 C 
ATOM     17  C   UNL     1     -13.142 -38.518  46.980  1.00  0.00     0.004 C 
ENDBRANCH  15  16
ENDBRANCH  14  15
ENDBRANCH  13  14
ENDBRANCH  12  13
ENDBRANCH  11  12
ENDBRANCH  10  11
ENDBRANCH   1  10
TORSDOF 13
ENDMDL
MODEL 5
REMARK VINA RESULT:    -4.668      1.537      2.670
REMARK INTER + INTRA:          -9.491
REMARK INTER:                  -7.919
REMARK INTRA:                  -1.572
REMARK UNBOUND:                -1.276
REMARK SMILES CCCCCCCCCCCCCCC(=O)[O-]
REMARK SMILES IDX 9 1 10 2 11 3 12 4 13 5 14 6 15 7 16 8 17 9 8 10 7 11 6 12
REMARK SMILES IDX 5 13 4 14 3 15 2 16 1 17
REMARK H PARENT
REMARK Flexibility Score: inf
ROOT
ATOM      1  C   UNL     1     -10.066 -38.884  44.257  1.00  0.00     0.000 C 
ENDROOT
BRANCH   1   2
ATOM      2  C   UNL     1      -9.405 -37.562  44.687  1.00  0.00     0.000 C 
BRANCH   2   3
ATOM      3  C   UNL     1     -10.334 -36.572  45.418  1.00  0.00     0.000 C 
BRANCH   3   4
ATOM      4  C   UNL     1     -10.415 -35.165  44.795  1.00  0.00     0.000 C 
BRANCH   4   5
ATOM      5  C   UNL     1     -10.261 -35.124  43.264  1.00  0.00     0.006 C 
BRANCH   5   6
ATOM      6  C   UNL     1     -10.304 -33.698  42.699  1.00  0.00     0.053 C 
BRANCH   6   7
ATOM      7  C   UNL     1      -9.363 -33.566  41.544  1.00  0.00     0.041 C 
ATOM      8  O   UNL     1      -8.143 -33.846  41.684  1.00  0.00    -0.550 OA
ATOM      9  O   UNL     1      -9.841 -33.179  40.298  1.00  0.00    -0.550 OA
ENDBRANCH   6   7
ENDBRANCH   5   6
ENDBRANCH   4   5
ENDBRANCH   3   4
ENDBRANCH   2   3
ENDBRANCH   1   2
BRANCH   1  10
ATOM     10  C   UNL     1     -11.498 -38.691  43.729  1.00  0.00     0.000 C 
BRANCH  10  11
ATOM     11  C   UNL     1     -12.504 -39.669  44.360  1.00  0.00    -0.000 C 
BRANCH  11  12
ATOM     12  C   UNL     1     -13.022 -39.273  45.758  1.00  0.00    -0.000 C 
BRANCH  12  13
ATOM     13  C   UNL     1     -12.146 -39.725  46.946  1.00  0.00    -0.000 C 
BRANCH  13  14
ATOM     14  C   UNL     1     -11.907 -38.644  48.019  1.00  0.00    -0.000 C 
BRANCH  14  15
ATOM     15  C   UNL     1     -10.471 -38.644  48.589  1.00  0.00    -0.000 C 
BRANCH  15  16
ATOM     16  C   UNL     1      -9.799 -40.027  48.555  1.00  0.00    -0.003 C 
ATOM     17  C   UNL     1      -8.447 -40.010  47.845  1.00  0.00     0.004 C 
ENDBRANCH  15  16
ENDBRANCH  14  15
ENDBRANCH  13  14
ENDBRANCH  12  13
ENDBRANCH  11  12
ENDBRANCH  10  11
ENDBRANCH   1  10
TORSDOF 13
ENDMDL
MODEL 6
REMARK VINA RESULT:    -4.663      1.393      3.338
REMARK INTER + INTRA:          -9.483
REMARK INTER:                  -7.701
REMARK INTRA:                  -1.782
REMARK UNBOUND:                -1.276
REMARK SMILES CCCCCCCCCCCCCCC(=O)[O-]
REMARK SMILES IDX 9 1 10 2 11 3 12 4 13 5 14 6 15 7 16 8 17 9 8 10 7 11 6 12
REMARK SMILES IDX 5 13 4 14 3 15 2 16 1 17
REMARK H PARENT
REMARK Flexibility Score: inf
ROOT
ATOM      1  C   UNL     1     -10.427 -36.883  47.650  1.00  0.00     0.000 C 
ENDROOT
BRANCH   1   2
ATOM      2  C   UNL     1     -11.130 -36.234  46.444  1.00  0.00     0.000 C 
BRANCH   2   3
ATOM      3  C   UNL     1     -10.243 -35.309  45.587  1.00  0.00     0.000 C 
BRANCH   3   4
ATOM      4  C   UNL     1     -10.112 -35.712  44.106  1.00  0.00     0.000 C 
BRANCH   4   5
ATOM      5  C   UNL     1      -9.227 -34.781  43.257  1.00  0.00     0.006 C 
BRANCH   5   6
ATOM      6  C   UNL     1     -10.042 -33.823  42.378  1.00  0.00     0.053 C 
BRANCH   6   7
ATOM      7  C   UNL     1      -9.274 -33.463  41.147  1.00  0.00     0.041 C 
ATOM      8  O   UNL     1      -9.882 -33.198  40.075  1.00  0.00    -0.550 OA
ATOM      9  O   UNL     1      -7.889 -33.373  41.192  1.00  0.00    -0.550 OA
ENDBRANCH   6   7
ENDBRANCH   5   6
ENDBRANCH   4   5
ENDBRANCH   3   4
ENDBRANCH   2   3
ENDBRANCH   1   2
BRANCH   1  10
ATOM     10  C   UNL     1     -11.323 -37.889  48.393  1.00  0.00     0.000 C 
BRANCH  10  11
ATOM     11  C   UNL     1     -10.703 -39.295  48.471  1.00  0.00    -0.000 C 
BRANCH  11  12
ATOM     12  C   UNL     1     -11.387 -40.368  47.599  1.00  0.00    -0.000 C 
BRANCH  12  13
ATOM     13  C   UNL     1     -12.431 -39.842  46.592  1.00  0.00    -0.000 C 
BRANCH  13  14
ATOM     14  C   UNL     1     -11.955 -39.807  45.126  1.00  0.00    -0.000 C 
BRANCH  14  15
ATOM     15  C   UNL     1     -10.519 -40.341  44.929  1.00  0.00    -0.000 C 
BRANCH  15  16
ATOM     16  C   UNL     1      -9.538 -39.281  44.399  1.00  0.00    -0.003 C 
ATOM     17  C   UNL     1      -8.387 -39.006  45.363  1.00  0.00     0.004 C 
ENDBRANCH  15  16
ENDBRANCH  14  15
ENDBRANCH  13  14
ENDBRANCH  12  13
ENDBRANCH  11  12
ENDBRANCH  10  11
ENDBRANCH   1  10
TORSDOF 13
ENDMDL
MODEL 7
REMARK VINA RESULT:    -4.629      1.486      3.065
REMARK INTER + INTRA:          -9.422
REMARK INTER:                  -7.505
REMARK INTRA:                  -1.917
REMARK UNBOUND:                -1.276
REMARK SMILES CCCCCCCCCCCCCCC(=O)[O-]
REMARK SMILES IDX 9 1 10 2 11 3 12 4 13 5 14 6 15 7 16 8 17 9 8 10 7 11 6 12
REMARK SMILES IDX 5 13 4 14 3 15 2 16 1 17
REMARK H PARENT
REMARK Flexibility Score: inf
ROOT
ATOM      1  C   UNL     1      -8.403 -39.599  46.181  1.00  0.00     0.000 C 
ENDROOT
BRANCH   1   2
ATOM      2  C   UNL     1      -8.628 -38.477  45.152  1.00  0.00     0.000 C 
BRANCH   2   3
ATOM      3  C   UNL     1      -9.520 -37.314  45.633  1.00  0.00     0.000 C 
BRANCH   3   4
ATOM      4  C   UNL     1     -10.477 -36.737  44.573  1.00  0.00     0.000 C 
BRANCH   4   5
ATOM      5  C   UNL     1     -10.285 -35.240  44.274  1.00  0.00     0.006 C 
BRANCH   5   6
ATOM      6  C   UNL     1      -9.147 -34.972  43.280  1.00  0.00     0.053 C 
BRANCH   6   7
ATOM      7  C   UNL     1      -8.819 -33.513  43.244  1.00  0.00     0.041 C 
ATOM      8  O   UNL     1      -8.325 -32.949  44.257  1.00  0.00    -0.550 OA
ATOM      9  O   UNL     1      -9.011 -32.785  42.077  1.00  0.00    -0.550 OA
ENDBRANCH   6   7
ENDBRANCH   5   6
ENDBRANCH   4   5
ENDBRANCH   3   4
ENDBRANCH   2   3
ENDBRANCH   1   2
BRANCH   1  10
ATOM     10  C   UNL     1      -8.457 -39.096  47.633  1.00  0.00     0.000 C 
BRANCH  10  11
ATOM     11  C   UNL     1      -8.910 -40.183  48.624  1.00  0.00    -0.000 C 
BRANCH  11  12
ATOM     12  C   UNL     1     -10.410 -40.167  48.983  1.00  0.00    -0.000 C 
BRANCH  12  13
ATOM     13  C   UNL     1     -11.154 -38.850  48.676  1.00  0.00    -0.000 C 
BRANCH  13  14
ATOM     14  C   UNL     1     -12.142 -38.927  47.495  1.00  0.00    -0.000 C 
BRANCH  14  15
ATOM     15  C   UNL     1     -12.092 -40.269  46.731  1.00  0.00    -0.000 C 
BRANCH  15  16
ATOM     16  C   UNL     1     -12.301 -40.119  45.215  1.00  0.00    -0.003 C 
ATOM     17  C   UNL     1     -11.312 -40.946  44.397  1.00  0.00     0.004 C 
ENDBRANCH  15  16
ENDBRANCH  14  15
ENDBRANCH  13  14
ENDBRANCH  12  13
ENDBRANCH  11  12
ENDBRANCH  10  11
ENDBRANCH   1  10
TORSDOF 13
ENDMDL
MODEL 8
REMARK VINA RESULT:    -4.565      3.186      7.178
REMARK INTER + INTRA:          -9.311
REMARK INTER:                  -7.996
REMARK INTRA:                  -1.315
REMARK UNBOUND:                -1.276
REMARK SMILES CCCCCCCCCCCCCCC(=O)[O-]
REMARK SMILES IDX 9 1 10 2 11 3 12 4 13 5 14 6 15 7 16 8 17 9 8 10 7 11 6 12
REMARK SMILES IDX 5 13 4 14 3 15 2 16 1 17
REMARK H PARENT
REMARK Flexibility Score: inf
ROOT
ATOM      1  C   UNL     1     -12.123 -38.766  45.163  1.00  0.00     0.000 C 
ENDROOT
BRANCH   1   2
ATOM      2  C   UNL     1     -11.835 -40.235  45.518  1.00  0.00     0.000 C 
BRANCH   2   3
ATOM      3  C   UNL     1     -11.428 -40.489  46.983  1.00  0.00     0.000 C 
BRANCH   3   4
ATOM      4  C   UNL     1     -10.047 -39.936  47.387  1.00  0.00     0.000 C 
BRANCH   4   5
ATOM      5  C   UNL     1     -10.085 -38.644  48.221  1.00  0.00     0.006 C 
BRANCH   5   6
ATOM      6  C   UNL     1     -11.391 -38.482  49.010  1.00  0.00     0.053 C 
BRANCH   6   7
ATOM      7  C   UNL     1     -12.088 -37.220  48.613  1.00  0.00     0.041 C 
ATOM      8  O   UNL     1     -11.472 -36.121  48.638  1.00  0.00    -0.550 OA
ATOM      9  O   UNL     1     -13.403 -37.262  48.168  1.00  0.00    -0.550 OA
ENDBRANCH   6   7
ENDBRANCH   5   6
ENDBRANCH   4   5
ENDBRANCH   3   4
ENDBRANCH   2   3
ENDBRANCH   1   2
BRANCH   1  10
ATOM     10  C   UNL     1     -11.133 -38.196  44.133  1.00  0.00     0.000 C 
BRANCH  10  11
ATOM     11  C   UNL     1     -10.125 -37.213  44.754  1.00  0.00    -0.000 C 
BRANCH  11  12
ATOM     12  C   UNL     1     -10.700 -35.838  45.149  1.00  0.00    -0.000 C 
BRANCH  12  13
ATOM     13  C   UNL     1     -10.047 -34.620  44.461  1.00  0.00    -0.000 C 
BRANCH  13  14
ATOM     14  C   UNL     1      -9.788 -34.794  42.951  1.00  0.00    -0.000 C 
BRANCH  14  15
ATOM     15  C   UNL     1     -10.242 -33.586  42.102  1.00  0.00    -0.000 C 
BRANCH  15  16
ATOM     16  C   UNL     1      -9.325 -33.303  40.900  1.00  0.00    -0.003 C 
ATOM     17  C   UNL     1      -7.845 -33.295  41.274  1.00  0.00     0.004 C 
ENDBRANCH  15  16
ENDBRANCH  14  15
ENDBRANCH  13  14
ENDBRANCH  12  13
ENDBRANCH  11  12
ENDBRANCH  10  11
ENDBRANCH   1  10
TORSDOF 13
ENDMDL
MODEL 9
REMARK VINA RESULT:    -4.543      1.364      2.417
REMARK INTER + INTRA:          -9.271
REMARK INTER:                  -7.809
REMARK INTRA:                  -1.463
REMARK UNBOUND:                -1.276
REMARK SMILES CCCCCCCCCCCCCCC(=O)[O-]
REMARK SMILES IDX 9 1 10 2 11 3 12 4 13 5 14 6 15 7 16 8 17 9 8 10 7 11 6 12
REMARK SMILES IDX 5 13 4 14 3 15 2 16 1 17
REMARK H PARENT
REMARK Flexibility Score: inf
ROOT
ATOM      1  C   UNL     1     -10.945 -35.595  45.622  1.00  0.00     0.000 C 
ENDROOT
BRANCH   1   2
ATOM      2  C   UNL     1     -10.255 -36.338  44.465  1.00  0.00     0.000 C 
BRANCH   2   3
ATOM      3  C   UNL     1      -9.224 -35.508  43.674  1.00  0.00     0.000 C 
BRANCH   3   4
ATOM      4  C   UNL     1      -9.462 -33.986  43.681  1.00  0.00     0.000 C 
BRANCH   4   5
ATOM      5  C   UNL     1     -10.304 -33.457  42.506  1.00  0.00     0.006 C 
BRANCH   5   6
ATOM      6  C   UNL     1      -9.587 -33.584  41.155  1.00  0.00     0.053 C 
BRANCH   6   7
ATOM      7  C   UNL     1      -8.293 -32.834  41.178  1.00  0.00     0.041 C 
ATOM      8  O   UNL     1      -8.289 -31.580  41.301  1.00  0.00    -0.550 OA
ATOM      9  O   UNL     1      -7.089 -33.523  41.112  1.00  0.00    -0.550 OA
ENDBRANCH   6   7
ENDBRANCH   5   6
ENDBRANCH   4   5
ENDBRANCH   3   4
ENDBRANCH   2   3
ENDBRANCH   1   2
BRANCH   1  10
ATOM     10  C   UNL     1     -10.184 -35.724  46.953  1.00  0.00     0.000 C 
BRANCH  10  11
ATOM     11  C   UNL     1     -10.856 -36.702  47.932  1.00  0.00    -0.000 C 
BRANCH  11  12
ATOM     12  C   UNL     1     -10.180 -38.083  48.055  1.00  0.00    -0.000 C 
BRANCH  12  13
ATOM     13  C   UNL     1     -11.127 -39.264  48.356  1.00  0.00    -0.000 C 
BRANCH  13  14
ATOM     14  C   UNL     1     -11.322 -40.250  47.187  1.00  0.00    -0.000 C 
BRANCH  14  15
ATOM     15  C   UNL     1     -10.457 -39.922  45.950  1.00  0.00    -0.000 C 
BRANCH  15  16
ATOM     16  C   UNL     1     -11.258 -39.875  44.638  1.00  0.00    -0.003 C 
ATOM     17  C   UNL     1     -12.633 -39.234  44.807  1.00  0.00     0.004 C 
ENDBRANCH  15  16
ENDBRANCH  14  15
ENDBRANCH  13  14
ENDBRANCH  12  13
ENDBRANCH  11  12
ENDBRANCH  10  11
ENDBRANCH   1  10
TORSDOF 13
ENDMDL
