MODEL 1
REMARK VINA RESULT:    -3.321      0.000      0.000
REMARK INTER + INTRA:          -5.028
REMARK INTER:                  -4.486
REMARK INTRA:                  -0.542
REMARK UNBOUND:                -0.542
REMARK SMILES C[C@@H](O)[C@@H](O)[C@H](O)[C@H](O)C=O
REMARK SMILES IDX 4 1 2 2 1 3 3 4 6 6 8 7 10 8 11 9 9 10 7 12 5 14
REMARK H PARENT 3 5 9 11 7 13 5 15
REMARK Flexibility Score: inf
ROOT
ATOM      1  C   UNL     1      55.717  28.584  60.238  1.00  0.00     0.174 C 
ENDROOT
BRANCH   1   2
ATOM      2  C   UNL     1      54.714  29.571  59.575  1.00  0.00     0.142 C 
ATOM      3  C   UNL     1      53.312  28.983  59.378  1.00  0.00     0.041 C 
BRANCH   2   4
ATOM      4  O   UNL     1      54.602  30.728  60.363  1.00  0.00    -0.391 OA
ATOM      5  H   UNL     1      54.332  31.466  59.757  1.00  0.00     0.211 HD
ENDBRANCH   2   4
ENDBRANCH   1   2
BRANCH   1   6
ATOM      6  C   UNL     1      55.594  28.438  61.786  1.00  0.00     0.181 C 
BRANCH   6   7
ATOM      7  C   UNL     1      55.750  26.979  62.288  1.00  0.00     0.209 C 
BRANCH   7   8
ATOM      8  C   UNL     1      57.071  26.360  61.903  1.00  0.00     0.258 C 
ATOM      9  O   UNL     1      58.108  27.002  61.971  1.00  0.00    -0.300 OA
ENDBRANCH   7   8
BRANCH   7  10
ATOM     10  O   UNL     1      55.558  26.905  63.679  1.00  0.00    -0.383 OA
ATOM     11  H   UNL     1      55.246  27.793  63.996  1.00  0.00     0.211 HD
ENDBRANCH   7  10
ENDBRANCH   6   7
BRANCH   6  12
ATOM     12  O   UNL     1      56.567  29.246  62.402  1.00  0.00    -0.387 OA
ATOM     13  H   UNL     1      56.146  29.659  63.201  1.00  0.00     0.211 HD
ENDBRANCH   6  12
ENDBRANCH   1   6
BRANCH   1  14
ATOM     14  O   UNL     1      57.036  28.908  59.870  1.00  0.00    -0.388 OA
ATOM     15  H   UNL     1      57.328  28.263  59.175  1.00  0.00     0.211 HD
ENDBRANCH   1  14
TORSDOF 8
ENDMDL
MODEL 2
REMARK VINA RESULT:    -3.264     15.443     16.697
REMARK INTER + INTRA:          -4.951
REMARK INTER:                  -4.206
REMARK INTRA:                  -0.745
REMARK UNBOUND:                -0.542
REMARK SMILES C[C@@H](O)[C@@H](O)[C@H](O)[C@H](O)C=O
REMARK SMILES IDX 4 1 2 2 1 3 3 4 6 6 8 7 10 8 11 9 9 10 7 12 5 14
REMARK H PARENT 3 5 9 11 7 13 5 15
REMARK Flexibility Score: inf
ROOT
ATOM      1  C   UNL     1      71.027  33.191  58.968  1.00  0.00     0.174 C 
ENDROOT
BRANCH   1   2
ATOM      2  C   UNL     1      71.514  32.431  60.234  1.00  0.00     0.142 C 
ATOM      3  C   UNL     1      72.363  31.194  59.920  1.00  0.00     0.041 C 
BRANCH   2   4
ATOM      4  O   UNL     1      72.272  33.296  61.040  1.00  0.00    -0.391 OA
ATOM      5  H   UNL     1      72.792  33.880  60.428  1.00  0.00     0.211 HD
ENDBRANCH   2   4
ENDBRANCH   1   2
BRANCH   1   6
ATOM      6  C   UNL     1      70.976  34.746  59.094  1.00  0.00     0.181 C 
BRANCH   6   7
ATOM      7  C   UNL     1      70.644  35.468  57.762  1.00  0.00     0.209 C 
BRANCH   7   8
ATOM      8  C   UNL     1      69.234  36.003  57.716  1.00  0.00     0.258 C 
ATOM      9  O   UNL     1      68.275  35.247  57.735  1.00  0.00    -0.300 OA
ENDBRANCH   7   8
BRANCH   7  10
ATOM     10  O   UNL     1      71.570  36.494  57.505  1.00  0.00    -0.383 OA
ATOM     11  H   UNL     1      72.460  36.196  57.828  1.00  0.00     0.211 HD
ENDBRANCH   7  10
ENDBRANCH   6   7
BRANCH   6  12
ATOM     12  O   UNL     1      70.018  35.097  60.062  1.00  0.00    -0.387 OA
ATOM     13  H   UNL     1      70.314  34.707  60.926  1.00  0.00     0.211 HD
ENDBRANCH   6  12
ENDBRANCH   1   6
BRANCH   1  14
ATOM     14  O   UNL     1      69.785  32.685  58.541  1.00  0.00    -0.388 OA
ATOM     15  H   UNL     1      69.612  33.031  57.627  1.00  0.00     0.211 HD
ENDBRANCH   1  14
TORSDOF 8
ENDMDL
MODEL 3
REMARK VINA RESULT:    -3.263      2.108      3.110
REMARK INTER + INTRA:          -4.949
REMARK INTER:                  -4.425
REMARK INTRA:                  -0.524
REMARK UNBOUND:                -0.542
REMARK SMILES C[C@@H](O)[C@@H](O)[C@H](O)[C@H](O)C=O
REMARK SMILES IDX 4 1 2 2 1 3 3 4 6 6 8 7 10 8 11 9 9 10 7 12 5 14
REMARK H PARENT 3 5 9 11 7 13 5 15
REMARK Flexibility Score: inf
ROOT
ATOM      1  C   UNL     1      57.942  27.290  61.320  1.00  0.00     0.174 C 
ENDROOT
BRANCH   1   2
ATOM      2  C   UNL     1      58.943  28.186  60.538  1.00  0.00     0.142 C 
ATOM      3  C   UNL     1      58.382  28.729  59.219  1.00  0.00     0.041 C 
BRANCH   2   4
ATOM      4  O   UNL     1      59.323  29.276  61.339  1.00  0.00    -0.391 OA
ATOM      5  H   UNL     1      59.523  30.030  60.726  1.00  0.00     0.211 HD
ENDBRANCH   2   4
ENDBRANCH   1   2
BRANCH   1   6
ATOM      6  C   UNL     1      56.525  27.903  61.548  1.00  0.00     0.181 C 
BRANCH   6   7
ATOM      7  C   UNL     1      55.567  26.976  62.341  1.00  0.00     0.209 C 
BRANCH   7   8
ATOM      8  C   UNL     1      55.731  25.518  61.991  1.00  0.00     0.258 C 
ATOM      9  O   UNL     1      56.226  24.734  62.787  1.00  0.00    -0.300 OA
ENDBRANCH   7   8
BRANCH   7  10
ATOM     10  O   UNL     1      55.716  27.171  63.726  1.00  0.00    -0.383 OA
ATOM     11  H   UNL     1      56.682  27.296  63.919  1.00  0.00     0.211 HD
ENDBRANCH   7  10
ENDBRANCH   6   7
BRANCH   6  12
ATOM     12  O   UNL     1      56.658  29.125  62.230  1.00  0.00    -0.387 OA
ATOM     13  H   UNL     1      57.395  29.628  61.795  1.00  0.00     0.211 HD
ENDBRANCH   6  12
ENDBRANCH   1   6
BRANCH   1  14
ATOM     14  O   UNL     1      58.507  26.874  62.540  1.00  0.00    -0.388 OA
ATOM     15  H   UNL     1      58.935  27.663  62.963  1.00  0.00     0.211 HD
ENDBRANCH   1  14
TORSDOF 8
ENDMDL
MODEL 4
REMARK VINA RESULT:    -3.246     15.758     16.327
REMARK INTER + INTRA:          -4.927
REMARK INTER:                  -4.226
REMARK INTRA:                  -0.701
REMARK UNBOUND:                -0.542
REMARK SMILES C[C@@H](O)[C@@H](O)[C@H](O)[C@H](O)C=O
REMARK SMILES IDX 4 1 2 2 1 3 3 4 6 6 8 7 10 8 11 9 9 10 7 12 5 14
REMARK H PARENT 3 5 9 11 7 13 5 15
REMARK Flexibility Score: inf
ROOT
ATOM      1  C   UNL     1      70.893  33.362  58.842  1.00  0.00     0.174 C 
ENDROOT
BRANCH   1   2
ATOM      2  C   UNL     1      70.542  34.877  58.878  1.00  0.00     0.142 C 
ATOM      3  C   UNL     1      69.447  35.278  57.882  1.00  0.00     0.041 C 
BRANCH   2   4
ATOM      4  O   UNL     1      70.118  35.231  60.169  1.00  0.00    -0.391 OA
ATOM      5  H   UNL     1      69.333  35.830  60.062  1.00  0.00     0.211 HD
ENDBRANCH   2   4
ENDBRANCH   1   2
BRANCH   1   6
ATOM      6  C   UNL     1      71.361  32.748  60.198  1.00  0.00     0.181 C 
BRANCH   6   7
ATOM      7  C   UNL     1      71.993  31.338  60.057  1.00  0.00     0.209 C 
BRANCH   7   8
ATOM      8  C   UNL     1      72.215  30.655  61.384  1.00  0.00     0.258 C 
ATOM      9  O   UNL     1      73.110  31.016  62.132  1.00  0.00    -0.300 OA
ENDBRANCH   7   8
BRANCH   7  10
ATOM     10  O   UNL     1      71.220  30.526  59.207  1.00  0.00    -0.383 OA
ATOM     11  H   UNL     1      71.835  29.925  58.710  1.00  0.00     0.211 HD
ENDBRANCH   7  10
ENDBRANCH   6   7
BRANCH   6  12
ATOM     12  O   UNL     1      72.293  33.615  60.798  1.00  0.00    -0.387 OA
ATOM     13  H   UNL     1      72.944  33.880  60.097  1.00  0.00     0.211 HD
ENDBRANCH   6  12
ENDBRANCH   1   6
BRANCH   1  14
ATOM     14  O   UNL     1      71.831  33.102  57.826  1.00  0.00    -0.388 OA
ATOM     15  H   UNL     1      72.613  33.696  57.972  1.00  0.00     0.211 HD
ENDBRANCH   1  14
TORSDOF 8
ENDMDL
MODEL 5
REMARK VINA RESULT:    -3.230     13.056     13.787
REMARK INTER + INTRA:          -4.905
REMARK INTER:                  -4.220
REMARK INTRA:                  -0.685
REMARK UNBOUND:                -0.542
REMARK SMILES C[C@@H](O)[C@@H](O)[C@H](O)[C@H](O)C=O
REMARK SMILES IDX 4 1 2 2 1 3 3 4 6 6 8 7 10 8 11 9 9 10 7 12 5 14
REMARK H PARENT 3 5 9 11 7 13 5 15
REMARK Flexibility Score: inf
ROOT
ATOM      1  C   UNL     1      55.464  19.463  52.302  1.00  0.00     0.174 C 
ENDROOT
BRANCH   1   2
ATOM      2  C   UNL     1      54.070  20.105  52.050  1.00  0.00     0.142 C 
ATOM      3  C   UNL     1      53.780  21.316  52.944  1.00  0.00     0.041 C 
BRANCH   2   4
ATOM      4  O   UNL     1      53.975  20.510  50.709  1.00  0.00    -0.391 OA
ATOM      5  H   UNL     1      53.183  20.052  50.324  1.00  0.00     0.211 HD
ENDBRANCH   2   4
ENDBRANCH   1   2
BRANCH   1   6
ATOM      6  C   UNL     1      56.227  18.989  51.027  1.00  0.00     0.181 C 
BRANCH   6   7
ATOM      7  C   UNL     1      57.567  18.270  51.334  1.00  0.00     0.209 C 
BRANCH   7   8
ATOM      8  C   UNL     1      58.417  18.055  50.106  1.00  0.00     0.258 C 
ATOM      9  O   UNL     1      58.070  17.278  49.231  1.00  0.00    -0.300 OA
ENDBRANCH   7   8
BRANCH   7  10
ATOM     10  O   UNL     1      58.292  18.962  52.321  1.00  0.00    -0.383 OA
ATOM     11  H   UNL     1      57.870  18.777  53.201  1.00  0.00     0.211 HD
ENDBRANCH   7  10
ENDBRANCH   6   7
BRANCH   6  12
ATOM     12  O   UNL     1      55.398  18.126  50.288  1.00  0.00    -0.387 OA
ATOM     13  H   UNL     1      55.890  17.272  50.170  1.00  0.00     0.211 HD
ENDBRANCH   6  12
ENDBRANCH   1   6
BRANCH   1  14
ATOM     14  O   UNL     1      55.359  18.416  53.238  1.00  0.00    -0.388 OA
ATOM     15  H   UNL     1      55.502  17.560  52.756  1.00  0.00     0.211 HD
ENDBRANCH   1  14
TORSDOF 8
ENDMDL
MODEL 6
REMARK VINA RESULT:    -3.219     11.856     12.839
REMARK INTER + INTRA:          -4.890
REMARK INTER:                  -4.215
REMARK INTRA:                  -0.675
REMARK UNBOUND:                -0.542
REMARK SMILES C[C@@H](O)[C@@H](O)[C@H](O)[C@H](O)C=O
REMARK SMILES IDX 4 1 2 2 1 3 3 4 6 6 8 7 10 8 11 9 9 10 7 12 5 14
REMARK H PARENT 3 5 9 11 7 13 5 15
REMARK Flexibility Score: inf
ROOT
ATOM      1  C   UNL     1      60.005  27.299  49.760  1.00  0.00     0.174 C 
ENDROOT
BRANCH   1   2
ATOM      2  C   UNL     1      59.366  28.634  49.285  1.00  0.00     0.142 C 
ATOM      3  C   UNL     1      58.033  28.957  49.970  1.00  0.00     0.041 C 
BRANCH   2   4
ATOM      4  O   UNL     1      60.255  29.694  49.525  1.00  0.00    -0.391 OA
ATOM      5  H   UNL     1      59.706  30.514  49.637  1.00  0.00     0.211 HD
ENDBRANCH   2   4
ENDBRANCH   1   2
BRANCH   1   6
ATOM      6  C   UNL     1      61.561  27.299  49.867  1.00  0.00     0.181 C 
BRANCH   6   7
ATOM      7  C   UNL     1      62.173  25.884  50.045  1.00  0.00     0.209 C 
BRANCH   7   8
ATOM      8  C   UNL     1      63.655  25.912  50.328  1.00  0.00     0.258 C 
ATOM      9  O   UNL     1      64.433  26.434  49.544  1.00  0.00    -0.300 OA
ENDBRANCH   7   8
BRANCH   7  10
ATOM     10  O   UNL     1      61.493  25.168  51.047  1.00  0.00    -0.383 OA
ATOM     11  H   UNL     1      61.173  25.816  51.728  1.00  0.00     0.211 HD
ENDBRANCH   7  10
ENDBRANCH   6   7
BRANCH   6  12
ATOM     12  O   UNL     1      62.102  27.894  48.714  1.00  0.00    -0.387 OA
ATOM     13  H   UNL     1      61.363  27.992  48.058  1.00  0.00     0.211 HD
ENDBRANCH   6  12
ENDBRANCH   1   6
BRANCH   1  14
ATOM     14  O   UNL     1      59.561  26.231  48.958  1.00  0.00    -0.388 OA
ATOM     15  H   UNL     1      58.762  25.834  49.393  1.00  0.00     0.211 HD
ENDBRANCH   1  14
TORSDOF 8
ENDMDL
MODEL 7
REMARK VINA RESULT:    -3.208     16.013     17.002
REMARK INTER + INTRA:          -4.876
REMARK INTER:                  -4.149
REMARK INTRA:                  -0.727
REMARK UNBOUND:                -0.542
REMARK SMILES C[C@@H](O)[C@@H](O)[C@H](O)[C@H](O)C=O
REMARK SMILES IDX 4 1 2 2 1 3 3 4 6 6 8 7 10 8 11 9 9 10 7 12 5 14
REMARK H PARENT 3 5 9 11 7 13 5 15
REMARK Flexibility Score: inf
ROOT
ATOM      1  C   UNL     1      71.613  32.427  60.506  1.00  0.00     0.174 C 
ENDROOT
BRANCH   1   2
ATOM      2  C   UNL     1      72.520  31.166  60.567  1.00  0.00     0.142 C 
ATOM      3  C   UNL     1      73.065  30.867  61.968  1.00  0.00     0.041 C 
BRANCH   2   4
ATOM      4  O   UNL     1      71.799  30.045  60.124  1.00  0.00    -0.391 OA
ATOM      5  H   UNL     1      72.414  29.509  59.559  1.00  0.00     0.211 HD
ENDBRANCH   2   4
ENDBRANCH   1   2
BRANCH   1   6
ATOM      6  C   UNL     1      71.021  32.763  59.103  1.00  0.00     0.181 C 
BRANCH   6   7
ATOM      7  C   UNL     1      70.953  34.284  58.804  1.00  0.00     0.209 C 
BRANCH   7   8
ATOM      8  C   UNL     1      70.470  34.590  57.407  1.00  0.00     0.258 C 
ATOM      9  O   UNL     1      71.237  34.555  56.457  1.00  0.00    -0.300 OA
ENDBRANCH   7   8
BRANCH   7  10
ATOM     10  O   UNL     1      70.158  34.946  59.756  1.00  0.00    -0.383 OA
ATOM     11  H   UNL     1      70.644  35.760  60.053  1.00  0.00     0.211 HD
ENDBRANCH   7  10
ENDBRANCH   6   7
BRANCH   6  12
ATOM     12  O   UNL     1      71.795  32.131  58.113  1.00  0.00    -0.387 OA
ATOM     13  H   UNL     1      71.643  32.619  57.262  1.00  0.00     0.211 HD
ENDBRANCH   6  12
ENDBRANCH   1   6
BRANCH   1  14
ATOM     14  O   UNL     1      72.286  33.540  61.043  1.00  0.00    -0.388 OA
ATOM     15  H   UNL     1      71.606  34.226  61.274  1.00  0.00     0.211 HD
ENDBRANCH   1  14
TORSDOF 8
ENDMDL
MODEL 8
REMARK VINA RESULT:    -3.164     11.233     12.514
REMARK INTER + INTRA:          -4.816
REMARK INTER:                  -4.120
REMARK INTRA:                  -0.696
REMARK UNBOUND:                -0.542
REMARK SMILES C[C@@H](O)[C@@H](O)[C@H](O)[C@H](O)C=O
REMARK SMILES IDX 4 1 2 2 1 3 3 4 6 6 8 7 10 8 11 9 9 10 7 12 5 14
REMARK H PARENT 3 5 9 11 7 13 5 15
REMARK Flexibility Score: inf
ROOT
ATOM      1  C   UNL     1      60.574  29.196  50.648  1.00  0.00     0.174 C 
ENDROOT
BRANCH   1   2
ATOM      2  C   UNL     1      61.848  30.029  50.330  1.00  0.00     0.142 C 
ATOM      3  C   UNL     1      62.985  29.204  49.716  1.00  0.00     0.041 C 
BRANCH   2   4
ATOM      4  O   UNL     1      61.522  31.065  49.440  1.00  0.00    -0.391 OA
ATOM      5  H   UNL     1      61.326  31.869  49.989  1.00  0.00     0.211 HD
ENDBRANCH   2   4
ENDBRANCH   1   2
BRANCH   1   6
ATOM      6  C   UNL     1      60.010  28.350  49.465  1.00  0.00     0.181 C 
BRANCH   6   7
ATOM      7  C   UNL     1      59.241  27.081  49.919  1.00  0.00     0.209 C 
BRANCH   7   8
ATOM      8  C   UNL     1      57.758  27.313  50.070  1.00  0.00     0.258 C 
ATOM      9  O   UNL     1      57.333  28.282  50.681  1.00  0.00    -0.300 OA
ENDBRANCH   7   8
BRANCH   7  10
ATOM     10  O   UNL     1      59.485  26.008  49.044  1.00  0.00    -0.383 OA
ATOM     11  H   UNL     1      59.970  25.302  49.548  1.00  0.00     0.211 HD
ENDBRANCH   7  10
ENDBRANCH   6   7
BRANCH   6  12
ATOM     12  O   UNL     1      59.158  29.155  48.688  1.00  0.00    -0.387 OA
ATOM     13  H   UNL     1      59.294  30.094  48.978  1.00  0.00     0.211 HD
ENDBRANCH   6  12
ENDBRANCH   1   6
BRANCH   1  14
ATOM     14  O   UNL     1      59.572  30.023  51.191  1.00  0.00    -0.388 OA
ATOM     15  H   UNL     1      58.959  30.283  50.455  1.00  0.00     0.211 HD
ENDBRANCH   1  14
TORSDOF 8
ENDMDL
MODEL 9
REMARK VINA RESULT:    -3.103     10.536     11.813
REMARK INTER + INTRA:          -4.733
REMARK INTER:                  -4.142
REMARK INTRA:                  -0.591
REMARK UNBOUND:                -0.542
REMARK SMILES C[C@@H](O)[C@@H](O)[C@H](O)[C@H](O)C=O
REMARK SMILES IDX 4 1 2 2 1 3 3 4 6 6 8 7 10 8 11 9 9 10 7 12 5 14
REMARK H PARENT 3 5 9 11 7 13 5 15
REMARK Flexibility Score: inf
ROOT
ATOM      1  C   UNL     1      58.961  28.493  49.456  1.00  0.00     0.174 C 
ENDROOT
BRANCH   1   2
ATOM      2  C   UNL     1      57.878  28.721  50.548  1.00  0.00     0.142 C 
ATOM      3  C   UNL     1      56.659  27.802  50.405  1.00  0.00     0.041 C 
BRANCH   2   4
ATOM      4  O   UNL     1      58.440  28.516  51.818  1.00  0.00    -0.391 OA
ATOM      5  H   UNL     1      58.055  29.205  52.420  1.00  0.00     0.211 HD
ENDBRANCH   2   4
ENDBRANCH   1   2
BRANCH   1   6
ATOM      6  C   UNL     1      60.288  27.836  49.950  1.00  0.00     0.181 C 
BRANCH   6   7
ATOM      7  C   UNL     1      60.327  26.297  49.763  1.00  0.00     0.209 C 
BRANCH   7   8
ATOM      8  C   UNL     1      60.296  25.543  51.069  1.00  0.00     0.258 C 
ATOM      9  O   UNL     1      59.562  25.896  51.980  1.00  0.00    -0.300 OA
ENDBRANCH   7   8
BRANCH   7  10
ATOM     10  O   UNL     1      59.286  25.868  48.921  1.00  0.00    -0.383 OA
ATOM     11  H   UNL     1      58.502  26.459  49.072  1.00  0.00     0.211 HD
ENDBRANCH   7  10
ENDBRANCH   6   7
BRANCH   6  12
ATOM     12  O   UNL     1      61.370  28.414  49.263  1.00  0.00    -0.387 OA
ATOM     13  H   UNL     1      60.996  29.076  48.625  1.00  0.00     0.211 HD
ENDBRANCH   6  12
ENDBRANCH   1   6
BRANCH   1  14
ATOM     14  O   UNL     1      59.225  29.694  48.770  1.00  0.00    -0.388 OA
ATOM     15  H   UNL     1      58.400  30.245  48.791  1.00  0.00     0.211 HD
ENDBRANCH   1  14
TORSDOF 8
ENDMDL
