MODEL 1
REMARK VINA RESULT:    -3.307      0.000      0.000
REMARK INTER + INTRA:          -3.731
REMARK INTER:                  -3.694
REMARK INTRA:                  -0.037
REMARK UNBOUND:                -0.037
REMARK SMILES CCCC(=O)[O-]
REMARK SMILES IDX 3 1 4 2 5 3 6 4 2 5 1 6
REMARK H PARENT
REMARK Flexibility Score: inf
ROOT
ATOM      1  C   UNL     1       2.009 -37.166  16.701  1.00  0.00     0.052 C 
ENDROOT
BRANCH   1   2
ATOM      2  C   UNL     1       2.483 -37.672  18.026  1.00  0.00     0.041 C 
ATOM      3  O   UNL     1       3.698 -37.578  18.344  1.00  0.00    -0.550 OA
ATOM      4  O   UNL     1       1.575 -38.204  18.933  1.00  0.00    -0.550 OA
ENDBRANCH   1   2
BRANCH   1   5
ATOM      5  C   UNL     1       3.150 -36.471  15.954  1.00  0.00     0.003 C 
ATOM      6  C   UNL     1       3.498 -37.212  14.666  1.00  0.00     0.004 C 
ENDBRANCH   1   5
TORSDOF 2
ENDMDL
MODEL 2
REMARK VINA RESULT:    -3.109      2.546      3.520
REMARK INTER + INTRA:          -3.510
REMARK INTER:                  -3.492
REMARK INTRA:                  -0.017
REMARK UNBOUND:                -0.037
REMARK SMILES CCCC(=O)[O-]
REMARK SMILES IDX 3 1 4 2 5 3 6 4 2 5 1 6
REMARK H PARENT
REMARK Flexibility Score: inf
ROOT
ATOM      1  C   UNL     1       3.206 -36.527  16.457  1.00  0.00     0.052 C 
ENDROOT
BRANCH   1   2
ATOM      2  C   UNL     1       3.100 -37.142  15.098  1.00  0.00     0.041 C 
ATOM      3  O   UNL     1       2.280 -36.686  14.258  1.00  0.00    -0.550 OA
ATOM      4  O   UNL     1       3.940 -38.188  14.741  1.00  0.00    -0.550 OA
ENDBRANCH   1   2
BRANCH   1   5
ATOM      5  C   UNL     1       2.745 -37.517  17.530  1.00  0.00     0.003 C 
ATOM      6  C   UNL     1       3.660 -37.473  18.751  1.00  0.00     0.004 C 
ENDBRANCH   1   5
TORSDOF 2
ENDMDL
MODEL 3
REMARK VINA RESULT:    -3.050      2.866      3.921
REMARK INTER + INTRA:          -3.444
REMARK INTER:                  -3.438
REMARK INTRA:                  -0.006
REMARK UNBOUND:                -0.037
REMARK SMILES CCCC(=O)[O-]
REMARK SMILES IDX 3 1 4 2 5 3 6 4 2 5 1 6
REMARK H PARENT
REMARK Flexibility Score: inf
ROOT
ATOM      1  C   UNL     1       4.669 -37.498  19.733  1.00  0.00     0.052 C 
ENDROOT
BRANCH   1   2
ATOM      2  C   UNL     1       3.400 -37.567  18.944  1.00  0.00     0.041 C 
ATOM      3  O   UNL     1       3.413 -37.360  17.702  1.00  0.00    -0.550 OA
ATOM      4  O   UNL     1       2.209 -37.908  19.571  1.00  0.00    -0.550 OA
ENDBRANCH   1   2
BRANCH   1   5
ATOM      5  C   UNL     1       4.999 -36.046  20.089  1.00  0.00     0.003 C 
ATOM      6  C   UNL     1       5.798 -35.965  21.387  1.00  0.00     0.004 C 
ENDBRANCH   1   5
TORSDOF 2
ENDMDL
MODEL 4
REMARK VINA RESULT:    -2.996      3.001      4.055
REMARK INTER + INTRA:          -3.383
REMARK INTER:                  -3.347
REMARK INTRA:                  -0.036
REMARK UNBOUND:                -0.037
REMARK SMILES CCCC(=O)[O-]
REMARK SMILES IDX 3 1 4 2 5 3 6 4 2 5 1 6
REMARK H PARENT
REMARK Flexibility Score: inf
ROOT
ATOM      1  C   UNL     1       4.859 -37.623  19.844  1.00  0.00     0.052 C 
ENDROOT
BRANCH   1   2
ATOM      2  C   UNL     1       5.392 -36.297  20.283  1.00  0.00     0.041 C 
ATOM      3  O   UNL     1       5.725 -36.112  21.483  1.00  0.00    -0.550 OA
ATOM      4  O   UNL     1       5.568 -35.277  19.356  1.00  0.00    -0.550 OA
ENDBRANCH   1   2
BRANCH   1   5
ATOM      5  C   UNL     1       3.384 -37.503  19.449  1.00  0.00     0.003 C 
ATOM      6  C   UNL     1       3.217 -37.520  17.932  1.00  0.00     0.004 C 
ENDBRANCH   1   5
TORSDOF 2
ENDMDL
MODEL 5
REMARK VINA RESULT:    -2.986      4.021      5.147
REMARK INTER + INTRA:          -3.372
REMARK INTER:                  -3.337
REMARK INTRA:                  -0.036
REMARK UNBOUND:                -0.037
REMARK SMILES CCCC(=O)[O-]
REMARK SMILES IDX 3 1 4 2 5 3 6 4 2 5 1 6
REMARK H PARENT
REMARK Flexibility Score: inf
ROOT
ATOM      1  C   UNL     1       4.761 -35.991  20.584  1.00  0.00     0.052 C 
ENDROOT
BRANCH   1   2
ATOM      2  C   UNL     1       4.750 -37.307  19.872  1.00  0.00     0.041 C 
ATOM      3  O   UNL     1       5.475 -38.253  20.277  1.00  0.00    -0.550 OA
ATOM      4  O   UNL     1       3.903 -37.504  18.789  1.00  0.00    -0.550 OA
ENDBRANCH   1   2
BRANCH   1   5
ATOM      5  C   UNL     1       6.073 -35.811  21.353  1.00  0.00     0.003 C 
ATOM      6  C   UNL     1       5.811 -35.534  22.831  1.00  0.00     0.004 C 
ENDBRANCH   1   5
TORSDOF 2
ENDMDL
MODEL 6
REMARK VINA RESULT:    -2.914      2.969      3.879
REMARK INTER + INTRA:          -3.292
REMARK INTER:                  -3.275
REMARK INTRA:                  -0.018
REMARK UNBOUND:                -0.037
REMARK SMILES CCCC(=O)[O-]
REMARK SMILES IDX 3 1 4 2 5 3 6 4 2 5 1 6
REMARK H PARENT
REMARK Flexibility Score: inf
ROOT
ATOM      1  C   UNL     1       4.513 -36.447  19.457  1.00  0.00     0.052 C 
ENDROOT
BRANCH   1   2
ATOM      2  C   UNL     1       5.360 -36.913  20.599  1.00  0.00     0.041 C 
ATOM      3  O   UNL     1       5.464 -38.142  20.852  1.00  0.00    -0.550 OA
ATOM      4  O   UNL     1       6.076 -35.993  21.354  1.00  0.00    -0.550 OA
ENDBRANCH   1   2
BRANCH   1   5
ATOM      5  C   UNL     1       3.505 -37.530  19.063  1.00  0.00     0.003 C 
ATOM      6  C   UNL     1       3.114 -37.410  17.592  1.00  0.00     0.004 C 
ENDBRANCH   1   5
TORSDOF 2
ENDMDL
MODEL 7
REMARK VINA RESULT:    -2.884      1.970      2.404
REMARK INTER + INTRA:          -3.258
REMARK INTER:                  -3.244
REMARK INTRA:                  -0.014
REMARK UNBOUND:                -0.037
REMARK SMILES CCCC(=O)[O-]
REMARK SMILES IDX 3 1 4 2 5 3 6 4 2 5 1 6
REMARK H PARENT
REMARK Flexibility Score: inf
ROOT
ATOM      1  C   UNL     1       3.068 -37.615  18.399  1.00  0.00     0.052 C 
ENDROOT
BRANCH   1   2
ATOM      2  C   UNL     1       4.246 -37.209  19.226  1.00  0.00     0.041 C 
ATOM      3  O   UNL     1       4.883 -38.070  19.889  1.00  0.00    -0.550 OA
ATOM      4  O   UNL     1       4.672 -35.887  19.228  1.00  0.00    -0.550 OA
ENDBRANCH   1   2
BRANCH   1   5
ATOM      5  C   UNL     1       3.271 -37.201  16.939  1.00  0.00     0.003 C 
ATOM      6  C   UNL     1       1.939 -36.878  16.267  1.00  0.00     0.004 C 
ENDBRANCH   1   5
TORSDOF 2
ENDMDL
MODEL 8
REMARK VINA RESULT:    -2.762     17.163     17.826
REMARK INTER + INTRA:          -3.122
REMARK INTER:                  -3.101
REMARK INTRA:                  -0.020
REMARK UNBOUND:                -0.037
REMARK SMILES CCCC(=O)[O-]
REMARK SMILES IDX 3 1 4 2 5 3 6 4 2 5 1 6
REMARK H PARENT
REMARK Flexibility Score: inf
ROOT
ATOM      1  C   UNL     1       4.353 -25.550  29.980  1.00  0.00     0.052 C 
ENDROOT
BRANCH   1   2
ATOM      2  C   UNL     1       5.008 -24.238  29.685  1.00  0.00     0.041 C 
ATOM      3  O   UNL     1       4.819 -23.668  28.578  1.00  0.00    -0.550 OA
ATOM      4  O   UNL     1       5.790 -23.618  30.652  1.00  0.00    -0.550 OA
ENDBRANCH   1   2
BRANCH   1   5
ATOM      5  C   UNL     1       4.923 -26.647  29.076  1.00  0.00     0.003 C 
ATOM      6  C   UNL     1       5.738 -27.656  29.881  1.00  0.00     0.004 C 
ENDBRANCH   1   5
TORSDOF 2
ENDMDL
MODEL 9
REMARK VINA RESULT:    -2.700      2.022      3.256
REMARK INTER + INTRA:          -3.053
REMARK INTER:                  -3.037
REMARK INTRA:                  -0.016
REMARK UNBOUND:                -0.037
REMARK SMILES CCCC(=O)[O-]
REMARK SMILES IDX 3 1 4 2 5 3 6 4 2 5 1 6
REMARK H PARENT
REMARK Flexibility Score: inf
ROOT
ATOM      1  C   UNL     1       3.604 -37.400  18.119  1.00  0.00     0.052 C 
ENDROOT
BRANCH   1   2
ATOM      2  C   UNL     1       2.165 -37.547  17.738  1.00  0.00     0.041 C 
ATOM      3  O   UNL     1       1.331 -37.997  18.568  1.00  0.00    -0.550 OA
ATOM      4  O   UNL     1       1.733 -37.142  16.481  1.00  0.00    -0.550 OA
ENDBRANCH   1   2
BRANCH   1   5
ATOM      5  C   UNL     1       3.745 -37.284  19.639  1.00  0.00     0.003 C 
ATOM      6  C   UNL     1       4.734 -36.185  20.018  1.00  0.00     0.004 C 
ENDBRANCH   1   5
TORSDOF 2
ENDMDL
