MODEL 1
REMARK VINA RESULT:    -5.539      0.000      0.000
REMARK INTER + INTRA:          -6.566
REMARK INTER:                  -6.510
REMARK INTRA:                  -0.056
REMARK UNBOUND:                -0.056
REMARK SMILES O=c1c(O)c(-c2ccc(O)cc2)oc2cc(O)cc(O)c12
REMARK SMILES IDX 5 1 3 2 2 3 1 4 21 5 19 6 18 7 16 8 15 9 14 10 13 11 6 12
REMARK SMILES IDX 7 13 8 14 9 15 12 16 11 17 10 18 4 20 20 22 17 24
REMARK H PARENT 10 19 4 21 20 23 17 25
REMARK Flexibility Score: inf
ROOT
ATOM      1  C   UNL     1       2.416  -5.347   5.668  1.00  0.00     0.180 A 
ATOM      2  C   UNL     1       1.149  -5.862   5.341  1.00  0.00     0.208 A 
ATOM      3  C   UNL     1       1.062  -7.134   4.753  1.00  0.00     0.238 A 
ATOM      4  O   UNL     1      -0.071  -7.566   4.413  1.00  0.00    -0.285 OA
ATOM      5  C   UNL     1       2.239  -7.882   4.514  1.00  0.00     0.111 A 
ATOM      6  C   UNL     1       2.266  -9.197   3.960  1.00  0.00     0.134 A 
ATOM      7  C   UNL     1       3.495  -9.791   3.647  1.00  0.00     0.093 A 
ATOM      8  C   UNL     1       4.698  -9.145   3.926  1.00  0.00     0.123 A 
ATOM      9  C   UNL     1       4.685  -7.883   4.523  1.00  0.00     0.094 A 
ATOM     10  C   UNL     1       3.474  -7.251   4.814  1.00  0.00     0.146 A 
ATOM     11  O   UNL     1       3.506  -6.045   5.370  1.00  0.00    -0.452 OA
ENDROOT
BRANCH   1  12
ATOM     12  C   UNL     1       2.586  -4.025   6.312  1.00  0.00     0.021 A 
ATOM     13  C   UNL     1       3.464  -3.087   5.743  1.00  0.00     0.016 A 
ATOM     14  C   UNL     1       3.657  -1.841   6.348  1.00  0.00     0.047 A 
ATOM     15  C   UNL     1       2.991  -1.523   7.534  1.00  0.00     0.115 A 
ATOM     16  C   UNL     1       1.933  -3.707   7.517  1.00  0.00     0.016 A 
ATOM     17  C   UNL     1       2.130  -2.461   8.119  1.00  0.00     0.047 A 
BRANCH  15  18
ATOM     18  O   UNL     1       3.193  -0.278   8.125  1.00  0.00    -0.508 OA
ATOM     19  H   UNL     1       2.610   0.047   8.887  1.00  0.00     0.293 HD
ENDBRANCH  15  18
ENDBRANCH   1  12
BRANCH   2  20
ATOM     20  O   UNL     1       0.001  -5.098   5.564  1.00  0.00    -0.502 OA
ATOM     21  H   UNL     1      -0.464  -4.583   4.825  1.00  0.00     0.293 HD
ENDBRANCH   2  20
BRANCH   6  22
ATOM     22  O   UNL     1       1.123  -9.969   3.727  1.00  0.00    -0.507 OA
ATOM     23  H   UNL     1       0.869 -10.366   2.835  1.00  0.00     0.293 HD
ENDBRANCH   6  22
BRANCH   8  24
ATOM     24  O   UNL     1       5.903  -9.771   3.616  1.00  0.00    -0.508 OA
ATOM     25  H   UNL     1       5.977 -10.428   2.849  1.00  0.00     0.293 HD
ENDBRANCH   8  24
TORSDOF 5
ENDMDL
MODEL 2
REMARK VINA RESULT:    -5.503      5.088      8.397
REMARK INTER + INTRA:          -6.524
REMARK INTER:                  -6.273
REMARK INTRA:                  -0.251
REMARK UNBOUND:                -0.056
REMARK SMILES O=c1c(O)c(-c2ccc(O)cc2)oc2cc(O)cc(O)c12
REMARK SMILES IDX 5 1 3 2 2 3 1 4 21 5 19 6 18 7 16 8 15 9 14 10 13 11 6 12
REMARK SMILES IDX 7 13 8 14 9 15 12 16 11 17 10 18 4 20 20 22 17 24
REMARK H PARENT 10 19 4 21 20 23 17 25
REMARK Flexibility Score: inf
ROOT
ATOM      1  C   UNL     1       5.429   2.021   5.713  1.00  0.00     0.180 A 
ATOM      2  C   UNL     1       6.737   1.701   5.312  1.00  0.00     0.208 A 
ATOM      3  C   UNL     1       7.105   0.351   5.203  1.00  0.00     0.238 A 
ATOM      4  O   UNL     1       8.294   0.071   4.896  1.00  0.00    -0.285 OA
ATOM      5  C   UNL     1       6.157  -0.663   5.480  1.00  0.00     0.111 A 
ATOM      6  C   UNL     1       6.409  -2.063   5.363  1.00  0.00     0.134 A 
ATOM      7  C   UNL     1       5.437  -2.978   5.788  1.00  0.00     0.093 A 
ATOM      8  C   UNL     1       4.201  -2.545   6.264  1.00  0.00     0.123 A 
ATOM      9  C   UNL     1       3.921  -1.179   6.327  1.00  0.00     0.094 A 
ATOM     10  C   UNL     1       4.883  -0.242   5.944  1.00  0.00     0.146 A 
ATOM     11  O   UNL     1       4.582   1.048   6.030  1.00  0.00    -0.452 OA
ENDROOT
BRANCH   1  12
ATOM     12  C   UNL     1       4.960   3.421   5.827  1.00  0.00     0.021 A 
ATOM     13  C   UNL     1       4.219   3.990   4.777  1.00  0.00     0.016 A 
ATOM     14  C   UNL     1       3.786   5.317   4.854  1.00  0.00     0.047 A 
ATOM     15  C   UNL     1       4.100   6.096   5.971  1.00  0.00     0.115 A 
ATOM     16  C   UNL     1       5.290   4.216   6.940  1.00  0.00     0.016 A 
ATOM     17  C   UNL     1       4.856   5.543   7.013  1.00  0.00     0.047 A 
BRANCH  15  18
ATOM     18  O   UNL     1       3.662   7.417   6.034  1.00  0.00    -0.508 OA
ATOM     19  H   UNL     1       3.465   7.868   6.920  1.00  0.00     0.293 HD
ENDBRANCH  15  18
ENDBRANCH   1  12
BRANCH   2  20
ATOM     20  O   UNL     1       7.665   2.717   5.065  1.00  0.00    -0.502 OA
ATOM     21  H   UNL     1       7.468   3.693   5.252  1.00  0.00     0.293 HD
ENDBRANCH   2  20
BRANCH   6  22
ATOM     22  O   UNL     1       7.575  -2.603   4.813  1.00  0.00    -0.507 OA
ATOM     23  H   UNL     1       7.655  -3.534   4.432  1.00  0.00     0.293 HD
ENDBRANCH   6  22
BRANCH   8  24
ATOM     24  O   UNL     1       3.251  -3.483   6.664  1.00  0.00    -0.508 OA
ATOM     25  H   UNL     1       2.984  -4.256   6.065  1.00  0.00     0.293 HD
ENDBRANCH   8  24
TORSDOF 5
ENDMDL
MODEL 3
REMARK VINA RESULT:    -5.480      2.904      4.533
REMARK INTER + INTRA:          -6.497
REMARK INTER:                  -6.208
REMARK INTRA:                  -0.289
REMARK UNBOUND:                -0.056
REMARK SMILES O=c1c(O)c(-c2ccc(O)cc2)oc2cc(O)cc(O)c12
REMARK SMILES IDX 5 1 3 2 2 3 1 4 21 5 19 6 18 7 16 8 15 9 14 10 13 11 6 12
REMARK SMILES IDX 7 13 8 14 9 15 12 16 11 17 10 18 4 20 20 22 17 24
REMARK H PARENT 10 19 4 21 20 23 17 25
REMARK Flexibility Score: inf
ROOT
ATOM      1  C   UNL     1       4.730  -6.719   4.986  1.00  0.00     0.180 A 
ATOM      2  C   UNL     1       4.936  -7.974   4.388  1.00  0.00     0.208 A 
ATOM      3  C   UNL     1       3.822  -8.753   4.037  1.00  0.00     0.238 A 
ATOM      4  O   UNL     1       4.015  -9.899   3.551  1.00  0.00    -0.285 OA
ATOM      5  C   UNL     1       2.516  -8.262   4.273  1.00  0.00     0.111 A 
ATOM      6  C   UNL     1       1.316  -8.949   3.921  1.00  0.00     0.134 A 
ATOM      7  C   UNL     1       0.078  -8.427   4.321  1.00  0.00     0.093 A 
ATOM      8  C   UNL     1      -0.005  -7.214   5.001  1.00  0.00     0.123 A 
ATOM      9  C   UNL     1       1.159  -6.504   5.298  1.00  0.00     0.094 A 
ATOM     10  C   UNL     1       2.410  -7.016   4.944  1.00  0.00     0.146 A 
ATOM     11  O   UNL     1       3.494  -6.315   5.256  1.00  0.00    -0.452 OA
ENDROOT
BRANCH   1  12
ATOM     12  C   UNL     1       5.853  -5.831   5.361  1.00  0.00     0.021 A 
ATOM     13  C   UNL     1       6.383  -4.946   4.407  1.00  0.00     0.016 A 
ATOM     14  C   UNL     1       7.458  -4.114   4.733  1.00  0.00     0.047 A 
ATOM     15  C   UNL     1       8.027  -4.167   6.008  1.00  0.00     0.115 A 
ATOM     16  C   UNL     1       6.443  -5.893   6.637  1.00  0.00     0.016 A 
ATOM     17  C   UNL     1       7.519  -5.061   6.959  1.00  0.00     0.047 A 
BRANCH  15  18
ATOM     18  O   UNL     1       9.099  -3.332   6.319  1.00  0.00    -0.508 OA
ATOM     19  H   UNL     1      10.056  -3.606   6.129  1.00  0.00     0.293 HD
ENDBRANCH  15  18
ENDBRANCH   1  12
BRANCH   2  20
ATOM     20  O   UNL     1       6.234  -8.451   4.183  1.00  0.00    -0.502 OA
ATOM     21  H   UNL     1       7.044  -8.039   4.633  1.00  0.00     0.293 HD
ENDBRANCH   2  20
BRANCH   6  22
ATOM     22  O   UNL     1       1.282 -10.123   3.162  1.00  0.00    -0.507 OA
ATOM     23  H   UNL     1       1.486 -10.175   2.175  1.00  0.00     0.293 HD
ENDBRANCH   6  22
BRANCH   8  24
ATOM     24  O   UNL     1      -1.253  -6.717   5.369  1.00  0.00    -0.508 OA
ATOM     25  H   UNL     1      -1.349  -5.836   5.862  1.00  0.00     0.293 HD
ENDBRANCH   8  24
TORSDOF 5
ENDMDL
MODEL 4
REMARK VINA RESULT:    -5.324      4.410      6.976
REMARK INTER + INTRA:          -6.313
REMARK INTER:                  -6.026
REMARK INTRA:                  -0.287
REMARK UNBOUND:                -0.056
REMARK SMILES O=c1c(O)c(-c2ccc(O)cc2)oc2cc(O)cc(O)c12
REMARK SMILES IDX 5 1 3 2 2 3 1 4 21 5 19 6 18 7 16 8 15 9 14 10 13 11 6 12
REMARK SMILES IDX 7 13 8 14 9 15 12 16 11 17 10 18 4 20 20 22 17 24
REMARK H PARENT 10 19 4 21 20 23 17 25
REMARK Flexibility Score: inf
ROOT
ATOM      1  C   UNL     1       4.047   1.165   6.362  1.00  0.00     0.180 A 
ATOM      2  C   UNL     1       3.133   0.574   7.250  1.00  0.00     0.208 A 
ATOM      3  C   UNL     1       3.104  -0.825   7.368  1.00  0.00     0.238 A 
ATOM      4  O   UNL     1       2.246  -1.351   8.125  1.00  0.00    -0.285 OA
ATOM      5  C   UNL     1       4.001  -1.614   6.609  1.00  0.00     0.111 A 
ATOM      6  C   UNL     1       4.087  -3.038   6.679  1.00  0.00     0.134 A 
ATOM      7  C   UNL     1       4.921  -3.724   5.787  1.00  0.00     0.093 A 
ATOM      8  C   UNL     1       5.718  -3.038   4.874  1.00  0.00     0.123 A 
ATOM      9  C   UNL     1       5.686  -1.642   4.837  1.00  0.00     0.094 A 
ATOM     10  C   UNL     1       4.838  -0.932   5.689  1.00  0.00     0.146 A 
ATOM     11  O   UNL     1       4.830   0.394   5.615  1.00  0.00    -0.452 OA
ENDROOT
BRANCH   1  12
ATOM     12  C   UNL     1       4.153   2.633   6.201  1.00  0.00     0.021 A 
ATOM     13  C   UNL     1       4.966   3.367   7.081  1.00  0.00     0.016 A 
ATOM     14  C   UNL     1       5.063   4.757   6.961  1.00  0.00     0.047 A 
ATOM     15  C   UNL     1       4.338   5.431   5.975  1.00  0.00     0.115 A 
ATOM     16  C   UNL     1       3.411   3.318   5.223  1.00  0.00     0.016 A 
ATOM     17  C   UNL     1       3.509   4.708   5.107  1.00  0.00     0.047 A 
BRANCH  15  18
ATOM     18  O   UNL     1       4.445   6.816   5.868  1.00  0.00    -0.508 OA
ATOM     19  H   UNL     1       4.448   7.411   6.688  1.00  0.00     0.293 HD
ENDBRANCH  15  18
ENDBRANCH   1  12
BRANCH   2  20
ATOM     20  O   UNL     1       2.241   1.370   7.974  1.00  0.00    -0.502 OA
ATOM     21  H   UNL     1       1.488   0.979   8.530  1.00  0.00     0.293 HD
ENDBRANCH   2  20
BRANCH   6  22
ATOM     22  O   UNL     1       3.403  -3.816   7.618  1.00  0.00    -0.507 OA
ATOM     23  H   UNL     1       3.281  -4.816   7.557  1.00  0.00     0.293 HD
ENDBRANCH   6  22
BRANCH   8  24
ATOM     24  O   UNL     1       6.548  -3.752   4.012  1.00  0.00    -0.508 OA
ATOM     25  H   UNL     1       6.218  -4.572   3.517  1.00  0.00     0.293 HD
ENDBRANCH   8  24
TORSDOF 5
ENDMDL
MODEL 5
REMARK VINA RESULT:    -5.233      2.495      3.575
REMARK INTER + INTRA:          -6.206
REMARK INTER:                  -5.906
REMARK INTRA:                  -0.300
REMARK UNBOUND:                -0.056
REMARK SMILES O=c1c(O)c(-c2ccc(O)cc2)oc2cc(O)cc(O)c12
REMARK SMILES IDX 5 1 3 2 2 3 1 4 21 5 19 6 18 7 16 8 15 9 14 10 13 11 6 12
REMARK SMILES IDX 7 13 8 14 9 15 12 16 11 17 10 18 4 20 20 22 17 24
REMARK H PARENT 10 19 4 21 20 23 17 25
REMARK Flexibility Score: inf
ROOT
ATOM      1  C   UNL     1       3.608  -5.141   5.755  1.00  0.00     0.180 A 
ATOM      2  C   UNL     1       2.446  -4.407   6.051  1.00  0.00     0.208 A 
ATOM      3  C   UNL     1       1.192  -4.991   5.811  1.00  0.00     0.238 A 
ATOM      4  O   UNL     1       0.156  -4.309   6.027  1.00  0.00    -0.285 OA
ATOM      5  C   UNL     1       1.114  -6.307   5.294  1.00  0.00     0.111 A 
ATOM      6  C   UNL     1      -0.103  -7.011   5.051  1.00  0.00     0.134 A 
ATOM      7  C   UNL     1      -0.064  -8.259   4.416  1.00  0.00     0.093 A 
ATOM      8  C   UNL     1       1.149  -8.855   4.075  1.00  0.00     0.123 A 
ATOM      9  C   UNL     1       2.348  -8.202   4.362  1.00  0.00     0.094 A 
ATOM     10  C   UNL     1       2.340  -6.940   4.963  1.00  0.00     0.146 A 
ATOM     11  O   UNL     1       3.502  -6.347   5.209  1.00  0.00    -0.452 OA
ENDROOT
BRANCH   1  12
ATOM     12  C   UNL     1       4.964  -4.603   6.003  1.00  0.00     0.021 A 
ATOM     13  C   UNL     1       5.651  -3.953   4.964  1.00  0.00     0.016 A 
ATOM     14  C   UNL     1       6.942  -3.457   5.170  1.00  0.00     0.047 A 
ATOM     15  C   UNL     1       7.568  -3.617   6.409  1.00  0.00     0.115 A 
ATOM     16  C   UNL     1       5.607  -4.779   7.242  1.00  0.00     0.016 A 
ATOM     17  C   UNL     1       6.899  -4.282   7.445  1.00  0.00     0.047 A 
BRANCH  15  18
ATOM     18  O   UNL     1       8.854  -3.118   6.600  1.00  0.00    -0.508 OA
ATOM     19  H   UNL     1       9.084  -2.537   7.398  1.00  0.00     0.293 HD
ENDBRANCH  15  18
ENDBRANCH   1  12
BRANCH   2  20
ATOM     20  O   UNL     1       2.544  -3.102   6.539  1.00  0.00    -0.502 OA
ATOM     21  H   UNL     1       1.798  -2.657   7.062  1.00  0.00     0.293 HD
ENDBRANCH   2  20
BRANCH   6  22
ATOM     22  O   UNL     1      -1.364  -6.546   5.436  1.00  0.00    -0.507 OA
ATOM     23  H   UNL     1      -1.680  -6.463   6.390  1.00  0.00     0.293 HD
ENDBRANCH   6  22
BRANCH   8  24
ATOM     24  O   UNL     1       1.151 -10.105   3.459  1.00  0.00    -0.508 OA
ATOM     25  H   UNL     1       0.581 -10.295   2.643  1.00  0.00     0.293 HD
ENDBRANCH   8  24
TORSDOF 5
ENDMDL
MODEL 6
REMARK VINA RESULT:    -5.216      4.048      5.547
REMARK INTER + INTRA:          -6.187
REMARK INTER:                  -5.929
REMARK INTRA:                  -0.258
REMARK UNBOUND:                -0.056
REMARK SMILES O=c1c(O)c(-c2ccc(O)cc2)oc2cc(O)cc(O)c12
REMARK SMILES IDX 5 1 3 2 2 3 1 4 21 5 19 6 18 7 16 8 15 9 14 10 13 11 6 12
REMARK SMILES IDX 7 13 8 14 9 15 12 16 11 17 10 18 4 20 20 22 17 24
REMARK H PARENT 10 19 4 21 20 23 17 25
REMARK Flexibility Score: inf
ROOT
ATOM      1  C   UNL     1      -1.692  -4.579   6.404  1.00  0.00     0.180 A 
ATOM      2  C   UNL     1      -0.478  -3.941   6.713  1.00  0.00     0.208 A 
ATOM      3  C   UNL     1       0.729  -4.573   6.377  1.00  0.00     0.238 A 
ATOM      4  O   UNL     1       1.813  -4.022   6.705  1.00  0.00    -0.285 OA
ATOM      5  C   UNL     1       0.709  -5.827   5.721  1.00  0.00     0.111 A 
ATOM      6  C   UNL     1       1.871  -6.540   5.297  1.00  0.00     0.134 A 
ATOM      7  C   UNL     1       1.737  -7.832   4.774  1.00  0.00     0.093 A 
ATOM      8  C   UNL     1       0.482  -8.412   4.601  1.00  0.00     0.123 A 
ATOM      9  C   UNL     1      -0.666  -7.701   4.956  1.00  0.00     0.094 A 
ATOM     10  C   UNL     1      -0.562  -6.424   5.513  1.00  0.00     0.146 A 
ATOM     11  O   UNL     1      -1.677  -5.785   5.848  1.00  0.00    -0.452 OA
ENDROOT
BRANCH   1  12
ATOM     12  C   UNL     1      -3.004  -3.964   6.705  1.00  0.00     0.021 A 
ATOM     13  C   UNL     1      -3.503  -2.954   5.865  1.00  0.00     0.016 A 
ATOM     14  C   UNL     1      -4.730  -2.344   6.144  1.00  0.00     0.047 A 
ATOM     15  C   UNL     1      -5.465  -2.722   7.271  1.00  0.00     0.115 A 
ATOM     16  C   UNL     1      -3.739  -4.327   7.849  1.00  0.00     0.016 A 
ATOM     17  C   UNL     1      -4.965  -3.714   8.125  1.00  0.00     0.047 A 
BRANCH  15  18
ATOM     18  O   UNL     1      -6.685  -2.106   7.536  1.00  0.00    -0.508 OA
ATOM     19  H   UNL     1      -6.733  -1.191   7.969  1.00  0.00     0.293 HD
ENDBRANCH  15  18
ENDBRANCH   1  12
BRANCH   2  20
ATOM     20  O   UNL     1      -0.480  -2.713   7.381  1.00  0.00    -0.502 OA
ATOM     21  H   UNL     1       0.343  -2.124   7.442  1.00  0.00     0.293 HD
ENDBRANCH   2  20
BRANCH   6  22
ATOM     22  O   UNL     1       3.167  -6.016   5.341  1.00  0.00    -0.507 OA
ATOM     23  H   UNL     1       3.445  -5.134   4.936  1.00  0.00     0.293 HD
ENDBRANCH   6  22
BRANCH   8  24
ATOM     24  O   UNL     1       0.384  -9.693   4.063  1.00  0.00    -0.508 OA
ATOM     25  H   UNL     1      -0.421  -9.980   3.519  1.00  0.00     0.293 HD
ENDBRANCH   8  24
TORSDOF 5
ENDMDL
MODEL 7
REMARK VINA RESULT:    -5.178      3.889      5.372
REMARK INTER + INTRA:          -6.142
REMARK INTER:                  -6.020
REMARK INTRA:                  -0.122
REMARK UNBOUND:                -0.056
REMARK SMILES O=c1c(O)c(-c2ccc(O)cc2)oc2cc(O)cc(O)c12
REMARK SMILES IDX 5 1 3 2 2 3 1 4 21 5 19 6 18 7 16 8 15 9 14 10 13 11 6 12
REMARK SMILES IDX 7 13 8 14 9 15 12 16 11 17 10 18 4 20 20 22 17 24
REMARK H PARENT 10 19 4 21 20 23 17 25
REMARK Flexibility Score: inf
ROOT
ATOM      1  C   UNL     1      -1.300  -4.034   6.535  1.00  0.00     0.180 A 
ATOM      2  C   UNL     1      -1.368  -5.437   6.521  1.00  0.00     0.208 A 
ATOM      3  C   UNL     1      -0.186  -6.175   6.350  1.00  0.00     0.238 A 
ATOM      4  O   UNL     1      -0.261  -7.431   6.285  1.00  0.00    -0.285 OA
ATOM      5  C   UNL     1       1.051  -5.502   6.212  1.00  0.00     0.111 A 
ATOM      6  C   UNL     1       2.316  -6.150   6.073  1.00  0.00     0.134 A 
ATOM      7  C   UNL     1       3.459  -5.384   5.812  1.00  0.00     0.093 A 
ATOM      8  C   UNL     1       3.395  -3.994   5.748  1.00  0.00     0.123 A 
ATOM      9  C   UNL     1       2.174  -3.346   5.941  1.00  0.00     0.094 A 
ATOM     10  C   UNL     1       1.010  -4.084   6.168  1.00  0.00     0.146 A 
ATOM     11  O   UNL     1      -0.134  -3.431   6.335  1.00  0.00    -0.452 OA
ENDROOT
BRANCH   1  12
ATOM     12  C   UNL     1      -2.499  -3.189   6.734  1.00  0.00     0.021 A 
ATOM     13  C   UNL     1      -2.616  -2.421   7.906  1.00  0.00     0.016 A 
ATOM     14  C   UNL     1      -3.750  -1.633   8.125  1.00  0.00     0.047 A 
ATOM     15  C   UNL     1      -4.787  -1.615   7.187  1.00  0.00     0.115 A 
ATOM     16  C   UNL     1      -3.554  -3.181   5.804  1.00  0.00     0.016 A 
ATOM     17  C   UNL     1      -4.687  -2.393   6.027  1.00  0.00     0.047 A 
BRANCH  15  18
ATOM     18  O   UNL     1      -5.911  -0.825   7.420  1.00  0.00    -0.508 OA
ATOM     19  H   UNL     1      -5.845   0.058   7.912  1.00  0.00     0.293 HD
ENDBRANCH  15  18
ENDBRANCH   1  12
BRANCH   2  20
ATOM     20  O   UNL     1      -2.602  -6.083   6.638  1.00  0.00    -0.502 OA
ATOM     21  H   UNL     1      -2.915  -6.784   5.977  1.00  0.00     0.293 HD
ENDBRANCH   2  20
BRANCH   6  22
ATOM     22  O   UNL     1       2.506  -7.528   6.211  1.00  0.00    -0.507 OA
ATOM     23  H   UNL     1       3.169  -7.957   6.839  1.00  0.00     0.293 HD
ENDBRANCH   6  22
BRANCH   8  24
ATOM     24  O   UNL     1       4.555  -3.262   5.502  1.00  0.00    -0.508 OA
ATOM     25  H   UNL     1       5.367  -3.338   6.104  1.00  0.00     0.293 HD
ENDBRANCH   8  24
TORSDOF 5
ENDMDL
MODEL 8
REMARK VINA RESULT:    -5.070      4.932     10.296
REMARK INTER + INTRA:          -6.015
REMARK INTER:                  -5.885
REMARK INTRA:                  -0.130
REMARK UNBOUND:                -0.056
REMARK SMILES O=c1c(O)c(-c2ccc(O)cc2)oc2cc(O)cc(O)c12
REMARK SMILES IDX 5 1 3 2 2 3 1 4 21 5 19 6 18 7 16 8 15 9 14 10 13 11 6 12
REMARK SMILES IDX 7 13 8 14 9 15 12 16 11 17 10 18 4 20 20 22 17 24
REMARK H PARENT 10 19 4 21 20 23 17 25
REMARK Flexibility Score: inf
ROOT
ATOM      1  C   UNL     1       5.096   0.749   5.974  1.00  0.00     0.180 A 
ATOM      2  C   UNL     1       6.480   0.876   5.763  1.00  0.00     0.208 A 
ATOM      3  C   UNL     1       7.028   2.157   5.592  1.00  0.00     0.238 A 
ATOM      4  O   UNL     1       8.259   2.260   5.350  1.00  0.00    -0.285 OA
ATOM      5  C   UNL     1       6.189   3.295   5.649  1.00  0.00     0.111 A 
ATOM      6  C   UNL     1       6.643   4.644   5.529  1.00  0.00     0.134 A 
ATOM      7  C   UNL     1       5.708   5.685   5.470  1.00  0.00     0.093 A 
ATOM      8  C   UNL     1       4.343   5.434   5.591  1.00  0.00     0.123 A 
ATOM      9  C   UNL     1       3.891   4.125   5.769  1.00  0.00     0.094 A 
ATOM     10  C   UNL     1       4.797   3.062   5.796  1.00  0.00     0.146 A 
ATOM     11  O   UNL     1       4.326   1.831   5.956  1.00  0.00    -0.452 OA
ENDROOT
BRANCH   1  12
ATOM     12  C   UNL     1       4.449  -0.566   6.187  1.00  0.00     0.021 A 
ATOM     13  C   UNL     1       4.407  -1.495   5.133  1.00  0.00     0.016 A 
ATOM     14  C   UNL     1       3.781  -2.733   5.306  1.00  0.00     0.047 A 
ATOM     15  C   UNL     1       3.177  -3.053   6.525  1.00  0.00     0.115 A 
ATOM     16  C   UNL     1       3.823  -0.885   7.405  1.00  0.00     0.016 A 
ATOM     17  C   UNL     1       3.197  -2.124   7.574  1.00  0.00     0.047 A 
BRANCH  15  18
ATOM     18  O   UNL     1       2.557  -4.290   6.683  1.00  0.00    -0.508 OA
ATOM     19  H   UNL     1       1.720  -4.532   6.166  1.00  0.00     0.293 HD
ENDBRANCH  15  18
ENDBRANCH   1  12
BRANCH   2  20
ATOM     20  O   UNL     1       7.287  -0.263   5.688  1.00  0.00    -0.502 OA
ATOM     21  H   UNL     1       7.656  -0.613   4.811  1.00  0.00     0.293 HD
ENDBRANCH   2  20
BRANCH   6  22
ATOM     22  O   UNL     1       7.991   5.013   5.493  1.00  0.00    -0.507 OA
ATOM     23  H   UNL     1       8.755   4.435   5.811  1.00  0.00     0.293 HD
ENDBRANCH   6  22
BRANCH   8  24
ATOM     24  O   UNL     1       3.441   6.495   5.545  1.00  0.00    -0.508 OA
ATOM     25  H   UNL     1       2.511   6.384   5.159  1.00  0.00     0.293 HD
ENDBRANCH   8  24
TORSDOF 5
ENDMDL
MODEL 9
REMARK VINA RESULT:    -5.001      1.270      3.085
REMARK INTER + INTRA:          -5.934
REMARK INTER:                  -5.806
REMARK INTRA:                  -0.128
REMARK UNBOUND:                -0.056
REMARK SMILES O=c1c(O)c(-c2ccc(O)cc2)oc2cc(O)cc(O)c12
REMARK SMILES IDX 5 1 3 2 2 3 1 4 21 5 19 6 18 7 16 8 15 9 14 10 13 11 6 12
REMARK SMILES IDX 7 13 8 14 9 15 12 16 11 17 10 18 4 20 20 22 17 24
REMARK H PARENT 10 19 4 21 20 23 17 25
REMARK Flexibility Score: inf
ROOT
ATOM      1  C   UNL     1       3.944  -5.318   5.672  1.00  0.00     0.180 A 
ATOM      2  C   UNL     1       5.280  -5.749   5.592  1.00  0.00     0.208 A 
ATOM      3  C   UNL     1       5.558  -7.002   5.024  1.00  0.00     0.238 A 
ATOM      4  O   UNL     1       6.751  -7.405   5.004  1.00  0.00    -0.285 OA
ATOM      5  C   UNL     1       4.501  -7.802   4.528  1.00  0.00     0.111 A 
ATOM      6  C   UNL     1       4.671  -9.070   3.897  1.00  0.00     0.134 A 
ATOM      7  C   UNL     1       3.545  -9.833   3.562  1.00  0.00     0.093 A 
ATOM      8  C   UNL     1       2.257  -9.347   3.778  1.00  0.00     0.123 A 
ATOM      9  C   UNL     1       2.078  -8.082   4.341  1.00  0.00     0.094 A 
ATOM     10  C   UNL     1       3.182  -7.313   4.717  1.00  0.00     0.146 A 
ATOM     11  O   UNL     1       2.969  -6.120   5.259  1.00  0.00    -0.452 OA
ENDROOT
BRANCH   1  12
ATOM     12  C   UNL     1       3.574  -4.000   6.235  1.00  0.00     0.021 A 
ATOM     13  C   UNL     1       4.011  -2.827   5.595  1.00  0.00     0.016 A 
ATOM     14  C   UNL     1       3.692  -1.572   6.122  1.00  0.00     0.047 A 
ATOM     15  C   UNL     1       2.948  -1.472   7.301  1.00  0.00     0.115 A 
ATOM     16  C   UNL     1       2.843  -3.893   7.432  1.00  0.00     0.016 A 
ATOM     17  C   UNL     1       2.527  -2.636   7.957  1.00  0.00     0.047 A 
BRANCH  15  18
ATOM     18  O   UNL     1       2.638  -0.215   7.815  1.00  0.00    -0.508 OA
ATOM     19  H   UNL     1       1.943   0.379   7.378  1.00  0.00     0.293 HD
ENDBRANCH  15  18
ENDBRANCH   1  12
BRANCH   2  20
ATOM     20  O   UNL     1       6.307  -4.954   6.107  1.00  0.00    -0.502 OA
ATOM     21  H   UNL     1       7.045  -4.572   5.526  1.00  0.00     0.293 HD
ENDBRANCH   2  20
BRANCH   6  22
ATOM     22  O   UNL     1       5.914  -9.610   3.551  1.00  0.00    -0.507 OA
ATOM     23  H   UNL     1       6.047 -10.423   2.968  1.00  0.00     0.293 HD
ENDBRANCH   6  22
BRANCH   8  24
ATOM     24  O   UNL     1       1.159 -10.125   3.419  1.00  0.00    -0.508 OA
ATOM     25  H   UNL     1       1.160 -10.687   2.576  1.00  0.00     0.293 HD
ENDBRANCH   8  24
TORSDOF 5
ENDMDL
