MODEL 1
REMARK VINA RESULT:    -1.927      0.000      0.000
REMARK INTER + INTRA:          -1.984
REMARK INTER:                  -1.984
REMARK INTRA:                   0.000
REMARK UNBOUND:                 0.000
REMARK SMILES Nc1ncnc2nc[nH]c12
REMARK SMILES IDX 8 1 7 2 6 3 5 4 4 5 3 6 2 7 10 8 9 9 1 11
REMARK H PARENT 9 10 1 12 1 13
REMARK Flexibility Score: inf
ROOT
ATOM      1  C   UNL     1      17.981 -14.878  16.613  1.00  0.00     0.199 A 
ATOM      2  N   UNL     1      17.174 -14.878  17.709  1.00  0.00    -0.217 NA
ATOM      3  C   UNL     1      18.061 -14.878  18.717  1.00  0.00     0.182 A 
ATOM      4  N   UNL     1      17.778 -14.877  20.042  1.00  0.00    -0.215 NA
ATOM      5  C   UNL     1      18.823 -14.877  20.924  1.00  0.00     0.226 A 
ATOM      6  N   UNL     1      20.118 -14.876  20.471  1.00  0.00    -0.217 NA
ATOM      7  C   UNL     1      20.405 -14.876  19.135  1.00  0.00     0.152 A 
ATOM      8  C   UNL     1      19.331 -14.877  18.249  1.00  0.00     0.127 A 
ATOM      9  N   UNL     1      19.306 -14.877  16.911  1.00  0.00    -0.340 N 
ATOM     10  H   UNL     1      20.108 -14.876  16.243  1.00  0.00     0.168 HD
ENDROOT
BRANCH   7  11
ATOM     11  N   UNL     1      21.761 -14.875  18.685  1.00  0.00    -0.382 N 
ATOM     12  H   UNL     1      22.077 -15.578  17.981  1.00  0.00     0.158 HD
ATOM     13  H   UNL     1      22.453 -14.184  19.046  1.00  0.00     0.158 HD
ENDBRANCH   7  11
TORSDOF 1
ENDMDL
MODEL 2
REMARK VINA RESULT:    -1.888      2.189      3.729
REMARK INTER + INTRA:          -1.943
REMARK INTER:                  -1.943
REMARK INTRA:                   0.000
REMARK UNBOUND:                 0.000
REMARK SMILES Nc1ncnc2nc[nH]c12
REMARK SMILES IDX 8 1 7 2 6 3 5 4 4 5 3 6 2 7 10 8 9 9 1 11
REMARK H PARENT 9 10 1 12 1 13
REMARK Flexibility Score: inf
ROOT
ATOM      1  C   UNL     1      20.970 -14.890  19.320  1.00  0.00     0.199 A 
ATOM      2  N   UNL     1      21.601 -14.892  20.526  1.00  0.00    -0.217 NA
ATOM      3  C   UNL     1      20.570 -14.887  21.387  1.00  0.00     0.182 A 
ATOM      4  N   UNL     1      20.648 -14.887  22.740  1.00  0.00    -0.215 NA
ATOM      5  C   UNL     1      19.481 -14.883  23.452  1.00  0.00     0.226 A 
ATOM      6  N   UNL     1      18.270 -14.880  22.807  1.00  0.00    -0.217 NA
ATOM      7  C   UNL     1      18.190 -14.881  21.442  1.00  0.00     0.152 A 
ATOM      8  C   UNL     1      19.387 -14.885  20.731  1.00  0.00     0.127 A 
ATOM      9  N   UNL     1      19.616 -14.886  19.412  1.00  0.00    -0.340 N 
ATOM     10  H   UNL     1      18.925 -14.886  18.630  1.00  0.00     0.168 HD
ENDROOT
BRANCH   7  11
ATOM     11  N   UNL     1      16.919 -14.878  20.791  1.00  0.00    -0.382 N 
ATOM     12  H   UNL     1      16.378 -13.988  20.708  1.00  0.00     0.158 HD
ATOM     13  H   UNL     1      16.510 -15.750  20.393  1.00  0.00     0.158 HD
ENDBRANCH   7  11
TORSDOF 1
ENDMDL
MODEL 3
REMARK VINA RESULT:    -1.856      2.397      3.549
REMARK INTER + INTRA:          -1.911
REMARK INTER:                  -1.911
REMARK INTRA:                   0.000
REMARK UNBOUND:                 0.000
REMARK SMILES Nc1ncnc2nc[nH]c12
REMARK SMILES IDX 8 1 7 2 6 3 5 4 4 5 3 6 2 7 10 8 9 9 1 11
REMARK H PARENT 9 10 1 12 1 13
REMARK Flexibility Score: inf
ROOT
ATOM      1  C   UNL     1      21.288 -14.906  19.508  1.00  0.00     0.199 A 
ATOM      2  N   UNL     1      19.927 -14.902  19.471  1.00  0.00    -0.217 NA
ATOM      3  C   UNL     1      19.607 -14.895  20.776  1.00  0.00     0.182 A 
ATOM      4  N   UNL     1      18.358 -14.888  21.300  1.00  0.00    -0.215 NA
ATOM      5  C   UNL     1      18.231 -14.881  22.662  1.00  0.00     0.226 A 
ATOM      6  N   UNL     1      19.343 -14.880  23.466  1.00  0.00    -0.217 NA
ATOM      7  C   UNL     1      20.604 -14.886  22.938  1.00  0.00     0.152 A 
ATOM      8  C   UNL     1      20.716 -14.894  21.550  1.00  0.00     0.127 A 
ATOM      9  N   UNL     1      21.800 -14.901  20.765  1.00  0.00    -0.340 N 
ATOM     10  H   UNL     1      22.807 -14.902  21.041  1.00  0.00     0.168 HD
ENDROOT
BRANCH   7  11
ATOM     11  N   UNL     1      21.747 -14.885  23.794  1.00  0.00    -0.382 N 
ATOM     12  H   UNL     1      21.700 -14.417  24.726  1.00  0.00     0.158 HD
ATOM     13  H   UNL     1      22.639 -15.345  23.510  1.00  0.00     0.158 HD
ENDBRANCH   7  11
TORSDOF 1
ENDMDL
MODEL 4
REMARK VINA RESULT:     0.314     14.670     15.701
REMARK INTER + INTRA:           0.323
REMARK INTER:                   0.323
REMARK INTRA:                   0.000
REMARK UNBOUND:                 0.000
REMARK SMILES Nc1ncnc2nc[nH]c12
REMARK SMILES IDX 8 1 7 2 6 3 5 4 4 5 3 6 2 7 10 8 9 9 1 11
REMARK H PARENT 9 10 1 12 1 13
REMARK Flexibility Score: inf
ROOT
ATOM      1  C   UNL     1      28.341 -27.267  21.126  1.00  0.00     0.199 A 
ATOM      2  N   UNL     1      28.011 -26.498  20.052  1.00  0.00    -0.217 NA
ATOM      3  C   UNL     1      29.129 -25.777  19.864  1.00  0.00     0.182 A 
ATOM      4  N   UNL     1      29.334 -24.843  18.905  1.00  0.00    -0.215 NA
ATOM      5  C   UNL     1      30.546 -24.210  18.871  1.00  0.00     0.226 A 
ATOM      6  N   UNL     1      31.520 -24.520  19.786  1.00  0.00    -0.217 NA
ATOM      7  C   UNL     1      31.315 -25.463  20.753  1.00  0.00     0.152 A 
ATOM      8  C   UNL     1      30.076 -26.098  20.775  1.00  0.00     0.127 A 
ATOM      9  N   UNL     1      29.598 -27.045  21.591  1.00  0.00    -0.340 N 
ATOM     10  H   UNL     1      30.069 -27.512  22.397  1.00  0.00     0.168 HD
ENDROOT
BRANCH   7  11
ATOM     11  N   UNL     1      32.343 -25.770  21.696  1.00  0.00    -0.382 N 
ATOM     12  H   UNL     1      32.556 -25.103  22.471  1.00  0.00     0.158 HD
ATOM     13  H   UNL     1      32.895 -26.652  21.630  1.00  0.00     0.158 HD
ENDBRANCH   7  11
TORSDOF 1
ENDMDL
MODEL 5
REMARK VINA RESULT:     0.671      1.357      2.882
REMARK INTER + INTRA:           0.690
REMARK INTER:                   0.690
REMARK INTRA:                   0.000
REMARK UNBOUND:                 0.000
REMARK SMILES Nc1ncnc2nc[nH]c12
REMARK SMILES IDX 8 1 7 2 6 3 5 4 4 5 3 6 2 7 10 8 9 9 1 11
REMARK H PARENT 9 10 1 12 1 13
REMARK Flexibility Score: inf
ROOT
ATOM      1  C   UNL     1      18.496 -15.301  17.849  1.00  0.00     0.199 A 
ATOM      2  N   UNL     1      19.817 -15.190  18.160  1.00  0.00    -0.217 NA
ATOM      3  C   UNL     1      19.787 -15.092  19.500  1.00  0.00     0.182 A 
ATOM      4  N   UNL     1      20.854 -14.961  20.324  1.00  0.00    -0.215 NA
ATOM      5  C   UNL     1      20.623 -14.876  21.669  1.00  0.00     0.226 A 
ATOM      6  N   UNL     1      19.343 -14.925  22.161  1.00  0.00    -0.217 NA
ATOM      7  C   UNL     1      18.265 -15.059  21.331  1.00  0.00     0.152 A 
ATOM      8  C   UNL     1      18.517 -15.143  19.964  1.00  0.00     0.127 A 
ATOM      9  N   UNL     1      17.676 -15.276  18.931  1.00  0.00    -0.340 N 
ATOM     10  H   UNL     1      16.635 -15.345  18.941  1.00  0.00     0.168 HD
ENDROOT
BRANCH   7  11
ATOM     11  N   UNL     1      16.942 -15.107  21.865  1.00  0.00    -0.382 N 
ATOM     12  H   UNL     1      16.592 -15.984  22.313  1.00  0.00     0.158 HD
ATOM     13  H   UNL     1      16.306 -14.282  21.819  1.00  0.00     0.158 HD
ENDBRANCH   7  11
TORSDOF 1
ENDMDL
MODEL 6
REMARK VINA RESULT:     0.721     14.858     15.676
REMARK INTER + INTRA:           0.742
REMARK INTER:                   0.742
REMARK INTRA:                   0.000
REMARK UNBOUND:                 0.000
REMARK SMILES Nc1ncnc2nc[nH]c12
REMARK SMILES IDX 8 1 7 2 6 3 5 4 4 5 3 6 2 7 10 8 9 9 1 11
REMARK H PARENT 9 10 1 12 1 13
REMARK Flexibility Score: inf
ROOT
ATOM      1  C   UNL     1      27.901 -27.103  20.776  1.00  0.00     0.199 A 
ATOM      2  N   UNL     1      28.871 -27.220  21.725  1.00  0.00    -0.217 NA
ATOM      3  C   UNL     1      29.828 -26.402  21.256  1.00  0.00     0.182 A 
ATOM      4  N   UNL     1      31.027 -26.149  21.832  1.00  0.00    -0.215 NA
ATOM      5  C   UNL     1      31.875 -25.281  21.202  1.00  0.00     0.226 A 
ATOM      6  N   UNL     1      31.512 -24.687  20.020  1.00  0.00    -0.217 NA
ATOM      7  C   UNL     1      30.302 -24.940  19.437  1.00  0.00     0.152 A 
ATOM      8  C   UNL     1      29.450 -25.826  20.091  1.00  0.00     0.127 A 
ATOM      9  N   UNL     1      28.226 -26.257  19.765  1.00  0.00    -0.340 N 
ATOM     10  H   UNL     1      27.646 -26.010  18.933  1.00  0.00     0.168 HD
ENDROOT
BRANCH   7  11
ATOM     11  N   UNL     1      29.945 -24.310  18.206  1.00  0.00    -0.382 N 
ATOM     12  H   UNL     1      29.261 -24.770  17.565  1.00  0.00     0.158 HD
ATOM     13  H   UNL     1      30.352 -23.392  17.927  1.00  0.00     0.158 HD
ENDBRANCH   7  11
TORSDOF 1
ENDMDL
