MODEL 1
REMARK VINA RESULT:    -0.248      0.000      0.000
REMARK INTER + INTRA:           0.917
REMARK INTER:                  -0.385
REMARK INTRA:                   1.302
REMARK UNBOUND:                 1.302
REMARK SMILES C[C@]12C[C@]3(O)O[C@H](O1)[C@@]1(COC(=O)c4ccccc4)[C@@H]3C[C@]12O[C@@H]1O[C@H](CO)[C@H](O)[C@@H](O)[C@H]1O
REMARK SMILES IDX 1 1 2 2 3 3 4 4 20 5 21 6 22 7 9 8 7 9 8 10 6 11 23 12 24 13
REMARK SMILES IDX 33 14 25 15 31 16 26 17 29 18 34 19 32 21 27 23 28 24 30 26
REMARK SMILES IDX 5 28 10 30 11 31 12 32 13 33 14 34 15 35 19 36 16 37 18 38
REMARK SMILES IDX 17 39
REMARK H PARENT 34 20 32 22 28 25 30 27 5 29
REMARK Flexibility Score: inf
ROOT
ATOM      1  C   UNL     1     -46.417  26.670  -1.510  1.00  0.00     0.046 C 
ATOM      2  C   UNL     1     -45.775  27.235  -2.784  1.00  0.00     0.104 C 
ATOM      3  C   UNL     1     -46.920  27.482  -3.838  1.00  0.00     0.104 C 
ATOM      4  C   UNL     1     -46.210  28.245  -4.984  1.00  0.00     0.175 C 
ATOM      5  C   UNL     1     -45.385  29.429  -4.398  1.00  0.00     0.070 C 
ATOM      6  C   UNL     1     -45.734  29.777  -2.936  1.00  0.00     0.050 C 
ATOM      7  C   UNL     1     -44.917  28.550  -2.553  1.00  0.00     0.115 C 
ATOM      8  C   UNL     1     -44.181  28.632  -3.889  1.00  0.00     0.096 C 
ATOM      9  C   UNL     1     -44.308  27.228  -4.473  1.00  0.00     0.267 C 
ATOM     10  O   UNL     1     -44.842  26.389  -3.446  1.00  0.00    -0.342 OA
ATOM     11  O   UNL     1     -45.258  27.356  -5.532  1.00  0.00    -0.320 OA
ENDROOT
BRANCH   7  12
ATOM     12  O   UNL     1     -44.130  28.677  -1.372  1.00  0.00    -0.339 OA
BRANCH  12  13
ATOM     13  C   UNL     1     -44.763  29.349  -0.301  1.00  0.00     0.282 C 
ATOM     14  C   UNL     1     -45.568  28.349   0.547  1.00  0.00     0.202 C 
ATOM     15  O   UNL     1     -43.791  30.089   0.440  1.00  0.00    -0.341 OA
ATOM     16  C   UNL     1     -44.551  27.346   1.130  1.00  0.00     0.179 C 
ATOM     17  C   UNL     1     -43.407  29.628   1.743  1.00  0.00     0.178 C 
ATOM     18  C   UNL     1     -43.573  28.088   2.048  1.00  0.00     0.177 C 
BRANCH  14  19
ATOM     19  O   UNL     1     -46.241  29.079   1.550  1.00  0.00    -0.385 OA
ATOM     20  H   UNL     1     -46.383  30.000   1.192  1.00  0.00     0.211 HD
ENDBRANCH  14  19
BRANCH  16  21
ATOM     21  O   UNL     1     -45.204  26.320   1.827  1.00  0.00    -0.387 OA
ATOM     22  H   UNL     1     -44.511  25.645   2.041  1.00  0.00     0.211 HD
ENDBRANCH  16  21
BRANCH  17  23
ATOM     23  C   UNL     1     -41.971  30.125   1.975  1.00  0.00     0.191 C 
BRANCH  23  24
ATOM     24  O   UNL     1     -41.135  29.640   0.972  1.00  0.00    -0.394 OA
ATOM     25  H   UNL     1     -41.599  29.791   0.109  1.00  0.00     0.210 HD
ENDBRANCH  23  24
ENDBRANCH  17  23
BRANCH  18  26
ATOM     26  O   UNL     1     -42.344  27.403   2.038  1.00  0.00    -0.387 OA
ATOM     27  H   UNL     1     -42.421  26.618   2.635  1.00  0.00     0.211 HD
ENDBRANCH  18  26
ENDBRANCH  12  13
ENDBRANCH   7  12
BRANCH   4  28
ATOM     28  O   UNL     1     -47.123  28.665  -5.956  1.00  0.00    -0.365 OA
ATOM     29  H   UNL     1     -46.971  28.086  -6.755  1.00  0.00     0.214 HD
ENDBRANCH   4  28
BRANCH   8  30
ATOM     30  C   UNL     1     -42.807  29.365  -4.084  1.00  0.00     0.249 C 
BRANCH  30  31
ATOM     31  O   UNL     1     -42.751  30.125  -5.291  1.00  0.00    -0.461 OA
BRANCH  31  32
ATOM     32  C   UNL     1     -42.378  29.598  -6.537  1.00  0.00     0.338 C 
ATOM     33  O   UNL     1     -41.153  29.558  -6.885  1.00  0.00    -0.246 OA
BRANCH  32  34
ATOM     34  C   UNL     1     -43.387  28.915  -7.340  1.00  0.00     0.060 A 
ATOM     35  C   UNL     1     -43.286  27.519  -7.570  1.00  0.00     0.015 A 
ATOM     36  C   UNL     1     -44.431  29.657  -7.940  1.00  0.00     0.015 A 
ATOM     37  C   UNL     1     -44.242  26.890  -8.400  1.00  0.00     0.001 A 
ATOM     38  C   UNL     1     -45.308  29.012  -8.831  1.00  0.00     0.001 A 
ATOM     39  C   UNL     1     -45.214  27.637  -9.057  1.00  0.00     0.000 A 
ENDBRANCH  32  34
ENDBRANCH  31  32
ENDBRANCH  30  31
ENDBRANCH   8  30
TORSDOF 12
ENDMDL
MODEL 2
REMARK VINA RESULT:     1.548      1.809      7.643
REMARK INTER + INTRA:           3.710
REMARK INTER:                  -0.979
REMARK INTRA:                   4.688
REMARK UNBOUND:                 1.302
REMARK SMILES C[C@]12C[C@]3(O)O[C@H](O1)[C@@]1(COC(=O)c4ccccc4)[C@@H]3C[C@]12O[C@@H]1O[C@H](CO)[C@H](O)[C@@H](O)[C@H]1O
REMARK SMILES IDX 1 1 2 2 3 3 4 4 20 5 21 6 22 7 9 8 7 9 8 10 6 11 23 12 24 13
REMARK SMILES IDX 33 14 25 15 31 16 26 17 29 18 34 19 32 21 27 23 28 24 30 26
REMARK SMILES IDX 5 28 10 30 11 31 12 32 13 33 14 34 15 35 19 36 16 37 18 38
REMARK SMILES IDX 17 39
REMARK H PARENT 34 20 32 22 28 25 30 27 5 29
REMARK Flexibility Score: inf
ROOT
ATOM      1  C   UNL     1     -46.606  30.125  -5.445  1.00  0.00     0.046 C 
ATOM      2  C   UNL     1     -45.990  29.628  -4.130  1.00  0.00     0.104 C 
ATOM      3  C   UNL     1     -46.907  30.118  -2.947  1.00  0.00     0.104 C 
ATOM      4  C   UNL     1     -46.333  29.391  -1.707  1.00  0.00     0.175 C 
ATOM      5  C   UNL     1     -46.160  27.874  -2.017  1.00  0.00     0.070 C 
ATOM      6  C   UNL     1     -46.900  27.403  -3.287  1.00  0.00     0.050 C 
ATOM      7  C   UNL     1     -45.768  28.058  -4.068  1.00  0.00     0.115 C 
ATOM      8  C   UNL     1     -44.870  27.959  -2.836  1.00  0.00     0.096 C 
ATOM      9  C   UNL     1     -44.329  29.375  -2.654  1.00  0.00     0.267 C 
ATOM     10  O   UNL     1     -44.692  30.120  -3.818  1.00  0.00    -0.342 OA
ATOM     11  O   UNL     1     -45.023  29.888  -1.517  1.00  0.00    -0.320 OA
ENDROOT
BRANCH   7  12
ATOM     12  O   UNL     1     -45.342  27.362  -5.236  1.00  0.00    -0.339 OA
BRANCH  12  13
ATOM     13  C   UNL     1     -45.790  27.916  -6.459  1.00  0.00     0.282 C 
ATOM     14  C   UNL     1     -44.887  29.093  -6.866  1.00  0.00     0.202 C 
ATOM     15  O   UNL     1     -45.882  26.886  -7.445  1.00  0.00    -0.341 OA
ATOM     16  C   UNL     1     -43.473  28.513  -7.079  1.00  0.00     0.179 C 
ATOM     17  C   UNL     1     -44.916  26.846  -8.505  1.00  0.00     0.178 C 
ATOM     18  C   UNL     1     -43.507  27.501  -8.231  1.00  0.00     0.177 C 
BRANCH  14  19
ATOM     19  O   UNL     1     -45.421  29.657  -8.044  1.00  0.00    -0.385 OA
ATOM     20  H   UNL     1     -45.754  30.568  -7.804  1.00  0.00     0.211 HD
ENDBRANCH  14  19
BRANCH  16  21
ATOM     21  O   UNL     1     -42.548  29.532  -7.340  1.00  0.00    -0.387 OA
ATOM     22  H   UNL     1     -42.194  29.359  -8.248  1.00  0.00     0.211 HD
ENDBRANCH  16  21
BRANCH  17  23
ATOM     23  C   UNL     1     -44.810  25.377  -8.943  1.00  0.00     0.191 C 
BRANCH  23  24
ATOM     24  O   UNL     1     -45.287  25.236 -10.245  1.00  0.00    -0.394 OA
ATOM     25  H   UNL     1     -44.529  25.425 -10.854  1.00  0.00     0.210 HD
ENDBRANCH  23  24
ENDBRANCH  17  23
BRANCH  18  26
ATOM     26  O   UNL     1     -42.502  26.542  -8.011  1.00  0.00    -0.387 OA
ATOM     27  H   UNL     1     -42.555  26.246  -7.069  1.00  0.00     0.211 HD
ENDBRANCH  18  26
ENDBRANCH  12  13
ENDBRANCH   7  12
BRANCH   4  28
ATOM     28  O   UNL     1     -47.123  29.614  -0.575  1.00  0.00    -0.365 OA
ATOM     29  H   UNL     1     -47.538  28.737  -0.342  1.00  0.00     0.214 HD
ENDBRANCH   4  28
BRANCH   8  30
ATOM     30  C   UNL     1     -43.874  26.775  -2.576  1.00  0.00     0.249 C 
BRANCH  30  31
ATOM     31  O   UNL     1     -44.058  26.167  -1.298  1.00  0.00    -0.461 OA
BRANCH  31  32
ATOM     32  C   UNL     1     -44.584  26.830  -0.178  1.00  0.00     0.338 C 
ATOM     33  O   UNL     1     -45.669  26.434   0.360  1.00  0.00    -0.246 OA
BRANCH  32  34
ATOM     34  C   UNL     1     -43.772  27.847   0.482  1.00  0.00     0.060 A 
ATOM     35  C   UNL     1     -44.351  28.695   1.460  1.00  0.00     0.015 A 
ATOM     36  C   UNL     1     -42.422  28.027   0.099  1.00  0.00     0.015 A 
ATOM     37  C   UNL     1     -43.559  29.711   2.041  1.00  0.00     0.001 A 
ATOM     38  C   UNL     1     -41.695  29.106   0.634  1.00  0.00     0.001 A 
ATOM     39  C   UNL     1     -42.260  29.941   1.600  1.00  0.00     0.000 A 
ENDBRANCH  32  34
ENDBRANCH  31  32
ENDBRANCH  30  31
ENDBRANCH   8  30
TORSDOF 12
ENDMDL
MODEL 3
REMARK VINA RESULT:     2.103      1.850      7.561
REMARK INTER + INTRA:           4.574
REMARK INTER:                   0.604
REMARK INTRA:                   3.970
REMARK UNBOUND:                 1.302
REMARK SMILES C[C@]12C[C@]3(O)O[C@H](O1)[C@@]1(COC(=O)c4ccccc4)[C@@H]3C[C@]12O[C@@H]1O[C@H](CO)[C@H](O)[C@@H](O)[C@H]1O
REMARK SMILES IDX 1 1 2 2 3 3 4 4 20 5 21 6 22 7 9 8 7 9 8 10 6 11 23 12 24 13
REMARK SMILES IDX 33 14 25 15 31 16 26 17 29 18 34 19 32 21 27 23 28 24 30 26
REMARK SMILES IDX 5 28 10 30 11 31 12 32 13 33 14 34 15 35 19 36 16 37 18 38
REMARK SMILES IDX 17 39
REMARK H PARENT 34 20 32 22 28 25 30 27 5 29
REMARK Flexibility Score: inf
ROOT
ATOM      1  C   UNL     1     -46.448  30.096  -5.653  1.00  0.00     0.046 C 
ATOM      2  C   UNL     1     -45.861  29.614  -4.320  1.00  0.00     0.104 C 
ATOM      3  C   UNL     1     -46.810  30.106  -3.164  1.00  0.00     0.104 C 
ATOM      4  C   UNL     1     -46.260  29.392  -1.904  1.00  0.00     0.175 C 
ATOM      5  C   UNL     1     -46.069  27.875  -2.198  1.00  0.00     0.070 C 
ATOM      6  C   UNL     1     -46.774  27.389  -3.482  1.00  0.00     0.050 C 
ATOM      7  C   UNL     1     -45.628  28.046  -4.240  1.00  0.00     0.115 C 
ATOM      8  C   UNL     1     -44.760  27.964  -2.986  1.00  0.00     0.096 C 
ATOM      9  C   UNL     1     -44.234  29.385  -2.802  1.00  0.00     0.267 C 
ATOM     10  O   UNL     1     -44.575  30.119  -3.980  1.00  0.00    -0.342 OA
ATOM     11  O   UNL     1     -44.960  29.902  -1.686  1.00  0.00    -0.320 OA
ENDROOT
BRANCH   7  12
ATOM     12  O   UNL     1     -45.169  27.345  -5.393  1.00  0.00    -0.339 OA
BRANCH  12  13
ATOM     13  C   UNL     1     -44.037  27.910  -6.025  1.00  0.00     0.282 C 
ATOM     14  C   UNL     1     -43.349  26.857  -6.911  1.00  0.00     0.202 C 
ATOM     15  O   UNL     1     -44.422  29.095  -6.725  1.00  0.00    -0.341 OA
ATOM     16  C   UNL     1     -44.369  26.457  -7.996  1.00  0.00     0.179 C 
ATOM     17  C   UNL     1     -44.470  29.075  -8.159  1.00  0.00     0.178 C 
ATOM     18  C   UNL     1     -44.699  27.681  -8.860  1.00  0.00     0.177 C 
BRANCH  14  19
ATOM     19  O   UNL     1     -42.186  27.445  -7.453  1.00  0.00    -0.385 OA
ATOM     20  H   UNL     1     -42.153  27.186  -8.417  1.00  0.00     0.211 HD
ENDBRANCH  14  19
BRANCH  16  21
ATOM     21  O   UNL     1     -43.874  25.411  -8.787  1.00  0.00    -0.387 OA
ATOM     22  H   UNL     1     -43.266  24.888  -8.206  1.00  0.00     0.211 HD
ENDBRANCH  16  21
BRANCH  17  23
ATOM     23  C   UNL     1     -45.513  30.124  -8.574  1.00  0.00     0.191 C 
BRANCH  23  24
ATOM     24  O   UNL     1     -46.258  29.650  -9.652  1.00  0.00    -0.394 OA
ATOM     25  H   UNL     1     -46.510  30.436 -10.199  1.00  0.00     0.210 HD
ENDBRANCH  23  24
ENDBRANCH  17  23
BRANCH  18  26
ATOM     26  O   UNL     1     -46.008  27.536  -9.355  1.00  0.00    -0.387 OA
ATOM     27  H   UNL     1     -46.077  26.655  -9.799  1.00  0.00     0.211 HD
ENDBRANCH  18  26
ENDBRANCH  12  13
ENDBRANCH   7  12
BRANCH   4  28
ATOM     28  O   UNL     1     -47.080  29.618  -0.793  1.00  0.00    -0.365 OA
ATOM     29  H   UNL     1     -47.924  29.112  -0.957  1.00  0.00     0.214 HD
ENDBRANCH   4  28
BRANCH   8  30
ATOM     30  C   UNL     1     -43.761  26.789  -2.693  1.00  0.00     0.249 C 
BRANCH  30  31
ATOM     31  O   UNL     1     -43.663  26.480  -1.303  1.00  0.00    -0.461 OA
BRANCH  31  32
ATOM     32  C   UNL     1     -43.242  27.391  -0.321  1.00  0.00     0.338 C 
ATOM     33  O   UNL     1     -42.049  27.837  -0.318  1.00  0.00    -0.246 OA
BRANCH  32  34
ATOM     34  C   UNL     1     -44.241  27.974   0.569  1.00  0.00     0.060 A 
ATOM     35  C   UNL     1     -45.433  27.264   0.861  1.00  0.00     0.015 A 
ATOM     36  C   UNL     1     -44.046  29.274   1.090  1.00  0.00     0.015 A 
ATOM     37  C   UNL     1     -46.412  27.875   1.678  1.00  0.00     0.001 A 
ATOM     38  C   UNL     1     -45.081  29.883   1.824  1.00  0.00     0.001 A 
ATOM     39  C   UNL     1     -46.255  29.186   2.117  1.00  0.00     0.000 A 
ENDBRANCH  32  34
ENDBRANCH  31  32
ENDBRANCH  30  31
ENDBRANCH   8  30
TORSDOF 12
ENDMDL
