MODEL 1
REMARK VINA RESULT:     0.000      0.000      0.000
REMARK INTER + INTRA:          -2.841
REMARK INTER:                   0.000
REMARK INTRA:                  -2.841
REMARK UNBOUND:                -2.841
REMARK SMILES CCCCCCCCCCCCCCC(=O)[O-]
REMARK SMILES IDX 9 1 10 2 11 3 12 4 13 5 14 6 15 7 16 8 17 9 8 10 7 11 6 12
REMARK SMILES IDX 5 13 4 14 3 15 2 16 1 17
REMARK H PARENT
REMARK Flexibility Score: inf
ROOT
ATOM      1  C   UNL     1     170.886 191.749 195.672  1.00  0.00     0.000 C 
ENDROOT
BRANCH   1   2
ATOM      2  C   UNL     1     171.488 192.397 196.933  1.00  0.00     0.000 C 
BRANCH   2   3
ATOM      3  C   UNL     1     171.441 193.936 196.961  1.00  0.00     0.000 C 
BRANCH   3   4
ATOM      4  C   UNL     1     170.960 194.496 198.310  1.00  0.00     0.000 C 
BRANCH   4   5
ATOM      5  C   UNL     1     170.992 193.444 199.435  1.00  0.00     0.006 C 
BRANCH   5   6
ATOM      6  C   UNL     1     169.753 193.459 200.344  1.00  0.00     0.053 C 
BRANCH   6   7
ATOM      7  C   UNL     1     169.453 194.832 200.861  1.00  0.00     0.041 C 
ATOM      8  O   UNL     1     170.221 195.377 201.696  1.00  0.00    -0.550 OA
ATOM      9  O   UNL     1     168.306 195.496 200.445  1.00  0.00    -0.550 OA
ENDBRANCH   6   7
ENDBRANCH   5   6
ENDBRANCH   4   5
ENDBRANCH   3   4
ENDBRANCH   2   3
ENDBRANCH   1   2
BRANCH   1  10
ATOM     10  C   UNL     1     169.608 190.943 195.964  1.00  0.00     0.000 C 
BRANCH  10  11
ATOM     11  C   UNL     1     169.382 190.721 197.468  1.00  0.00    -0.000 C 
BRANCH  11  12
ATOM     12  C   UNL     1     168.020 191.247 197.948  1.00  0.00    -0.000 C 
BRANCH  12  13
ATOM     13  C   UNL     1     167.433 192.246 196.938  1.00  0.00    -0.000 C 
BRANCH  13  14
ATOM     14  C   UNL     1     167.424 193.689 197.465  1.00  0.00    -0.000 C 
BRANCH  14  15
ATOM     15  C   UNL     1     167.824 194.714 196.389  1.00  0.00    -0.000 C 
BRANCH  15  16
ATOM     16  C   UNL     1     167.923 194.088 194.989  1.00  0.00    -0.003 C 
ATOM     17  C   UNL     1     169.081 194.654 194.167  1.00  0.00     0.004 C 
ENDBRANCH  15  16
ENDBRANCH  14  15
ENDBRANCH  13  14
ENDBRANCH  12  13
ENDBRANCH  11  12
ENDBRANCH  10  11
ENDBRANCH   1  10
TORSDOF 13
ENDMDL
MODEL 2
REMARK VINA RESULT:     0.000      4.892      7.523
REMARK INTER + INTRA:          -2.841
REMARK INTER:                   0.000
REMARK INTRA:                  -2.841
REMARK UNBOUND:                -2.841
REMARK SMILES CCCCCCCCCCCCCCC(=O)[O-]
REMARK SMILES IDX 9 1 10 2 11 3 12 4 13 5 14 6 15 7 16 8 17 9 8 10 7 11 6 12
REMARK SMILES IDX 5 13 4 14 3 15 2 16 1 17
REMARK H PARENT
REMARK Flexibility Score: inf
ROOT
ATOM      1  C   UNL     1     172.860 195.524 196.245  1.00  0.00     0.000 C 
ENDROOT
BRANCH   1   2
ATOM      2  C   UNL     1     172.375 194.239 195.548  1.00  0.00     0.000 C 
BRANCH   2   3
ATOM      3  C   UNL     1     172.079 193.058 196.491  1.00  0.00     0.000 C 
BRANCH   3   4
ATOM      4  C   UNL     1     172.647 191.725 195.976  1.00  0.00     0.000 C 
BRANCH   4   5
ATOM      5  C   UNL     1     173.057 191.787 194.493  1.00  0.00     0.006 C 
BRANCH   5   6
ATOM      6  C   UNL     1     174.417 191.139 194.189  1.00  0.00     0.053 C 
BRANCH   6   7
ATOM      7  C   UNL     1     174.524 189.761 194.766  1.00  0.00     0.041 C 
ATOM      8  O   UNL     1     175.392 189.506 195.641  1.00  0.00    -0.550 OA
ATOM      9  O   UNL     1     173.685 188.751 194.312  1.00  0.00    -0.550 OA
ENDBRANCH   6   7
ENDBRANCH   5   6
ENDBRANCH   4   5
ENDBRANCH   3   4
ENDBRANCH   2   3
ENDBRANCH   1   2
BRANCH   1  10
ATOM     10  C   UNL     1     174.316 195.881 195.899  1.00  0.00     0.000 C 
BRANCH  10  11
ATOM     11  C   UNL     1     174.869 195.040 194.737  1.00  0.00    -0.000 C 
BRANCH  11  12
ATOM     12  C   UNL     1     176.152 194.283 195.109  1.00  0.00    -0.000 C 
BRANCH  12  13
ATOM     13  C   UNL     1     176.285 194.149 196.635  1.00  0.00    -0.000 C 
BRANCH  13  14
ATOM     14  C   UNL     1     176.054 192.712 197.128  1.00  0.00    -0.000 C 
BRANCH  14  15
ATOM     15  C   UNL     1     175.253 192.659 198.440  1.00  0.00    -0.000 C 
BRANCH  15  16
ATOM     16  C   UNL     1     175.015 194.053 199.041  1.00  0.00    -0.003 C 
ATOM     17  C   UNL     1     173.627 194.201 199.664  1.00  0.00     0.004 C 
ENDBRANCH  15  16
ENDBRANCH  14  15
ENDBRANCH  13  14
ENDBRANCH  12  13
ENDBRANCH  11  12
ENDBRANCH  10  11
ENDBRANCH   1  10
TORSDOF 13
ENDMDL
MODEL 3
REMARK VINA RESULT:     0.001      6.158      8.244
REMARK INTER + INTRA:          -2.839
REMARK INTER:                   0.000
REMARK INTRA:                  -2.839
REMARK UNBOUND:                -2.841
REMARK SMILES CCCCCCCCCCCCCCC(=O)[O-]
REMARK SMILES IDX 9 1 10 2 11 3 12 4 13 5 14 6 15 7 16 8 17 9 8 10 7 11 6 12
REMARK SMILES IDX 5 13 4 14 3 15 2 16 1 17
REMARK H PARENT
REMARK Flexibility Score: inf
ROOT
ATOM      1  C   UNL     1     174.603 185.137 194.994  1.00  0.00     0.000 C 
ENDROOT
BRANCH   1   2
ATOM      2  C   UNL     1     174.734 186.595 194.514  1.00  0.00     0.000 C 
BRANCH   2   3
ATOM      3  C   UNL     1     175.468 187.538 195.484  1.00  0.00     0.000 C 
BRANCH   3   4
ATOM      4  C   UNL     1     174.837 188.939 195.550  1.00  0.00     0.000 C 
BRANCH   4   5
ATOM      5  C   UNL     1     173.656 189.104 194.576  1.00  0.00     0.006 C 
BRANCH   5   6
ATOM      6  C   UNL     1     172.540 190.028 195.091  1.00  0.00     0.053 C 
BRANCH   6   7
ATOM      7  C   UNL     1     171.184 189.567 194.654  1.00  0.00     0.041 C 
ATOM      8  O   UNL     1     170.998 189.174 193.472  1.00  0.00    -0.550 OA
ATOM      9  O   UNL     1     170.117 189.602 195.542  1.00  0.00    -0.550 OA
ENDBRANCH   6   7
ENDBRANCH   5   6
ENDBRANCH   4   5
ENDBRANCH   3   4
ENDBRANCH   2   3
ENDBRANCH   1   2
BRANCH   1  10
ATOM     10  C   UNL     1     173.141 184.689 195.157  1.00  0.00     0.000 C 
BRANCH  10  11
ATOM     11  C   UNL     1     172.141 185.740 194.648  1.00  0.00    -0.000 C 
BRANCH  11  12
ATOM     12  C   UNL     1     171.036 186.053 195.669  1.00  0.00    -0.000 C 
BRANCH  12  13
ATOM     13  C   UNL     1     171.584 185.995 197.104  1.00  0.00    -0.000 C 
BRANCH  13  14
ATOM     14  C   UNL     1     172.089 187.358 197.603  1.00  0.00    -0.000 C 
BRANCH  14  15
ATOM     15  C   UNL     1     173.319 187.233 198.519  1.00  0.00    -0.000 C 
BRANCH  15  16
ATOM     16  C   UNL     1     173.821 185.786 198.635  1.00  0.00    -0.003 C 
ATOM     17  C   UNL     1     175.346 185.689 198.676  1.00  0.00     0.004 C 
ENDBRANCH  15  16
ENDBRANCH  14  15
ENDBRANCH  13  14
ENDBRANCH  12  13
ENDBRANCH  11  12
ENDBRANCH  10  11
ENDBRANCH   1  10
TORSDOF 13
ENDMDL
MODEL 4
REMARK VINA RESULT:     0.002      4.833      6.482
REMARK INTER + INTRA:          -2.838
REMARK INTER:                   0.000
REMARK INTRA:                  -2.838
REMARK UNBOUND:                -2.841
REMARK SMILES CCCCCCCCCCCCCCC(=O)[O-]
REMARK SMILES IDX 9 1 10 2 11 3 12 4 13 5 14 6 15 7 16 8 17 9 8 10 7 11 6 12
REMARK SMILES IDX 5 13 4 14 3 15 2 16 1 17
REMARK H PARENT
REMARK Flexibility Score: inf
ROOT
ATOM      1  C   UNL     1     171.483 195.511 193.463  1.00  0.00     0.000 C 
ENDROOT
BRANCH   1   2
ATOM      2  C   UNL     1     171.966 194.231 194.170  1.00  0.00     0.000 C 
BRANCH   2   3
ATOM      3  C   UNL     1     171.057 193.733 195.310  1.00  0.00     0.000 C 
BRANCH   3   4
ATOM      4  C   UNL     1     170.855 192.209 195.290  1.00  0.00     0.000 C 
BRANCH   4   5
ATOM      5  C   UNL     1     171.806 191.496 194.311  1.00  0.00     0.006 C 
BRANCH   5   6
ATOM      6  C   UNL     1     171.144 190.375 193.495  1.00  0.00     0.053 C 
BRANCH   6   7
ATOM      7  C   UNL     1     171.993 189.947 192.337  1.00  0.00     0.041 C 
ATOM      8  O   UNL     1     172.960 190.661 191.963  1.00  0.00    -0.550 OA
ATOM      9  O   UNL     1     171.695 188.777 191.651  1.00  0.00    -0.550 OA
ENDBRANCH   6   7
ENDBRANCH   5   6
ENDBRANCH   4   5
ENDBRANCH   3   4
ENDBRANCH   2   3
ENDBRANCH   1   2
BRANCH   1  10
ATOM     10  C   UNL     1     171.031 195.260 192.013  1.00  0.00     0.000 C 
BRANCH  10  11
ATOM     11  C   UNL     1     171.470 193.884 191.488  1.00  0.00    -0.000 C 
BRANCH  11  12
ATOM     12  C   UNL     1     170.290 193.027 191.007  1.00  0.00    -0.000 C 
BRANCH  12  13
ATOM     13  C   UNL     1     168.959 193.576 191.546  1.00  0.00    -0.000 C 
BRANCH  13  14
ATOM     14  C   UNL     1     168.321 192.658 192.600  1.00  0.00    -0.000 C 
BRANCH  14  15
ATOM     15  C   UNL     1     167.686 193.443 193.761  1.00  0.00    -0.000 C 
BRANCH  15  16
ATOM     16  C   UNL     1     167.663 194.958 193.503  1.00  0.00    -0.003 C 
ATOM     17  C   UNL     1     167.986 195.777 194.753  1.00  0.00     0.004 C 
ENDBRANCH  15  16
ENDBRANCH  14  15
ENDBRANCH  13  14
ENDBRANCH  12  13
ENDBRANCH  11  12
ENDBRANCH  10  11
ENDBRANCH   1  10
TORSDOF 13
ENDMDL
MODEL 5
REMARK VINA RESULT:     0.003      7.516      9.271
REMARK INTER + INTRA:          -2.837
REMARK INTER:                   0.000
REMARK INTRA:                  -2.837
REMARK UNBOUND:                -2.841
REMARK SMILES CCCCCCCCCCCCCCC(=O)[O-]
REMARK SMILES IDX 9 1 10 2 11 3 12 4 13 5 14 6 15 7 16 8 17 9 8 10 7 11 6 12
REMARK SMILES IDX 5 13 4 14 3 15 2 16 1 17
REMARK H PARENT
REMARK Flexibility Score: inf
ROOT
ATOM      1  C   UNL     1     177.395 190.236 190.350  1.00  0.00     0.000 C 
ENDROOT
BRANCH   1   2
ATOM      2  C   UNL     1     176.875 190.873 191.652  1.00  0.00     0.000 C 
BRANCH   2   3
ATOM      3  C   UNL     1     176.509 192.365 191.547  1.00  0.00     0.000 C 
BRANCH   3   4
ATOM      4  C   UNL     1     175.198 192.712 192.273  1.00  0.00     0.000 C 
BRANCH   4   5
ATOM      5  C   UNL     1     174.690 191.562 193.163  1.00  0.00     0.006 C 
BRANCH   5   6
ATOM      6  C   UNL     1     173.174 191.321 193.074  1.00  0.00     0.053 C 
BRANCH   6   7
ATOM      7  C   UNL     1     172.789 189.975 193.607  1.00  0.00     0.041 C 
ATOM      8  O   UNL     1     173.676 189.147 193.939  1.00  0.00    -0.550 OA
ATOM      9  O   UNL     1     171.448 189.624 193.706  1.00  0.00    -0.550 OA
ENDBRANCH   6   7
ENDBRANCH   5   6
ENDBRANCH   4   5
ENDBRANCH   3   4
ENDBRANCH   2   3
ENDBRANCH   1   2
BRANCH   1  10
ATOM     10  C   UNL     1     176.431 189.186 189.770  1.00  0.00     0.000 C 
BRANCH  10  11
ATOM     11  C   UNL     1     175.319 188.796 190.758  1.00  0.00    -0.000 C 
BRANCH  11  12
ATOM     12  C   UNL     1     173.911 189.018 190.186  1.00  0.00    -0.000 C 
BRANCH  12  13
ATOM     13  C   UNL     1     173.949 189.997 189.002  1.00  0.00    -0.000 C 
BRANCH  13  14
ATOM     14  C   UNL     1     173.345 191.368 189.343  1.00  0.00    -0.000 C 
BRANCH  14  15
ATOM     15  C   UNL     1     174.119 192.533 188.701  1.00  0.00    -0.000 C 
BRANCH  15  16
ATOM     16  C   UNL     1     175.232 192.049 187.757  1.00  0.00    -0.003 C 
ATOM     17  C   UNL     1     176.507 192.886 187.866  1.00  0.00     0.004 C 
ENDBRANCH  15  16
ENDBRANCH  14  15
ENDBRANCH  13  14
ENDBRANCH  12  13
ENDBRANCH  11  12
ENDBRANCH  10  11
ENDBRANCH   1  10
TORSDOF 13
ENDMDL
MODEL 6
REMARK VINA RESULT:     0.005      7.308      9.345
REMARK INTER + INTRA:          -2.833
REMARK INTER:                   0.000
REMARK INTRA:                  -2.833
REMARK UNBOUND:                -2.841
REMARK SMILES CCCCCCCCCCCCCCC(=O)[O-]
REMARK SMILES IDX 9 1 10 2 11 3 12 4 13 5 14 6 15 7 16 8 17 9 8 10 7 11 6 12
REMARK SMILES IDX 5 13 4 14 3 15 2 16 1 17
REMARK H PARENT
REMARK Flexibility Score: inf
ROOT
ATOM      1  C   UNL     1     174.384 185.509 190.693  1.00  0.00     0.000 C 
ENDROOT
BRANCH   1   2
ATOM      2  C   UNL     1     173.816 185.836 192.087  1.00  0.00     0.000 C 
BRANCH   2   3
ATOM      3  C   UNL     1     174.142 187.247 192.609  1.00  0.00     0.000 C 
BRANCH   3   4
ATOM      4  C   UNL     1     172.936 187.934 193.272  1.00  0.00     0.000 C 
BRANCH   4   5
ATOM      5  C   UNL     1     171.778 186.958 193.554  1.00  0.00     0.006 C 
BRANCH   5   6
ATOM      6  C   UNL     1     170.391 187.500 193.173  1.00  0.00     0.053 C 
BRANCH   6   7
ATOM      7  C   UNL     1     170.151 188.868 193.735  1.00  0.00     0.041 C 
ATOM      8  O   UNL     1     169.991 189.850 192.965  1.00  0.00    -0.550 OA
ATOM      9  O   UNL     1     170.136 189.062 195.110  1.00  0.00    -0.550 OA
ENDBRANCH   6   7
ENDBRANCH   5   6
ENDBRANCH   4   5
ENDBRANCH   3   4
ENDBRANCH   2   3
ENDBRANCH   1   2
BRANCH   1  10
ATOM     10  C   UNL     1     173.294 185.399 189.613  1.00  0.00     0.000 C 
BRANCH  10  11
ATOM     11  C   UNL     1     171.886 185.242 190.209  1.00  0.00    -0.000 C 
BRANCH  11  12
ATOM     12  C   UNL     1     170.907 186.317 189.713  1.00  0.00    -0.000 C 
BRANCH  12  13
ATOM     13  C   UNL     1     171.663 187.490 189.068  1.00  0.00    -0.000 C 
BRANCH  13  14
ATOM     14  C   UNL     1     171.578 188.781 189.898  1.00  0.00    -0.000 C 
BRANCH  14  15
ATOM     15  C   UNL     1     172.909 189.551 189.932  1.00  0.00    -0.000 C 
BRANCH  15  16
ATOM     16  C   UNL     1     173.941 188.986 188.942  1.00  0.00    -0.003 C 
ATOM     17  C   UNL     1     175.352 188.927 189.526  1.00  0.00     0.004 C 
ENDBRANCH  15  16
ENDBRANCH  14  15
ENDBRANCH  13  14
ENDBRANCH  12  13
ENDBRANCH  11  12
ENDBRANCH  10  11
ENDBRANCH   1  10
TORSDOF 13
ENDMDL
MODEL 7
REMARK VINA RESULT:     0.005      8.725     10.924
REMARK INTER + INTRA:          -2.833
REMARK INTER:                   0.000
REMARK INTRA:                  -2.833
REMARK UNBOUND:                -2.841
REMARK SMILES CCCCCCCCCCCCCCC(=O)[O-]
REMARK SMILES IDX 9 1 10 2 11 3 12 4 13 5 14 6 15 7 16 8 17 9 8 10 7 11 6 12
REMARK SMILES IDX 5 13 4 14 3 15 2 16 1 17
REMARK H PARENT
REMARK Flexibility Score: inf
ROOT
ATOM      1  C   UNL     1     178.377 188.236 195.620  1.00  0.00     0.000 C 
ENDROOT
BRANCH   1   2
ATOM      2  C   UNL     1     178.455 189.127 194.366  1.00  0.00     0.000 C 
BRANCH   2   3
ATOM      3  C   UNL     1     177.369 190.215 194.271  1.00  0.00     0.000 C 
BRANCH   3   4
ATOM      4  C   UNL     1     177.937 191.596 193.902  1.00  0.00     0.000 C 
BRANCH   4   5
ATOM      5  C   UNL     1     179.346 191.513 193.287  1.00  0.00     0.006 C 
BRANCH   5   6
ATOM      6  C   UNL     1     180.329 192.567 193.822  1.00  0.00     0.053 C 
BRANCH   6   7
ATOM      7  C   UNL     1     179.764 193.952 193.740  1.00  0.00     0.041 C 
ATOM      8  O   UNL     1     179.536 194.607 194.791  1.00  0.00    -0.550 OA
ATOM      9  O   UNL     1     179.459 194.507 192.504  1.00  0.00    -0.550 OA
ENDBRANCH   6   7
ENDBRANCH   5   6
ENDBRANCH   4   5
ENDBRANCH   3   4
ENDBRANCH   2   3
ENDBRANCH   1   2
BRANCH   1  10
ATOM     10  C   UNL     1     179.597 188.394 196.545  1.00  0.00     0.000 C 
BRANCH  10  11
ATOM     11  C   UNL     1     180.717 189.231 195.905  1.00  0.00    -0.000 C 
BRANCH  11  12
ATOM     12  C   UNL     1     181.116 190.443 196.761  1.00  0.00    -0.000 C 
BRANCH  12  13
ATOM     13  C   UNL     1     179.992 190.813 197.742  1.00  0.00    -0.000 C 
BRANCH  13  14
ATOM     14  C   UNL     1     179.277 192.120 197.362  1.00  0.00    -0.000 C 
BRANCH  14  15
ATOM     15  C   UNL     1     177.750 192.026 197.522  1.00  0.00    -0.000 C 
BRANCH  15  16
ATOM     16  C   UNL     1     177.313 190.747 198.254  1.00  0.00    -0.003 C 
ATOM     17  C   UNL     1     175.986 190.192 197.736  1.00  0.00     0.004 C 
ENDBRANCH  15  16
ENDBRANCH  14  15
ENDBRANCH  13  14
ENDBRANCH  12  13
ENDBRANCH  11  12
ENDBRANCH  10  11
ENDBRANCH   1  10
TORSDOF 13
ENDMDL
MODEL 8
REMARK VINA RESULT:     0.005      4.860      6.526
REMARK INTER + INTRA:          -2.832
REMARK INTER:                   0.000
REMARK INTRA:                  -2.832
REMARK UNBOUND:                -2.841
REMARK SMILES CCCCCCCCCCCCCCC(=O)[O-]
REMARK SMILES IDX 9 1 10 2 11 3 12 4 13 5 14 6 15 7 16 8 17 9 8 10 7 11 6 12
REMARK SMILES IDX 5 13 4 14 3 15 2 16 1 17
REMARK H PARENT
REMARK Flexibility Score: inf
ROOT
ATOM      1  C   UNL     1     172.975 193.366 197.900  1.00  0.00     0.000 C 
ENDROOT
BRANCH   1   2
ATOM      2  C   UNL     1     174.223 193.945 198.592  1.00  0.00     0.000 C 
BRANCH   2   3
ATOM      3  C   UNL     1     175.488 193.998 197.716  1.00  0.00     0.000 C 
BRANCH   3   4
ATOM      4  C   UNL     1     176.269 195.314 197.873  1.00  0.00     0.000 C 
BRANCH   4   5
ATOM      5  C   UNL     1     175.785 196.153 199.070  1.00  0.00     0.006 C 
BRANCH   5   6
ATOM      6  C   UNL     1     175.620 197.650 198.763  1.00  0.00     0.053 C 
BRANCH   6   7
ATOM      7  C   UNL     1     176.848 198.230 198.130  1.00  0.00     0.041 C 
ATOM      8  O   UNL     1     176.800 198.696 196.962  1.00  0.00    -0.550 OA
ATOM      9  O   UNL     1     178.054 198.227 198.820  1.00  0.00    -0.550 OA
ENDBRANCH   6   7
ENDBRANCH   5   6
ENDBRANCH   4   5
ENDBRANCH   3   4
ENDBRANCH   2   3
ENDBRANCH   1   2
BRANCH   1  10
ATOM     10  C   UNL     1     171.901 194.430 197.613  1.00  0.00     0.000 C 
BRANCH  10  11
ATOM     11  C   UNL     1     172.119 195.720 198.419  1.00  0.00    -0.000 C 
BRANCH  11  12
ATOM     12  C   UNL     1     172.217 196.968 197.528  1.00  0.00    -0.000 C 
BRANCH  12  13
ATOM     13  C   UNL     1     172.462 196.576 196.062  1.00  0.00    -0.000 C 
BRANCH  13  14
ATOM     14  C   UNL     1     173.861 196.975 195.566  1.00  0.00    -0.000 C 
BRANCH  14  15
ATOM     15  C   UNL     1     174.495 195.905 194.661  1.00  0.00    -0.000 C 
BRANCH  15  16
ATOM     16  C   UNL     1     173.508 194.785 194.293  1.00  0.00    -0.003 C 
ATOM     17  C   UNL     1     174.148 193.398 194.322  1.00  0.00     0.004 C 
ENDBRANCH  15  16
ENDBRANCH  14  15
ENDBRANCH  13  14
ENDBRANCH  12  13
ENDBRANCH  11  12
ENDBRANCH  10  11
ENDBRANCH   1  10
TORSDOF 13
ENDMDL
MODEL 9
REMARK VINA RESULT:     0.007      8.805     10.981
REMARK INTER + INTRA:          -2.828
REMARK INTER:                   0.000
REMARK INTRA:                  -2.828
REMARK UNBOUND:                -2.841
REMARK SMILES CCCCCCCCCCCCCCC(=O)[O-]
REMARK SMILES IDX 9 1 10 2 11 3 12 4 13 5 14 6 15 7 16 8 17 9 8 10 7 11 6 12
REMARK SMILES IDX 5 13 4 14 3 15 2 16 1 17
REMARK H PARENT
REMARK Flexibility Score: inf
ROOT
ATOM      1  C   UNL     1     173.868 183.747 191.806  1.00  0.00     0.000 C 
ENDROOT
BRANCH   1   2
ATOM      2  C   UNL     1     172.914 182.939 192.705  1.00  0.00     0.000 C 
BRANCH   2   3
ATOM      3  C   UNL     1     172.502 183.638 194.014  1.00  0.00     0.000 C 
BRANCH   3   4
ATOM      4  C   UNL     1     171.012 183.452 194.348  1.00  0.00     0.000 C 
BRANCH   4   5
ATOM      5  C   UNL     1     170.316 182.444 193.415  1.00  0.00     0.006 C 
BRANCH   5   6
ATOM      6  C   UNL     1     168.904 182.864 192.977  1.00  0.00     0.053 C 
BRANCH   6   7
ATOM      7  C   UNL     1     168.068 183.315 194.135  1.00  0.00     0.041 C 
ATOM      8  O   UNL     1     167.691 182.487 195.005  1.00  0.00    -0.550 OA
ATOM      9  O   UNL     1     167.679 184.644 194.237  1.00  0.00    -0.550 OA
ENDBRANCH   6   7
ENDBRANCH   5   6
ENDBRANCH   4   5
ENDBRANCH   3   4
ENDBRANCH   2   3
ENDBRANCH   1   2
BRANCH   1  10
ATOM     10  C   UNL     1     173.165 184.355 190.580  1.00  0.00     0.000 C 
BRANCH  10  11
ATOM     11  C   UNL     1     171.877 183.603 190.206  1.00  0.00    -0.000 C 
BRANCH  11  12
ATOM     12  C   UNL     1     170.647 184.522 190.150  1.00  0.00    -0.000 C 
BRANCH  12  13
ATOM     13  C   UNL     1     170.971 185.906 190.737  1.00  0.00    -0.000 C 
BRANCH  13  14
ATOM     14  C   UNL     1     170.170 186.213 192.012  1.00  0.00    -0.000 C 
BRANCH  14  15
ATOM     15  C   UNL     1     171.014 186.929 193.082  1.00  0.00    -0.000 C 
BRANCH  15  16
ATOM     16  C   UNL     1     172.350 187.448 192.526  1.00  0.00    -0.003 C 
ATOM     17  C   UNL     1     173.533 187.136 193.442  1.00  0.00     0.004 C 
ENDBRANCH  15  16
ENDBRANCH  14  15
ENDBRANCH  13  14
ENDBRANCH  12  13
ENDBRANCH  11  12
ENDBRANCH  10  11
ENDBRANCH   1  10
TORSDOF 13
ENDMDL
