MODEL 1
REMARK VINA RESULT:    -5.307      0.000      0.000
REMARK INTER + INTRA:          -7.905
REMARK INTER:                  -7.169
REMARK INTRA:                  -0.736
REMARK UNBOUND:                -0.736
REMARK SMILES CCCCCCC=CC(=O)[O-]
REMARK SMILES IDX 5 1 6 2 7 3 8 4 9 5 10 6 11 7 4 8 3 9 2 10 1 11
REMARK H PARENT
REMARK Flexibility Score: inf
ROOT
ATOM      1  C   UNL     1      22.276  -0.448  -0.149  1.00  0.00     0.004 C 
ENDROOT
BRANCH   1   2
ATOM      2  C   UNL     1      23.641  -0.721   0.492  1.00  0.00     0.027 C 
BRANCH   2   3
ATOM      3  C   UNL     1      24.227  -2.012  -0.004  1.00  0.00    -0.025 C 
ATOM      4  C   UNL     1      25.179  -2.031  -0.942  1.00  0.00     0.020 C 
BRANCH   4   5
ATOM      5  C   UNL     1      25.772  -3.287  -1.426  1.00  0.00     0.064 C 
ATOM      6  O   UNL     1      26.965  -3.297  -1.826  1.00  0.00    -0.545 OA
ATOM      7  O   UNL     1      25.033  -4.465  -1.452  1.00  0.00    -0.545 OA
ENDBRANCH   4   5
ENDBRANCH   2   3
ENDBRANCH   1   2
BRANCH   1   8
ATOM      8  C   UNL     1      22.349   0.740  -1.116  1.00  0.00     0.000 C 
BRANCH   8   9
ATOM      9  C   UNL     1      22.597   0.264  -2.555  1.00  0.00    -0.000 C 
BRANCH   9  10
ATOM     10  C   UNL     1      21.931  -1.089  -2.853  1.00  0.00    -0.003 C 
ATOM     11  C   UNL     1      22.833  -2.027  -3.655  1.00  0.00     0.004 C 
ENDBRANCH   9  10
ENDBRANCH   8   9
ENDBRANCH   1   8
TORSDOF 6
ENDMDL
MODEL 2
REMARK VINA RESULT:    -5.209      2.870      5.102
REMARK INTER + INTRA:          -7.773
REMARK INTER:                  -7.023
REMARK INTRA:                  -0.749
REMARK UNBOUND:                -0.736
REMARK SMILES CCCCCCC=CC(=O)[O-]
REMARK SMILES IDX 5 1 6 2 7 3 8 4 9 5 10 6 11 7 4 8 3 9 2 10 1 11
REMARK H PARENT
REMARK Flexibility Score: inf
ROOT
ATOM      1  C   UNL     1      25.919  -3.795  -1.210  1.00  0.00     0.004 C 
ENDROOT
BRANCH   1   2
ATOM      2  C   UNL     1      25.471  -2.482  -1.864  1.00  0.00     0.027 C 
BRANCH   2   3
ATOM      3  C   UNL     1      24.195  -1.977  -1.254  1.00  0.00    -0.025 C 
ATOM      4  C   UNL     1      24.184  -0.925  -0.430  1.00  0.00     0.020 C 
BRANCH   4   5
ATOM      5  C   UNL     1      22.941  -0.410   0.163  1.00  0.00     0.064 C 
ATOM      6  O   UNL     1      22.904   0.767   0.607  1.00  0.00    -0.545 OA
ATOM      7  O   UNL     1      21.803  -1.206   0.243  1.00  0.00    -0.545 OA
ENDBRANCH   4   5
ENDBRANCH   2   3
ENDBRANCH   1   2
BRANCH   1   8
ATOM      8  C   UNL     1      27.059  -3.553  -0.214  1.00  0.00     0.000 C 
BRANCH   8   9
ATOM      9  C   UNL     1      26.545  -3.598   1.233  1.00  0.00    -0.000 C 
BRANCH   9  10
ATOM     10  C   UNL     1      25.202  -4.334   1.360  1.00  0.00    -0.003 C 
ATOM     11  C   UNL     1      24.164  -3.536   2.148  1.00  0.00     0.004 C 
ENDBRANCH   9  10
ENDBRANCH   8   9
ENDBRANCH   1   8
TORSDOF 6
ENDMDL
MODEL 3
REMARK VINA RESULT:    -5.065      1.414      1.799
REMARK INTER + INTRA:          -7.578
REMARK INTER:                  -6.918
REMARK INTRA:                  -0.660
REMARK UNBOUND:                -0.736
REMARK SMILES CCCCCCC=CC(=O)[O-]
REMARK SMILES IDX 5 1 6 2 7 3 8 4 9 5 10 6 11 7 4 8 3 9 2 10 1 11
REMARK H PARENT
REMARK Flexibility Score: inf
ROOT
ATOM      1  C   UNL     1      23.614  -0.988   0.339  1.00  0.00     0.004 C 
ENDROOT
BRANCH   1   2
ATOM      2  C   UNL     1      24.908  -1.204  -0.454  1.00  0.00     0.027 C 
BRANCH   2   3
ATOM      3  C   UNL     1      25.021  -2.620  -0.939  1.00  0.00    -0.025 C 
ATOM      4  C   UNL     1      24.082  -3.530  -0.660  1.00  0.00     0.020 C 
BRANCH   4   5
ATOM      5  C   UNL     1      24.172  -4.917  -1.140  1.00  0.00     0.064 C 
ATOM      6  O   UNL     1      24.806  -5.769  -0.465  1.00  0.00    -0.545 OA
ATOM      7  O   UNL     1      23.569  -5.303  -2.333  1.00  0.00    -0.545 OA
ENDBRANCH   4   5
ENDBRANCH   2   3
ENDBRANCH   1   2
BRANCH   1   8
ATOM      8  C   UNL     1      22.870   0.260  -0.150  1.00  0.00     0.000 C 
BRANCH   8   9
ATOM      9  C   UNL     1      23.041   0.446  -1.665  1.00  0.00    -0.000 C 
BRANCH   9  10
ATOM     10  C   UNL     1      22.022  -0.367  -2.478  1.00  0.00    -0.003 C 
ATOM     11  C   UNL     1      22.682  -1.404  -3.385  1.00  0.00     0.004 C 
ENDBRANCH   9  10
ENDBRANCH   8   9
ENDBRANCH   1   8
TORSDOF 6
ENDMDL
MODEL 4
REMARK VINA RESULT:    -4.911      1.853      3.725
REMARK INTER + INTRA:          -7.370
REMARK INTER:                  -6.664
REMARK INTRA:                  -0.706
REMARK UNBOUND:                -0.736
REMARK SMILES CCCCCCC=CC(=O)[O-]
REMARK SMILES IDX 5 1 6 2 7 3 8 4 9 5 10 6 11 7 4 8 3 9 2 10 1 11
REMARK H PARENT
REMARK Flexibility Score: inf
ROOT
ATOM      1  C   UNL     1      23.211   0.370  -1.289  1.00  0.00     0.004 C 
ENDROOT
BRANCH   1   2
ATOM      2  C   UNL     1      22.463   0.073  -2.594  1.00  0.00     0.027 C 
BRANCH   2   3
ATOM      3  C   UNL     1      21.997  -1.353  -2.642  1.00  0.00    -0.025 C 
ATOM      4  C   UNL     1      22.484  -2.217  -3.539  1.00  0.00     0.020 C 
BRANCH   4   5
ATOM      5  C   UNL     1      22.047  -3.620  -3.588  1.00  0.00     0.064 C 
ATOM      6  O   UNL     1      21.010  -3.926  -4.233  1.00  0.00    -0.545 OA
ATOM      7  O   UNL     1      22.762  -4.616  -2.932  1.00  0.00    -0.545 OA
ENDBRANCH   4   5
ENDBRANCH   2   3
ENDBRANCH   1   2
BRANCH   1   8
ATOM      8  C   UNL     1      22.730  -0.545  -0.157  1.00  0.00     0.000 C 
BRANCH   8   9
ATOM      9  C   UNL     1      23.895  -1.355   0.430  1.00  0.00    -0.000 C 
BRANCH   9  10
ATOM     10  C   UNL     1      25.100  -1.432  -0.521  1.00  0.00    -0.003 C 
ATOM     11  C   UNL     1      25.255  -2.808  -1.168  1.00  0.00     0.004 C 
ENDBRANCH   9  10
ENDBRANCH   8   9
ENDBRANCH   1   8
TORSDOF 6
ENDMDL
MODEL 5
REMARK VINA RESULT:    -4.894      3.170      4.957
REMARK INTER + INTRA:          -7.347
REMARK INTER:                  -6.795
REMARK INTRA:                  -0.552
REMARK UNBOUND:                -0.736
REMARK SMILES CCCCCCC=CC(=O)[O-]
REMARK SMILES IDX 5 1 6 2 7 3 8 4 9 5 10 6 11 7 4 8 3 9 2 10 1 11
REMARK H PARENT
REMARK Flexibility Score: inf
ROOT
ATOM      1  C   UNL     1      25.108  -2.480  -1.784  1.00  0.00     0.004 C 
ENDROOT
BRANCH   1   2
ATOM      2  C   UNL     1      24.901  -1.318  -0.805  1.00  0.00     0.027 C 
BRANCH   2   3
ATOM      3  C   UNL     1      23.457  -1.182  -0.418  1.00  0.00    -0.025 C 
ATOM      4  C   UNL     1      22.645  -2.242  -0.367  1.00  0.00     0.020 C 
BRANCH   4   5
ATOM      5  C   UNL     1      21.232  -2.126   0.025  1.00  0.00     0.064 C 
ATOM      6  O   UNL     1      20.440  -1.466  -0.697  1.00  0.00    -0.545 OA
ATOM      7  O   UNL     1      20.757  -2.733   1.182  1.00  0.00    -0.545 OA
ENDBRANCH   4   5
ENDBRANCH   2   3
ENDBRANCH   1   2
BRANCH   1   8
ATOM      8  C   UNL     1      26.220  -3.417  -1.299  1.00  0.00     0.000 C 
BRANCH   8   9
ATOM      9  C   UNL     1      26.794  -2.943   0.044  1.00  0.00    -0.000 C 
BRANCH   9  10
ATOM     10  C   UNL     1      26.337  -3.816   1.223  1.00  0.00    -0.003 C 
ATOM     11  C   UNL     1      25.238  -4.805   0.836  1.00  0.00     0.004 C 
ENDBRANCH   9  10
ENDBRANCH   8   9
ENDBRANCH   1   8
TORSDOF 6
ENDMDL
MODEL 6
REMARK VINA RESULT:    -4.885      2.432      3.724
REMARK INTER + INTRA:          -7.334
REMARK INTER:                  -6.605
REMARK INTRA:                  -0.729
REMARK UNBOUND:                -0.736
REMARK SMILES CCCCCCC=CC(=O)[O-]
REMARK SMILES IDX 5 1 6 2 7 3 8 4 9 5 10 6 11 7 4 8 3 9 2 10 1 11
REMARK H PARENT
REMARK Flexibility Score: inf
ROOT
ATOM      1  C   UNL     1      25.107  -1.519  -0.314  1.00  0.00     0.004 C 
ENDROOT
BRANCH   1   2
ATOM      2  C   UNL     1      25.066  -2.498  -1.493  1.00  0.00     0.027 C 
BRANCH   2   3
ATOM      3  C   UNL     1      23.653  -2.791  -1.909  1.00  0.00    -0.025 C 
ATOM      4  C   UNL     1      23.185  -2.415  -3.103  1.00  0.00     0.020 C 
BRANCH   4   5
ATOM      5  C   UNL     1      21.809  -2.708  -3.530  1.00  0.00     0.064 C 
ATOM      6  O   UNL     1      20.885  -1.902  -3.245  1.00  0.00    -0.545 OA
ATOM      7  O   UNL     1      21.510  -3.864  -4.243  1.00  0.00    -0.545 OA
ENDBRANCH   4   5
ENDBRANCH   2   3
ENDBRANCH   1   2
BRANCH   1   8
ATOM      8  C   UNL     1      23.764  -1.489   0.425  1.00  0.00     0.000 C 
BRANCH   8   9
ATOM      9  C   UNL     1      23.223  -0.055   0.528  1.00  0.00    -0.000 C 
BRANCH   9  10
ATOM     10  C   UNL     1      22.043   0.201  -0.421  1.00  0.00    -0.003 C 
ATOM     11  C   UNL     1      22.475   0.833  -1.744  1.00  0.00     0.004 C 
ENDBRANCH   9  10
ENDBRANCH   8   9
ENDBRANCH   1   8
TORSDOF 6
ENDMDL
MODEL 7
REMARK VINA RESULT:    -4.819      2.896      4.857
REMARK INTER + INTRA:          -7.245
REMARK INTER:                  -6.681
REMARK INTRA:                  -0.565
REMARK UNBOUND:                -0.736
REMARK SMILES CCCCCCC=CC(=O)[O-]
REMARK SMILES IDX 5 1 6 2 7 3 8 4 9 5 10 6 11 7 4 8 3 9 2 10 1 11
REMARK H PARENT
REMARK Flexibility Score: inf
ROOT
ATOM      1  C   UNL     1      24.726  -3.228   1.987  1.00  0.00     0.004 C 
ENDROOT
BRANCH   1   2
ATOM      2  C   UNL     1      23.408  -2.792   1.337  1.00  0.00     0.027 C 
BRANCH   2   3
ATOM      3  C   UNL     1      23.604  -1.585   0.466  1.00  0.00    -0.025 C 
ATOM      4  C   UNL     1      22.631  -1.135  -0.332  1.00  0.00     0.020 C 
BRANCH   4   5
ATOM      5  C   UNL     1      22.804   0.055  -1.180  1.00  0.00     0.064 C 
ATOM      6  O   UNL     1      22.995   1.177  -0.644  1.00  0.00    -0.545 OA
ATOM      7  O   UNL     1      22.757  -0.040  -2.566  1.00  0.00    -0.545 OA
ENDBRANCH   4   5
ENDBRANCH   2   3
ENDBRANCH   1   2
BRANCH   1   8
ATOM      8  C   UNL     1      25.401  -4.338   1.173  1.00  0.00     0.000 C 
BRANCH   8   9
ATOM      9  C   UNL     1      26.880  -4.012   0.918  1.00  0.00    -0.000 C 
BRANCH   9  10
ATOM     10  C   UNL     1      27.073  -2.996  -0.218  1.00  0.00    -0.003 C 
ATOM     11  C   UNL     1      26.287  -3.361  -1.477  1.00  0.00     0.004 C 
ENDBRANCH   9  10
ENDBRANCH   8   9
ENDBRANCH   1   8
TORSDOF 6
ENDMDL
MODEL 8
REMARK VINA RESULT:    -4.783      1.229      2.960
REMARK INTER + INTRA:          -7.197
REMARK INTER:                  -6.618
REMARK INTRA:                  -0.579
REMARK UNBOUND:                -0.736
REMARK SMILES CCCCCCC=CC(=O)[O-]
REMARK SMILES IDX 5 1 6 2 7 3 8 4 9 5 10 6 11 7 4 8 3 9 2 10 1 11
REMARK H PARENT
REMARK Flexibility Score: inf
ROOT
ATOM      1  C   UNL     1      22.876  -1.264  -3.246  1.00  0.00     0.004 C 
ENDROOT
BRANCH   1   2
ATOM      2  C   UNL     1      22.147  -2.612  -3.275  1.00  0.00     0.027 C 
BRANCH   2   3
ATOM      3  C   UNL     1      22.902  -3.657  -2.505  1.00  0.00    -0.025 C 
ATOM      4  C   UNL     1      24.119  -3.416  -2.010  1.00  0.00     0.020 C 
BRANCH   4   5
ATOM      5  C   UNL     1      24.865  -4.424  -1.242  1.00  0.00     0.064 C 
ATOM      6  O   UNL     1      24.255  -5.417  -0.765  1.00  0.00    -0.545 OA
ATOM      7  O   UNL     1      26.233  -4.298  -1.033  1.00  0.00    -0.545 OA
ENDBRANCH   4   5
ENDBRANCH   2   3
ENDBRANCH   1   2
BRANCH   1   8
ATOM      8  C   UNL     1      22.085  -0.227  -2.441  1.00  0.00     0.000 C 
BRANCH   8   9
ATOM      9  C   UNL     1      23.017   0.602  -1.544  1.00  0.00    -0.000 C 
BRANCH   9  10
ATOM     10  C   UNL     1      22.780   0.343  -0.048  1.00  0.00    -0.003 C 
ATOM     11  C   UNL     1      23.636  -0.801   0.496  1.00  0.00     0.004 C 
ENDBRANCH   9  10
ENDBRANCH   8   9
ENDBRANCH   1   8
TORSDOF 6
ENDMDL
MODEL 9
REMARK VINA RESULT:    -4.693      3.046      4.475
REMARK INTER + INTRA:          -7.075
REMARK INTER:                  -6.427
REMARK INTRA:                  -0.648
REMARK UNBOUND:                -0.736
REMARK SMILES CCCCCCC=CC(=O)[O-]
REMARK SMILES IDX 5 1 6 2 7 3 8 4 9 5 10 6 11 7 4 8 3 9 2 10 1 11
REMARK H PARENT
REMARK Flexibility Score: inf
ROOT
ATOM      1  C   UNL     1      26.458  -3.295  -0.169  1.00  0.00     0.004 C 
ENDROOT
BRANCH   1   2
ATOM      2  C   UNL     1      26.068  -3.582   1.285  1.00  0.00     0.027 C 
BRANCH   2   3
ATOM      3  C   UNL     1      24.677  -4.140   1.376  1.00  0.00    -0.025 C 
ATOM      4  C   UNL     1      23.752  -3.585   2.166  1.00  0.00     0.020 C 
BRANCH   4   5
ATOM      5  C   UNL     1      22.382  -4.112   2.254  1.00  0.00     0.064 C 
ATOM      6  O   UNL     1      22.183  -5.240   2.776  1.00  0.00    -0.545 OA
ATOM      7  O   UNL     1      21.302  -3.384   1.767  1.00  0.00    -0.545 OA
ENDBRANCH   4   5
ENDBRANCH   2   3
ENDBRANCH   1   2
BRANCH   1   8
ATOM      8  C   UNL     1      25.221  -2.996  -1.023  1.00  0.00     0.000 C 
BRANCH   8   9
ATOM      9  C   UNL     1      24.962  -1.484  -1.109  1.00  0.00    -0.000 C 
BRANCH   9  10
ATOM     10  C   UNL     1      23.506  -1.115  -0.789  1.00  0.00    -0.003 C 
ATOM     11  C   UNL     1      23.371  -0.311   0.503  1.00  0.00     0.004 C 
ENDBRANCH   9  10
ENDBRANCH   8   9
ENDBRANCH   1   8
TORSDOF 6
ENDMDL
