MODEL 1
REMARK VINA RESULT:    -7.678      0.000      0.000
REMARK INTER + INTRA:          -9.718
REMARK INTER:                  -9.474
REMARK INTRA:                  -0.244
REMARK UNBOUND:                -0.244
REMARK SMILES Oc1cc(O)c2cc(O)c(-c3cc(O)c(O)c(O)c3)[o+]c2c1
REMARK SMILES IDX 10 1 20 2 21 3 22 4 2 5 3 6 4 7 6 8 7 9 8 10 11 11 12 12
REMARK SMILES IDX 13 13 19 14 15 15 17 16 14 17 16 19 18 21 9 23 1 25 5 27
REMARK H PARENT 14 18 16 20 18 22 9 24 1 26 5 28
REMARK Flexibility Score: inf
ROOT
ATOM      1  C   UNL     1     -22.274 -15.568 -10.684  1.00  0.00     0.402 A 
ATOM      2  O   UNL     1     -22.866 -16.266  -9.720  1.00  0.00    -0.202 OA
ATOM      3  C   UNL     1     -22.516 -16.186  -8.440  1.00  0.00     0.368 A 
ATOM      4  C   UNL     1     -23.197 -16.963  -7.499  1.00  0.00     0.162 A 
ATOM      5  C   UNL     1     -22.848 -16.899  -6.147  1.00  0.00     0.128 A 
ATOM      6  C   UNL     1     -21.814 -16.056  -5.734  1.00  0.00     0.093 A 
ATOM      7  C   UNL     1     -21.116 -15.267  -6.658  1.00  0.00     0.136 A 
ATOM      8  C   UNL     1     -21.469 -15.326  -8.031  1.00  0.00     0.125 A 
ATOM      9  C   UNL     1     -20.834 -14.562  -9.024  1.00  0.00     0.078 A 
ATOM     10  C   UNL     1     -21.240 -14.670 -10.358  1.00  0.00     0.223 A 
ENDROOT
BRANCH   1  11
ATOM     11  C   UNL     1     -22.748 -15.753 -12.074  1.00  0.00     0.091 A 
ATOM     12  C   UNL     1     -23.400 -14.719 -12.768  1.00  0.00     0.068 A 
ATOM     13  C   UNL     1     -23.821 -14.905 -14.092  1.00  0.00     0.162 A 
ATOM     14  C   UNL     1     -22.492 -16.963 -12.736  1.00  0.00     0.068 A 
ATOM     15  C   UNL     1     -23.582 -16.129 -14.739  1.00  0.00     0.200 A 
ATOM     16  C   UNL     1     -22.911 -17.158 -14.056  1.00  0.00     0.162 A 
BRANCH  13  17
ATOM     17  O   UNL     1     -24.474 -13.875 -14.768  1.00  0.00    -0.504 OA
ATOM     18  H   UNL     1     -25.380 -13.534 -14.470  1.00  0.00     0.293 HD
ENDBRANCH  13  17
BRANCH  15  19
ATOM     19  O   UNL     1     -23.998 -16.333 -16.055  1.00  0.00    -0.502 OA
ATOM     20  H   UNL     1     -24.394 -17.211 -16.367  1.00  0.00     0.293 HD
ENDBRANCH  15  19
BRANCH  16  21
ATOM     21  O   UNL     1     -22.649 -18.381 -14.674  1.00  0.00    -0.504 OA
ATOM     22  H   UNL     1     -21.956 -18.479 -15.406  1.00  0.00     0.293 HD
ENDBRANCH  16  21
ENDBRANCH   1  11
BRANCH  10  23
ATOM     23  O   UNL     1     -20.644 -13.876 -11.338  1.00  0.00    -0.500 OA
ATOM     24  H   UNL     1     -21.090 -13.710 -12.233  1.00  0.00     0.294 HD
ENDBRANCH  10  23
BRANCH   5  25
ATOM     25  O   UNL     1     -23.522 -17.670  -5.203  1.00  0.00    -0.507 OA
ATOM     26  H   UNL     1     -24.355 -18.196  -5.445  1.00  0.00     0.293 HD
ENDBRANCH   5  25
BRANCH   7  27
ATOM     27  O   UNL     1     -20.092 -14.453  -6.165  1.00  0.00    -0.507 OA
ATOM     28  H   UNL     1     -20.202 -13.798  -5.404  1.00  0.00     0.293 HD
ENDBRANCH   7  27
TORSDOF 7
ENDMDL
MODEL 2
REMARK VINA RESULT:    -7.647      0.098      1.797
REMARK INTER + INTRA:          -9.679
REMARK INTER:                  -9.429
REMARK INTRA:                  -0.250
REMARK UNBOUND:                -0.244
REMARK SMILES Oc1cc(O)c2cc(O)c(-c3cc(O)c(O)c(O)c3)[o+]c2c1
REMARK SMILES IDX 10 1 20 2 21 3 22 4 2 5 3 6 4 7 6 8 7 9 8 10 11 11 12 12
REMARK SMILES IDX 13 13 19 14 15 15 17 16 14 17 16 19 18 21 9 23 1 25 5 27
REMARK H PARENT 14 18 16 20 18 22 9 24 1 26 5 28
REMARK Flexibility Score: inf
ROOT
ATOM      1  C   UNL     1     -22.256 -15.574 -10.772  1.00  0.00     0.402 A 
ATOM      2  O   UNL     1     -22.851 -16.267  -9.805  1.00  0.00    -0.202 OA
ATOM      3  C   UNL     1     -22.514 -16.169  -8.523  1.00  0.00     0.368 A 
ATOM      4  C   UNL     1     -23.196 -16.941  -7.579  1.00  0.00     0.162 A 
ATOM      5  C   UNL     1     -22.859 -16.859  -6.225  1.00  0.00     0.128 A 
ATOM      6  C   UNL     1     -21.837 -16.002  -5.813  1.00  0.00     0.093 A 
ATOM      7  C   UNL     1     -21.137 -15.218  -6.739  1.00  0.00     0.136 A 
ATOM      8  C   UNL     1     -21.477 -15.295  -8.115  1.00  0.00     0.125 A 
ATOM      9  C   UNL     1     -20.840 -14.537  -9.111  1.00  0.00     0.078 A 
ATOM     10  C   UNL     1     -21.233 -14.664 -10.447  1.00  0.00     0.223 A 
ENDROOT
BRANCH   1  11
ATOM     11  C   UNL     1     -22.716 -15.779 -12.164  1.00  0.00     0.091 A 
ATOM     12  C   UNL     1     -22.519 -17.002 -12.827  1.00  0.00     0.068 A 
ATOM     13  C   UNL     1     -22.982 -17.185 -14.137  1.00  0.00     0.162 A 
ATOM     14  C   UNL     1     -23.413 -14.753 -12.819  1.00  0.00     0.068 A 
ATOM     15  C   UNL     1     -23.659 -16.143 -14.794  1.00  0.00     0.200 A 
ATOM     16  C   UNL     1     -23.877 -14.925 -14.126  1.00  0.00     0.162 A 
BRANCH  13  17
ATOM     17  O   UNL     1     -22.775 -18.400 -14.788  1.00  0.00    -0.504 OA
ATOM     18  H   UNL     1     -21.924 -18.935 -14.657  1.00  0.00     0.293 HD
ENDBRANCH  13  17
BRANCH  15  19
ATOM     19  O   UNL     1     -24.122 -16.306 -16.099  1.00  0.00    -0.502 OA
ATOM     20  H   UNL     1     -23.495 -16.444 -16.882  1.00  0.00     0.293 HD
ENDBRANCH  15  19
BRANCH  16  21
ATOM     21  O   UNL     1     -24.554 -13.875 -14.747  1.00  0.00    -0.504 OA
ATOM     22  H   UNL     1     -24.217 -13.446 -15.601  1.00  0.00     0.293 HD
ENDBRANCH  16  21
ENDBRANCH   1  11
BRANCH  10  23
ATOM     23  O   UNL     1     -20.636 -13.875 -11.430  1.00  0.00    -0.500 OA
ATOM     24  H   UNL     1     -20.895 -12.905 -11.565  1.00  0.00     0.294 HD
ENDBRANCH  10  23
BRANCH   5  25
ATOM     25  O   UNL     1     -23.536 -17.625  -5.278  1.00  0.00    -0.507 OA
ATOM     26  H   UNL     1     -23.242 -17.649  -4.308  1.00  0.00     0.293 HD
ENDBRANCH   5  25
BRANCH   7  27
ATOM     27  O   UNL     1     -20.125 -14.389  -6.246  1.00  0.00    -0.507 OA
ATOM     28  H   UNL     1     -19.248 -14.220  -6.717  1.00  0.00     0.293 HD
ENDBRANCH   7  27
TORSDOF 7
ENDMDL
MODEL 3
REMARK VINA RESULT:    -6.686      1.429      2.894
REMARK INTER + INTRA:          -8.493
REMARK INTER:                  -8.816
REMARK INTRA:                   0.323
REMARK UNBOUND:                -0.244
REMARK SMILES Oc1cc(O)c2cc(O)c(-c3cc(O)c(O)c(O)c3)[o+]c2c1
REMARK SMILES IDX 10 1 20 2 21 3 22 4 2 5 3 6 4 7 6 8 7 9 8 10 11 11 12 12
REMARK SMILES IDX 13 13 19 14 15 15 17 16 14 17 16 19 18 21 9 23 1 25 5 27
REMARK H PARENT 14 18 16 20 18 22 9 24 1 26 5 28
REMARK Flexibility Score: inf
ROOT
ATOM      1  C   UNL     1     -22.619 -16.086 -10.767  1.00  0.00     0.402 A 
ATOM      2  O   UNL     1     -21.870 -15.322  -9.977  1.00  0.00    -0.202 OA
ATOM      3  C   UNL     1     -21.829 -15.457  -8.656  1.00  0.00     0.368 A 
ATOM      4  C   UNL     1     -21.013 -14.603  -7.909  1.00  0.00     0.162 A 
ATOM      5  C   UNL     1     -20.952 -14.723  -6.518  1.00  0.00     0.128 A 
ATOM      6  C   UNL     1     -21.711 -15.699  -5.870  1.00  0.00     0.093 A 
ATOM      7  C   UNL     1     -22.537 -16.568  -6.595  1.00  0.00     0.136 A 
ATOM      8  C   UNL     1     -22.600 -16.453  -8.009  1.00  0.00     0.125 A 
ATOM      9  C   UNL     1     -23.389 -17.287  -8.817  1.00  0.00     0.078 A 
ATOM     10  C   UNL     1     -23.396 -17.116 -10.205  1.00  0.00     0.223 A 
ENDROOT
BRANCH   1  11
ATOM     11  C   UNL     1     -22.587 -15.829 -12.225  1.00  0.00     0.091 A 
ATOM     12  C   UNL     1     -23.559 -16.369 -13.084  1.00  0.00     0.068 A 
ATOM     13  C   UNL     1     -23.525 -16.096 -14.459  1.00  0.00     0.162 A 
ATOM     14  C   UNL     1     -21.600 -14.985 -12.756  1.00  0.00     0.068 A 
ATOM     15  C   UNL     1     -22.519 -15.268 -14.985  1.00  0.00     0.200 A 
ATOM     16  C   UNL     1     -21.557 -14.709 -14.126  1.00  0.00     0.162 A 
BRANCH  13  17
ATOM     17  O   UNL     1     -24.491 -16.643 -15.303  1.00  0.00    -0.504 OA
ATOM     18  H   UNL     1     -24.483 -16.469 -16.301  1.00  0.00     0.293 HD
ENDBRANCH  13  17
BRANCH  15  19
ATOM     19  O   UNL     1     -22.468 -14.990 -16.351  1.00  0.00    -0.502 OA
ATOM     20  H   UNL     1     -22.694 -15.684 -17.052  1.00  0.00     0.293 HD
ENDBRANCH  15  19
BRANCH  16  21
ATOM     21  O   UNL     1     -20.552 -13.875 -14.616  1.00  0.00    -0.504 OA
ATOM     22  H   UNL     1     -20.305 -13.004 -14.162  1.00  0.00     0.293 HD
ENDBRANCH  16  21
ENDBRANCH   1  11
BRANCH  10  23
ATOM     23  O   UNL     1     -24.140 -17.976 -11.012  1.00  0.00    -0.500 OA
ATOM     24  H   UNL     1     -25.047 -17.711 -11.379  1.00  0.00     0.294 HD
ENDBRANCH  10  23
BRANCH   5  25
ATOM     25  O   UNL     1     -20.141 -13.875  -5.768  1.00  0.00    -0.507 OA
ATOM     26  H   UNL     1     -20.295 -13.735  -4.775  1.00  0.00     0.293 HD
ENDBRANCH   5  25
BRANCH   7  27
ATOM     27  O   UNL     1     -23.268 -17.516  -5.872  1.00  0.00    -0.507 OA
ATOM     28  H   UNL     1     -24.253 -17.693  -5.999  1.00  0.00     0.293 HD
ENDBRANCH   7  27
TORSDOF 7
ENDMDL
MODEL 4
REMARK VINA RESULT:    -6.410      1.355      6.942
REMARK INTER + INTRA:          -8.153
REMARK INTER:                  -8.445
REMARK INTRA:                   0.292
REMARK UNBOUND:                -0.244
REMARK SMILES Oc1cc(O)c2cc(O)c(-c3cc(O)c(O)c(O)c3)[o+]c2c1
REMARK SMILES IDX 10 1 20 2 21 3 22 4 2 5 3 6 4 7 6 8 7 9 8 10 11 11 12 12
REMARK SMILES IDX 13 13 19 14 15 15 17 16 14 17 16 19 18 21 9 23 1 25 5 27
REMARK H PARENT 14 18 16 20 18 22 9 24 1 26 5 28
REMARK Flexibility Score: inf
ROOT
ATOM      1  C   UNL     1     -22.289 -15.739 -10.711  1.00  0.00     0.402 A 
ATOM      2  O   UNL     1     -23.155 -16.550 -11.311  1.00  0.00    -0.202 OA
ATOM      3  C   UNL     1     -23.483 -16.447 -12.595  1.00  0.00     0.368 A 
ATOM      4  C   UNL     1     -24.407 -17.346 -13.135  1.00  0.00     0.162 A 
ATOM      5  C   UNL     1     -24.771 -17.257 -14.482  1.00  0.00     0.128 A 
ATOM      6  C   UNL     1     -24.211 -16.267 -15.291  1.00  0.00     0.093 A 
ATOM      7  C   UNL     1     -23.283 -15.353 -14.774  1.00  0.00     0.136 A 
ATOM      8  C   UNL     1     -22.907 -15.440 -13.408  1.00  0.00     0.125 A 
ATOM      9  C   UNL     1     -21.976 -14.578 -12.807  1.00  0.00     0.078 A 
ATOM     10  C   UNL     1     -21.653 -14.728 -11.454  1.00  0.00     0.223 A 
ENDROOT
BRANCH   1  11
ATOM     11  C   UNL     1     -22.014 -15.950  -9.272  1.00  0.00     0.091 A 
ATOM     12  C   UNL     1     -20.823 -15.493  -8.680  1.00  0.00     0.068 A 
ATOM     13  C   UNL     1     -20.591 -15.682  -7.311  1.00  0.00     0.162 A 
ATOM     14  C   UNL     1     -22.981 -16.569  -8.467  1.00  0.00     0.068 A 
ATOM     15  C   UNL     1     -21.556 -16.323  -6.517  1.00  0.00     0.200 A 
ATOM     16  C   UNL     1     -22.757 -16.763  -7.100  1.00  0.00     0.162 A 
BRANCH  13  17
ATOM     17  O   UNL     1     -19.404 -15.230  -6.735  1.00  0.00    -0.504 OA
ATOM     18  H   UNL     1     -19.402 -14.541  -5.992  1.00  0.00     0.293 HD
ENDBRANCH  13  17
BRANCH  15  19
ATOM     19  O   UNL     1     -21.339 -16.524  -5.153  1.00  0.00    -0.502 OA
ATOM     20  H   UNL     1     -21.202 -17.446  -4.758  1.00  0.00     0.293 HD
ENDBRANCH  15  19
BRANCH  16  21
ATOM     21  O   UNL     1     -23.739 -17.395  -6.337  1.00  0.00    -0.504 OA
ATOM     22  H   UNL     1     -23.549 -17.767  -5.414  1.00  0.00     0.293 HD
ENDBRANCH  16  21
ENDBRANCH   1  11
BRANCH  10  23
ATOM     23  O   UNL     1     -20.691 -13.904 -10.870  1.00  0.00    -0.500 OA
ATOM     24  H   UNL     1     -19.832 -14.279 -10.483  1.00  0.00     0.294 HD
ENDBRANCH  10  23
BRANCH   5  25
ATOM     25  O   UNL     1     -25.691 -18.150 -15.028  1.00  0.00    -0.507 OA
ATOM     26  H   UNL     1     -26.682 -18.075 -14.832  1.00  0.00     0.293 HD
ENDBRANCH   5  25
BRANCH   7  27
ATOM     27  O   UNL     1     -22.772 -14.390 -15.648  1.00  0.00    -0.507 OA
ATOM     28  H   UNL     1     -22.244 -14.600 -16.482  1.00  0.00     0.293 HD
ENDBRANCH   7  27
TORSDOF 7
ENDMDL
MODEL 5
REMARK VINA RESULT:    -6.378      1.356      6.957
REMARK INTER + INTRA:          -8.114
REMARK INTER:                  -8.399
REMARK INTRA:                   0.286
REMARK UNBOUND:                -0.244
REMARK SMILES Oc1cc(O)c2cc(O)c(-c3cc(O)c(O)c(O)c3)[o+]c2c1
REMARK SMILES IDX 10 1 20 2 21 3 22 4 2 5 3 6 4 7 6 8 7 9 8 10 11 11 12 12
REMARK SMILES IDX 13 13 19 14 15 15 17 16 14 17 16 19 18 21 9 23 1 25 5 27
REMARK H PARENT 14 18 16 20 18 22 9 24 1 26 5 28
REMARK Flexibility Score: inf
ROOT
ATOM      1  C   UNL     1     -22.352 -15.707 -10.667  1.00  0.00     0.402 A 
ATOM      2  O   UNL     1     -23.205 -16.521 -11.280  1.00  0.00    -0.202 OA
ATOM      3  C   UNL     1     -23.505 -16.426 -12.572  1.00  0.00     0.368 A 
ATOM      4  C   UNL     1     -24.419 -17.327 -13.126  1.00  0.00     0.162 A 
ATOM      5  C   UNL     1     -24.753 -17.248 -14.481  1.00  0.00     0.128 A 
ATOM      6  C   UNL     1     -24.174 -16.264 -15.284  1.00  0.00     0.093 A 
ATOM      7  C   UNL     1     -23.257 -15.348 -14.753  1.00  0.00     0.136 A 
ATOM      8  C   UNL     1     -22.911 -15.426 -13.379  1.00  0.00     0.125 A 
ATOM      9  C   UNL     1     -21.991 -14.561 -12.764  1.00  0.00     0.078 A 
ATOM     10  C   UNL     1     -21.697 -14.702 -11.404  1.00  0.00     0.223 A 
ENDROOT
BRANCH   1  11
ATOM     11  C   UNL     1     -22.108 -15.908  -9.221  1.00  0.00     0.091 A 
ATOM     12  C   UNL     1     -23.075 -16.502  -8.392  1.00  0.00     0.068 A 
ATOM     13  C   UNL     1     -22.817 -16.706  -7.029  1.00  0.00     0.162 A 
ATOM     14  C   UNL     1     -20.866 -15.553  -8.673  1.00  0.00     0.068 A 
ATOM     15  C   UNL     1     -21.579 -16.325  -6.485  1.00  0.00     0.200 A 
ATOM     16  C   UNL     1     -20.601 -15.750  -7.315  1.00  0.00     0.162 A 
BRANCH  13  17
ATOM     17  O   UNL     1     -23.786 -17.290  -6.215  1.00  0.00    -0.504 OA
ATOM     18  H   UNL     1     -24.233 -16.773  -5.467  1.00  0.00     0.293 HD
ENDBRANCH  13  17
BRANCH  15  19
ATOM     19  O   UNL     1     -21.307 -16.516  -5.130  1.00  0.00    -0.502 OA
ATOM     20  H   UNL     1     -20.489 -17.019  -4.809  1.00  0.00     0.293 HD
ENDBRANCH  15  19
BRANCH  16  21
ATOM     21  O   UNL     1     -19.359 -15.369  -6.807  1.00  0.00    -0.504 OA
ATOM     22  H   UNL     1     -19.173 -15.326  -5.812  1.00  0.00     0.293 HD
ENDBRANCH  16  21
ENDBRANCH   1  11
BRANCH  10  23
ATOM     23  O   UNL     1     -20.748 -13.875 -10.804  1.00  0.00    -0.500 OA
ATOM     24  H   UNL     1     -20.602 -12.920 -11.111  1.00  0.00     0.294 HD
ENDBRANCH  10  23
BRANCH   5  25
ATOM     25  O   UNL     1     -25.662 -18.143 -15.040  1.00  0.00    -0.507 OA
ATOM     26  H   UNL     1     -26.108 -18.863 -14.483  1.00  0.00     0.293 HD
ENDBRANCH   5  25
BRANCH   7  27
ATOM     27  O   UNL     1     -22.725 -14.391 -15.623  1.00  0.00    -0.507 OA
ATOM     28  H   UNL     1     -23.099 -14.182 -16.537  1.00  0.00     0.293 HD
ENDBRANCH   7  27
TORSDOF 7
ENDMDL
MODEL 6
REMARK VINA RESULT:    -5.264      1.465      7.416
REMARK INTER + INTRA:          -6.739
REMARK INTER:                  -6.999
REMARK INTRA:                   0.260
REMARK UNBOUND:                -0.244
REMARK SMILES Oc1cc(O)c2cc(O)c(-c3cc(O)c(O)c(O)c3)[o+]c2c1
REMARK SMILES IDX 10 1 20 2 21 3 22 4 2 5 3 6 4 7 6 8 7 9 8 10 11 11 12 12
REMARK SMILES IDX 13 13 19 14 15 15 17 16 14 17 16 19 18 21 9 23 1 25 5 27
REMARK H PARENT 14 18 16 20 18 22 9 24 1 26 5 28
REMARK Flexibility Score: inf
ROOT
ATOM      1  C   UNL     1     -22.980 -16.586 -10.370  1.00  0.00     0.402 A 
ATOM      2  O   UNL     1     -22.634 -15.699 -11.298  1.00  0.00    -0.202 OA
ATOM      3  C   UNL     1     -23.034 -15.773 -12.564  1.00  0.00     0.368 A 
ATOM      4  C   UNL     1     -22.613 -14.793 -13.468  1.00  0.00     0.162 A 
ATOM      5  C   UNL     1     -23.017 -14.848 -14.805  1.00  0.00     0.128 A 
ATOM      6  C   UNL     1     -23.844 -15.886 -15.240  1.00  0.00     0.093 A 
ATOM      7  C   UNL     1     -24.279 -16.880 -14.354  1.00  0.00     0.136 A 
ATOM      8  C   UNL     1     -23.874 -16.827 -12.995  1.00  0.00     0.125 A 
ATOM      9  C   UNL     1     -24.272 -17.771 -12.034  1.00  0.00     0.078 A 
ATOM     10  C   UNL     1     -23.835 -17.651 -10.711  1.00  0.00     0.223 A 
ENDROOT
BRANCH   1  11
ATOM     11  C   UNL     1     -22.461 -16.401  -8.996  1.00  0.00     0.091 A 
ATOM     12  C   UNL     1     -23.146 -16.913  -7.881  1.00  0.00     0.068 A 
ATOM     13  C   UNL     1     -22.627 -16.748  -6.589  1.00  0.00     0.162 A 
ATOM     14  C   UNL     1     -21.234 -15.750  -8.803  1.00  0.00     0.068 A 
ATOM     15  C   UNL     1     -21.408 -16.074  -6.404  1.00  0.00     0.200 A 
ATOM     16  C   UNL     1     -20.710 -15.578  -7.519  1.00  0.00     0.162 A 
BRANCH  13  17
ATOM     17  O   UNL     1     -23.318 -17.254  -5.489  1.00  0.00    -0.504 OA
ATOM     18  H   UNL     1     -23.329 -18.245  -5.279  1.00  0.00     0.293 HD
ENDBRANCH  13  17
BRANCH  15  19
ATOM     19  O   UNL     1     -20.879 -15.896  -5.125  1.00  0.00    -0.502 OA
ATOM     20  H   UNL     1     -20.027 -16.353  -4.824  1.00  0.00     0.293 HD
ENDBRANCH  15  19
BRANCH  16  21
ATOM     21  O   UNL     1     -19.492 -14.914  -7.369  1.00  0.00    -0.504 OA
ATOM     22  H   UNL     1     -18.605 -15.403  -7.380  1.00  0.00     0.293 HD
ENDBRANCH  16  21
ENDBRANCH   1  11
BRANCH  10  23
ATOM     23  O   UNL     1     -24.270 -18.559  -9.745  1.00  0.00    -0.500 OA
ATOM     24  H   UNL     1     -23.800 -19.446  -9.598  1.00  0.00     0.294 HD
ENDBRANCH  10  23
BRANCH   5  25
ATOM     25  O   UNL     1     -22.602 -13.875 -15.712  1.00  0.00    -0.507 OA
ATOM     26  H   UNL     1     -22.321 -12.950 -15.405  1.00  0.00     0.293 HD
ENDBRANCH   5  25
BRANCH   7  27
ATOM     27  O   UNL     1     -25.101 -17.886 -14.869  1.00  0.00    -0.507 OA
ATOM     28  H   UNL     1     -25.506 -17.873 -15.794  1.00  0.00     0.293 HD
ENDBRANCH   7  27
TORSDOF 7
ENDMDL
