MODEL 1
REMARK VINA RESULT:    -3.891      0.000      0.000
REMARK INTER + INTRA:          -5.441
REMARK INTER:                  -5.255
REMARK INTRA:                  -0.186
REMARK UNBOUND:                -0.186
REMARK SMILES CCCCCCC=CC(=O)[O-]
REMARK SMILES IDX 5 1 6 2 7 3 8 4 9 5 10 6 11 7 4 8 3 9 2 10 1 11
REMARK H PARENT
REMARK Flexibility Score: inf
ROOT
ATOM      1  C   UNL     1     148.078  -2.500   7.683  1.00  0.00     0.004 C 
ENDROOT
BRANCH   1   2
ATOM      2  C   UNL     1     146.719  -2.123   8.286  1.00  0.00     0.027 C 
BRANCH   2   3
ATOM      3  C   UNL     1     145.865  -1.386   7.289  1.00  0.00    -0.025 C 
ATOM      4  C   UNL     1     144.560  -1.602   7.056  1.00  0.00     0.020 C 
BRANCH   4   5
ATOM      5  C   UNL     1     143.688  -2.570   7.753  1.00  0.00     0.064 C 
ATOM      6  O   UNL     1     142.870  -3.301   7.134  1.00  0.00    -0.545 OA
ATOM      7  O   UNL     1     143.790  -2.694   9.132  1.00  0.00    -0.545 OA
ENDBRANCH   4   5
ENDBRANCH   2   3
ENDBRANCH   1   2
BRANCH   1   8
ATOM      8  C   UNL     1     148.327  -1.737   6.373  1.00  0.00     0.000 C 
BRANCH   8   9
ATOM      9  C   UNL     1     149.144  -2.549   5.352  1.00  0.00    -0.000 C 
BRANCH   9  10
ATOM     10  C   UNL     1     150.115  -3.572   5.967  1.00  0.00    -0.003 C 
ATOM     11  C   UNL     1     149.841  -5.006   5.512  1.00  0.00     0.004 C 
ENDBRANCH   9  10
ENDBRANCH   8   9
ENDBRANCH   1   8
TORSDOF 6
ENDMDL
MODEL 2
REMARK VINA RESULT:    -3.846      1.848      2.740
REMARK INTER + INTRA:          -5.380
REMARK INTER:                  -5.014
REMARK INTRA:                  -0.366
REMARK UNBOUND:                -0.186
REMARK SMILES CCCCCCC=CC(=O)[O-]
REMARK SMILES IDX 5 1 6 2 7 3 8 4 9 5 10 6 11 7 4 8 3 9 2 10 1 11
REMARK H PARENT
REMARK Flexibility Score: inf
ROOT
ATOM      1  C   UNL     1     149.648  -2.465   7.096  1.00  0.00     0.004 C 
ENDROOT
BRANCH   1   2
ATOM      2  C   UNL     1     148.315  -2.277   7.834  1.00  0.00     0.027 C 
BRANCH   2   3
ATOM      3  C   UNL     1     147.284  -1.639   6.941  1.00  0.00    -0.025 C 
ATOM      4  C   UNL     1     146.024  -1.329   7.289  1.00  0.00     0.020 C 
BRANCH   4   5
ATOM      5  C   UNL     1     145.404  -1.510   8.618  1.00  0.00     0.064 C 
ATOM      6  O   UNL     1     145.275  -0.559   9.432  1.00  0.00    -0.545 OA
ATOM      7  O   UNL     1     144.929  -2.767   8.971  1.00  0.00    -0.545 OA
ENDBRANCH   4   5
ENDBRANCH   2   3
ENDBRANCH   1   2
BRANCH   1   8
ATOM      8  C   UNL     1     149.423  -2.577   5.581  1.00  0.00     0.000 C 
BRANCH   8   9
ATOM      9  C   UNL     1     150.261  -1.568   4.774  1.00  0.00    -0.000 C 
BRANCH   9  10
ATOM     10  C   UNL     1     149.575  -1.020   3.511  1.00  0.00    -0.003 C 
ATOM     11  C   UNL     1     150.567  -0.529   2.457  1.00  0.00     0.004 C 
ENDBRANCH   9  10
ENDBRANCH   8   9
ENDBRANCH   1   8
TORSDOF 6
ENDMDL
MODEL 3
REMARK VINA RESULT:    -3.838      0.844      1.838
REMARK INTER + INTRA:          -5.370
REMARK INTER:                  -4.983
REMARK INTRA:                  -0.387
REMARK UNBOUND:                -0.186
REMARK SMILES CCCCCCC=CC(=O)[O-]
REMARK SMILES IDX 5 1 6 2 7 3 8 4 9 5 10 6 11 7 4 8 3 9 2 10 1 11
REMARK H PARENT
REMARK Flexibility Score: inf
ROOT
ATOM      1  C   UNL     1     148.686  -2.151   7.687  1.00  0.00     0.004 C 
ENDROOT
BRANCH   1   2
ATOM      2  C   UNL     1     147.206  -2.350   8.038  1.00  0.00     0.027 C 
BRANCH   2   3
ATOM      3  C   UNL     1     146.337  -1.344   7.331  1.00  0.00    -0.025 C 
ATOM      4  C   UNL     1     144.996  -1.374   7.256  1.00  0.00     0.020 C 
BRANCH   4   5
ATOM      5  C   UNL     1     144.099  -2.369   7.879  1.00  0.00     0.064 C 
ATOM      6  O   UNL     1     144.057  -2.546   9.125  1.00  0.00    -0.545 OA
ATOM      7  O   UNL     1     143.259  -3.118   7.064  1.00  0.00    -0.545 OA
ENDBRANCH   4   5
ENDBRANCH   2   3
ENDBRANCH   1   2
BRANCH   1   8
ATOM      8  C   UNL     1     149.300  -3.449   7.143  1.00  0.00     0.000 C 
BRANCH   8   9
ATOM      9  C   UNL     1     149.969  -3.267   5.769  1.00  0.00    -0.000 C 
BRANCH   9  10
ATOM     10  C   UNL     1     149.085  -2.599   4.701  1.00  0.00    -0.003 C 
ATOM     11  C   UNL     1     149.708  -1.332   4.115  1.00  0.00     0.004 C 
ENDBRANCH   9  10
ENDBRANCH   8   9
ENDBRANCH   1   8
TORSDOF 6
ENDMDL
MODEL 4
REMARK VINA RESULT:    -3.834      3.899      5.840
REMARK INTER + INTRA:          -5.364
REMARK INTER:                  -4.916
REMARK INTRA:                  -0.448
REMARK UNBOUND:                -0.186
REMARK SMILES CCCCCCC=CC(=O)[O-]
REMARK SMILES IDX 5 1 6 2 7 3 8 4 9 5 10 6 11 7 4 8 3 9 2 10 1 11
REMARK H PARENT
REMARK Flexibility Score: inf
ROOT
ATOM      1  C   UNL     1     147.664  -0.534   7.897  1.00  0.00     0.004 C 
ENDROOT
BRANCH   1   2
ATOM      2  C   UNL     1     148.430  -0.441   6.571  1.00  0.00     0.027 C 
BRANCH   2   3
ATOM      3  C   UNL     1     148.583  -1.796   5.933  1.00  0.00    -0.025 C 
ATOM      4  C   UNL     1     149.271  -2.066   4.811  1.00  0.00     0.020 C 
BRANCH   4   5
ATOM      5  C   UNL     1     150.047  -1.106   3.999  1.00  0.00     0.064 C 
ATOM      6  O   UNL     1     149.556  -0.529   2.993  1.00  0.00    -0.545 OA
ATOM      7  O   UNL     1     151.353  -0.814   4.370  1.00  0.00    -0.545 OA
ENDBRANCH   4   5
ENDBRANCH   2   3
ENDBRANCH   1   2
BRANCH   1   8
ATOM      8  C   UNL     1     146.887  -1.856   7.988  1.00  0.00     0.000 C 
BRANCH   8   9
ATOM      9  C   UNL     1     145.676  -1.776   8.936  1.00  0.00    -0.000 C 
BRANCH   9  10
ATOM     10  C   UNL     1     144.325  -1.536   8.242  1.00  0.00    -0.003 C 
ATOM     11  C   UNL     1     144.430  -1.521   6.717  1.00  0.00     0.004 C 
ENDBRANCH   9  10
ENDBRANCH   8   9
ENDBRANCH   1   8
TORSDOF 6
ENDMDL
MODEL 5
REMARK VINA RESULT:    -3.800     14.121     15.114
REMARK INTER + INTRA:          -5.318
REMARK INTER:                  -4.853
REMARK INTRA:                  -0.465
REMARK UNBOUND:                -0.186
REMARK SMILES CCCCCCC=CC(=O)[O-]
REMARK SMILES IDX 5 1 6 2 7 3 8 4 9 5 10 6 11 7 4 8 3 9 2 10 1 11
REMARK H PARENT
REMARK Flexibility Score: inf
ROOT
ATOM      1  C   UNL     1     144.660  -2.462  -7.753  1.00  0.00     0.004 C 
ENDROOT
BRANCH   1   2
ATOM      2  C   UNL     1     143.814  -1.203  -7.523  1.00  0.00     0.027 C 
BRANCH   2   3
ATOM      3  C   UNL     1     144.084  -0.164  -8.578  1.00  0.00    -0.025 C 
ATOM      4  C   UNL     1     143.642   1.105  -8.567  1.00  0.00     0.020 C 
BRANCH   4   5
ATOM      5  C   UNL     1     142.839   1.751  -7.508  1.00  0.00     0.064 C 
ATOM      6  O   UNL     1     143.359   2.478  -6.622  1.00  0.00    -0.545 OA
ATOM      7  O   UNL     1     141.462   1.568  -7.505  1.00  0.00    -0.545 OA
ENDBRANCH   4   5
ENDBRANCH   2   3
ENDBRANCH   1   2
BRANCH   1   8
ATOM      8  C   UNL     1     145.559  -2.747  -6.540  1.00  0.00     0.000 C 
BRANCH   8   9
ATOM      9  C   UNL     1     146.848  -1.905  -6.539  1.00  0.00    -0.000 C 
BRANCH   9  10
ATOM     10  C   UNL     1     147.550  -1.794  -7.904  1.00  0.00    -0.003 C 
ATOM     11  C   UNL     1     148.875  -1.033  -7.835  1.00  0.00     0.004 C 
ENDBRANCH   9  10
ENDBRANCH   8   9
ENDBRANCH   1   8
TORSDOF 6
ENDMDL
MODEL 6
REMARK VINA RESULT:    -3.765     13.399     14.741
REMARK INTER + INTRA:          -5.272
REMARK INTER:                  -4.933
REMARK INTRA:                  -0.339
REMARK UNBOUND:                -0.186
REMARK SMILES CCCCCCC=CC(=O)[O-]
REMARK SMILES IDX 5 1 6 2 7 3 8 4 9 5 10 6 11 7 4 8 3 9 2 10 1 11
REMARK H PARENT
REMARK Flexibility Score: inf
ROOT
ATOM      1  C   UNL     1     143.623  -1.866  -7.715  1.00  0.00     0.004 C 
ENDROOT
BRANCH   1   2
ATOM      2  C   UNL     1     144.886  -2.735  -7.668  1.00  0.00     0.027 C 
BRANCH   2   3
ATOM      3  C   UNL     1     145.991  -2.050  -6.909  1.00  0.00    -0.025 C 
ATOM      4  C   UNL     1     146.634  -2.541  -5.837  1.00  0.00     0.020 C 
BRANCH   4   5
ATOM      5  C   UNL     1     146.421  -3.861  -5.207  1.00  0.00     0.064 C 
ATOM      6  O   UNL     1     145.926  -3.982  -4.056  1.00  0.00    -0.545 OA
ATOM      7  O   UNL     1     146.756  -5.006  -5.919  1.00  0.00    -0.545 OA
ENDBRANCH   4   5
ENDBRANCH   2   3
ENDBRANCH   1   2
BRANCH   1   8
ATOM      8  C   UNL     1     143.978  -0.377  -7.589  1.00  0.00     0.000 C 
BRANCH   8   9
ATOM      9  C   UNL     1     143.005   0.538  -8.355  1.00  0.00    -0.000 C 
BRANCH   9  10
ATOM     10  C   UNL     1     142.509   1.761  -7.565  1.00  0.00    -0.003 C 
ATOM     11  C   UNL     1     142.849   1.690  -6.076  1.00  0.00     0.004 C 
ENDBRANCH   9  10
ENDBRANCH   8   9
ENDBRANCH   1   8
TORSDOF 6
ENDMDL
MODEL 7
REMARK VINA RESULT:    -3.725     13.049     14.475
REMARK INTER + INTRA:          -5.217
REMARK INTER:                  -4.989
REMARK INTRA:                  -0.228
REMARK UNBOUND:                -0.186
REMARK SMILES CCCCCCC=CC(=O)[O-]
REMARK SMILES IDX 5 1 6 2 7 3 8 4 9 5 10 6 11 7 4 8 3 9 2 10 1 11
REMARK H PARENT
REMARK Flexibility Score: inf
ROOT
ATOM      1  C   UNL     1     146.113  -1.943  -6.582  1.00  0.00     0.004 C 
ENDROOT
BRANCH   1   2
ATOM      2  C   UNL     1     146.280  -3.468  -6.542  1.00  0.00     0.027 C 
BRANCH   2   3
ATOM      3  C   UNL     1     146.527  -3.952  -5.138  1.00  0.00    -0.025 C 
ATOM      4  C   UNL     1     146.847  -5.207  -4.782  1.00  0.00     0.020 C 
BRANCH   4   5
ATOM      5  C   UNL     1     147.060  -6.355  -5.688  1.00  0.00     0.064 C 
ATOM      6  O   UNL     1     146.151  -7.189  -5.938  1.00  0.00    -0.545 OA
ATOM      7  O   UNL     1     148.298  -6.505  -6.300  1.00  0.00    -0.545 OA
ENDBRANCH   4   5
ENDBRANCH   2   3
ENDBRANCH   1   2
BRANCH   1   8
ATOM      8  C   UNL     1     145.241  -1.518  -7.773  1.00  0.00     0.000 C 
BRANCH   8   9
ATOM      9  C   UNL     1     143.875  -0.952  -7.343  1.00  0.00    -0.000 C 
BRANCH   9  10
ATOM     10  C   UNL     1     143.647   0.528  -7.696  1.00  0.00    -0.003 C 
ATOM     11  C   UNL     1     142.992   1.319  -6.564  1.00  0.00     0.004 C 
ENDBRANCH   9  10
ENDBRANCH   8   9
ENDBRANCH   1   8
TORSDOF 6
ENDMDL
MODEL 8
REMARK VINA RESULT:    -3.570     11.247     12.126
REMARK INTER + INTRA:          -5.008
REMARK INTER:                  -4.661
REMARK INTRA:                  -0.347
REMARK UNBOUND:                -0.186
REMARK SMILES CCCCCCC=CC(=O)[O-]
REMARK SMILES IDX 5 1 6 2 7 3 8 4 9 5 10 6 11 7 4 8 3 9 2 10 1 11
REMARK H PARENT
REMARK Flexibility Score: inf
ROOT
ATOM      1  C   UNL     1     135.171  -5.979   2.857  1.00  0.00     0.004 C 
ENDROOT
BRANCH   1   2
ATOM      2  C   UNL     1     134.456  -6.185   4.198  1.00  0.00     0.027 C 
BRANCH   2   3
ATOM      3  C   UNL     1     135.322  -6.945   5.167  1.00  0.00    -0.025 C 
ATOM      4  C   UNL     1     135.676  -6.536   6.397  1.00  0.00     0.020 C 
BRANCH   4   5
ATOM      5  C   UNL     1     135.259  -5.286   7.066  1.00  0.00     0.064 C 
ATOM      6  O   UNL     1     135.946  -4.233   7.006  1.00  0.00    -0.545 OA
ATOM      7  O   UNL     1     134.058  -5.267   7.764  1.00  0.00    -0.545 OA
ENDBRANCH   4   5
ENDBRANCH   2   3
ENDBRANCH   1   2
BRANCH   1   8
ATOM      8  C   UNL     1     136.282  -7.023   2.662  1.00  0.00     0.000 C 
BRANCH   8   9
ATOM      9  C   UNL     1     136.303  -7.618   1.243  1.00  0.00    -0.000 C 
BRANCH   9  10
ATOM     10  C   UNL     1     137.698  -8.014   0.728  1.00  0.00    -0.003 C 
ATOM     11  C   UNL     1     138.552  -8.710   1.787  1.00  0.00     0.004 C 
ENDBRANCH   9  10
ENDBRANCH   8   9
ENDBRANCH   1   8
TORSDOF 6
ENDMDL
MODEL 9
REMARK VINA RESULT:    -3.560      1.185      1.591
REMARK INTER + INTRA:          -4.995
REMARK INTER:                  -4.645
REMARK INTRA:                  -0.350
REMARK UNBOUND:                -0.186
REMARK SMILES CCCCCCC=CC(=O)[O-]
REMARK SMILES IDX 5 1 6 2 7 3 8 4 9 5 10 6 11 7 4 8 3 9 2 10 1 11
REMARK H PARENT
REMARK Flexibility Score: inf
ROOT
ATOM      1  C   UNL     1     148.337  -0.507   7.024  1.00  0.00     0.004 C 
ENDROOT
BRANCH   1   2
ATOM      2  C   UNL     1     147.024  -1.299   6.981  1.00  0.00     0.027 C 
BRANCH   2   3
ATOM      3  C   UNL     1     146.667  -1.836   8.342  1.00  0.00    -0.025 C 
ATOM      4  C   UNL     1     145.424  -2.001   8.823  1.00  0.00     0.020 C 
BRANCH   4   5
ATOM      5  C   UNL     1     144.158  -1.730   8.110  1.00  0.00     0.064 C 
ATOM      6  O   UNL     1     143.695  -0.566   7.986  1.00  0.00    -0.545 OA
ATOM      7  O   UNL     1     143.469  -2.793   7.539  1.00  0.00    -0.545 OA
ENDBRANCH   4   5
ENDBRANCH   2   3
ENDBRANCH   1   2
BRANCH   1   8
ATOM      8  C   UNL     1     149.548  -1.447   6.922  1.00  0.00     0.000 C 
BRANCH   8   9
ATOM      9  C   UNL     1     149.355  -2.562   5.878  1.00  0.00    -0.000 C 
BRANCH   9  10
ATOM     10  C   UNL     1     150.405  -3.686   5.930  1.00  0.00    -0.003 C 
ATOM     11  C   UNL     1     149.819  -5.066   5.631  1.00  0.00     0.004 C 
ENDBRANCH   9  10
ENDBRANCH   8   9
ENDBRANCH   1   8
TORSDOF 6
ENDMDL
