MODEL 1
REMARK VINA RESULT:    -2.731      0.000      0.000
REMARK INTER + INTRA:          -1.984
REMARK INTER:                  -4.169
REMARK INTRA:                   2.185
REMARK UNBOUND:                 2.185
REMARK SMILES CC1=CCC[C@@H](C)C(=O)C[C@H](C(C)C)C(=O)C1
REMARK SMILES IDX 8 1 9 2 6 3 7 4 5 5 4 6 3 7 2 8 1 9 10 11 11 12 15 13 16 14
REMARK SMILES IDX 17 15 12 17 13 18 14 19
REMARK H PARENT
REMARK Flexibility Score: 70.00
ROOT
ATOM      1  C   UNL     1       2.737  12.894  -7.511  1.00  0.00     0.136 C 
ATOM      2  O   UNL     1       2.693  11.994  -6.683  1.00  0.00    -0.299 OA
ENDROOT
BRANCH   1   3
ATOM      3  C   UNL     1       3.408  12.665  -8.856  1.00  0.00     0.053 C 
ATOM      4  C   UNL     1       3.756  11.189  -9.116  1.00  0.00     0.016 C 
BRANCH   3   5
ATOM      5  C   UNL     1       4.619  13.600  -9.100  1.00  0.00     0.015 C 
BRANCH   5   6
ATOM      6  C   UNL     1       6.009  13.129  -8.610  1.00  0.00     0.028 C 
BRANCH   6   7
ATOM      7  C   UNL     1       6.076  12.461  -7.257  1.00  0.00    -0.028 C 
ATOM      8  C   UNL     1       5.835  13.044  -6.060  1.00  0.00    -0.070 CG0
ATOM      9  C   UNL     1       6.184  12.249  -4.824  1.00  0.00     0.039 C 
ATOM     10  G   UNL     1       5.306  14.460  -5.909  1.00  0.00     0.000 G0
ENDBRANCH   6   7
ENDBRANCH   5   6
ENDBRANCH   3   5
ENDBRANCH   1   3
BRANCH   1  11
ATOM     11  C   UNL     1       2.010  14.193  -7.240  1.00  0.00     0.087 C 
BRANCH  11  12
ATOM     12  C   UNL     1       2.711  15.125  -6.212  1.00  0.00     0.066 C 
BRANCH  12  13
ATOM     13  C   UNL     1       3.878  14.504  -5.441  1.00  0.00     0.140 C 
ATOM     14  O   UNL     1       3.631  13.986  -4.361  1.00  0.00    -0.299 OA
BRANCH  13  15
ATOM     15  C   UNL     1       5.314  14.466  -5.923  1.00  0.00     0.106 CG0
ATOM     16  G   UNL     1       5.807  13.038  -6.078  1.00  0.00     0.000 G0
ENDBRANCH  13  15
ENDBRANCH  12  13
BRANCH  12  17
ATOM     17  C   UNL     1       3.163  16.479  -6.849  1.00  0.00    -0.006 C 
ATOM     18  C   UNL     1       4.149  16.286  -8.013  1.00  0.00     0.008 C 
ATOM     19  C   UNL     1       3.735  17.471  -5.823  1.00  0.00     0.008 C 
ENDBRANCH  12  17
ENDBRANCH  11  12
ENDBRANCH   1  11
TORSDOF 1
ENDMDL
MODEL 2
REMARK VINA RESULT:    -2.396      2.014      3.439
REMARK INTER + INTRA:          -1.473
REMARK INTER:                  -3.794
REMARK INTRA:                   2.322
REMARK UNBOUND:                 2.185
REMARK SMILES CC1=CCC[C@@H](C)C(=O)C[C@H](C(C)C)C(=O)C1
REMARK SMILES IDX 8 1 9 2 6 3 7 4 5 5 4 6 3 7 2 8 1 9 10 11 11 12 15 13 16 14
REMARK SMILES IDX 17 15 12 17 13 18 14 19
REMARK H PARENT
REMARK Flexibility Score: 70.00
ROOT
ATOM      1  C   UNL     1       5.658  13.036  -6.321  1.00  0.00     0.136 C 
ATOM      2  O   UNL     1       6.378  12.947  -5.335  1.00  0.00    -0.299 OA
ENDROOT
BRANCH   1   3
ATOM      3  C   UNL     1       5.996  12.266  -7.588  1.00  0.00     0.053 C 
ATOM      4  C   UNL     1       6.439  13.174  -8.749  1.00  0.00     0.016 C 
BRANCH   3   5
ATOM      5  C   UNL     1       4.881  11.279  -8.015  1.00  0.00     0.015 C 
BRANCH   5   6
ATOM      6  C   UNL     1       3.899  11.727  -9.124  1.00  0.00     0.028 C 
BRANCH   6   7
ATOM      7  C   UNL     1       2.690  12.526  -8.696  1.00  0.00    -0.028 C 
ATOM      8  C   UNL     1       2.610  13.873  -8.598  1.00  0.00    -0.070 CG0
ATOM      9  C   UNL     1       1.380  14.443  -7.932  1.00  0.00     0.039 C 
ATOM     10  G   UNL     1       3.712  14.813  -9.056  1.00  0.00     0.000 G0
ENDBRANCH   6   7
ENDBRANCH   5   6
ENDBRANCH   3   5
ENDBRANCH   1   3
BRANCH   1  11
ATOM     11  C   UNL     1       4.364  13.815  -6.231  1.00  0.00     0.087 C 
BRANCH  11  12
ATOM     12  C   UNL     1       4.500  15.335  -6.530  1.00  0.00     0.066 C 
BRANCH  12  13
ATOM     13  C   UNL     1       4.129  15.767  -7.951  1.00  0.00     0.140 C 
ATOM     14  O   UNL     1       4.191  16.960  -8.214  1.00  0.00    -0.299 OA
BRANCH  13  15
ATOM     15  C   UNL     1       3.707  14.826  -9.061  1.00  0.00     0.106 CG0
ATOM     16  G   UNL     1       2.605  13.887  -8.600  1.00  0.00     0.000 G0
ENDBRANCH  13  15
ENDBRANCH  12  13
BRANCH  12  17
ATOM     17  C   UNL     1       3.728  16.215  -5.495  1.00  0.00    -0.006 C 
ATOM     18  C   UNL     1       2.204  16.021  -5.570  1.00  0.00     0.008 C 
ATOM     19  C   UNL     1       4.082  17.709  -5.585  1.00  0.00     0.008 C 
ENDBRANCH  12  17
ENDBRANCH  11  12
ENDBRANCH   1  11
TORSDOF 1
ENDMDL
MODEL 3
REMARK VINA RESULT:    -2.325      1.627      2.323
REMARK INTER + INTRA:          -1.364
REMARK INTER:                  -1.924
REMARK INTRA:                   0.560
REMARK UNBOUND:                 2.185
REMARK SMILES CC1=CCC[C@@H](C)C(=O)C[C@H](C(C)C)C(=O)C1
REMARK SMILES IDX 8 1 9 2 6 3 7 4 5 5 4 6 3 7 2 8 1 9 10 11 11 12 15 13 16 14
REMARK SMILES IDX 17 15 12 17 13 18 14 19
REMARK H PARENT
REMARK Flexibility Score: 70.00
ROOT
ATOM      1  C   UNL     1       4.302  14.995  -8.755  1.00  0.00     0.136 C 
ATOM      2  O   UNL     1       5.421  14.567  -9.002  1.00  0.00    -0.299 OA
ENDROOT
BRANCH   1   3
ATOM      3  C   UNL     1       3.073  14.159  -9.079  1.00  0.00     0.053 C 
ATOM      4  C   UNL     1       1.864  14.488  -8.187  1.00  0.00     0.016 C 
BRANCH   3   5
ATOM      5  C   UNL     1       3.366  12.638  -9.125  1.00  0.00     0.015 C 
BRANCH   5   6
ATOM      6  C   UNL     1       3.389  11.863  -7.786  1.00  0.00     0.028 C 
BRANCH   6   7
ATOM      7  C   UNL     1       4.667  11.910  -6.981  1.00  0.00    -0.028 C 
ATOM      8  C   UNL     1       4.956  12.775  -5.981  1.00  0.00    -0.070 CG0
ATOM      9  C   UNL     1       6.378  12.789  -5.472  1.00  0.00     0.039 C 
ATOM     10  G   UNL     1       3.951  13.760  -5.409  1.00  0.00     0.000 G0
ENDBRANCH   6   7
ENDBRANCH   5   6
ENDBRANCH   3   5
ENDBRANCH   1   3
BRANCH   1  11
ATOM     11  C   UNL     1       4.152  16.302  -8.008  1.00  0.00     0.087 C 
BRANCH  11  12
ATOM     12  C   UNL     1       3.560  16.166  -6.576  1.00  0.00     0.066 C 
BRANCH  12  13
ATOM     13  C   UNL     1       4.314  15.223  -5.634  1.00  0.00     0.140 C 
ATOM     14  O   UNL     1       5.283  15.674  -5.039  1.00  0.00    -0.299 OA
BRANCH  13  15
ATOM     15  C   UNL     1       3.940  13.779  -5.371  1.00  0.00     0.106 CG0
ATOM     16  G   UNL     1       4.949  12.826  -5.989  1.00  0.00     0.000 G0
ENDBRANCH  13  15
ENDBRANCH  12  13
BRANCH  12  17
ATOM     17  C   UNL     1       3.360  17.552  -5.882  1.00  0.00    -0.006 C 
ATOM     18  C   UNL     1       1.885  17.983  -5.834  1.00  0.00     0.008 C 
ATOM     19  C   UNL     1       4.223  18.667  -6.495  1.00  0.00     0.008 C 
ENDBRANCH  12  17
ENDBRANCH  11  12
ENDBRANCH   1  11
TORSDOF 1
ENDMDL
MODEL 4
REMARK VINA RESULT:    -2.045      1.556      3.858
REMARK INTER + INTRA:          -0.936
REMARK INTER:                  -2.644
REMARK INTRA:                   1.708
REMARK UNBOUND:                 2.185
REMARK SMILES CC1=CCC[C@@H](C)C(=O)C[C@H](C(C)C)C(=O)C1
REMARK SMILES IDX 8 1 9 2 6 3 7 4 5 5 4 6 3 7 2 8 1 9 10 11 11 12 15 13 16 14
REMARK SMILES IDX 17 15 12 17 13 18 14 19
REMARK H PARENT
REMARK Flexibility Score: 70.00
ROOT
ATOM      1  C   UNL     1       2.491  15.563  -6.393  1.00  0.00     0.136 C 
ATOM      2  O   UNL     1       1.704  15.832  -5.494  1.00  0.00    -0.299 OA
ENDROOT
BRANCH   1   3
ATOM      3  C   UNL     1       3.742  16.404  -6.593  1.00  0.00     0.053 C 
ATOM      4  C   UNL     1       3.788  17.647  -5.687  1.00  0.00     0.016 C 
BRANCH   3   5
ATOM      5  C   UNL     1       4.007  16.757  -8.079  1.00  0.00     0.015 C 
BRANCH   5   6
ATOM      6  C   UNL     1       4.040  15.599  -9.105  1.00  0.00     0.028 C 
BRANCH   6   7
ATOM      7  C   UNL     1       5.262  14.712  -9.107  1.00  0.00    -0.028 C 
ATOM      8  C   UNL     1       5.274  13.360  -9.049  1.00  0.00    -0.070 CG0
ATOM      9  C   UNL     1       6.612  12.692  -8.832  1.00  0.00     0.039 C 
ATOM     10  G   UNL     1       4.019  12.507  -9.120  1.00  0.00     0.000 G0
ENDBRANCH   6   7
ENDBRANCH   5   6
ENDBRANCH   3   5
ENDBRANCH   1   3
BRANCH   1  11
ATOM     11  C   UNL     1       2.277  14.316  -7.223  1.00  0.00     0.087 C 
BRANCH  11  12
ATOM     12  C   UNL     1       2.990  13.046  -6.679  1.00  0.00     0.066 C 
BRANCH  12  13
ATOM     13  C   UNL     1       3.543  12.091  -7.740  1.00  0.00     0.140 C 
ATOM     14  O   UNL     1       3.594  10.902  -7.459  1.00  0.00    -0.299 OA
BRANCH  13  15
ATOM     15  C   UNL     1       4.014  12.505  -9.118  1.00  0.00     0.106 CG0
ATOM     16  G   UNL     1       5.268  13.360  -9.039  1.00  0.00     0.000 G0
ENDBRANCH  13  15
ENDBRANCH  12  13
BRANCH  12  17
ATOM     17  C   UNL     1       4.111  13.390  -5.646  1.00  0.00    -0.006 C 
ATOM     18  C   UNL     1       5.424  12.640  -5.924  1.00  0.00     0.008 C 
ATOM     19  C   UNL     1       3.676  13.183  -4.186  1.00  0.00     0.008 C 
ENDBRANCH  12  17
ENDBRANCH  11  12
ENDBRANCH   1  11
TORSDOF 1
ENDMDL
MODEL 5
REMARK VINA RESULT:    -1.889      1.784      4.034
REMARK INTER + INTRA:          -0.698
REMARK INTER:                  -2.795
REMARK INTRA:                   2.097
REMARK UNBOUND:                 2.185
REMARK SMILES CC1=CCC[C@@H](C)C(=O)C[C@H](C(C)C)C(=O)C1
REMARK SMILES IDX 8 1 9 2 6 3 7 4 5 5 4 6 3 7 2 8 1 9 10 11 11 12 15 13 16 14
REMARK SMILES IDX 17 15 12 17 13 18 14 19
REMARK H PARENT
REMARK Flexibility Score: 70.00
ROOT
ATOM      1  C   UNL     1       3.372  15.672  -7.721  1.00  0.00     0.136 C 
ATOM      2  O   UNL     1       4.043  16.378  -8.461  1.00  0.00    -0.299 OA
ENDROOT
BRANCH   1   3
ATOM      3  C   UNL     1       2.820  16.232  -6.420  1.00  0.00     0.053 C 
ATOM      4  C   UNL     1       3.301  17.664  -6.124  1.00  0.00     0.016 C 
BRANCH   3   5
ATOM      5  C   UNL     1       3.032  15.287  -5.211  1.00  0.00     0.015 C 
BRANCH   5   6
ATOM      6  C   UNL     1       3.057  13.763  -5.478  1.00  0.00     0.028 C 
BRANCH   6   7
ATOM      7  C   UNL     1       4.332  13.023  -5.146  1.00  0.00    -0.028 C 
ATOM      8  C   UNL     1       5.518  13.136  -5.788  1.00  0.00    -0.070 CG0
ATOM      9  C   UNL     1       6.591  12.135  -5.434  1.00  0.00     0.039 C 
ATOM     10  G   UNL     1       5.786  14.160  -6.878  1.00  0.00     0.000 G0
ENDBRANCH   6   7
ENDBRANCH   5   6
ENDBRANCH   3   5
ENDBRANCH   1   3
BRANCH   1  11
ATOM     11  C   UNL     1       2.987  14.278  -8.167  1.00  0.00     0.087 C 
BRANCH  11  12
ATOM     12  C   UNL     1       4.116  13.497  -8.898  1.00  0.00     0.066 C 
BRANCH  12  13
ATOM     13  C   UNL     1       5.507  13.596  -8.266  1.00  0.00     0.140 C 
ATOM     14  O   UNL     1       6.459  13.213  -8.931  1.00  0.00    -0.299 OA
BRANCH  13  15
ATOM     15  C   UNL     1       5.795  14.150  -6.885  1.00  0.00     0.106 CG0
ATOM     16  G   UNL     1       5.519  13.115  -5.808  1.00  0.00     0.000 G0
ENDBRANCH  13  15
ENDBRANCH  12  13
BRANCH  12  17
ATOM     17  C   UNL     1       3.748  11.995  -9.125  1.00  0.00    -0.006 C 
ATOM     18  C   UNL     1       2.384  11.621  -8.524  1.00  0.00     0.008 C 
ATOM     19  C   UNL     1       4.834  11.024  -8.633  1.00  0.00     0.008 C 
ENDBRANCH  12  17
ENDBRANCH  11  12
ENDBRANCH   1  11
TORSDOF 1
ENDMDL
MODEL 6
REMARK VINA RESULT:    -1.800      1.866      3.341
REMARK INTER + INTRA:          -0.563
REMARK INTER:                  -2.331
REMARK INTRA:                   1.769
REMARK UNBOUND:                 2.185
REMARK SMILES CC1=CCC[C@@H](C)C(=O)C[C@H](C(C)C)C(=O)C1
REMARK SMILES IDX 8 1 9 2 6 3 7 4 5 5 4 6 3 7 2 8 1 9 10 11 11 12 15 13 16 14
REMARK SMILES IDX 17 15 12 17 13 18 14 19
REMARK H PARENT
REMARK Flexibility Score: 70.00
ROOT
ATOM      1  C   UNL     1       5.735  14.063  -7.275  1.00  0.00     0.136 C 
ATOM      2  O   UNL     1       6.366  14.115  -8.323  1.00  0.00    -0.299 OA
ENDROOT
BRANCH   1   3
ATOM      3  C   UNL     1       5.539  12.734  -6.564  1.00  0.00     0.053 C 
ATOM      4  C   UNL     1       6.542  12.504  -5.420  1.00  0.00     0.016 C 
BRANCH   3   5
ATOM      5  C   UNL     1       5.479  11.528  -7.535  1.00  0.00     0.015 C 
BRANCH   5   6
ATOM      6  C   UNL     1       4.190  11.330  -8.368  1.00  0.00     0.028 C 
BRANCH   6   7
ATOM      7  C   UNL     1       3.532  12.569  -8.929  1.00  0.00    -0.028 C 
ATOM      8  C   UNL     1       2.639  13.362  -8.294  1.00  0.00    -0.070 CG0
ATOM      9  C   UNL     1       1.939  14.413  -9.124  1.00  0.00     0.039 C 
ATOM     10  G   UNL     1       2.265  13.199  -6.831  1.00  0.00     0.000 G0
ENDBRANCH   6   7
ENDBRANCH   5   6
ENDBRANCH   3   5
ENDBRANCH   1   3
BRANCH   1  11
ATOM     11  C   UNL     1       5.262  15.345  -6.626  1.00  0.00     0.087 C 
BRANCH  11  12
ATOM     12  C   UNL     1       3.723  15.442  -6.429  1.00  0.00     0.066 C 
BRANCH  12  13
ATOM     13  C   UNL     1       3.035  14.164  -5.941  1.00  0.00     0.140 C 
ATOM     14  O   UNL     1       3.127  13.892  -4.752  1.00  0.00    -0.299 OA
BRANCH  13  15
ATOM     15  C   UNL     1       2.236  13.221  -6.816  1.00  0.00     0.106 CG0
ATOM     16  G   UNL     1       2.630  13.356  -8.277  1.00  0.00     0.000 G0
ENDBRANCH  13  15
ENDBRANCH  12  13
BRANCH  12  17
ATOM     17  C   UNL     1       3.316  16.641  -5.512  1.00  0.00    -0.006 C 
ATOM     18  C   UNL     1       1.793  16.839  -5.435  1.00  0.00     0.008 C 
ATOM     19  C   UNL     1       4.008  17.960  -5.895  1.00  0.00     0.008 C 
ENDBRANCH  12  17
ENDBRANCH  11  12
ENDBRANCH   1  11
TORSDOF 1
ENDMDL
MODEL 7
REMARK VINA RESULT:    -1.784      1.762      4.708
REMARK INTER + INTRA:          -0.538
REMARK INTER:                  -1.355
REMARK INTRA:                   0.817
REMARK UNBOUND:                 2.185
REMARK SMILES CC1=CCC[C@@H](C)C(=O)C[C@H](C(C)C)C(=O)C1
REMARK SMILES IDX 8 1 9 2 6 3 7 4 5 5 4 6 3 7 2 8 1 9 10 11 11 12 15 13 16 14
REMARK SMILES IDX 17 15 12 17 13 18 14 19
REMARK H PARENT
REMARK Flexibility Score: 70.00
ROOT
ATOM      1  C   UNL     1       4.534  16.226  -6.003  1.00  0.00     0.136 C 
ATOM      2  O   UNL     1       5.123  16.129  -4.934  1.00  0.00    -0.299 OA
ENDROOT
BRANCH   1   3
ATOM      3  C   UNL     1       3.395  17.221  -6.163  1.00  0.00     0.053 C 
ATOM      4  C   UNL     1       3.811  18.671  -5.862  1.00  0.00     0.016 C 
BRANCH   3   5
ATOM      5  C   UNL     1       2.116  16.810  -5.390  1.00  0.00     0.015 C 
BRANCH   5   6
ATOM      6  C   UNL     1       1.526  15.405  -5.658  1.00  0.00     0.028 C 
BRANCH   6   7
ATOM      7  C   UNL     1       1.443  14.953  -7.097  1.00  0.00    -0.028 C 
ATOM      8  C   UNL     1       1.993  13.833  -7.620  1.00  0.00    -0.070 CG0
ATOM      9  C   UNL     1       1.979  13.697  -9.125  1.00  0.00     0.039 C 
ATOM     10  G   UNL     1       2.672  12.762  -6.783  1.00  0.00     0.000 G0
ENDBRANCH   6   7
ENDBRANCH   5   6
ENDBRANCH   3   5
ENDBRANCH   1   3
BRANCH   1  11
ATOM     11  C   UNL     1       5.028  15.443  -7.199  1.00  0.00     0.087 C 
BRANCH  11  12
ATOM     12  C   UNL     1       5.116  13.907  -6.978  1.00  0.00     0.066 C 
BRANCH  12  13
ATOM     13  C   UNL     1       3.960  13.284  -6.191  1.00  0.00     0.140 C 
ATOM     14  O   UNL     1       4.082  13.203  -4.976  1.00  0.00    -0.299 OA
BRANCH  13  15
ATOM     15  C   UNL     1       2.670  12.776  -6.801  1.00  0.00     0.106 CG0
ATOM     16  G   UNL     1       1.989  13.852  -7.629  1.00  0.00     0.000 G0
ENDBRANCH  13  15
ENDBRANCH  12  13
BRANCH  12  17
ATOM     17  C   UNL     1       5.322  13.125  -8.315  1.00  0.00    -0.006 C 
ATOM     18  C   UNL     1       5.390  11.603  -8.108  1.00  0.00     0.008 C 
ATOM     19  C   UNL     1       6.540  13.610  -9.119  1.00  0.00     0.008 C 
ENDBRANCH  12  17
ENDBRANCH  11  12
ENDBRANCH   1  11
TORSDOF 1
ENDMDL
MODEL 8
REMARK VINA RESULT:    -1.768      2.008      2.780
REMARK INTER + INTRA:          -0.513
REMARK INTER:                  -1.592
REMARK INTRA:                   1.078
REMARK UNBOUND:                 2.185
REMARK SMILES CC1=CCC[C@@H](C)C(=O)C[C@H](C(C)C)C(=O)C1
REMARK SMILES IDX 8 1 9 2 6 3 7 4 5 5 4 6 3 7 2 8 1 9 10 11 11 12 15 13 16 14
REMARK SMILES IDX 17 15 12 17 13 18 14 19
REMARK H PARENT
REMARK Flexibility Score: 70.00
ROOT
ATOM      1  C   UNL     1       4.776  14.742  -8.862  1.00  0.00     0.136 C 
ATOM      2  O   UNL     1       5.605  15.615  -9.082  1.00  0.00    -0.299 OA
ENDROOT
BRANCH   1   3
ATOM      3  C   UNL     1       5.222  13.321  -8.557  1.00  0.00     0.053 C 
ATOM      4  C   UNL     1       6.686  13.049  -8.943  1.00  0.00     0.016 C 
BRANCH   3   5
ATOM      5  C   UNL     1       4.261  12.246  -9.125  1.00  0.00     0.015 C 
BRANCH   5   6
ATOM      6  C   UNL     1       3.447  11.396  -8.120  1.00  0.00     0.028 C 
BRANCH   6   7
ATOM      7  C   UNL     1       3.616  11.710  -6.653  1.00  0.00    -0.028 C 
ATOM      8  C   UNL     1       2.985  12.689  -5.962  1.00  0.00    -0.070 CG0
ATOM      9  C   UNL     1       3.476  12.969  -4.561  1.00  0.00     0.039 C 
ATOM     10  G   UNL     1       1.876  13.546  -6.548  1.00  0.00     0.000 G0
ENDBRANCH   6   7
ENDBRANCH   5   6
ENDBRANCH   3   5
ENDBRANCH   1   3
BRANCH   1  11
ATOM     11  C   UNL     1       3.311  15.111  -8.771  1.00  0.00     0.087 C 
BRANCH  11  12
ATOM     12  C   UNL     1       2.912  15.862  -7.469  1.00  0.00     0.066 C 
BRANCH  12  13
ATOM     13  C   UNL     1       2.182  15.022  -6.417  1.00  0.00     0.140 C 
ATOM     14  O   UNL     1       1.808  15.590  -5.400  1.00  0.00    -0.299 OA
BRANCH  13  15
ATOM     15  C   UNL     1       1.874  13.545  -6.548  1.00  0.00     0.106 CG0
ATOM     16  G   UNL     1       2.983  12.694  -5.955  1.00  0.00     0.000 G0
ENDBRANCH  13  15
ENDBRANCH  12  13
BRANCH  12  17
ATOM     17  C   UNL     1       4.125  16.592  -6.808  1.00  0.00    -0.006 C 
ATOM     18  C   UNL     1       4.875  15.706  -5.800  1.00  0.00     0.008 C 
ATOM     19  C   UNL     1       3.745  17.935  -6.161  1.00  0.00     0.008 C 
ENDBRANCH  12  17
ENDBRANCH  11  12
ENDBRANCH   1  11
TORSDOF 1
ENDMDL
MODEL 9
REMARK VINA RESULT:    -1.623      1.912      3.447
REMARK INTER + INTRA:          -0.292
REMARK INTER:                  -1.693
REMARK INTRA:                   1.401
REMARK UNBOUND:                 2.185
REMARK SMILES CC1=CCC[C@@H](C)C(=O)C[C@H](C(C)C)C(=O)C1
REMARK SMILES IDX 8 1 9 2 6 3 7 4 5 5 4 6 3 7 2 8 1 9 10 11 11 12 15 13 16 14
REMARK SMILES IDX 17 15 12 17 13 18 14 19
REMARK H PARENT
REMARK Flexibility Score: 70.00
ROOT
ATOM      1  C   UNL     1       5.795  13.568  -6.703  1.00  0.00     0.136 C 
ATOM      2  O   UNL     1       6.276  12.624  -6.090  1.00  0.00    -0.299 OA
ENDROOT
BRANCH   1   3
ATOM      3  C   UNL     1       6.272  13.891  -8.110  1.00  0.00     0.053 C 
ATOM      4  C   UNL     1       5.781  15.258  -8.618  1.00  0.00     0.016 C 
BRANCH   3   5
ATOM      5  C   UNL     1       5.986  12.756  -9.125  1.00  0.00     0.015 C 
BRANCH   5   6
ATOM      6  C   UNL     1       5.520  11.388  -8.572  1.00  0.00     0.028 C 
BRANCH   6   7
ATOM      7  C   UNL     1       4.165  10.888  -9.013  1.00  0.00    -0.028 C 
ATOM      8  C   UNL     1       2.977  11.160  -8.425  1.00  0.00    -0.070 CG0
ATOM      9  C   UNL     1       1.779  10.370  -8.896  1.00  0.00     0.039 C 
ATOM     10  G   UNL     1       2.814  12.152  -7.286  1.00  0.00     0.000 G0
ENDBRANCH   6   7
ENDBRANCH   5   6
ENDBRANCH   3   5
ENDBRANCH   1   3
BRANCH   1  11
ATOM     11  C   UNL     1       4.635  14.333  -6.103  1.00  0.00     0.087 C 
BRANCH  11  12
ATOM     12  C   UNL     1       3.532  14.740  -7.120  1.00  0.00     0.066 C 
BRANCH  12  13
ATOM     13  C   UNL     1       2.772  13.582  -7.772  1.00  0.00     0.140 C 
ATOM     14  O   UNL     1       2.111  13.831  -8.771  1.00  0.00    -0.299 OA
BRANCH  13  15
ATOM     15  C   UNL     1       2.790  12.148  -7.284  1.00  0.00     0.106 CG0
ATOM     16  G   UNL     1       2.991  11.176  -8.433  1.00  0.00     0.000 G0
ENDBRANCH  13  15
ENDBRANCH  12  13
BRANCH  12  17
ATOM     17  C   UNL     1       2.515  15.762  -6.517  1.00  0.00    -0.006 C 
ATOM     18  C   UNL     1       3.172  17.101  -6.143  1.00  0.00     0.008 C 
ATOM     19  C   UNL     1       1.728  15.200  -5.321  1.00  0.00     0.008 C 
ENDBRANCH  12  17
ENDBRANCH  11  12
ENDBRANCH   1  11
TORSDOF 1
ENDMDL
