MODEL 1
REMARK VINA RESULT:    -7.515      0.000      0.000
REMARK INTER + INTRA:          -8.174
REMARK INTER:                  -8.174
REMARK INTRA:                   0.000
REMARK UNBOUND:                 0.000
REMARK SMILES Cc1cc(O)c2c(c1)C(=O)c1cc(O)cc(O)c1C2=O
REMARK SMILES IDX 1 1 2 2 8 3 7 4 6 5 4 6 3 7 19 8 20 9 18 10 11 11 9 12 10 13
REMARK SMILES IDX 12 14 13 15 15 16 16 17 5 18 17 20 14 22
REMARK H PARENT 5 19 17 21 14 23
REMARK Flexibility Score: inf
ROOT
ATOM      1  C   UNL     1      -9.307   3.629  -6.041  1.00  0.00     0.044 C 
ATOM      2  C   UNL     1      -8.321   4.261  -5.103  1.00  0.00    -0.047 A 
ATOM      3  C   UNL     1      -8.749   5.197  -4.156  1.00  0.00     0.016 A 
ATOM      4  C   UNL     1      -7.827   5.827  -3.303  1.00  0.00     0.038 A 
ATOM      5  C   UNL     1      -6.450   5.536  -3.418  1.00  0.00     0.076 A 
ATOM      6  C   UNL     1      -6.026   4.552  -4.348  1.00  0.00     0.127 A 
ATOM      7  C   UNL     1      -6.960   3.952  -5.200  1.00  0.00     0.050 A 
ATOM      8  C   UNL     1      -5.493   6.329  -2.603  1.00  0.00     0.201 C 
ATOM      9  O   UNL     1      -4.329   6.543  -3.033  1.00  0.00    -0.288 OA
ATOM     10  C   UNL     1      -5.968   7.024  -1.379  1.00  0.00     0.076 A 
ATOM     11  C   UNL     1      -7.346   7.315  -1.268  1.00  0.00     0.041 A 
ATOM     12  C   UNL     1      -8.294   6.795  -2.283  1.00  0.00     0.194 C 
ATOM     13  O   UNL     1      -9.503   7.156  -2.260  1.00  0.00    -0.289 OA
ATOM     14  C   UNL     1      -7.813   8.091  -0.194  1.00  0.00     0.059 A 
ATOM     15  C   UNL     1      -6.930   8.566   0.775  1.00  0.00     0.120 A 
ATOM     16  C   UNL     1      -5.572   8.248   0.692  1.00  0.00     0.093 A 
ATOM     17  C   UNL     1      -5.085   7.461  -0.356  1.00  0.00     0.131 A 
ENDROOT
BRANCH   6  18
ATOM     18  O   UNL     1      -4.701   4.118  -4.439  1.00  0.00    -0.507 OA
ATOM     19  H   UNL     1      -4.257   3.856  -5.307  1.00  0.00     0.293 HD
ENDBRANCH   6  18
BRANCH  17  20
ATOM     20  O   UNL     1      -3.734   7.107  -0.324  1.00  0.00    -0.507 OA
ATOM     21  H   UNL     1      -3.376   6.311   0.186  1.00  0.00     0.293 HD
ENDBRANCH  17  20
BRANCH  15  22
ATOM     22  O   UNL     1      -7.413   9.344   1.824  1.00  0.00    -0.508 OA
ATOM     23  H   UNL     1      -8.387   9.311   2.104  1.00  0.00     0.293 HD
ENDBRANCH  15  22
TORSDOF 3
ENDMDL
MODEL 2
REMARK VINA RESULT:    -6.587      7.961      8.736
REMARK INTER + INTRA:          -7.164
REMARK INTER:                  -7.164
REMARK INTRA:                   0.000
REMARK UNBOUND:                 0.000
REMARK SMILES Cc1cc(O)c2c(c1)C(=O)c1cc(O)cc(O)c1C2=O
REMARK SMILES IDX 1 1 2 2 8 3 7 4 6 5 4 6 3 7 19 8 20 9 18 10 11 11 9 12 10 13
REMARK SMILES IDX 12 14 13 15 15 16 16 17 5 18 17 20 14 22
REMARK H PARENT 5 19 17 21 14 23
REMARK Flexibility Score: inf
ROOT
ATOM      1  C   UNL     1      -7.795  -1.602  -7.056  1.00  0.00     0.044 C 
ATOM      2  C   UNL     1      -7.398  -1.954  -5.653  1.00  0.00    -0.047 A 
ATOM      3  C   UNL     1      -8.050  -1.361  -4.566  1.00  0.00     0.016 A 
ATOM      4  C   UNL     1      -7.656  -1.652  -3.248  1.00  0.00     0.038 A 
ATOM      5  C   UNL     1      -6.573  -2.529  -3.015  1.00  0.00     0.076 A 
ATOM      6  C   UNL     1      -5.947  -3.164  -4.119  1.00  0.00     0.127 A 
ATOM      7  C   UNL     1      -6.344  -2.844  -5.422  1.00  0.00     0.050 A 
ATOM      8  C   UNL     1      -6.092  -2.696  -1.619  1.00  0.00     0.201 C 
ATOM      9  O   UNL     1      -4.879  -2.955  -1.400  1.00  0.00    -0.288 OA
ATOM     10  C   UNL     1      -6.995  -2.371  -0.485  1.00  0.00     0.076 A 
ATOM     11  C   UNL     1      -8.075  -1.492  -0.722  1.00  0.00     0.041 A 
ATOM     12  C   UNL     1      -8.372  -1.042  -2.103  1.00  0.00     0.194 C 
ATOM     13  O   UNL     1      -9.252  -0.160  -2.305  1.00  0.00    -0.289 OA
ATOM     14  C   UNL     1      -8.867  -1.051   0.352  1.00  0.00     0.059 A 
ATOM     15  C   UNL     1      -8.607  -1.487   1.651  1.00  0.00     0.120 A 
ATOM     16  C   UNL     1      -7.564  -2.387   1.886  1.00  0.00     0.093 A 
ATOM     17  C   UNL     1      -6.774  -2.856   0.832  1.00  0.00     0.131 A 
ENDROOT
BRANCH   6  18
ATOM     18  O   UNL     1      -4.954  -4.136  -3.968  1.00  0.00    -0.507 OA
ATOM     19  H   UNL     1      -4.938  -5.003  -4.486  1.00  0.00     0.293 HD
ENDBRANCH   6  18
BRANCH  17  20
ATOM     20  O   UNL     1      -5.811  -3.823   1.128  1.00  0.00    -0.507 OA
ATOM     21  H   UNL     1      -4.876  -3.603   1.441  1.00  0.00     0.293 HD
ENDBRANCH  17  20
BRANCH  15  22
ATOM     22  O   UNL     1      -9.397  -1.027   2.702  1.00  0.00    -0.508 OA
ATOM     23  H   UNL     1      -9.373  -0.059   2.999  1.00  0.00     0.293 HD
ENDBRANCH  15  22
TORSDOF 3
ENDMDL
MODEL 3
REMARK VINA RESULT:    -6.551      1.660      3.526
REMARK INTER + INTRA:          -7.126
REMARK INTER:                  -7.126
REMARK INTRA:                   0.000
REMARK UNBOUND:                 0.000
REMARK SMILES Cc1cc(O)c2c(c1)C(=O)c1cc(O)cc(O)c1C2=O
REMARK SMILES IDX 1 1 2 2 8 3 7 4 6 5 4 6 3 7 19 8 20 9 18 10 11 11 9 12 10 13
REMARK SMILES IDX 12 14 13 15 15 16 16 17 5 18 17 20 14 22
REMARK H PARENT 5 19 17 21 14 23
REMARK Flexibility Score: inf
ROOT
ATOM      1  C   UNL     1      -7.586   5.661  -7.946  1.00  0.00     0.044 C 
ATOM      2  C   UNL     1      -7.696   6.210  -6.554  1.00  0.00    -0.047 A 
ATOM      3  C   UNL     1      -6.633   6.069  -5.655  1.00  0.00     0.016 A 
ATOM      4  C   UNL     1      -6.743   6.540  -4.336  1.00  0.00     0.038 A 
ATOM      5  C   UNL     1      -7.946   7.138  -3.900  1.00  0.00     0.076 A 
ATOM      6  C   UNL     1      -9.004   7.321  -4.828  1.00  0.00     0.127 A 
ATOM      7  C   UNL     1      -8.878   6.826  -6.131  1.00  0.00     0.050 A 
ATOM      8  C   UNL     1      -8.076   7.488  -2.462  1.00  0.00     0.201 C 
ATOM      9  O   UNL     1      -9.209   7.469  -1.911  1.00  0.00    -0.288 OA
ATOM     10  C   UNL     1      -6.856   7.675  -1.635  1.00  0.00     0.076 A 
ATOM     11  C   UNL     1      -5.654   7.074  -2.074  1.00  0.00     0.041 A 
ATOM     12  C   UNL     1      -5.600   6.413  -3.400  1.00  0.00     0.194 C 
ATOM     13  O   UNL     1      -4.572   5.766  -3.742  1.00  0.00    -0.289 OA
ATOM     14  C   UNL     1      -4.514   7.109  -1.253  1.00  0.00     0.059 A 
ATOM     15  C   UNL     1      -4.552   7.747  -0.013  1.00  0.00     0.120 A 
ATOM     16  C   UNL     1      -5.726   8.377   0.408  1.00  0.00     0.093 A 
ATOM     17  C   UNL     1      -6.868   8.373  -0.399  1.00  0.00     0.131 A 
ENDROOT
BRANCH   6  18
ATOM     18  O   UNL     1     -10.177   8.011  -4.512  1.00  0.00    -0.507 OA
ATOM     19  H   UNL     1     -10.603   8.696  -5.120  1.00  0.00     0.293 HD
ENDBRANCH   6  18
BRANCH  17  20
ATOM     20  O   UNL     1      -7.975   9.101   0.046  1.00  0.00    -0.507 OA
ATOM     21  H   UNL     1      -8.145   9.321   1.017  1.00  0.00     0.293 HD
ENDBRANCH  17  20
BRANCH  15  22
ATOM     22  O   UNL     1      -3.414   7.759   0.789  1.00  0.00    -0.508 OA
ATOM     23  H   UNL     1      -2.948   6.901   1.060  1.00  0.00     0.293 HD
ENDBRANCH  15  22
TORSDOF 3
ENDMDL
MODEL 4
REMARK VINA RESULT:    -6.469      7.810      9.137
REMARK INTER + INTRA:          -7.036
REMARK INTER:                  -7.036
REMARK INTRA:                   0.000
REMARK UNBOUND:                 0.000
REMARK SMILES Cc1cc(O)c2c(c1)C(=O)c1cc(O)cc(O)c1C2=O
REMARK SMILES IDX 1 1 2 2 8 3 7 4 6 5 4 6 3 7 19 8 20 9 18 10 11 11 9 12 10 13
REMARK SMILES IDX 12 14 13 15 15 16 16 17 5 18 17 20 14 22
REMARK H PARENT 5 19 17 21 14 23
REMARK Flexibility Score: inf
ROOT
ATOM      1  C   UNL     1      -6.777  -1.863  -6.306  1.00  0.00     0.044 C 
ATOM      2  C   UNL     1      -7.233  -1.663  -4.890  1.00  0.00    -0.047 A 
ATOM      3  C   UNL     1      -6.600  -2.344  -3.844  1.00  0.00     0.016 A 
ATOM      4  C   UNL     1      -7.047  -2.197  -2.520  1.00  0.00     0.038 A 
ATOM      5  C   UNL     1      -8.163  -1.377  -2.241  1.00  0.00     0.076 A 
ATOM      6  C   UNL     1      -8.772  -0.653  -3.298  1.00  0.00     0.127 A 
ATOM      7  C   UNL     1      -8.321  -0.831  -4.611  1.00  0.00     0.050 A 
ATOM      8  C   UNL     1      -8.697  -1.365  -0.854  1.00  0.00     0.201 C 
ATOM      9  O   UNL     1      -9.924  -1.162  -0.655  1.00  0.00    -0.288 OA
ATOM     10  C   UNL     1      -7.823  -1.776   0.276  1.00  0.00     0.076 A 
ATOM     11  C   UNL     1      -6.708  -2.597  -0.007  1.00  0.00     0.041 A 
ATOM     12  C   UNL     1      -6.351  -2.898  -1.415  1.00  0.00     0.194 C 
ATOM     13  O   UNL     1      -5.438  -3.731  -1.670  1.00  0.00    -0.289 OA
ATOM     14  C   UNL     1      -5.940  -3.121   1.046  1.00  0.00     0.059 A 
ATOM     15  C   UNL     1      -6.257  -2.824   2.371  1.00  0.00     0.120 A 
ATOM     16  C   UNL     1      -7.335  -1.981   2.655  1.00  0.00     0.093 A 
ATOM     17  C   UNL     1      -8.103  -1.431   1.624  1.00  0.00     0.131 A 
ENDROOT
BRANCH   6  18
ATOM     18  O   UNL     1      -9.799   0.271  -3.089  1.00  0.00    -0.507 OA
ATOM     19  H   UNL     1     -10.040   0.642  -2.182  1.00  0.00     0.293 HD
ENDBRANCH   6  18
BRANCH  17  20
ATOM     20  O   UNL     1      -9.105  -0.525   1.979  1.00  0.00    -0.507 OA
ATOM     21  H   UNL     1      -9.751  -0.118   1.317  1.00  0.00     0.293 HD
ENDBRANCH  17  20
BRANCH  15  22
ATOM     22  O   UNL     1      -5.489  -3.364   3.400  1.00  0.00    -0.508 OA
ATOM     23  H   UNL     1      -5.845  -4.102   3.996  1.00  0.00     0.293 HD
ENDBRANCH  15  22
TORSDOF 3
ENDMDL
MODEL 5
REMARK VINA RESULT:    -6.446      9.255      9.785
REMARK INTER + INTRA:          -7.012
REMARK INTER:                  -7.012
REMARK INTRA:                   0.000
REMARK UNBOUND:                 0.000
REMARK SMILES Cc1cc(O)c2c(c1)C(=O)c1cc(O)cc(O)c1C2=O
REMARK SMILES IDX 1 1 2 2 8 3 7 4 6 5 4 6 3 7 19 8 20 9 18 10 11 11 9 12 10 13
REMARK SMILES IDX 12 14 13 15 15 16 16 17 5 18 17 20 14 22
REMARK H PARENT 5 19 17 21 14 23
REMARK Flexibility Score: inf
ROOT
ATOM      1  C   UNL     1      -8.281  -1.143  -4.329  1.00  0.00     0.044 C 
ATOM      2  C   UNL     1      -7.808  -1.667  -3.005  1.00  0.00    -0.047 A 
ATOM      3  C   UNL     1      -8.598  -1.507  -1.861  1.00  0.00     0.016 A 
ATOM      4  C   UNL     1      -8.145  -1.955  -0.609  1.00  0.00     0.038 A 
ATOM      5  C   UNL     1      -6.869  -2.550  -0.494  1.00  0.00     0.076 A 
ATOM      6  C   UNL     1      -6.092  -2.753  -1.664  1.00  0.00     0.127 A 
ATOM      7  C   UNL     1      -6.556  -2.280  -2.897  1.00  0.00     0.050 A 
ATOM      8  C   UNL     1      -6.365  -2.875   0.865  1.00  0.00     0.201 C 
ATOM      9  O   UNL     1      -5.127  -2.850   1.099  1.00  0.00    -0.288 OA
ATOM     10  C   UNL     1      -7.325  -3.043   1.987  1.00  0.00     0.076 A 
ATOM     11  C   UNL     1      -8.600  -2.446   1.869  1.00  0.00     0.041 A 
ATOM     12  C   UNL     1      -9.002  -1.808   0.591  1.00  0.00     0.194 C 
ATOM     13  O   UNL     1     -10.084  -1.163   0.521  1.00  0.00    -0.289 OA
ATOM     14  C   UNL     1      -9.484  -2.462   2.960  1.00  0.00     0.059 A 
ATOM     15  C   UNL     1      -9.121  -3.079   4.158  1.00  0.00     0.120 A 
ATOM     16  C   UNL     1      -7.877  -3.706   4.267  1.00  0.00     0.093 A 
ATOM     17  C   UNL     1      -6.987  -3.720   3.188  1.00  0.00     0.131 A 
ENDROOT
BRANCH   6  18
ATOM     18  O   UNL     1      -4.877  -3.442  -1.655  1.00  0.00    -0.507 OA
ATOM     19  H   UNL     1      -4.401  -3.723  -0.810  1.00  0.00     0.293 HD
ENDBRANCH   6  18
BRANCH  17  20
ATOM     20  O   UNL     1      -5.802  -4.443   3.339  1.00  0.00    -0.507 OA
ATOM     21  H   UNL     1      -5.737  -5.443   3.207  1.00  0.00     0.293 HD
ENDBRANCH  17  20
BRANCH  15  22
ATOM     22  O   UNL     1     -10.009  -3.072   5.231  1.00  0.00    -0.508 OA
ATOM     23  H   UNL     1     -10.759  -2.395   5.294  1.00  0.00     0.293 HD
ENDBRANCH  15  22
TORSDOF 3
ENDMDL
MODEL 6
REMARK VINA RESULT:    -6.398     10.041     11.857
REMARK INTER + INTRA:          -6.959
REMARK INTER:                  -6.959
REMARK INTRA:                   0.000
REMARK UNBOUND:                 0.000
REMARK SMILES Cc1cc(O)c2c(c1)C(=O)c1cc(O)cc(O)c1C2=O
REMARK SMILES IDX 1 1 2 2 8 3 7 4 6 5 4 6 3 7 19 8 20 9 18 10 11 11 9 12 10 13
REMARK SMILES IDX 12 14 13 15 15 16 16 17 5 18 17 20 14 22
REMARK H PARENT 5 19 17 21 14 23
REMARK Flexibility Score: inf
ROOT
ATOM      1  C   UNL     1       7.560   2.394  -5.490  1.00  0.00     0.044 C 
ATOM      2  C   UNL     1       6.732   3.154  -4.495  1.00  0.00    -0.047 A 
ATOM      3  C   UNL     1       6.111   4.352  -4.865  1.00  0.00     0.016 A 
ATOM      4  C   UNL     1       5.371   5.094  -3.929  1.00  0.00     0.038 A 
ATOM      5  C   UNL     1       5.273   4.643  -2.593  1.00  0.00     0.076 A 
ATOM      6  C   UNL     1       5.865   3.405  -2.236  1.00  0.00     0.127 A 
ATOM      7  C   UNL     1       6.614   2.694  -3.180  1.00  0.00     0.050 A 
ATOM      8  C   UNL     1       4.608   5.527  -1.601  1.00  0.00     0.201 C 
ATOM      9  O   UNL     1       4.966   5.496  -0.393  1.00  0.00    -0.288 OA
ATOM     10  C   UNL     1       3.661   6.574  -2.064  1.00  0.00     0.076 A 
ATOM     11  C   UNL     1       3.763   7.023  -3.400  1.00  0.00     0.041 A 
ATOM     12  C   UNL     1       4.691   6.346  -4.337  1.00  0.00     0.194 C 
ATOM     13  O   UNL     1       4.880   6.820  -5.491  1.00  0.00    -0.289 OA
ATOM     14  C   UNL     1       2.982   8.107  -3.836  1.00  0.00     0.059 A 
ATOM     15  C   UNL     1       2.092   8.735  -2.964  1.00  0.00     0.120 A 
ATOM     16  C   UNL     1       1.958   8.270  -1.654  1.00  0.00     0.093 A 
ATOM     17  C   UNL     1       2.710   7.182  -1.202  1.00  0.00     0.131 A 
ENDROOT
BRANCH   6  18
ATOM     18  O   UNL     1       5.711   2.830  -0.971  1.00  0.00    -0.507 OA
ATOM     19  H   UNL     1       5.273   1.934  -0.815  1.00  0.00     0.293 HD
ENDBRANCH   6  18
BRANCH  17  20
ATOM     20  O   UNL     1       2.457   6.715   0.090  1.00  0.00    -0.507 OA
ATOM     21  H   UNL     1       1.599   6.897   0.593  1.00  0.00     0.293 HD
ENDBRANCH  17  20
BRANCH  15  22
ATOM     22  O   UNL     1       1.337   9.815  -3.415  1.00  0.00    -0.508 OA
ATOM     23  H   UNL     1       0.332   9.849  -3.290  1.00  0.00     0.293 HD
ENDBRANCH  15  22
TORSDOF 3
ENDMDL
MODEL 7
REMARK VINA RESULT:    -6.357      1.637      6.186
REMARK INTER + INTRA:          -6.915
REMARK INTER:                  -6.915
REMARK INTRA:                   0.000
REMARK UNBOUND:                 0.000
REMARK SMILES Cc1cc(O)c2c(c1)C(=O)c1cc(O)cc(O)c1C2=O
REMARK SMILES IDX 1 1 2 2 8 3 7 4 6 5 4 6 3 7 19 8 20 9 18 10 11 11 9 12 10 13
REMARK SMILES IDX 12 14 13 15 15 16 16 17 5 18 17 20 14 22
REMARK H PARENT 5 19 17 21 14 23
REMARK Flexibility Score: inf
ROOT
ATOM      1  C   UNL     1      -3.236   8.719  -0.700  1.00  0.00     0.044 C 
ATOM      2  C   UNL     1      -4.579   8.180  -1.098  1.00  0.00    -0.047 A 
ATOM      3  C   UNL     1      -4.680   7.211  -2.102  1.00  0.00     0.016 A 
ATOM      4  C   UNL     1      -5.936   6.733  -2.513  1.00  0.00     0.038 A 
ATOM      5  C   UNL     1      -7.112   7.252  -1.928  1.00  0.00     0.076 A 
ATOM      6  C   UNL     1      -7.002   8.200  -0.878  1.00  0.00     0.127 A 
ATOM      7  C   UNL     1      -5.742   8.676  -0.500  1.00  0.00     0.050 A 
ATOM      8  C   UNL     1      -8.422   6.831  -2.490  1.00  0.00     0.201 C 
ATOM      9  O   UNL     1      -9.406   7.616  -2.446  1.00  0.00    -0.288 OA
ATOM     10  C   UNL     1      -8.518   5.569  -3.268  1.00  0.00     0.076 A 
ATOM     11  C   UNL     1      -7.340   5.053  -3.852  1.00  0.00     0.041 A 
ATOM     12  C   UNL     1      -6.031   5.684  -3.556  1.00  0.00     0.194 C 
ATOM     13  O   UNL     1      -4.995   5.310  -4.172  1.00  0.00    -0.289 OA
ATOM     14  C   UNL     1      -7.412   3.941  -4.708  1.00  0.00     0.059 A 
ATOM     15  C   UNL     1      -8.637   3.330  -4.975  1.00  0.00     0.120 A 
ATOM     16  C   UNL     1      -9.800   3.811  -4.368  1.00  0.00     0.093 A 
ATOM     17  C   UNL     1      -9.752   4.904  -3.498  1.00  0.00     0.131 A 
ENDROOT
BRANCH   6  18
ATOM     18  O   UNL     1      -8.108   8.671  -0.166  1.00  0.00    -0.507 OA
ATOM     19  H   UNL     1      -8.621   9.504  -0.416  1.00  0.00     0.293 HD
ENDBRANCH   6  18
BRANCH  17  20
ATOM     20  O   UNL     1     -10.937   5.272  -2.858  1.00  0.00    -0.507 OA
ATOM     21  H   UNL     1     -11.412   4.689  -2.181  1.00  0.00     0.293 HD
ENDBRANCH  17  20
BRANCH  15  22
ATOM     22  O   UNL     1      -8.686   2.236  -5.836  1.00  0.00    -0.508 OA
ATOM     23  H   UNL     1      -9.486   1.614  -5.858  1.00  0.00     0.293 HD
ENDBRANCH  15  22
TORSDOF 3
ENDMDL
MODEL 8
REMARK VINA RESULT:    -6.348      1.577      3.419
REMARK INTER + INTRA:          -6.905
REMARK INTER:                  -6.905
REMARK INTRA:                   0.000
REMARK UNBOUND:                 0.000
REMARK SMILES Cc1cc(O)c2c(c1)C(=O)c1cc(O)cc(O)c1C2=O
REMARK SMILES IDX 1 1 2 2 8 3 7 4 6 5 4 6 3 7 19 8 20 9 18 10 11 11 9 12 10 13
REMARK SMILES IDX 12 14 13 15 15 16 16 17 5 18 17 20 14 22
REMARK H PARENT 5 19 17 21 14 23
REMARK Flexibility Score: inf
ROOT
ATOM      1  C   UNL     1      -4.984   4.004  -7.437  1.00  0.00     0.044 C 
ATOM      2  C   UNL     1      -5.884   4.624  -6.409  1.00  0.00    -0.047 A 
ATOM      3  C   UNL     1      -5.341   5.213  -5.261  1.00  0.00     0.016 A 
ATOM      4  C   UNL     1      -6.177   5.758  -4.272  1.00  0.00     0.038 A 
ATOM      5  C   UNL     1      -7.581   5.687  -4.420  1.00  0.00     0.076 A 
ATOM      6  C   UNL     1      -8.124   5.131  -5.606  1.00  0.00     0.127 A 
ATOM      7  C   UNL     1      -7.272   4.578  -6.568  1.00  0.00     0.050 A 
ATOM      8  C   UNL     1      -8.430   6.139  -3.287  1.00  0.00     0.201 C 
ATOM      9  O   UNL     1      -9.557   5.611  -3.098  1.00  0.00    -0.288 OA
ATOM     10  C   UNL     1      -7.873   7.073  -2.275  1.00  0.00     0.076 A 
ATOM     11  C   UNL     1      -6.469   7.140  -2.129  1.00  0.00     0.041 A 
ATOM     12  C   UNL     1      -5.593   6.407  -3.075  1.00  0.00     0.194 C 
ATOM     13  O   UNL     1      -4.348   6.358  -2.874  1.00  0.00    -0.289 OA
ATOM     14  C   UNL     1      -5.908   7.904  -1.092  1.00  0.00     0.059 A 
ATOM     15  C   UNL     1      -6.726   8.613  -0.212  1.00  0.00     0.120 A 
ATOM     16  C   UNL     1      -8.113   8.582  -0.376  1.00  0.00     0.093 A 
ATOM     17  C   UNL     1      -8.694   7.845  -1.412  1.00  0.00     0.131 A 
ENDROOT
BRANCH   6  18
ATOM     18  O   UNL     1      -9.493   5.135  -5.885  1.00  0.00    -0.507 OA
ATOM     19  H   UNL     1     -10.116   4.378  -5.639  1.00  0.00     0.293 HD
ENDBRANCH   6  18
BRANCH  17  20
ATOM     20  O   UNL     1     -10.079   7.935  -1.570  1.00  0.00    -0.507 OA
ATOM     21  H   UNL     1     -10.732   7.916  -0.798  1.00  0.00     0.293 HD
ENDBRANCH  17  20
BRANCH  15  22
ATOM     22  O   UNL     1      -6.149   9.354   0.817  1.00  0.00    -0.508 OA
ATOM     23  H   UNL     1      -6.077  10.363   0.768  1.00  0.00     0.293 HD
ENDBRANCH  15  22
TORSDOF 3
ENDMDL
MODEL 9
REMARK VINA RESULT:    -6.220      2.411      2.888
REMARK INTER + INTRA:          -6.766
REMARK INTER:                  -6.766
REMARK INTRA:                   0.000
REMARK UNBOUND:                 0.000
REMARK SMILES Cc1cc(O)c2c(c1)C(=O)c1cc(O)cc(O)c1C2=O
REMARK SMILES IDX 1 1 2 2 8 3 7 4 6 5 4 6 3 7 19 8 20 9 18 10 11 11 9 12 10 13
REMARK SMILES IDX 12 14 13 15 15 16 16 17 5 18 17 20 14 22
REMARK H PARENT 5 19 17 21 14 23
REMARK Flexibility Score: inf
ROOT
ATOM      1  C   UNL     1      -7.570   4.965  -9.758  1.00  0.00     0.044 C 
ATOM      2  C   UNL     1      -7.238   5.059  -8.298  1.00  0.00    -0.047 A 
ATOM      3  C   UNL     1      -7.587   6.201  -7.568  1.00  0.00     0.016 A 
ATOM      4  C   UNL     1      -7.241   6.318  -6.211  1.00  0.00     0.038 A 
ATOM      5  C   UNL     1      -6.510   5.286  -5.580  1.00  0.00     0.076 A 
ATOM      6  C   UNL     1      -6.200   4.111  -6.311  1.00  0.00     0.127 A 
ATOM      7  C   UNL     1      -6.537   4.026  -7.667  1.00  0.00     0.050 A 
ATOM      8  C   UNL     1      -6.036   5.510  -4.189  1.00  0.00     0.201 C 
ATOM      9  O   UNL     1      -4.973   4.964  -3.793  1.00  0.00    -0.288 OA
ATOM     10  C   UNL     1      -6.710   6.522  -3.335  1.00  0.00     0.076 A 
ATOM     11  C   UNL     1      -7.439   7.553  -3.970  1.00  0.00     0.041 A 
ATOM     12  C   UNL     1      -7.643   7.517  -5.438  1.00  0.00     0.194 C 
ATOM     13  O   UNL     1      -8.180   8.496  -6.026  1.00  0.00    -0.289 OA
ATOM     14  C   UNL     1      -7.973   8.605  -3.207  1.00  0.00     0.059 A 
ATOM     15  C   UNL     1      -7.803   8.634  -1.823  1.00  0.00     0.120 A 
ATOM     16  C   UNL     1      -7.117   7.597  -1.185  1.00  0.00     0.093 A 
ATOM     17  C   UNL     1      -6.593   6.529  -1.920  1.00  0.00     0.131 A 
ENDROOT
BRANCH   6  18
ATOM     18  O   UNL     1      -5.589   2.997  -5.729  1.00  0.00    -0.507 OA
ATOM     19  H   UNL     1      -5.254   2.978  -4.777  1.00  0.00     0.293 HD
ENDBRANCH   6  18
BRANCH  17  20
ATOM     20  O   UNL     1      -6.001   5.484  -1.207  1.00  0.00    -0.507 OA
ATOM     21  H   UNL     1      -5.103   5.085  -1.443  1.00  0.00     0.293 HD
ENDBRANCH  17  20
BRANCH  15  22
ATOM     22  O   UNL     1      -8.330   9.693  -1.088  1.00  0.00    -0.508 OA
ATOM     23  H   UNL     1      -7.747  10.261  -0.484  1.00  0.00     0.293 HD
ENDBRANCH  15  22
TORSDOF 3
ENDMDL
