MODEL 1
REMARK VINA RESULT:    -3.261      0.000      0.000
REMARK INTER + INTRA:          -3.663
REMARK INTER:                  -3.643
REMARK INTRA:                  -0.020
REMARK UNBOUND:                -0.020
REMARK SMILES CC(C)CC=O
REMARK SMILES IDX 4 1 2 2 1 3 3 4 5 5 6 6
REMARK H PARENT
REMARK Flexibility Score: inf
ROOT
ATOM      1  C   UNL     1      24.312  57.290  -8.662  1.00  0.00     0.075 C 
ENDROOT
BRANCH   1   2
ATOM      2  C   UNL     1      24.281  55.757  -8.470  1.00  0.00    -0.010 C 
ATOM      3  C   UNL     1      23.123  55.316  -7.565  1.00  0.00     0.008 C 
ATOM      4  C   UNL     1      25.618  55.204  -7.957  1.00  0.00     0.008 C 
ENDBRANCH   1   2
BRANCH   1   5
ATOM      5  C   UNL     1      25.670  57.826  -9.020  1.00  0.00     0.224 C 
ATOM      6  O   UNL     1      25.824  59.010  -9.282  1.00  0.00    -0.303 OA
ENDBRANCH   1   5
TORSDOF 2
ENDMDL
MODEL 2
REMARK VINA RESULT:    -3.206      2.519      3.381
REMARK INTER + INTRA:          -3.602
REMARK INTER:                  -3.565
REMARK INTRA:                  -0.036
REMARK UNBOUND:                -0.020
REMARK SMILES CC(C)CC=O
REMARK SMILES IDX 4 1 2 2 1 3 3 4 5 5 6 6
REMARK H PARENT
REMARK Flexibility Score: inf
ROOT
ATOM      1  C   UNL     1      23.566  56.243  -8.541  1.00  0.00     0.075 C 
ENDROOT
BRANCH   1   2
ATOM      2  C   UNL     1      25.069  56.326  -8.888  1.00  0.00    -0.010 C 
ATOM      3  C   UNL     1      25.928  55.509  -7.913  1.00  0.00     0.008 C 
ATOM      4  C   UNL     1      25.570  57.774  -8.977  1.00  0.00     0.008 C 
ENDBRANCH   1   2
BRANCH   1   5
ATOM      5  C   UNL     1      23.264  55.351  -7.369  1.00  0.00     0.224 C 
ATOM      6  O   UNL     1      22.361  54.530  -7.427  1.00  0.00    -0.303 OA
ENDBRANCH   1   5
TORSDOF 2
ENDMDL
MODEL 3
REMARK VINA RESULT:    -3.206     15.538     16.448
REMARK INTER + INTRA:          -3.601
REMARK INTER:                  -3.565
REMARK INTRA:                  -0.036
REMARK UNBOUND:                -0.020
REMARK SMILES CC(C)CC=O
REMARK SMILES IDX 4 1 2 2 1 3 3 4 5 5 6 6
REMARK H PARENT
REMARK Flexibility Score: inf
ROOT
ATOM      1  C   UNL     1      19.517  45.049   0.058  1.00  0.00     0.075 C 
ENDROOT
BRANCH   1   2
ATOM      2  C   UNL     1      20.109  44.378   1.318  1.00  0.00    -0.010 C 
ATOM      3  C   UNL     1      20.905  43.112   0.973  1.00  0.00     0.008 C 
ATOM      4  C   UNL     1      19.041  44.081   2.379  1.00  0.00     0.008 C 
ENDBRANCH   1   2
BRANCH   1   5
ATOM      5  C   UNL     1      18.031  44.866  -0.082  1.00  0.00     0.224 C 
ATOM      6  O   UNL     1      17.323  45.784  -0.468  1.00  0.00    -0.303 OA
ENDBRANCH   1   5
TORSDOF 2
ENDMDL
MODEL 4
REMARK VINA RESULT:    -3.166     15.997     17.220
REMARK INTER + INTRA:          -3.557
REMARK INTER:                  -3.518
REMARK INTRA:                  -0.038
REMARK UNBOUND:                -0.020
REMARK SMILES CC(C)CC=O
REMARK SMILES IDX 4 1 2 2 1 3 3 4 5 5 6 6
REMARK H PARENT
REMARK Flexibility Score: inf
ROOT
ATOM      1  C   UNL     1      18.780  44.119   2.272  1.00  0.00     0.075 C 
ENDROOT
BRANCH   1   2
ATOM      2  C   UNL     1      19.973  44.441   1.344  1.00  0.00    -0.010 C 
ATOM      3  C   UNL     1      19.520  45.109   0.038  1.00  0.00     0.008 C 
ATOM      4  C   UNL     1      20.839  43.207   1.055  1.00  0.00     0.008 C 
ENDBRANCH   1   2
BRANCH   1   5
ATOM      5  C   UNL     1      17.462  44.034   1.554  1.00  0.00     0.224 C 
ATOM      6  O   UNL     1      16.486  44.640   1.970  1.00  0.00    -0.303 OA
ENDBRANCH   1   5
TORSDOF 2
ENDMDL
MODEL 5
REMARK VINA RESULT:    -3.140     15.697     16.879
REMARK INTER + INTRA:          -3.527
REMARK INTER:                  -3.491
REMARK INTRA:                  -0.037
REMARK UNBOUND:                -0.020
REMARK SMILES CC(C)CC=O
REMARK SMILES IDX 4 1 2 2 1 3 3 4 5 5 6 6
REMARK H PARENT
REMARK Flexibility Score: inf
ROOT
ATOM      1  C   UNL     1      20.705  43.479   1.443  1.00  0.00     0.075 C 
ENDROOT
BRANCH   1   2
ATOM      2  C   UNL     1      19.630  44.588   1.393  1.00  0.00    -0.010 C 
ATOM      3  C   UNL     1      18.268  44.088   1.891  1.00  0.00     0.008 C 
ATOM      4  C   UNL     1      19.505  45.218  -0.001  1.00  0.00     0.008 C 
ENDBRANCH   1   2
BRANCH   1   5
ATOM      5  C   UNL     1      20.713  42.589   0.231  1.00  0.00     0.224 C 
ATOM      6  O   UNL     1      21.765  42.253  -0.289  1.00  0.00    -0.303 OA
ENDBRANCH   1   5
TORSDOF 2
ENDMDL
MODEL 6
REMARK VINA RESULT:    -3.139     15.742     16.982
REMARK INTER + INTRA:          -3.526
REMARK INTER:                  -3.480
REMARK INTRA:                  -0.047
REMARK UNBOUND:                -0.020
REMARK SMILES CC(C)CC=O
REMARK SMILES IDX 4 1 2 2 1 3 3 4 5 5 6 6
REMARK H PARENT
REMARK Flexibility Score: inf
ROOT
ATOM      1  C   UNL     1      20.552  43.434   1.297  1.00  0.00     0.075 C 
ENDROOT
BRANCH   1   2
ATOM      2  C   UNL     1      19.234  43.950   0.676  1.00  0.00    -0.010 C 
ATOM      3  C   UNL     1      19.441  45.255  -0.105  1.00  0.00     0.008 C 
ATOM      4  C   UNL     1      18.119  44.107   1.718  1.00  0.00     0.008 C 
ENDBRANCH   1   2
BRANCH   1   5
ATOM      5  C   UNL     1      21.389  42.621   0.349  1.00  0.00     0.224 C 
ATOM      6  O   UNL     1      20.864  41.876  -0.464  1.00  0.00    -0.303 OA
ENDBRANCH   1   5
TORSDOF 2
ENDMDL
MODEL 7
REMARK VINA RESULT:    -2.846     15.653     16.869
REMARK INTER + INTRA:          -3.199
REMARK INTER:                  -3.141
REMARK INTRA:                  -0.058
REMARK UNBOUND:                -0.020
REMARK SMILES CC(C)CC=O
REMARK SMILES IDX 4 1 2 2 1 3 3 4 5 5 6 6
REMARK H PARENT
REMARK Flexibility Score: inf
ROOT
ATOM      1  C   UNL     1      18.813  44.063   1.859  1.00  0.00     0.075 C 
ENDROOT
BRANCH   1   2
ATOM      2  C   UNL     1      18.149  44.338   0.491  1.00  0.00    -0.010 C 
ATOM      3  C   UNL     1      17.980  43.054  -0.333  1.00  0.00     0.008 C 
ATOM      4  C   UNL     1      18.893  45.411  -0.315  1.00  0.00     0.008 C 
ENDBRANCH   1   2
BRANCH   1   5
ATOM      5  C   UNL     1      20.302  44.265   1.859  1.00  0.00     0.224 C 
ATOM      6  O   UNL     1      21.053  43.372   1.497  1.00  0.00    -0.303 OA
ENDBRANCH   1   5
TORSDOF 2
ENDMDL
MODEL 8
REMARK VINA RESULT:    -2.840     16.884     17.551
REMARK INTER + INTRA:          -3.192
REMARK INTER:                  -3.151
REMARK INTRA:                  -0.042
REMARK UNBOUND:                -0.020
REMARK SMILES CC(C)CC=O
REMARK SMILES IDX 4 1 2 2 1 3 3 4 5 5 6 6
REMARK H PARENT
REMARK Flexibility Score: inf
ROOT
ATOM      1  C   UNL     1      18.586  42.963   1.385  1.00  0.00     0.075 C 
ENDROOT
BRANCH   1   2
ATOM      2  C   UNL     1      20.064  43.286   1.698  1.00  0.00    -0.010 C 
ATOM      3  C   UNL     1      20.262  44.762   2.069  1.00  0.00     0.008 C 
ATOM      4  C   UNL     1      21.006  42.878   0.556  1.00  0.00     0.008 C 
ENDBRANCH   1   2
BRANCH   1   5
ATOM      5  C   UNL     1      18.374  42.359   0.025  1.00  0.00     0.224 C 
ATOM      6  O   UNL     1      17.608  42.875  -0.775  1.00  0.00    -0.303 OA
ENDBRANCH   1   5
TORSDOF 2
ENDMDL
MODEL 9
REMARK VINA RESULT:    -2.792     16.099     17.468
REMARK INTER + INTRA:          -3.138
REMARK INTER:                  -3.111
REMARK INTRA:                  -0.027
REMARK UNBOUND:                -0.020
REMARK SMILES CC(C)CC=O
REMARK SMILES IDX 4 1 2 2 1 3 3 4 5 5 6 6
REMARK H PARENT
REMARK Flexibility Score: inf
ROOT
ATOM      1  C   UNL     1      18.659  43.169   0.162  1.00  0.00     0.075 C 
ENDROOT
BRANCH   1   2
ATOM      2  C   UNL     1      19.746  44.242   0.396  1.00  0.00    -0.010 C 
ATOM      3  C   UNL     1      20.056  44.429   1.887  1.00  0.00     0.008 C 
ATOM      4  C   UNL     1      19.394  45.584  -0.263  1.00  0.00     0.008 C 
ENDBRANCH   1   2
BRANCH   1   5
ATOM      5  C   UNL     1      18.109  42.580   1.431  1.00  0.00     0.224 C 
ATOM      6  O   UNL     1      17.086  41.913   1.417  1.00  0.00    -0.303 OA
ENDBRANCH   1   5
TORSDOF 2
ENDMDL
