MODEL 1
REMARK VINA RESULT:    -4.391      0.000      0.000
REMARK INTER + INTRA:          -9.356
REMARK INTER:                  -7.985
REMARK INTRA:                  -1.370
REMARK UNBOUND:                -1.370
REMARK SMILES CCCCCCCCCCCCCCCC(=O)[O-]
REMARK SMILES IDX 9 1 10 2 11 3 12 4 13 5 14 6 15 7 16 8 17 9 18 10 8 11 7 12
REMARK SMILES IDX 6 13 5 14 4 15 3 16 2 17 1 18
REMARK H PARENT
REMARK Flexibility Score: inf
ROOT
ATOM      1  C   UNL     1      44.878  25.959   2.630  1.00  0.00     0.000 C 
ENDROOT
BRANCH   1   2
ATOM      2  C   UNL     1      45.311  27.426   2.469  1.00  0.00     0.000 C 
BRANCH   2   3
ATOM      3  C   UNL     1      44.132  28.357   2.143  1.00  0.00     0.000 C 
BRANCH   3   4
ATOM      4  C   UNL     1      42.795  27.603   2.050  1.00  0.00     0.000 C 
BRANCH   4   5
ATOM      5  C   UNL     1      42.087  27.818   0.702  1.00  0.00     0.000 C 
BRANCH   5   6
ATOM      6  C   UNL     1      42.836  28.810  -0.205  1.00  0.00     0.006 C 
BRANCH   6   7
ATOM      7  C   UNL     1      43.247  28.176  -1.541  1.00  0.00     0.053 C 
BRANCH   7   8
ATOM      8  C   UNL     1      44.213  27.046  -1.345  1.00  0.00     0.041 C 
ATOM      9  O   UNL     1      43.809  25.854  -1.379  1.00  0.00    -0.550 OA
ATOM     10  O   UNL     1      45.562  27.310  -1.153  1.00  0.00    -0.550 OA
ENDBRANCH   7   8
ENDBRANCH   6   7
ENDBRANCH   5   6
ENDBRANCH   4   5
ENDBRANCH   3   4
ENDBRANCH   2   3
ENDBRANCH   1   2
BRANCH   1  11
ATOM     11  C   UNL     1      45.639  25.240   3.755  1.00  0.00     0.000 C 
BRANCH  11  12
ATOM     12  C   UNL     1      46.947  25.956   4.134  1.00  0.00    -0.000 C 
BRANCH  12  13
ATOM     13  C   UNL     1      47.005  26.333   5.622  1.00  0.00    -0.000 C 
BRANCH  13  14
ATOM     14  C   UNL     1      45.703  26.978   6.120  1.00  0.00    -0.000 C 
BRANCH  14  15
ATOM     15  C   UNL     1      45.997  28.137   7.083  1.00  0.00    -0.000 C 
BRANCH  15  16
ATOM     16  C   UNL     1      45.361  27.941   8.470  1.00  0.00    -0.000 C 
BRANCH  16  17
ATOM     17  C   UNL     1      45.260  26.478   8.936  1.00  0.00    -0.003 C 
ATOM     18  C   UNL     1      46.343  26.096   9.944  1.00  0.00     0.004 C 
ENDBRANCH  16  17
ENDBRANCH  15  16
ENDBRANCH  14  15
ENDBRANCH  13  14
ENDBRANCH  12  13
ENDBRANCH  11  12
ENDBRANCH   1  11
TORSDOF 14
ENDMDL
MODEL 2
REMARK VINA RESULT:    -4.350      0.920      1.934
REMARK INTER + INTRA:          -9.281
REMARK INTER:                  -8.012
REMARK INTRA:                  -1.268
REMARK UNBOUND:                -1.370
REMARK SMILES CCCCCCCCCCCCCCCC(=O)[O-]
REMARK SMILES IDX 9 1 10 2 11 3 12 4 13 5 14 6 15 7 16 8 17 9 18 10 8 11 7 12
REMARK SMILES IDX 6 13 5 14 4 15 3 16 2 17 1 18
REMARK H PARENT
REMARK Flexibility Score: inf
ROOT
ATOM      1  C   UNL     1      43.794  26.812   2.238  1.00  0.00     0.000 C 
ENDROOT
BRANCH   1   2
ATOM      2  C   UNL     1      43.564  28.281   1.845  1.00  0.00     0.000 C 
BRANCH   2   3
ATOM      3  C   UNL     1      42.250  28.486   1.074  1.00  0.00     0.000 C 
BRANCH   3   4
ATOM      4  C   UNL     1      42.259  29.770   0.227  1.00  0.00     0.000 C 
BRANCH   4   5
ATOM      5  C   UNL     1      43.261  29.703  -0.937  1.00  0.00     0.000 C 
BRANCH   5   6
ATOM      6  C   UNL     1      42.747  28.847  -2.109  1.00  0.00     0.006 C 
BRANCH   6   7
ATOM      7  C   UNL     1      43.841  27.936  -2.684  1.00  0.00     0.053 C 
BRANCH   7   8
ATOM      8  C   UNL     1      44.424  27.039  -1.635  1.00  0.00     0.041 C 
ATOM      9  O   UNL     1      45.565  27.278  -1.158  1.00  0.00    -0.550 OA
ATOM     10  O   UNL     1      43.696  25.955  -1.163  1.00  0.00    -0.550 OA
ENDBRANCH   7   8
ENDBRANCH   6   7
ENDBRANCH   5   6
ENDBRANCH   4   5
ENDBRANCH   3   4
ENDBRANCH   2   3
ENDBRANCH   1   2
BRANCH   1  11
ATOM     11  C   UNL     1      45.278  26.492   2.478  1.00  0.00     0.000 C 
BRANCH  11  12
ATOM     12  C   UNL     1      45.478  25.298   3.428  1.00  0.00    -0.000 C 
BRANCH  12  13
ATOM     13  C   UNL     1      46.262  25.676   4.694  1.00  0.00    -0.000 C 
BRANCH  13  14
ATOM     14  C   UNL     1      46.481  27.191   4.824  1.00  0.00    -0.000 C 
BRANCH  14  15
ATOM     15  C   UNL     1      45.984  27.703   6.184  1.00  0.00    -0.000 C 
BRANCH  15  16
ATOM     16  C   UNL     1      45.899  26.594   7.248  1.00  0.00    -0.000 C 
BRANCH  16  17
ATOM     17  C   UNL     1      45.237  27.017   8.571  1.00  0.00    -0.003 C 
ATOM     18  C   UNL     1      45.125  28.533   8.726  1.00  0.00     0.004 C 
ENDBRANCH  16  17
ENDBRANCH  15  16
ENDBRANCH  14  15
ENDBRANCH  13  14
ENDBRANCH  12  13
ENDBRANCH  11  12
ENDBRANCH   1  11
TORSDOF 14
ENDMDL
MODEL 3
REMARK VINA RESULT:    -4.244      1.061      1.581
REMARK INTER + INTRA:          -9.088
REMARK INTER:                  -7.694
REMARK INTRA:                  -1.394
REMARK UNBOUND:                -1.370
REMARK SMILES CCCCCCCCCCCCCCCC(=O)[O-]
REMARK SMILES IDX 9 1 10 2 11 3 12 4 13 5 14 6 15 7 16 8 17 9 18 10 8 11 7 12
REMARK SMILES IDX 6 13 5 14 4 15 3 16 2 17 1 18
REMARK H PARENT
REMARK Flexibility Score: inf
ROOT
ATOM      1  C   UNL     1      44.980  27.377   1.859  1.00  0.00     0.000 C 
ENDROOT
BRANCH   1   2
ATOM      2  C   UNL     1      43.568  26.773   1.787  1.00  0.00     0.000 C 
BRANCH   2   3
ATOM      3  C   UNL     1      42.483  27.835   1.547  1.00  0.00     0.000 C 
BRANCH   3   4
ATOM      4  C   UNL     1      43.075  29.222   1.241  1.00  0.00     0.000 C 
BRANCH   4   5
ATOM      5  C   UNL     1      42.622  29.770  -0.121  1.00  0.00     0.000 C 
BRANCH   5   6
ATOM      6  C   UNL     1      42.740  28.727  -1.246  1.00  0.00     0.006 C 
BRANCH   6   7
ATOM      7  C   UNL     1      44.198  28.472  -1.650  1.00  0.00     0.053 C 
BRANCH   7   8
ATOM      8  C   UNL     1      44.383  27.103  -2.231  1.00  0.00     0.041 C 
ATOM      9  O   UNL     1      44.033  26.084  -1.578  1.00  0.00    -0.550 OA
ATOM     10  O   UNL     1      44.915  26.954  -3.505  1.00  0.00    -0.550 OA
ENDBRANCH   7   8
ENDBRANCH   6   7
ENDBRANCH   5   6
ENDBRANCH   4   5
ENDBRANCH   3   4
ENDBRANCH   2   3
ENDBRANCH   1   2
BRANCH   1  11
ATOM     11  C   UNL     1      45.965  26.484   2.630  1.00  0.00     0.000 C 
BRANCH  11  12
ATOM     12  C   UNL     1      45.271  25.636   3.710  1.00  0.00    -0.000 C 
BRANCH  12  13
ATOM     13  C   UNL     1      45.722  26.006   5.132  1.00  0.00    -0.000 C 
BRANCH  13  14
ATOM     14  C   UNL     1      46.705  27.187   5.152  1.00  0.00    -0.000 C 
BRANCH  14  15
ATOM     15  C   UNL     1      46.871  27.739   6.575  1.00  0.00    -0.000 C 
BRANCH  15  16
ATOM     16  C   UNL     1      45.577  28.356   7.134  1.00  0.00    -0.000 C 
BRANCH  16  17
ATOM     17  C   UNL     1      45.236  27.946   8.577  1.00  0.00    -0.003 C 
ATOM     18  C   UNL     1      45.344  26.440   8.813  1.00  0.00     0.004 C 
ENDBRANCH  16  17
ENDBRANCH  15  16
ENDBRANCH  14  15
ENDBRANCH  13  14
ENDBRANCH  12  13
ENDBRANCH  11  12
ENDBRANCH   1  11
TORSDOF 14
ENDMDL
MODEL 4
REMARK VINA RESULT:    -4.127      1.426      3.162
REMARK INTER + INTRA:          -8.876
REMARK INTER:                  -7.024
REMARK INTRA:                  -1.851
REMARK UNBOUND:                -1.370
REMARK SMILES CCCCCCCCCCCCCCCC(=O)[O-]
REMARK SMILES IDX 9 1 10 2 11 3 12 4 13 5 14 6 15 7 16 8 17 9 18 10 8 11 7 12
REMARK SMILES IDX 6 13 5 14 4 15 3 16 2 17 1 18
REMARK H PARENT
REMARK Flexibility Score: inf
ROOT
ATOM      1  C   UNL     1      43.478  27.376   1.924  1.00  0.00     0.000 C 
ENDROOT
BRANCH   1   2
ATOM      2  C   UNL     1      42.262  27.906   1.146  1.00  0.00     0.000 C 
BRANCH   2   3
ATOM      3  C   UNL     1      42.202  29.442   1.122  1.00  0.00     0.000 C 
BRANCH   3   4
ATOM      4  C   UNL     1      42.228  30.009  -0.308  1.00  0.00     0.000 C 
BRANCH   4   5
ATOM      5  C   UNL     1      42.967  29.091  -1.295  1.00  0.00     0.000 C 
BRANCH   5   6
ATOM      6  C   UNL     1      44.495  29.259  -1.228  1.00  0.00     0.006 C 
BRANCH   6   7
ATOM      7  C   UNL     1      45.236  28.089  -1.888  1.00  0.00     0.053 C 
BRANCH   7   8
ATOM      8  C   UNL     1      44.297  26.995  -2.296  1.00  0.00     0.041 C 
ATOM      9  O   UNL     1      43.851  26.947  -3.473  1.00  0.00    -0.550 OA
ATOM     10  O   UNL     1      43.935  26.013  -1.383  1.00  0.00    -0.550 OA
ENDBRANCH   7   8
ENDBRANCH   6   7
ENDBRANCH   5   6
ENDBRANCH   4   5
ENDBRANCH   3   4
ENDBRANCH   2   3
ENDBRANCH   1   2
BRANCH   1  11
ATOM     11  C   UNL     1      44.365  28.504   2.473  1.00  0.00     0.000 C 
BRANCH  11  12
ATOM     12  C   UNL     1      45.851  28.308   2.125  1.00  0.00    -0.000 C 
BRANCH  12  13
ATOM     13  C   UNL     1      46.159  26.886   1.632  1.00  0.00    -0.000 C 
BRANCH  13  14
ATOM     14  C   UNL     1      46.919  26.051   2.673  1.00  0.00    -0.000 C 
BRANCH  14  15
ATOM     15  C   UNL     1      45.977  25.070   3.385  1.00  0.00    -0.000 C 
BRANCH  15  16
ATOM     16  C   UNL     1      45.332  25.667   4.649  1.00  0.00    -0.000 C 
BRANCH  16  17
ATOM     17  C   UNL     1      46.248  26.597   5.464  1.00  0.00    -0.003 C 
ATOM     18  C   UNL     1      45.877  26.652   6.945  1.00  0.00     0.004 C 
ENDBRANCH  16  17
ENDBRANCH  15  16
ENDBRANCH  14  15
ENDBRANCH  13  14
ENDBRANCH  12  13
ENDBRANCH  11  12
ENDBRANCH   1  11
TORSDOF 14
ENDMDL
MODEL 5
REMARK VINA RESULT:    -4.091      1.742      3.004
REMARK INTER + INTRA:          -8.809
REMARK INTER:                  -6.814
REMARK INTRA:                  -1.995
REMARK UNBOUND:                -1.370
REMARK SMILES CCCCCCCCCCCCCCCC(=O)[O-]
REMARK SMILES IDX 9 1 10 2 11 3 12 4 13 5 14 6 15 7 16 8 17 9 18 10 8 11 7 12
REMARK SMILES IDX 6 13 5 14 4 15 3 16 2 17 1 18
REMARK H PARENT
REMARK Flexibility Score: inf
ROOT
ATOM      1  C   UNL     1      44.756  27.539   1.359  1.00  0.00     0.000 C 
ENDROOT
BRANCH   1   2
ATOM      2  C   UNL     1      43.335  27.587   1.945  1.00  0.00     0.000 C 
BRANCH   2   3
ATOM      3  C   UNL     1      42.279  27.984   0.901  1.00  0.00     0.000 C 
BRANCH   3   4
ATOM      4  C   UNL     1      42.331  29.481   0.552  1.00  0.00     0.000 C 
BRANCH   4   5
ATOM      5  C   UNL     1      42.353  29.734  -0.964  1.00  0.00     0.000 C 
BRANCH   5   6
ATOM      6  C   UNL     1      43.667  29.276  -1.620  1.00  0.00     0.006 C 
BRANCH   6   7
ATOM      7  C   UNL     1      43.469  28.046  -2.517  1.00  0.00     0.053 C 
BRANCH   7   8
ATOM      8  C   UNL     1      44.333  26.900  -2.086  1.00  0.00     0.041 C 
ATOM      9  O   UNL     1      43.814  25.870  -1.580  1.00  0.00    -0.550 OA
ATOM     10  O   UNL     1      45.708  26.957  -2.270  1.00  0.00    -0.550 OA
ENDBRANCH   7   8
ENDBRANCH   6   7
ENDBRANCH   5   6
ENDBRANCH   4   5
ENDBRANCH   3   4
ENDBRANCH   2   3
ENDBRANCH   1   2
BRANCH   1  11
ATOM     11  C   UNL     1      45.724  28.491   2.080  1.00  0.00     0.000 C 
BRANCH  11  12
ATOM     12  C   UNL     1      44.993  29.533   2.944  1.00  0.00    -0.000 C 
BRANCH  12  13
ATOM     13  C   UNL     1      45.655  29.731   4.316  1.00  0.00    -0.000 C 
BRANCH  13  14
ATOM     14  C   UNL     1      46.606  28.583   4.686  1.00  0.00    -0.000 C 
BRANCH  14  15
ATOM     15  C   UNL     1      46.037  27.750   5.843  1.00  0.00    -0.000 C 
BRANCH  15  16
ATOM     16  C   UNL     1      46.167  26.233   5.612  1.00  0.00    -0.000 C 
BRANCH  16  17
ATOM     17  C   UNL     1      45.356  25.687   4.424  1.00  0.00    -0.003 C 
ATOM     18  C   UNL     1      46.219  24.956   3.397  1.00  0.00     0.004 C 
ENDBRANCH  16  17
ENDBRANCH  15  16
ENDBRANCH  14  15
ENDBRANCH  13  14
ENDBRANCH  12  13
ENDBRANCH  11  12
ENDBRANCH   1  11
TORSDOF 14
ENDMDL
MODEL 6
REMARK VINA RESULT:    -4.075      2.208      3.296
REMARK INTER + INTRA:          -8.780
REMARK INTER:                  -7.920
REMARK INTRA:                  -0.860
REMARK UNBOUND:                -1.370
REMARK SMILES CCCCCCCCCCCCCCCC(=O)[O-]
REMARK SMILES IDX 9 1 10 2 11 3 12 4 13 5 14 6 15 7 16 8 17 9 18 10 8 11 7 12
REMARK SMILES IDX 6 13 5 14 4 15 3 16 2 17 1 18
REMARK H PARENT
REMARK Flexibility Score: inf
ROOT
ATOM      1  C   UNL     1      43.054  27.478   2.006  1.00  0.00     0.000 C 
ENDROOT
BRANCH   1   2
ATOM      2  C   UNL     1      42.651  27.773   0.552  1.00  0.00     0.000 C 
BRANCH   2   3
ATOM      3  C   UNL     1      43.046  26.643  -0.412  1.00  0.00     0.000 C 
BRANCH   3   4
ATOM      4  C   UNL     1      44.124  27.079  -1.420  1.00  0.00     0.000 C 
BRANCH   4   5
ATOM      5  C   UNL     1      43.974  28.548  -1.847  1.00  0.00     0.000 C 
BRANCH   5   6
ATOM      6  C   UNL     1      43.874  28.711  -3.374  1.00  0.00     0.006 C 
BRANCH   6   7
ATOM      7  C   UNL     1      43.680  27.367  -4.089  1.00  0.00     0.053 C 
BRANCH   7   8
ATOM      8  C   UNL     1      42.868  27.515  -5.339  1.00  0.00     0.041 C 
ATOM      9  O   UNL     1      41.706  28.000  -5.287  1.00  0.00    -0.550 OA
ATOM     10  O   UNL     1      43.403  27.143  -6.565  1.00  0.00    -0.550 OA
ENDBRANCH   7   8
ENDBRANCH   6   7
ENDBRANCH   5   6
ENDBRANCH   4   5
ENDBRANCH   3   4
ENDBRANCH   2   3
ENDBRANCH   1   2
BRANCH   1  11
ATOM     11  C   UNL     1      44.552  27.165   2.150  1.00  0.00     0.000 C 
BRANCH  11  12
ATOM     12  C   UNL     1      44.818  25.976   3.089  1.00  0.00    -0.000 C 
BRANCH  12  13
ATOM     13  C   UNL     1      46.309  25.616   3.178  1.00  0.00    -0.000 C 
BRANCH  13  14
ATOM     14  C   UNL     1      46.923  25.970   4.541  1.00  0.00    -0.000 C 
BRANCH  14  15
ATOM     15  C   UNL     1      45.829  26.166   5.601  1.00  0.00    -0.000 C 
BRANCH  15  16
ATOM     16  C   UNL     1      46.006  27.461   6.414  1.00  0.00    -0.000 C 
BRANCH  16  17
ATOM     17  C   UNL     1      45.536  27.377   7.876  1.00  0.00    -0.003 C 
ATOM     18  C   UNL     1      45.158  28.737   8.462  1.00  0.00     0.004 C 
ENDBRANCH  16  17
ENDBRANCH  15  16
ENDBRANCH  14  15
ENDBRANCH  13  14
ENDBRANCH  12  13
ENDBRANCH  11  12
ENDBRANCH   1  11
TORSDOF 14
ENDMDL
MODEL 7
REMARK VINA RESULT:    -3.970      3.361      5.103
REMARK INTER + INTRA:          -8.590
REMARK INTER:                  -6.577
REMARK INTRA:                  -2.013
REMARK UNBOUND:                -1.370
REMARK SMILES CCCCCCCCCCCCCCCC(=O)[O-]
REMARK SMILES IDX 9 1 10 2 11 3 12 4 13 5 14 6 15 7 16 8 17 9 18 10 8 11 7 12
REMARK SMILES IDX 6 13 5 14 4 15 3 16 2 17 1 18
REMARK H PARENT
REMARK Flexibility Score: inf
ROOT
ATOM      1  C   UNL     1      42.568  27.125   0.370  1.00  0.00     0.000 C 
ENDROOT
BRANCH   1   2
ATOM      2  C   UNL     1      43.223  27.827  -0.831  1.00  0.00     0.000 C 
BRANCH   2   3
ATOM      3  C   UNL     1      44.679  27.387  -1.049  1.00  0.00     0.000 C 
BRANCH   3   4
ATOM      4  C   UNL     1      45.420  28.285  -2.056  1.00  0.00     0.000 C 
BRANCH   4   5
ATOM      5  C   UNL     1      44.662  28.433  -3.385  1.00  0.00     0.000 C 
BRANCH   5   6
ATOM      6  C   UNL     1      44.707  27.151  -4.235  1.00  0.00     0.006 C 
BRANCH   6   7
ATOM      7  C   UNL     1      43.314  26.733  -4.726  1.00  0.00     0.053 C 
BRANCH   7   8
ATOM      8  C   UNL     1      42.768  27.699  -5.734  1.00  0.00     0.041 C 
ATOM      9  O   UNL     1      41.585  28.119  -5.634  1.00  0.00    -0.550 OA
ATOM     10  O   UNL     1      43.574  28.155  -6.768  1.00  0.00    -0.550 OA
ENDBRANCH   7   8
ENDBRANCH   6   7
ENDBRANCH   5   6
ENDBRANCH   4   5
ENDBRANCH   3   4
ENDBRANCH   2   3
ENDBRANCH   1   2
BRANCH   1  11
ATOM     11  C   UNL     1      42.109  28.114   1.454  1.00  0.00     0.000 C 
BRANCH  11  12
ATOM     12  C   UNL     1      42.699  29.521   1.256  1.00  0.00    -0.000 C 
BRANCH  12  13
ATOM     13  C   UNL     1      43.817  29.839   2.260  1.00  0.00    -0.000 C 
BRANCH  13  14
ATOM     14  C   UNL     1      45.201  29.920   1.599  1.00  0.00    -0.000 C 
BRANCH  14  15
ATOM     15  C   UNL     1      46.123  28.806   2.114  1.00  0.00    -0.000 C 
BRANCH  15  16
ATOM     16  C   UNL     1      45.428  27.870   3.120  1.00  0.00    -0.000 C 
BRANCH  16  17
ATOM     17  C   UNL     1      45.255  26.418   2.641  1.00  0.00    -0.003 C 
ATOM     18  C   UNL     1      45.161  25.416   3.790  1.00  0.00     0.004 C 
ENDBRANCH  16  17
ENDBRANCH  15  16
ENDBRANCH  14  15
ENDBRANCH  13  14
ENDBRANCH  12  13
ENDBRANCH  11  12
ENDBRANCH   1  11
TORSDOF 14
ENDMDL
MODEL 8
REMARK VINA RESULT:    -3.903      3.369      7.966
REMARK INTER + INTRA:          -8.467
REMARK INTER:                  -6.276
REMARK INTRA:                  -2.191
REMARK UNBOUND:                -1.370
REMARK SMILES CCCCCCCCCCCCCCCC(=O)[O-]
REMARK SMILES IDX 9 1 10 2 11 3 12 4 13 5 14 6 15 7 16 8 17 9 18 10 8 11 7 12
REMARK SMILES IDX 6 13 5 14 4 15 3 16 2 17 1 18
REMARK H PARENT
REMARK Flexibility Score: inf
ROOT
ATOM      1  C   UNL     1      43.183  27.898  -0.958  1.00  0.00     0.000 C 
ENDROOT
BRANCH   1   2
ATOM      2  C   UNL     1      42.600  27.099   0.219  1.00  0.00     0.000 C 
BRANCH   2   3
ATOM      3  C   UNL     1      42.181  27.998   1.393  1.00  0.00     0.000 C 
BRANCH   3   4
ATOM      4  C   UNL     1      42.706  29.437   1.248  1.00  0.00     0.000 C 
BRANCH   4   5
ATOM      5  C   UNL     1      43.762  29.790   2.308  1.00  0.00     0.000 C 
BRANCH   5   6
ATOM      6  C   UNL     1      45.139  29.180   1.994  1.00  0.00     0.006 C 
BRANCH   6   7
ATOM      7  C   UNL     1      45.504  28.044   2.959  1.00  0.00     0.053 C 
BRANCH   7   8
ATOM      8  C   UNL     1      45.687  26.742   2.240  1.00  0.00     0.041 C 
ATOM      9  O   UNL     1      46.590  26.620   1.370  1.00  0.00    -0.550 OA
ATOM     10  O   UNL     1      44.880  25.656   2.550  1.00  0.00    -0.550 OA
ENDBRANCH   7   8
ENDBRANCH   6   7
ENDBRANCH   5   6
ENDBRANCH   4   5
ENDBRANCH   3   4
ENDBRANCH   2   3
ENDBRANCH   1   2
BRANCH   1  11
ATOM     11  C   UNL     1      44.599  27.439  -1.339  1.00  0.00     0.000 C 
BRANCH  11  12
ATOM     12  C   UNL     1      45.540  28.618  -1.642  1.00  0.00    -0.000 C 
BRANCH  12  13
ATOM     13  C   UNL     1      46.175  28.522  -3.038  1.00  0.00    -0.000 C 
BRANCH  13  14
ATOM     14  C   UNL     1      45.977  27.143  -3.685  1.00  0.00    -0.000 C 
BRANCH  14  15
ATOM     15  C   UNL     1      45.100  27.247  -4.940  1.00  0.00    -0.000 C 
BRANCH  15  16
ATOM     16  C   UNL     1      43.681  26.688  -4.729  1.00  0.00    -0.000 C 
BRANCH  16  17
ATOM     17  C   UNL     1      42.544  27.684  -5.017  1.00  0.00    -0.003 C 
ATOM     18  C   UNL     1      42.832  29.089  -4.490  1.00  0.00     0.004 C 
ENDBRANCH  16  17
ENDBRANCH  15  16
ENDBRANCH  14  15
ENDBRANCH  13  14
ENDBRANCH  12  13
ENDBRANCH  11  12
ENDBRANCH   1  11
TORSDOF 14
ENDMDL
MODEL 9
REMARK VINA RESULT:    -3.882      3.594      8.206
REMARK INTER + INTRA:          -8.429
REMARK INTER:                  -7.353
REMARK INTRA:                  -1.076
REMARK UNBOUND:                -1.370
REMARK SMILES CCCCCCCCCCCCCCCC(=O)[O-]
REMARK SMILES IDX 9 1 10 2 11 3 12 4 13 5 14 6 15 7 16 8 17 9 18 10 8 11 7 12
REMARK SMILES IDX 6 13 5 14 4 15 3 16 2 17 1 18
REMARK H PARENT
REMARK Flexibility Score: inf
ROOT
ATOM      1  C   UNL     1      44.702  26.978   2.281  1.00  0.00     0.000 C 
ENDROOT
BRANCH   1   2
ATOM      2  C   UNL     1      44.862  25.740   3.179  1.00  0.00     0.000 C 
BRANCH   2   3
ATOM      3  C   UNL     1      46.329  25.311   3.336  1.00  0.00     0.000 C 
BRANCH   3   4
ATOM      4  C   UNL     1      47.042  26.057   4.477  1.00  0.00     0.000 C 
BRANCH   4   5
ATOM      5  C   UNL     1      46.123  26.312   5.682  1.00  0.00     0.000 C 
BRANCH   5   6
ATOM      6  C   UNL     1      46.271  27.736   6.246  1.00  0.00     0.006 C 
BRANCH   6   7
ATOM      7  C   UNL     1      45.511  27.918   7.567  1.00  0.00     0.053 C 
BRANCH   7   8
ATOM      8  C   UNL     1      45.871  26.859   8.564  1.00  0.00     0.041 C 
ATOM      9  O   UNL     1      47.036  26.806   9.041  1.00  0.00    -0.550 OA
ATOM     10  O   UNL     1      44.912  25.949   8.988  1.00  0.00    -0.550 OA
ENDBRANCH   7   8
ENDBRANCH   6   7
ENDBRANCH   5   6
ENDBRANCH   4   5
ENDBRANCH   3   4
ENDBRANCH   2   3
ENDBRANCH   1   2
BRANCH   1  11
ATOM     11  C   UNL     1      43.612  26.795   1.213  1.00  0.00     0.000 C 
BRANCH  11  12
ATOM     12  C   UNL     1      42.380  27.681   1.468  1.00  0.00    -0.000 C 
BRANCH  12  13
ATOM     13  C   UNL     1      42.725  29.178   1.490  1.00  0.00    -0.000 C 
BRANCH  13  14
ATOM     14  C   UNL     1      42.274  29.907   0.215  1.00  0.00    -0.000 C 
BRANCH  14  15
ATOM     15  C   UNL     1      43.347  29.817  -0.878  1.00  0.00    -0.000 C 
BRANCH  15  16
ATOM     16  C   UNL     1      42.995  28.806  -1.984  1.00  0.00    -0.000 C 
BRANCH  16  17
ATOM     17  C   UNL     1      44.125  27.828  -2.350  1.00  0.00    -0.003 C 
ATOM     18  C   UNL     1      43.850  27.051  -3.636  1.00  0.00     0.004 C 
ENDBRANCH  16  17
ENDBRANCH  15  16
ENDBRANCH  14  15
ENDBRANCH  13  14
ENDBRANCH  12  13
ENDBRANCH  11  12
ENDBRANCH   1  11
TORSDOF 14
ENDMDL
