MODEL 1
REMARK VINA RESULT:    -5.047      0.000      0.000
REMARK INTER + INTRA:          -7.710
REMARK INTER:                  -6.227
REMARK INTRA:                  -1.483
REMARK UNBOUND:                -1.483
REMARK SMILES CC(C)=CCC[C@@H](C)c1ccc(C)cc1
REMARK SMILES IDX 6 1 7 2 8 3 9 4 13 5 12 6 11 7 14 8 10 9 15 10 5 11 4 12
REMARK SMILES IDX 2 13 1 14 3 15
REMARK H PARENT
REMARK Flexibility Score: inf
ROOT
ATOM      1  C   UNL     1      82.119  86.754  78.403  1.00  0.00     0.012 C 
ENDROOT
BRANCH   1   2
ATOM      2  C   UNL     1      80.800  86.052  78.812  1.00  0.00     0.016 C 
ATOM      3  C   UNL     1      79.728  86.156  77.716  1.00  0.00     0.013 C 
BRANCH   2   4
ATOM      4  C   UNL     1      81.054  84.595  79.155  1.00  0.00    -0.045 A 
ATOM      5  C   UNL     1      81.781  80.461  80.175  1.00  0.00     0.044 C 
ATOM      6  C   UNL     1      81.504  81.888  79.803  1.00  0.00    -0.051 A 
ATOM      7  C   UNL     1      82.116  82.457  78.677  1.00  0.00     0.004 A 
ATOM      8  C   UNL     1      80.687  82.684  80.618  1.00  0.00     0.004 A 
ATOM      9  C   UNL     1      81.889  83.796  78.352  1.00  0.00     0.004 A 
ATOM     10  C   UNL     1      80.458  84.025  80.294  1.00  0.00     0.004 A 
ENDBRANCH   2   4
ENDBRANCH   1   2
BRANCH   1  11
ATOM     11  C   UNL     1      83.050  87.052  79.589  1.00  0.00     0.028 C 
BRANCH  11  12
ATOM     12  C   UNL     1      84.347  86.283  79.477  1.00  0.00    -0.028 C 
ATOM     13  C   UNL     1      84.725  85.275  80.294  1.00  0.00    -0.080 C 
ATOM     14  C   UNL     1      86.043  84.596  80.031  1.00  0.00     0.039 C 
ATOM     15  C   UNL     1      83.872  84.817  81.452  1.00  0.00     0.039 C 
ENDBRANCH  11  12
ENDBRANCH   1  11
TORSDOF 4
ENDMDL
MODEL 2
REMARK VINA RESULT:    -5.005      1.567      4.642
REMARK INTER + INTRA:          -7.659
REMARK INTER:                  -6.371
REMARK INTRA:                  -1.288
REMARK UNBOUND:                -1.483
REMARK SMILES CC(C)=CCC[C@@H](C)c1ccc(C)cc1
REMARK SMILES IDX 6 1 7 2 8 3 9 4 13 5 12 6 11 7 14 8 10 9 15 10 5 11 4 12
REMARK SMILES IDX 2 13 1 14 3 15
REMARK H PARENT
REMARK Flexibility Score: inf
ROOT
ATOM      1  C   UNL     1      83.550  83.983  80.398  1.00  0.00     0.012 C 
ENDROOT
BRANCH   1   2
ATOM      2  C   UNL     1      82.946  83.599  79.025  1.00  0.00     0.016 C 
ATOM      3  C   UNL     1      82.146  82.288  79.093  1.00  0.00     0.013 C 
BRANCH   2   4
ATOM      4  C   UNL     1      82.068  84.718  78.496  1.00  0.00    -0.045 A 
ATOM      5  C   UNL     1      79.542  87.873  76.970  1.00  0.00     0.044 C 
ATOM      6  C   UNL     1      80.417  86.789  77.528  1.00  0.00    -0.051 A 
ATOM      7  C   UNL     1      81.808  86.957  77.575  1.00  0.00     0.004 A 
ATOM      8  C   UNL     1      79.855  85.573  77.944  1.00  0.00     0.004 A 
ATOM      9  C   UNL     1      82.626  85.934  78.060  1.00  0.00     0.004 A 
ATOM     10  C   UNL     1      80.673  84.548  78.430  1.00  0.00     0.004 A 
ENDBRANCH   2   4
ENDBRANCH   1   2
BRANCH   1  11
ATOM     11  C   UNL     1      82.694  83.533  81.593  1.00  0.00     0.028 C 
BRANCH  11  12
ATOM     12  C   UNL     1      81.650  84.570  81.941  1.00  0.00    -0.028 C 
ATOM     13  C   UNL     1      80.326  84.328  82.061  1.00  0.00    -0.080 C 
ATOM     14  C   UNL     1      79.420  85.472  82.437  1.00  0.00     0.039 C 
ATOM     15  C   UNL     1      79.735  82.959  81.830  1.00  0.00     0.039 C 
ENDBRANCH  11  12
ENDBRANCH   1  11
TORSDOF 4
ENDMDL
MODEL 3
REMARK VINA RESULT:    -4.830      1.320      3.927
REMARK INTER + INTRA:          -7.442
REMARK INTER:                  -6.362
REMARK INTRA:                  -1.080
REMARK UNBOUND:                -1.483
REMARK SMILES CC(C)=CCC[C@@H](C)c1ccc(C)cc1
REMARK SMILES IDX 6 1 7 2 8 3 9 4 13 5 12 6 11 7 14 8 10 9 15 10 5 11 4 12
REMARK SMILES IDX 2 13 1 14 3 15
REMARK H PARENT
REMARK Flexibility Score: inf
ROOT
ATOM      1  C   UNL     1      82.411  83.722  80.902  1.00  0.00     0.012 C 
ENDROOT
BRANCH   1   2
ATOM      2  C   UNL     1      82.563  83.611  79.364  1.00  0.00     0.016 C 
ATOM      3  C   UNL     1      82.046  82.266  78.829  1.00  0.00     0.013 C 
BRANCH   2   4
ATOM      4  C   UNL     1      81.846  84.757  78.673  1.00  0.00    -0.045 A 
ATOM      5  C   UNL     1      79.777  87.988  76.689  1.00  0.00     0.044 C 
ATOM      6  C   UNL     1      80.495  86.882  77.404  1.00  0.00    -0.051 A 
ATOM      7  C   UNL     1      81.896  86.864  77.453  1.00  0.00     0.004 A 
ATOM      8  C   UNL     1      79.772  85.822  77.970  1.00  0.00     0.004 A 
ATOM      9  C   UNL     1      82.567  85.815  78.087  1.00  0.00     0.004 A 
ATOM     10  C   UNL     1      80.442  84.771  78.605  1.00  0.00     0.004 A 
ENDBRANCH   2   4
ENDBRANCH   1   2
BRANCH   1  11
ATOM     11  C   UNL     1      83.725  84.051  81.627  1.00  0.00     0.028 C 
BRANCH  11  12
ATOM     12  C   UNL     1      84.210  85.441  81.281  1.00  0.00    -0.028 C 
ATOM     13  C   UNL     1      85.271  85.718  80.491  1.00  0.00    -0.080 C 
ATOM     14  C   UNL     1      85.608  87.163  80.227  1.00  0.00     0.039 C 
ATOM     15  C   UNL     1      86.119  84.633  79.875  1.00  0.00     0.039 C 
ENDBRANCH  11  12
ENDBRANCH   1  11
TORSDOF 4
ENDMDL
MODEL 4
REMARK VINA RESULT:    -4.803      1.358      5.039
REMARK INTER + INTRA:          -7.409
REMARK INTER:                  -5.927
REMARK INTRA:                  -1.482
REMARK UNBOUND:                -1.483
REMARK SMILES CC(C)=CCC[C@@H](C)c1ccc(C)cc1
REMARK SMILES IDX 6 1 7 2 8 3 9 4 13 5 12 6 11 7 14 8 10 9 15 10 5 11 4 12
REMARK SMILES IDX 2 13 1 14 3 15
REMARK H PARENT
REMARK Flexibility Score: inf
ROOT
ATOM      1  C   UNL     1      80.486  84.109  79.894  1.00  0.00     0.012 C 
ENDROOT
BRANCH   1   2
ATOM      2  C   UNL     1      81.868  83.610  80.384  1.00  0.00     0.016 C 
ATOM      3  C   UNL     1      82.418  82.478  79.501  1.00  0.00     0.013 C 
BRANCH   2   4
ATOM      4  C   UNL     1      82.862  84.757  80.437  1.00  0.00    -0.045 A 
ATOM      5  C   UNL     1      85.721  87.991  80.600  1.00  0.00     0.044 C 
ATOM      6  C   UNL     1      84.718  86.878  80.516  1.00  0.00    -0.051 A 
ATOM      7  C   UNL     1      83.425  87.051  81.027  1.00  0.00     0.004 A 
ATOM      8  C   UNL     1      85.089  85.633  79.987  1.00  0.00     0.004 A 
ATOM      9  C   UNL     1      82.502  86.003  80.983  1.00  0.00     0.004 A 
ATOM     10  C   UNL     1      84.166  84.583  79.942  1.00  0.00     0.004 A 
ENDBRANCH   2   4
ENDBRANCH   1   2
BRANCH   1  11
ATOM     11  C   UNL     1      80.418  84.338  78.376  1.00  0.00     0.028 C 
BRANCH  11  12
ATOM     12  C   UNL     1      79.964  85.743  78.052  1.00  0.00    -0.028 C 
ATOM     13  C   UNL     1      80.763  86.727  77.582  1.00  0.00    -0.080 C 
ATOM     14  C   UNL     1      80.146  88.070  77.288  1.00  0.00     0.039 C 
ATOM     15  C   UNL     1      82.239  86.521  77.347  1.00  0.00     0.039 C 
ENDBRANCH  11  12
ENDBRANCH   1  11
TORSDOF 4
ENDMDL
MODEL 5
REMARK VINA RESULT:    -4.793      0.943      2.062
REMARK INTER + INTRA:          -7.396
REMARK INTER:                  -6.227
REMARK INTRA:                  -1.170
REMARK UNBOUND:                -1.483
REMARK SMILES CC(C)=CCC[C@@H](C)c1ccc(C)cc1
REMARK SMILES IDX 6 1 7 2 8 3 9 4 13 5 12 6 11 7 14 8 10 9 15 10 5 11 4 12
REMARK SMILES IDX 2 13 1 14 3 15
REMARK H PARENT
REMARK Flexibility Score: inf
ROOT
ATOM      1  C   UNL     1      82.253  86.566  77.588  1.00  0.00     0.012 C 
ENDROOT
BRANCH   1   2
ATOM      2  C   UNL     1      81.024  86.167  78.442  1.00  0.00     0.016 C 
ATOM      3  C   UNL     1      79.707  86.321  77.664  1.00  0.00     0.013 C 
BRANCH   2   4
ATOM      4  C   UNL     1      81.165  84.743  78.950  1.00  0.00    -0.045 A 
ATOM      5  C   UNL     1      81.567  80.677  80.352  1.00  0.00     0.044 C 
ATOM      6  C   UNL     1      81.452  82.098  79.883  1.00  0.00    -0.051 A 
ATOM      7  C   UNL     1      80.622  83.001  80.562  1.00  0.00     0.004 A 
ATOM      8  C   UNL     1      82.118  82.514  78.722  1.00  0.00     0.004 A 
ATOM      9  C   UNL     1      80.484  84.314  80.105  1.00  0.00     0.004 A 
ATOM     10  C   UNL     1      81.982  83.828  78.262  1.00  0.00     0.004 A 
ENDBRANCH   2   4
ENDBRANCH   1   2
BRANCH   1  11
ATOM     11  C   UNL     1      83.205  87.540  78.300  1.00  0.00     0.028 C 
BRANCH  11  12
ATOM     12  C   UNL     1      82.770  87.790  79.726  1.00  0.00    -0.028 C 
ATOM     13  C   UNL     1      83.239  87.128  80.807  1.00  0.00    -0.080 C 
ATOM     14  C   UNL     1      82.715  87.515  82.166  1.00  0.00     0.039 C 
ATOM     15  C   UNL     1      84.262  86.024  80.693  1.00  0.00     0.039 C 
ENDBRANCH  11  12
ENDBRANCH   1  11
TORSDOF 4
ENDMDL
MODEL 6
REMARK VINA RESULT:    -4.748      1.429      5.276
REMARK INTER + INTRA:          -7.341
REMARK INTER:                  -6.505
REMARK INTRA:                  -0.836
REMARK UNBOUND:                -1.483
REMARK SMILES CC(C)=CCC[C@@H](C)c1ccc(C)cc1
REMARK SMILES IDX 6 1 7 2 8 3 9 4 13 5 12 6 11 7 14 8 10 9 15 10 5 11 4 12
REMARK SMILES IDX 2 13 1 14 3 15
REMARK H PARENT
REMARK Flexibility Score: inf
ROOT
ATOM      1  C   UNL     1      82.318  82.367  78.775  1.00  0.00     0.012 C 
ENDROOT
BRANCH   1   2
ATOM      2  C   UNL     1      82.560  83.722  79.485  1.00  0.00     0.016 C 
ATOM      3  C   UNL     1      84.056  84.063  79.581  1.00  0.00     0.013 C 
BRANCH   2   4
ATOM      4  C   UNL     1      81.816  84.838  78.774  1.00  0.00    -0.045 A 
ATOM      5  C   UNL     1      79.672  87.982  76.730  1.00  0.00     0.044 C 
ATOM      6  C   UNL     1      80.413  86.905  77.467  1.00  0.00    -0.051 A 
ATOM      7  C   UNL     1      81.804  86.984  77.624  1.00  0.00     0.004 A 
ATOM      8  C   UNL     1      79.729  85.778  77.944  1.00  0.00     0.004 A 
ATOM      9  C   UNL     1      82.499  85.963  78.277  1.00  0.00     0.004 A 
ATOM     10  C   UNL     1      80.423  84.755  78.598  1.00  0.00     0.004 A 
ENDBRANCH   2   4
ENDBRANCH   1   2
BRANCH   1  11
ATOM     11  C   UNL     1      82.047  81.205  79.744  1.00  0.00     0.028 C 
BRANCH  11  12
ATOM     12  C   UNL     1      81.261  81.668  80.950  1.00  0.00    -0.028 C 
ATOM     13  C   UNL     1      80.025  81.235  81.283  1.00  0.00    -0.080 C 
ATOM     14  C   UNL     1      79.388  81.783  82.534  1.00  0.00     0.039 C 
ATOM     15  C   UNL     1      79.273  80.229  80.446  1.00  0.00     0.039 C 
ENDBRANCH  11  12
ENDBRANCH   1  11
TORSDOF 4
ENDMDL
MODEL 7
REMARK VINA RESULT:    -4.676      1.678      4.690
REMARK INTER + INTRA:          -7.252
REMARK INTER:                  -5.772
REMARK INTRA:                  -1.481
REMARK UNBOUND:                -1.483
REMARK SMILES CC(C)=CCC[C@@H](C)c1ccc(C)cc1
REMARK SMILES IDX 6 1 7 2 8 3 9 4 13 5 12 6 11 7 14 8 10 9 15 10 5 11 4 12
REMARK SMILES IDX 2 13 1 14 3 15
REMARK H PARENT
REMARK Flexibility Score: inf
ROOT
ATOM      1  C   UNL     1      82.582  83.101  79.443  1.00  0.00     0.012 C 
ENDROOT
BRANCH   1   2
ATOM      2  C   UNL     1      81.810  83.831  78.315  1.00  0.00     0.016 C 
ATOM      3  C   UNL     1      80.315  83.473  78.316  1.00  0.00     0.013 C 
BRANCH   2   4
ATOM      4  C   UNL     1      81.986  85.334  78.434  1.00  0.00    -0.045 A 
ATOM      5  C   UNL     1      82.472  89.616  78.731  1.00  0.00     0.044 C 
ATOM      6  C   UNL     1      82.287  88.129  78.654  1.00  0.00    -0.051 A 
ATOM      7  C   UNL     1      83.232  87.269  79.231  1.00  0.00     0.004 A 
ATOM      8  C   UNL     1      81.204  87.588  77.946  1.00  0.00     0.004 A 
ATOM      9  C   UNL     1      83.080  85.884  79.128  1.00  0.00     0.004 A 
ATOM     10  C   UNL     1      81.051  86.202  77.842  1.00  0.00     0.004 A 
ENDBRANCH   2   4
ENDBRANCH   1   2
BRANCH   1  11
ATOM     11  C   UNL     1      81.724  82.808  80.684  1.00  0.00     0.028 C 
BRANCH  11  12
ATOM     12  C   UNL     1      82.082  83.730  81.828  1.00  0.00    -0.028 C 
ATOM     13  C   UNL     1      81.346  84.790  82.230  1.00  0.00    -0.080 C 
ATOM     14  C   UNL     1      81.834  85.595  83.406  1.00  0.00     0.039 C 
ATOM     15  C   UNL     1      80.064  85.186  81.541  1.00  0.00     0.039 C 
ENDBRANCH  11  12
ENDBRANCH   1  11
TORSDOF 4
ENDMDL
MODEL 8
REMARK VINA RESULT:    -4.631      1.274      4.967
REMARK INTER + INTRA:          -7.197
REMARK INTER:                  -6.091
REMARK INTRA:                  -1.106
REMARK UNBOUND:                -1.483
REMARK SMILES CC(C)=CCC[C@@H](C)c1ccc(C)cc1
REMARK SMILES IDX 6 1 7 2 8 3 9 4 13 5 12 6 11 7 14 8 10 9 15 10 5 11 4 12
REMARK SMILES IDX 2 13 1 14 3 15
REMARK H PARENT
REMARK Flexibility Score: inf
ROOT
ATOM      1  C   UNL     1      82.341  84.654  81.747  1.00  0.00     0.012 C 
ENDROOT
BRANCH   1   2
ATOM      2  C   UNL     1      83.160  85.540  80.775  1.00  0.00     0.016 C 
ATOM      3  C   UNL     1      84.339  84.776  80.153  1.00  0.00     0.013 C 
BRANCH   2   4
ATOM      4  C   UNL     1      82.267  86.098  79.681  1.00  0.00    -0.045 A 
ATOM      5  C   UNL     1      79.731  87.727  76.586  1.00  0.00     0.044 C 
ATOM      6  C   UNL     1      80.628  87.146  77.639  1.00  0.00    -0.051 A 
ATOM      7  C   UNL     1      80.291  85.938  78.267  1.00  0.00     0.004 A 
ATOM      8  C   UNL     1      81.774  87.840  78.053  1.00  0.00     0.004 A 
ATOM      9  C   UNL     1      81.105  85.415  79.274  1.00  0.00     0.004 A 
ATOM     10  C   UNL     1      82.590  87.318  79.061  1.00  0.00     0.004 A 
ENDBRANCH   2   4
ENDBRANCH   1   2
BRANCH   1  11
ATOM     11  C   UNL     1      82.861  83.211  81.848  1.00  0.00     0.028 C 
BRANCH  11  12
ATOM     12  C   UNL     1      81.744  82.210  81.654  1.00  0.00    -0.028 C 
ATOM     13  C   UNL     1      81.456  81.586  80.491  1.00  0.00    -0.080 C 
ATOM     14  C   UNL     1      80.320  80.596  80.472  1.00  0.00     0.039 C 
ATOM     15  C   UNL     1      82.230  81.850  79.222  1.00  0.00     0.039 C 
ENDBRANCH  11  12
ENDBRANCH   1  11
TORSDOF 4
ENDMDL
MODEL 9
REMARK VINA RESULT:    -4.591      1.675      4.132
REMARK INTER + INTRA:          -7.147
REMARK INTER:                  -5.650
REMARK INTRA:                  -1.498
REMARK UNBOUND:                -1.483
REMARK SMILES CC(C)=CCC[C@@H](C)c1ccc(C)cc1
REMARK SMILES IDX 6 1 7 2 8 3 9 4 13 5 12 6 11 7 14 8 10 9 15 10 5 11 4 12
REMARK SMILES IDX 2 13 1 14 3 15
REMARK H PARENT
REMARK Flexibility Score: inf
ROOT
ATOM      1  C   UNL     1      83.110  88.631  80.504  1.00  0.00     0.012 C 
ENDROOT
BRANCH   1   2
ATOM      2  C   UNL     1      83.916  87.459  81.119  1.00  0.00     0.016 C 
ATOM      3  C   UNL     1      83.870  87.473  82.656  1.00  0.00     0.013 C 
BRANCH   2   4
ATOM      4  C   UNL     1      83.407  86.128  80.595  1.00  0.00    -0.045 A 
ATOM      5  C   UNL     1      81.984  82.347  79.067  1.00  0.00     0.044 C 
ATOM      6  C   UNL     1      82.485  83.646  79.625  1.00  0.00    -0.051 A 
ATOM      7  C   UNL     1      81.606  84.519  80.282  1.00  0.00     0.004 A 
ATOM      8  C   UNL     1      83.820  84.029  79.434  1.00  0.00     0.004 A 
ATOM      9  C   UNL     1      82.063  85.747  80.768  1.00  0.00     0.004 A 
ATOM     10  C   UNL     1      84.279  85.257  79.920  1.00  0.00     0.004 A 
ENDBRANCH   2   4
ENDBRANCH   1   2
BRANCH   1  11
ATOM     11  C   UNL     1      83.180  88.685  78.970  1.00  0.00     0.028 C 
BRANCH  11  12
ATOM     12  C   UNL     1      81.799  88.647  78.355  1.00  0.00    -0.028 C 
ATOM     13  C   UNL     1      81.337  87.671  77.543  1.00  0.00    -0.080 C 
ATOM     14  C   UNL     1      79.924  87.773  77.032  1.00  0.00     0.039 C 
ATOM     15  C   UNL     1      82.189  86.493  77.137  1.00  0.00     0.039 C 
ENDBRANCH  11  12
ENDBRANCH   1  11
TORSDOF 4
ENDMDL
