MODEL 1
REMARK VINA RESULT:    -5.525      0.000      0.000
REMARK INTER + INTRA:          -9.026
REMARK INTER:                  -8.433
REMARK INTRA:                  -0.594
REMARK UNBOUND:                -0.594
REMARK SMILES O=C([O-])CCCCCCCCC(=O)[O-]
REMARK SMILES IDX 7 1 6 2 5 3 4 4 2 5 1 6 3 7 8 8 9 9 10 10 11 11 12 12 13 13
REMARK SMILES IDX 14 14
REMARK H PARENT
REMARK Flexibility Score: inf
ROOT
ATOM      1  C   UNL     1      52.027  50.514   4.651  1.00  0.00     0.000 C 
ENDROOT
BRANCH   1   2
ATOM      2  C   UNL     1      50.834  49.548   4.717  1.00  0.00     0.000 C 
BRANCH   2   3
ATOM      3  C   UNL     1      50.497  48.997   3.323  1.00  0.00     0.006 C 
BRANCH   3   4
ATOM      4  C   UNL     1      49.451  49.853   2.598  1.00  0.00     0.053 C 
BRANCH   4   5
ATOM      5  C   UNL     1      48.269  50.143   3.472  1.00  0.00     0.041 C 
ATOM      6  O   UNL     1      48.003  51.327   3.808  1.00  0.00    -0.550 OA
ATOM      7  O   UNL     1      47.480  49.100   3.943  1.00  0.00    -0.550 OA
ENDBRANCH   4   5
ENDBRANCH   3   4
ENDBRANCH   2   3
ENDBRANCH   1   2
BRANCH   1   8
ATOM      8  C   UNL     1      53.346  49.802   4.312  1.00  0.00     0.000 C 
BRANCH   8   9
ATOM      9  C   UNL     1      54.550  50.760   4.299  1.00  0.00     0.000 C 
BRANCH   9  10
ATOM     10  C   UNL     1      54.227  52.142   4.895  1.00  0.00     0.006 C 
BRANCH  10  11
ATOM     11  C   UNL     1      54.867  52.393   6.272  1.00  0.00     0.053 C 
BRANCH  11  12
ATOM     12  C   UNL     1      53.985  51.970   7.407  1.00  0.00     0.041 C 
ATOM     13  O   UNL     1      54.335  51.030   8.168  1.00  0.00    -0.550 OA
ATOM     14  O   UNL     1      52.789  52.635   7.643  1.00  0.00    -0.550 OA
ENDBRANCH  11  12
ENDBRANCH  10  11
ENDBRANCH   9  10
ENDBRANCH   8   9
ENDBRANCH   1   8
TORSDOF 9
ENDMDL
MODEL 2
REMARK VINA RESULT:    -5.494      1.216      6.450
REMARK INTER + INTRA:          -8.978
REMARK INTER:                  -8.577
REMARK INTRA:                  -0.402
REMARK UNBOUND:                -0.594
REMARK SMILES O=C([O-])CCCCCCCCC(=O)[O-]
REMARK SMILES IDX 7 1 6 2 5 3 4 4 2 5 1 6 3 7 8 8 9 9 10 10 11 11 12 12 13 13
REMARK SMILES IDX 14 14
REMARK H PARENT
REMARK Flexibility Score: inf
ROOT
ATOM      1  C   UNL     1      53.779  49.756   4.620  1.00  0.00     0.000 C 
ENDROOT
BRANCH   1   2
ATOM      2  C   UNL     1      54.722  50.908   4.245  1.00  0.00     0.000 C 
BRANCH   2   3
ATOM      3  C   UNL     1      54.241  52.232   4.858  1.00  0.00     0.006 C 
BRANCH   3   4
ATOM      4  C   UNL     1      54.726  52.413   6.302  1.00  0.00     0.053 C 
BRANCH   4   5
ATOM      5  C   UNL     1      53.611  52.822   7.215  1.00  0.00     0.041 C 
ATOM      6  O   UNL     1      53.830  53.002   8.442  1.00  0.00    -0.550 OA
ATOM      7  O   UNL     1      52.323  52.973   6.716  1.00  0.00    -0.550 OA
ENDBRANCH   4   5
ENDBRANCH   3   4
ENDBRANCH   2   3
ENDBRANCH   1   2
BRANCH   1   8
ATOM      8  C   UNL     1      52.298  50.161   4.560  1.00  0.00     0.000 C 
BRANCH   8   9
ATOM      9  C   UNL     1      51.427  49.115   3.841  1.00  0.00     0.000 C 
BRANCH   9  10
ATOM     10  C   UNL     1      49.948  49.529   3.742  1.00  0.00     0.006 C 
BRANCH  10  11
ATOM     11  C   UNL     1      49.363  49.421   2.322  1.00  0.00     0.053 C 
BRANCH  11  12
ATOM     12  C   UNL     1      48.012  48.774   2.300  1.00  0.00     0.041 C 
ATOM     13  O   UNL     1      47.531  48.342   1.220  1.00  0.00    -0.550 OA
ATOM     14  O   UNL     1      47.296  48.618   3.481  1.00  0.00    -0.550 OA
ENDBRANCH  11  12
ENDBRANCH  10  11
ENDBRANCH   9  10
ENDBRANCH   8   9
ENDBRANCH   1   8
TORSDOF 9
ENDMDL
MODEL 3
REMARK VINA RESULT:    -5.413      1.482      5.742
REMARK INTER + INTRA:          -8.854
REMARK INTER:                  -8.185
REMARK INTRA:                  -0.670
REMARK UNBOUND:                -0.594
REMARK SMILES O=C([O-])CCCCCCCCC(=O)[O-]
REMARK SMILES IDX 7 1 6 2 5 3 4 4 2 5 1 6 3 7 8 8 9 9 10 10 11 11 12 12 13 13
REMARK SMILES IDX 14 14
REMARK H PARENT
REMARK Flexibility Score: inf
ROOT
ATOM      1  C   UNL     1      51.720  49.737   4.542  1.00  0.00     0.000 C 
ENDROOT
BRANCH   1   2
ATOM      2  C   UNL     1      53.228  49.758   4.250  1.00  0.00     0.000 C 
BRANCH   2   3
ATOM      3  C   UNL     1      53.852  51.093   4.684  1.00  0.00     0.006 C 
BRANCH   3   4
ATOM      4  C   UNL     1      53.004  51.815   5.740  1.00  0.00     0.053 C 
BRANCH   4   5
ATOM      5  C   UNL     1      53.854  52.437   6.804  1.00  0.00     0.041 C 
ATOM      6  O   UNL     1      55.107  52.315   6.768  1.00  0.00    -0.550 OA
ATOM      7  O   UNL     1      53.260  53.124   7.856  1.00  0.00    -0.550 OA
ENDBRANCH   4   5
ENDBRANCH   3   4
ENDBRANCH   2   3
ENDBRANCH   1   2
BRANCH   1   8
ATOM      8  C   UNL     1      50.929  48.932   3.500  1.00  0.00     0.000 C 
BRANCH   8   9
ATOM      9  C   UNL     1      49.574  49.578   3.157  1.00  0.00     0.000 C 
BRANCH   9  10
ATOM     10  C   UNL     1      49.473  51.044   3.614  1.00  0.00     0.006 C 
BRANCH  10  11
ATOM     11  C   UNL     1      48.249  51.339   4.501  1.00  0.00     0.053 C 
BRANCH  11  12
ATOM     12  C   UNL     1      47.980  50.252   5.496  1.00  0.00     0.041 C 
ATOM     13  O   UNL     1      47.017  49.458   5.327  1.00  0.00    -0.550 OA
ATOM     14  O   UNL     1      48.813  50.096   6.597  1.00  0.00    -0.550 OA
ENDBRANCH  11  12
ENDBRANCH  10  11
ENDBRANCH   9  10
ENDBRANCH   8   9
ENDBRANCH   1   8
TORSDOF 9
ENDMDL
MODEL 4
REMARK VINA RESULT:    -5.299      1.685      2.082
REMARK INTER + INTRA:          -8.681
REMARK INTER:                  -8.102
REMARK INTRA:                  -0.579
REMARK UNBOUND:                -0.594
REMARK SMILES O=C([O-])CCCCCCCCC(=O)[O-]
REMARK SMILES IDX 7 1 6 2 5 3 4 4 2 5 1 6 3 7 8 8 9 9 10 10 11 11 12 12 13 13
REMARK SMILES IDX 14 14
REMARK H PARENT
REMARK Flexibility Score: inf
ROOT
ATOM      1  C   UNL     1      51.674  49.095   3.862  1.00  0.00     0.000 C 
ENDROOT
BRANCH   1   2
ATOM      2  C   UNL     1      50.171  48.999   4.164  1.00  0.00     0.000 C 
BRANCH   2   3
ATOM      3  C   UNL     1      49.732  50.114   5.125  1.00  0.00     0.006 C 
BRANCH   3   4
ATOM      4  C   UNL     1      48.643  51.008   4.519  1.00  0.00     0.053 C 
BRANCH   4   5
ATOM      5  C   UNL     1      49.174  52.359   4.150  1.00  0.00     0.041 C 
ATOM      6  O   UNL     1      48.741  52.954   3.129  1.00  0.00    -0.550 OA
ATOM      7  O   UNL     1      50.173  52.946   4.918  1.00  0.00    -0.550 OA
ENDBRANCH   4   5
ENDBRANCH   3   4
ENDBRANCH   2   3
ENDBRANCH   1   2
BRANCH   1   8
ATOM      8  C   UNL     1      52.391  50.120   4.754  1.00  0.00     0.000 C 
BRANCH   8   9
ATOM      9  C   UNL     1      53.903  50.195   4.473  1.00  0.00     0.000 C 
BRANCH   9  10
ATOM     10  C   UNL     1      54.473  51.617   4.618  1.00  0.00     0.006 C 
BRANCH  10  11
ATOM     11  C   UNL     1      53.506  52.613   5.283  1.00  0.00     0.053 C 
BRANCH  11  12
ATOM     12  C   UNL     1      53.900  52.950   6.689  1.00  0.00     0.041 C 
ATOM     13  O   UNL     1      55.112  53.105   6.991  1.00  0.00    -0.550 OA
ATOM     14  O   UNL     1      52.923  53.125   7.662  1.00  0.00    -0.550 OA
ENDBRANCH  11  12
ENDBRANCH  10  11
ENDBRANCH   9  10
ENDBRANCH   8   9
ENDBRANCH   1   8
TORSDOF 9
ENDMDL
MODEL 5
REMARK VINA RESULT:    -5.278      1.247      5.611
REMARK INTER + INTRA:          -8.649
REMARK INTER:                  -8.104
REMARK INTRA:                  -0.545
REMARK UNBOUND:                -0.594
REMARK SMILES O=C([O-])CCCCCCCCC(=O)[O-]
REMARK SMILES IDX 7 1 6 2 5 3 4 4 2 5 1 6 3 7 8 8 9 9 10 10 11 11 12 12 13 13
REMARK SMILES IDX 14 14
REMARK H PARENT
REMARK Flexibility Score: inf
ROOT
ATOM      1  C   UNL     1      53.636  49.818   4.733  1.00  0.00     0.000 C 
ENDROOT
BRANCH   1   2
ATOM      2  C   UNL     1      54.561  50.899   4.155  1.00  0.00     0.000 C 
BRANCH   2   3
ATOM      3  C   UNL     1      55.039  51.858   5.255  1.00  0.00     0.006 C 
BRANCH   3   4
ATOM      4  C   UNL     1      54.153  53.106   5.362  1.00  0.00     0.053 C 
BRANCH   4   5
ATOM      5  C   UNL     1      53.292  53.073   6.587  1.00  0.00     0.041 C 
ATOM      6  O   UNL     1      53.815  52.970   7.727  1.00  0.00    -0.550 OA
ATOM      7  O   UNL     1      51.909  53.122   6.466  1.00  0.00    -0.550 OA
ENDBRANCH   4   5
ENDBRANCH   3   4
ENDBRANCH   2   3
ENDBRANCH   1   2
BRANCH   1   8
ATOM      8  C   UNL     1      52.149  50.129   4.504  1.00  0.00     0.000 C 
BRANCH   8   9
ATOM      9  C   UNL     1      51.423  49.013   3.731  1.00  0.00     0.000 C 
BRANCH   9  10
ATOM     10  C   UNL     1      49.976  49.382   3.358  1.00  0.00     0.006 C 
BRANCH  10  11
ATOM     11  C   UNL     1      49.089  49.732   4.566  1.00  0.00     0.053 C 
BRANCH  11  12
ATOM     12  C   UNL     1      48.515  51.113   4.482  1.00  0.00     0.041 C 
ATOM     13  O   UNL     1      47.268  51.286   4.504  1.00  0.00    -0.550 OA
ATOM     14  O   UNL     1      49.359  52.214   4.411  1.00  0.00    -0.550 OA
ENDBRANCH  11  12
ENDBRANCH  10  11
ENDBRANCH   9  10
ENDBRANCH   8   9
ENDBRANCH   1   8
TORSDOF 9
ENDMDL
MODEL 6
REMARK VINA RESULT:    -5.253      2.134      6.122
REMARK INTER + INTRA:          -8.611
REMARK INTER:                  -8.044
REMARK INTRA:                  -0.567
REMARK UNBOUND:                -0.594
REMARK SMILES O=C([O-])CCCCCCCCC(=O)[O-]
REMARK SMILES IDX 7 1 6 2 5 3 4 4 2 5 1 6 3 7 8 8 9 9 10 10 11 11 12 12 13 13
REMARK SMILES IDX 14 14
REMARK H PARENT
REMARK Flexibility Score: inf
ROOT
ATOM      1  C   UNL     1      52.862  50.583   6.812  1.00  0.00     0.000 C 
ENDROOT
BRANCH   1   2
ATOM      2  C   UNL     1      53.728  51.686   7.438  1.00  0.00     0.000 C 
BRANCH   2   3
ATOM      3  C   UNL     1      54.762  52.210   6.429  1.00  0.00     0.006 C 
BRANCH   3   4
ATOM      4  C   UNL     1      54.278  52.075   4.979  1.00  0.00     0.053 C 
BRANCH   4   5
ATOM      5  C   UNL     1      55.172  51.179   4.177  1.00  0.00     0.041 C 
ATOM      6  O   UNL     1      54.797  50.016   3.876  1.00  0.00    -0.550 OA
ATOM      7  O   UNL     1      56.432  51.619   3.791  1.00  0.00    -0.550 OA
ENDBRANCH   4   5
ENDBRANCH   3   4
ENDBRANCH   2   3
ENDBRANCH   1   2
BRANCH   1   8
ATOM      8  C   UNL     1      51.361  50.910   6.863  1.00  0.00     0.000 C 
BRANCH   8   9
ATOM      9  C   UNL     1      50.547  50.112   5.829  1.00  0.00     0.000 C 
BRANCH   9  10
ATOM     10  C   UNL     1      51.260  49.979   4.472  1.00  0.00     0.006 C 
BRANCH  10  11
ATOM     11  C   UNL     1      50.634  48.928   3.537  1.00  0.00     0.053 C 
BRANCH  11  12
ATOM     12  C   UNL     1      49.481  49.470   2.748  1.00  0.00     0.041 C 
ATOM     13  O   UNL     1      48.769  48.699   2.052  1.00  0.00    -0.550 OA
ATOM     14  O   UNL     1      49.173  50.823   2.806  1.00  0.00    -0.550 OA
ENDBRANCH  11  12
ENDBRANCH  10  11
ENDBRANCH   9  10
ENDBRANCH   8   9
ENDBRANCH   1   8
TORSDOF 9
ENDMDL
MODEL 7
REMARK VINA RESULT:    -5.250      2.339      5.697
REMARK INTER + INTRA:          -8.606
REMARK INTER:                  -7.656
REMARK INTRA:                  -0.951
REMARK UNBOUND:                -0.594
REMARK SMILES O=C([O-])CCCCCCCCC(=O)[O-]
REMARK SMILES IDX 7 1 6 2 5 3 4 4 2 5 1 6 3 7 8 8 9 9 10 10 11 11 12 12 13 13
REMARK SMILES IDX 14 14
REMARK H PARENT
REMARK Flexibility Score: inf
ROOT
ATOM      1  C   UNL     1      51.078  52.220   5.207  1.00  0.00     0.000 C 
ENDROOT
BRANCH   1   2
ATOM      2  C   UNL     1      51.414  51.312   6.399  1.00  0.00     0.000 C 
BRANCH   2   3
ATOM      3  C   UNL     1      52.705  50.521   6.140  1.00  0.00     0.006 C 
BRANCH   3   4
ATOM      4  C   UNL     1      53.001  50.368   4.643  1.00  0.00     0.053 C 
BRANCH   4   5
ATOM      5  C   UNL     1      54.364  50.880   4.291  1.00  0.00     0.041 C 
ATOM      6  O   UNL     1      55.203  50.122   3.737  1.00  0.00    -0.550 OA
ATOM      7  O   UNL     1      54.719  52.186   4.607  1.00  0.00    -0.550 OA
ENDBRANCH   4   5
ENDBRANCH   3   4
ENDBRANCH   2   3
ENDBRANCH   1   2
BRANCH   1   8
ATOM      8  C   UNL     1      49.567  52.310   4.940  1.00  0.00     0.000 C 
BRANCH   8   9
ATOM      9  C   UNL     1      49.214  52.085   3.459  1.00  0.00     0.000 C 
BRANCH   9  10
ATOM     10  C   UNL     1      48.642  50.683   3.182  1.00  0.00     0.006 C 
BRANCH  10  11
ATOM     11  C   UNL     1      49.713  49.618   2.885  1.00  0.00     0.053 C 
BRANCH  11  12
ATOM     12  C   UNL     1      49.774  48.550   3.934  1.00  0.00     0.041 C 
ATOM     13  O   UNL     1      50.242  47.414   3.659  1.00  0.00    -0.550 OA
ATOM     14  O   UNL     1      49.343  48.820   5.227  1.00  0.00    -0.550 OA
ENDBRANCH  11  12
ENDBRANCH  10  11
ENDBRANCH   9  10
ENDBRANCH   8   9
ENDBRANCH   1   8
TORSDOF 9
ENDMDL
MODEL 8
REMARK VINA RESULT:    -5.217      2.241      2.942
REMARK INTER + INTRA:          -8.556
REMARK INTER:                  -7.916
REMARK INTRA:                  -0.640
REMARK UNBOUND:                -0.594
REMARK SMILES O=C([O-])CCCCCCCCC(=O)[O-]
REMARK SMILES IDX 7 1 6 2 5 3 4 4 2 5 1 6 3 7 8 8 9 9 10 10 11 11 12 12 13 13
REMARK SMILES IDX 14 14
REMARK H PARENT
REMARK Flexibility Score: inf
ROOT
ATOM      1  C   UNL     1      50.563  50.757   6.848  1.00  0.00     0.000 C 
ENDROOT
BRANCH   1   2
ATOM      2  C   UNL     1      50.009  49.810   5.773  1.00  0.00     0.000 C 
BRANCH   2   3
ATOM      3  C   UNL     1      50.701  50.049   4.423  1.00  0.00     0.006 C 
BRANCH   3   4
ATOM      4  C   UNL     1      50.688  48.798   3.534  1.00  0.00     0.053 C 
BRANCH   4   5
ATOM      5  C   UNL     1      49.359  48.604   2.870  1.00  0.00     0.041 C 
ATOM      6  O   UNL     1      48.874  47.448   2.748  1.00  0.00    -0.550 OA
ATOM      7  O   UNL     1      48.672  49.696   2.356  1.00  0.00    -0.550 OA
ENDBRANCH   4   5
ENDBRANCH   3   4
ENDBRANCH   2   3
ENDBRANCH   1   2
BRANCH   1   8
ATOM      8  C   UNL     1      52.097  50.842   6.826  1.00  0.00     0.000 C 
BRANCH   8   9
ATOM      9  C   UNL     1      52.607  52.287   6.678  1.00  0.00     0.000 C 
BRANCH   9  10
ATOM     10  C   UNL     1      53.092  52.612   5.254  1.00  0.00     0.006 C 
BRANCH  10  11
ATOM     11  C   UNL     1      54.617  52.512   5.075  1.00  0.00     0.053 C 
BRANCH  11  12
ATOM     12  C   UNL     1      55.033  51.292   4.312  1.00  0.00     0.041 C 
ATOM     13  O   UNL     1      54.212  50.360   4.107  1.00  0.00    -0.550 OA
ATOM     14  O   UNL     1      56.321  51.197   3.799  1.00  0.00    -0.550 OA
ENDBRANCH  11  12
ENDBRANCH  10  11
ENDBRANCH   9  10
ENDBRANCH   8   9
ENDBRANCH   1   8
TORSDOF 9
ENDMDL
MODEL 9
REMARK VINA RESULT:    -5.114      1.466      2.158
REMARK INTER + INTRA:          -8.398
REMARK INTER:                  -7.669
REMARK INTRA:                  -0.729
REMARK UNBOUND:                -0.594
REMARK SMILES O=C([O-])CCCCCCCCC(=O)[O-]
REMARK SMILES IDX 7 1 6 2 5 3 4 4 2 5 1 6 3 7 8 8 9 9 10 10 11 11 12 12 13 13
REMARK SMILES IDX 14 14
REMARK H PARENT
REMARK Flexibility Score: inf
ROOT
ATOM      1  C   UNL     1      51.649  49.375   3.875  1.00  0.00     0.000 C 
ENDROOT
BRANCH   1   2
ATOM      2  C   UNL     1      50.330  48.683   3.503  1.00  0.00     0.000 C 
BRANCH   2   3
ATOM      3  C   UNL     1      49.506  49.554   2.542  1.00  0.00     0.006 C 
BRANCH   3   4
ATOM      4  C   UNL     1      48.026  49.618   2.941  1.00  0.00     0.053 C 
BRANCH   4   5
ATOM      5  C   UNL     1      47.824  50.399   4.203  1.00  0.00     0.041 C 
ATOM      6  O   UNL     1      48.005  51.644   4.214  1.00  0.00    -0.550 OA
ATOM      7  O   UNL     1      47.468  49.744   5.376  1.00  0.00    -0.550 OA
ENDBRANCH   4   5
ENDBRANCH   3   4
ENDBRANCH   2   3
ENDBRANCH   1   2
BRANCH   1   8
ATOM      8  C   UNL     1      51.431  50.698   4.625  1.00  0.00     0.000 C 
BRANCH   8   9
ATOM      9  C   UNL     1      51.067  50.487   6.106  1.00  0.00     0.000 C 
BRANCH   9  10
ATOM     10  C   UNL     1      52.114  51.067   7.073  1.00  0.00     0.006 C 
BRANCH  10  11
ATOM     11  C   UNL     1      53.545  50.559   6.822  1.00  0.00     0.053 C 
BRANCH  11  12
ATOM     12  C   UNL     1      54.487  51.654   6.425  1.00  0.00     0.041 C 
ATOM     13  O   UNL     1      54.750  52.589   7.226  1.00  0.00    -0.550 OA
ATOM     14  O   UNL     1      55.101  51.625   5.178  1.00  0.00    -0.550 OA
ENDBRANCH  11  12
ENDBRANCH  10  11
ENDBRANCH   9  10
ENDBRANCH   8   9
ENDBRANCH   1   8
TORSDOF 9
ENDMDL
