MODEL 1
REMARK VINA RESULT:    -4.938      0.000      0.000
REMARK INTER + INTRA:          -6.912
REMARK INTER:                  -6.670
REMARK INTRA:                  -0.242
REMARK UNBOUND:                -0.242
REMARK SMILES CCCCCCC=CC(=O)[O-]
REMARK SMILES IDX 5 1 6 2 7 3 8 4 9 5 10 6 11 7 4 8 3 9 2 10 1 11
REMARK H PARENT
REMARK Flexibility Score: inf
ROOT
ATOM      1  C   UNL     1     -10.719  11.238   4.116  1.00  0.00     0.004 C 
ENDROOT
BRANCH   1   2
ATOM      2  C   UNL     1     -11.259  11.399   5.544  1.00  0.00     0.027 C 
BRANCH   2   3
ATOM      3  C   UNL     1     -12.280  10.352   5.894  1.00  0.00    -0.025 C 
ATOM      4  C   UNL     1     -12.411   9.892   7.143  1.00  0.00     0.020 C 
BRANCH   4   5
ATOM      5  C   UNL     1     -13.400   8.864   7.496  1.00  0.00     0.064 C 
ATOM      6  O   UNL     1     -13.708   7.982   6.653  1.00  0.00    -0.545 OA
ATOM      7  O   UNL     1     -14.000   8.848   8.750  1.00  0.00    -0.545 OA
ENDBRANCH   4   5
ENDBRANCH   2   3
ENDBRANCH   1   2
BRANCH   1   8
ATOM      8  C   UNL     1     -10.172  12.560   3.551  1.00  0.00     0.000 C 
BRANCH   8   9
ATOM      9  C   UNL     1      -9.088  13.189   4.444  1.00  0.00    -0.000 C 
BRANCH   9  10
ATOM     10  C   UNL     1      -7.710  13.346   3.775  1.00  0.00    -0.003 C 
ATOM     11  C   UNL     1      -7.229  12.067   3.090  1.00  0.00     0.004 C 
ENDBRANCH   9  10
ENDBRANCH   8   9
ENDBRANCH   1   8
TORSDOF 6
ENDMDL
MODEL 2
REMARK VINA RESULT:    -4.923      3.693      4.722
REMARK INTER + INTRA:          -6.891
REMARK INTER:                  -6.555
REMARK INTRA:                  -0.337
REMARK UNBOUND:                -0.242
REMARK SMILES CCCCCCC=CC(=O)[O-]
REMARK SMILES IDX 5 1 6 2 7 3 8 4 9 5 10 6 11 7 4 8 3 9 2 10 1 11
REMARK H PARENT
REMARK Flexibility Score: inf
ROOT
ATOM      1  C   UNL     1     -12.038  10.438   7.426  1.00  0.00     0.004 C 
ENDROOT
BRANCH   1   2
ATOM      2  C   UNL     1     -13.004  11.443   8.071  1.00  0.00     0.027 C 
BRANCH   2   3
ATOM      3  C   UNL     1     -12.288  12.609   8.694  1.00  0.00    -0.025 C 
ATOM      4  C   UNL     1     -11.002  12.532   9.049  1.00  0.00     0.020 C 
BRANCH   4   5
ATOM      5  C   UNL     1     -10.293  13.662   9.666  1.00  0.00     0.064 C 
ATOM      6  O   UNL     1     -10.663  14.838   9.416  1.00  0.00    -0.545 OA
ATOM      7  O   UNL     1      -9.218  13.452  10.522  1.00  0.00    -0.545 OA
ENDBRANCH   4   5
ENDBRANCH   2   3
ENDBRANCH   1   2
BRANCH   1   8
ATOM      8  C   UNL     1     -12.107  10.475   5.889  1.00  0.00     0.000 C 
BRANCH   8   9
ATOM      9  C   UNL     1     -11.117  11.477   5.269  1.00  0.00    -0.000 C 
BRANCH   9  10
ATOM     10  C   UNL     1     -10.620  11.108   3.860  1.00  0.00    -0.003 C 
ATOM     11  C   UNL     1     -10.921  12.185   2.819  1.00  0.00     0.004 C 
ENDBRANCH   9  10
ENDBRANCH   8   9
ENDBRANCH   1   8
TORSDOF 6
ENDMDL
MODEL 3
REMARK VINA RESULT:    -4.893      3.822      5.231
REMARK INTER + INTRA:          -6.851
REMARK INTER:                  -6.449
REMARK INTRA:                  -0.402
REMARK UNBOUND:                -0.242
REMARK SMILES CCCCCCC=CC(=O)[O-]
REMARK SMILES IDX 5 1 6 2 7 3 8 4 9 5 10 6 11 7 4 8 3 9 2 10 1 11
REMARK H PARENT
REMARK Flexibility Score: inf
ROOT
ATOM      1  C   UNL     1     -13.040  11.755   7.881  1.00  0.00     0.004 C 
ENDROOT
BRANCH   1   2
ATOM      2  C   UNL     1     -12.018  10.723   7.384  1.00  0.00     0.027 C 
BRANCH   2   3
ATOM      3  C   UNL     1     -11.789  10.808   5.901  1.00  0.00    -0.025 C 
ATOM      4  C   UNL     1     -10.975  11.725   5.370  1.00  0.00     0.020 C 
BRANCH   4   5
ATOM      5  C   UNL     1     -10.749  11.824   3.921  1.00  0.00     0.064 C 
ATOM      6  O   UNL     1     -11.057  10.856   3.177  1.00  0.00    -0.545 OA
ATOM      7  O   UNL     1     -10.200  12.970   3.357  1.00  0.00    -0.545 OA
ENDBRANCH   4   5
ENDBRANCH   2   3
ENDBRANCH   1   2
BRANCH   1   8
ATOM      8  C   UNL     1     -12.397  12.813   8.794  1.00  0.00     0.000 C 
BRANCH   8   9
ATOM      9  C   UNL     1     -10.889  12.589   9.001  1.00  0.00    -0.000 C 
BRANCH   9  10
ATOM     10  C   UNL     1     -10.066  13.873   9.213  1.00  0.00    -0.003 C 
ATOM     11  C   UNL     1      -9.062  13.756  10.359  1.00  0.00     0.004 C 
ENDBRANCH   9  10
ENDBRANCH   8   9
ENDBRANCH   1   8
TORSDOF 6
ENDMDL
MODEL 4
REMARK VINA RESULT:    -4.858      2.041      3.333
REMARK INTER + INTRA:          -6.804
REMARK INTER:                  -6.582
REMARK INTRA:                  -0.222
REMARK UNBOUND:                -0.242
REMARK SMILES CCCCCCC=CC(=O)[O-]
REMARK SMILES IDX 5 1 6 2 7 3 8 4 9 5 10 6 11 7 4 8 3 9 2 10 1 11
REMARK H PARENT
REMARK Flexibility Score: inf
ROOT
ATOM      1  C   UNL     1     -12.215  10.482   7.540  1.00  0.00     0.004 C 
ENDROOT
BRANCH   1   2
ATOM      2  C   UNL     1     -12.846   9.388   6.666  1.00  0.00     0.027 C 
BRANCH   2   3
ATOM      3  C   UNL     1     -13.611   8.377   7.474  1.00  0.00    -0.025 C 
ATOM      4  C   UNL     1     -13.838   7.142   7.015  1.00  0.00     0.020 C 
BRANCH   4   5
ATOM      5  C   UNL     1     -14.590   6.146   7.792  1.00  0.00     0.064 C 
ATOM      6  O   UNL     1     -14.656   6.256   9.044  1.00  0.00    -0.545 OA
ATOM      7  O   UNL     1     -15.233   5.085   7.165  1.00  0.00    -0.545 OA
ENDBRANCH   4   5
ENDBRANCH   2   3
ENDBRANCH   1   2
BRANCH   1   8
ATOM      8  C   UNL     1     -11.392  11.482   6.710  1.00  0.00     0.000 C 
BRANCH   8   9
ATOM      9  C   UNL     1     -11.334  11.117   5.216  1.00  0.00    -0.000 C 
BRANCH   9  10
ATOM     10  C   UNL     1     -10.411  12.009   4.366  1.00  0.00    -0.003 C 
ATOM     11  C   UNL     1     -10.883  12.150   2.920  1.00  0.00     0.004 C 
ENDBRANCH   9  10
ENDBRANCH   8   9
ENDBRANCH   1   8
TORSDOF 6
ENDMDL
MODEL 5
REMARK VINA RESULT:    -4.812      3.424      4.108
REMARK INTER + INTRA:          -6.741
REMARK INTER:                  -6.419
REMARK INTRA:                  -0.322
REMARK UNBOUND:                -0.242
REMARK SMILES CCCCCCC=CC(=O)[O-]
REMARK SMILES IDX 5 1 6 2 7 3 8 4 9 5 10 6 11 7 4 8 3 9 2 10 1 11
REMARK H PARENT
REMARK Flexibility Score: inf
ROOT
ATOM      1  C   UNL     1     -11.200  12.629   9.122  1.00  0.00     0.004 C 
ENDROOT
BRANCH   1   2
ATOM      2  C   UNL     1     -10.855  12.125   7.713  1.00  0.00     0.027 C 
BRANCH   2   3
ATOM      3  C   UNL     1     -11.837  11.102   7.213  1.00  0.00    -0.025 C 
ATOM      4  C   UNL     1     -12.305  10.133   8.006  1.00  0.00     0.020 C 
BRANCH   4   5
ATOM      5  C   UNL     1     -13.259   9.124   7.527  1.00  0.00     0.064 C 
ATOM      6  O   UNL     1     -13.273   8.811   6.308  1.00  0.00    -0.545 OA
ATOM      7  O   UNL     1     -14.147   8.506   8.400  1.00  0.00    -0.545 OA
ENDBRANCH   4   5
ENDBRANCH   2   3
ENDBRANCH   1   2
BRANCH   1   8
ATOM      8  C   UNL     1     -10.383  13.874   9.507  1.00  0.00     0.000 C 
BRANCH   8   9
ATOM      9  C   UNL     1      -9.269  14.196   8.495  1.00  0.00    -0.000 C 
BRANCH   9  10
ATOM     10  C   UNL     1      -7.897  14.509   9.120  1.00  0.00    -0.003 C 
ATOM     11  C   UNL     1      -7.927  14.528  10.648  1.00  0.00     0.004 C 
ENDBRANCH   9  10
ENDBRANCH   8   9
ENDBRANCH   1   8
TORSDOF 6
ENDMDL
MODEL 6
REMARK VINA RESULT:    -4.803      4.801      5.439
REMARK INTER + INTRA:          -6.729
REMARK INTER:                  -6.333
REMARK INTRA:                  -0.397
REMARK UNBOUND:                -0.242
REMARK SMILES CCCCCCC=CC(=O)[O-]
REMARK SMILES IDX 5 1 6 2 7 3 8 4 9 5 10 6 11 7 4 8 3 9 2 10 1 11
REMARK H PARENT
REMARK Flexibility Score: inf
ROOT
ATOM      1  C   UNL     1      -9.390  14.118   8.516  1.00  0.00     0.004 C 
ENDROOT
BRANCH   1   2
ATOM      2  C   UNL     1     -10.354  13.466   9.517  1.00  0.00     0.027 C 
BRANCH   2   3
ATOM      3  C   UNL     1     -11.116  12.318   8.916  1.00  0.00    -0.025 C 
ATOM      4  C   UNL     1     -10.990  11.993   7.626  1.00  0.00     0.020 C 
BRANCH   4   5
ATOM      5  C   UNL     1     -11.735  10.878   7.024  1.00  0.00     0.064 C 
ATOM      6  O   UNL     1     -11.765  10.755   5.772  1.00  0.00    -0.545 OA
ATOM      7  O   UNL     1     -12.407   9.955   7.817  1.00  0.00    -0.545 OA
ENDBRANCH   4   5
ENDBRANCH   2   3
ENDBRANCH   1   2
BRANCH   1   8
ATOM      8  C   UNL     1      -8.058  14.520   9.173  1.00  0.00     0.000 C 
BRANCH   8   9
ATOM      9  C   UNL     1      -7.993  14.156  10.667  1.00  0.00    -0.000 C 
BRANCH   9  10
ATOM     10  C   UNL     1      -7.478  15.279  11.585  1.00  0.00    -0.003 C 
ATOM     11  C   UNL     1      -7.748  16.677  11.030  1.00  0.00     0.004 C 
ENDBRANCH   9  10
ENDBRANCH   8   9
ENDBRANCH   1   8
TORSDOF 6
ENDMDL
MODEL 7
REMARK VINA RESULT:    -4.768      1.456      2.067
REMARK INTER + INTRA:          -6.682
REMARK INTER:                  -6.321
REMARK INTRA:                  -0.361
REMARK UNBOUND:                -0.242
REMARK SMILES CCCCCCC=CC(=O)[O-]
REMARK SMILES IDX 5 1 6 2 7 3 8 4 9 5 10 6 11 7 4 8 3 9 2 10 1 11
REMARK H PARENT
REMARK Flexibility Score: inf
ROOT
ATOM      1  C   UNL     1      -9.976  12.288   3.381  1.00  0.00     0.004 C 
ENDROOT
BRANCH   1   2
ATOM      2  C   UNL     1     -10.873  11.222   4.027  1.00  0.00     0.027 C 
BRANCH   2   3
ATOM      3  C   UNL     1     -11.229  11.556   5.449  1.00  0.00    -0.025 C 
ATOM      4  C   UNL     1     -11.821  10.664   6.249  1.00  0.00     0.020 C 
BRANCH   4   5
ATOM      5  C   UNL     1     -12.181  10.979   7.639  1.00  0.00     0.064 C 
ATOM      6  O   UNL     1     -13.316  10.654   8.076  1.00  0.00    -0.545 OA
ATOM      7  O   UNL     1     -11.286  11.630   8.481  1.00  0.00    -0.545 OA
ENDBRANCH   4   5
ENDBRANCH   2   3
ENDBRANCH   1   2
BRANCH   1   8
ATOM      8  C   UNL     1      -9.178  13.085   4.428  1.00  0.00     0.000 C 
BRANCH   8   9
ATOM      9  C   UNL     1      -7.753  13.429   3.961  1.00  0.00    -0.000 C 
BRANCH   9  10
ATOM     10  C   UNL     1      -7.225  12.565   2.802  1.00  0.00    -0.003 C 
ATOM     11  C   UNL     1      -6.137  11.584   3.237  1.00  0.00     0.004 C 
ENDBRANCH   9  10
ENDBRANCH   8   9
ENDBRANCH   1   8
TORSDOF 6
ENDMDL
MODEL 8
REMARK VINA RESULT:    -4.761      4.250      6.451
REMARK INTER + INTRA:          -6.673
REMARK INTER:                  -6.426
REMARK INTRA:                  -0.247
REMARK UNBOUND:                -0.242
REMARK SMILES CCCCCCC=CC(=O)[O-]
REMARK SMILES IDX 5 1 6 2 7 3 8 4 9 5 10 6 11 7 4 8 3 9 2 10 1 11
REMARK H PARENT
REMARK Flexibility Score: inf
ROOT
ATOM      1  C   UNL     1     -11.226  11.533   5.446  1.00  0.00     0.004 C 
ENDROOT
BRANCH   1   2
ATOM      2  C   UNL     1     -11.046  11.107   3.982  1.00  0.00     0.027 C 
BRANCH   2   3
ATOM      3  C   UNL     1     -10.436  12.192   3.139  1.00  0.00    -0.025 C 
ATOM      4  C   UNL     1      -9.490  13.004   3.620  1.00  0.00     0.020 C 
BRANCH   4   5
ATOM      5  C   UNL     1      -8.892  14.073   2.809  1.00  0.00     0.064 C 
ATOM      6  O   UNL     1      -9.635  14.931   2.265  1.00  0.00    -0.545 OA
ATOM      7  O   UNL     1      -7.515  14.154   2.632  1.00  0.00    -0.545 OA
ENDBRANCH   4   5
ENDBRANCH   2   3
ENDBRANCH   1   2
BRANCH   1   8
ATOM      8  C   UNL     1     -12.236  10.640   6.188  1.00  0.00     0.000 C 
BRANCH   8   9
ATOM      9  C   UNL     1     -11.879  10.438   7.671  1.00  0.00    -0.000 C 
BRANCH   9  10
ATOM     10  C   UNL     1     -11.774  11.734   8.496  1.00  0.00    -0.003 C 
ATOM     11  C   UNL     1     -13.097  12.494   8.583  1.00  0.00     0.004 C 
ENDBRANCH   9  10
ENDBRANCH   8   9
ENDBRANCH   1   8
TORSDOF 6
ENDMDL
MODEL 9
REMARK VINA RESULT:    -4.654      5.794      7.248
REMARK INTER + INTRA:          -6.529
REMARK INTER:                  -6.281
REMARK INTRA:                  -0.248
REMARK UNBOUND:                -0.242
REMARK SMILES CCCCCCC=CC(=O)[O-]
REMARK SMILES IDX 5 1 6 2 7 3 8 4 9 5 10 6 11 7 4 8 3 9 2 10 1 11
REMARK H PARENT
REMARK Flexibility Score: inf
ROOT
ATOM      1  C   UNL     1     -10.802  12.485   9.325  1.00  0.00     0.004 C 
ENDROOT
BRANCH   1   2
ATOM      2  C   UNL     1     -10.165  13.788   8.821  1.00  0.00     0.027 C 
BRANCH   2   3
ATOM      3  C   UNL     1      -9.000  14.222   9.666  1.00  0.00    -0.025 C 
ATOM      4  C   UNL     1      -8.907  15.467  10.144  1.00  0.00     0.020 C 
BRANCH   4   5
ATOM      5  C   UNL     1      -7.769  15.906  10.964  1.00  0.00     0.064 C 
ATOM      6  O   UNL     1      -7.374  17.099  10.892  1.00  0.00    -0.545 OA
ATOM      7  O   UNL     1      -7.122  15.024  11.822  1.00  0.00    -0.545 OA
ENDBRANCH   4   5
ENDBRANCH   2   3
ENDBRANCH   1   2
BRANCH   1   8
ATOM      8  C   UNL     1     -12.010  12.064   8.470  1.00  0.00     0.000 C 
BRANCH   8   9
ATOM      9  C   UNL     1     -11.847  10.664   7.852  1.00  0.00    -0.000 C 
BRANCH   9  10
ATOM     10  C   UNL     1     -12.179  10.577   6.351  1.00  0.00    -0.003 C 
ATOM     11  C   UNL     1     -11.217  11.381   5.478  1.00  0.00     0.004 C 
ENDBRANCH   9  10
ENDBRANCH   8   9
ENDBRANCH   1   8
TORSDOF 6
ENDMDL
