MODEL 1
REMARK VINA RESULT:    -4.114      0.000      0.000
REMARK INTER + INTRA:          -5.484
REMARK INTER:                  -5.316
REMARK INTRA:                  -0.169
REMARK UNBOUND:                -0.169
REMARK SMILES CCCCCCC(=O)[O-]
REMARK SMILES IDX 5 1 6 2 7 3 8 4 9 5 4 6 3 7 2 8 1 9
REMARK H PARENT
REMARK Flexibility Score: inf
ROOT
ATOM      1  C   UNL     1       8.037  21.908  29.881  1.00  0.00     0.006 C 
ENDROOT
BRANCH   1   2
ATOM      2  C   UNL     1       7.876  22.007  31.401  1.00  0.00     0.053 C 
BRANCH   2   3
ATOM      3  C   UNL     1       8.917  22.913  31.980  1.00  0.00     0.041 C 
ATOM      4  O   UNL     1       8.812  23.322  33.167  1.00  0.00    -0.550 OA
ATOM      5  O   UNL     1       9.978  23.345  31.194  1.00  0.00    -0.550 OA
ENDBRANCH   2   3
ENDBRANCH   1   2
BRANCH   1   6
ATOM      6  C   UNL     1       8.108  20.444  29.430  1.00  0.00     0.000 C 
BRANCH   6   7
ATOM      7  C   UNL     1       8.616  19.542  30.565  1.00  0.00    -0.000 C 
BRANCH   7   8
ATOM      8  C   UNL     1       9.410  18.333  30.048  1.00  0.00    -0.003 C 
ATOM      9  C   UNL     1       9.934  17.445  31.176  1.00  0.00     0.004 C 
ENDBRANCH   7   8
ENDBRANCH   6   7
ENDBRANCH   1   6
TORSDOF 5
ENDMDL
MODEL 2
REMARK VINA RESULT:    -4.091      1.045      1.558
REMARK INTER + INTRA:          -5.455
REMARK INTER:                  -5.168
REMARK INTRA:                  -0.287
REMARK UNBOUND:                -0.169
REMARK SMILES CCCCCCC(=O)[O-]
REMARK SMILES IDX 5 1 6 2 7 3 8 4 9 5 4 6 3 7 2 8 1 9
REMARK H PARENT
REMARK Flexibility Score: inf
ROOT
ATOM      1  C   UNL     1       7.976  21.635  31.343  1.00  0.00     0.006 C 
ENDROOT
BRANCH   1   2
ATOM      2  C   UNL     1       8.528  23.016  31.709  1.00  0.00     0.053 C 
BRANCH   2   3
ATOM      3  C   UNL     1      10.022  22.982  31.774  1.00  0.00     0.041 C 
ATOM      4  O   UNL     1      10.698  23.948  31.328  1.00  0.00    -0.550 OA
ATOM      5  O   UNL     1      10.672  21.864  32.281  1.00  0.00    -0.550 OA
ENDBRANCH   2   3
ENDBRANCH   1   2
BRANCH   1   6
ATOM      6  C   UNL     1       7.918  21.451  29.821  1.00  0.00     0.000 C 
BRANCH   6   7
ATOM      7  C   UNL     1       8.284  20.013  29.426  1.00  0.00    -0.000 C 
BRANCH   7   8
ATOM      8  C   UNL     1       8.782  19.182  30.618  1.00  0.00    -0.003 C 
ATOM      9  C   UNL     1       9.712  18.044  30.197  1.00  0.00     0.004 C 
ENDBRANCH   7   8
ENDBRANCH   6   7
ENDBRANCH   1   6
TORSDOF 5
ENDMDL
MODEL 3
REMARK VINA RESULT:    -4.071      2.836      4.433
REMARK INTER + INTRA:          -5.430
REMARK INTER:                  -5.268
REMARK INTRA:                  -0.162
REMARK UNBOUND:                -0.169
REMARK SMILES CCCCCCC(=O)[O-]
REMARK SMILES IDX 5 1 6 2 7 3 8 4 9 5 4 6 3 7 2 8 1 9
REMARK H PARENT
REMARK Flexibility Score: inf
ROOT
ATOM      1  C   UNL     1       9.913  17.612  31.409  1.00  0.00     0.006 C 
ENDROOT
BRANCH   1   2
ATOM      2  C   UNL     1      10.039  18.662  32.518  1.00  0.00     0.053 C 
BRANCH   2   3
ATOM      3  C   UNL     1       9.291  18.227  33.739  1.00  0.00     0.041 C 
ATOM      4  O   UNL     1       9.588  17.145  34.312  1.00  0.00    -0.550 OA
ATOM      5  O   UNL     1       8.233  18.990  34.215  1.00  0.00    -0.550 OA
ENDBRANCH   2   3
ENDBRANCH   1   2
BRANCH   1   6
ATOM      6  C   UNL     1       9.508  18.262  30.080  1.00  0.00     0.000 C 
BRANCH   6   7
ATOM      7  C   UNL     1       8.646  19.511  30.318  1.00  0.00    -0.000 C 
BRANCH   7   8
ATOM      8  C   UNL     1       8.066  20.085  29.017  1.00  0.00    -0.003 C 
ATOM      9  C   UNL     1       7.882  21.601  29.071  1.00  0.00     0.004 C 
ENDBRANCH   7   8
ENDBRANCH   6   7
ENDBRANCH   1   6
TORSDOF 5
ENDMDL
MODEL 4
REMARK VINA RESULT:    -4.065      2.887      4.482
REMARK INTER + INTRA:          -5.422
REMARK INTER:                  -5.168
REMARK INTRA:                  -0.254
REMARK UNBOUND:                -0.169
REMARK SMILES CCCCCCC(=O)[O-]
REMARK SMILES IDX 5 1 6 2 7 3 8 4 9 5 4 6 3 7 2 8 1 9
REMARK H PARENT
REMARK Flexibility Score: inf
ROOT
ATOM      1  C   UNL     1      10.028  18.562  32.081  1.00  0.00     0.006 C 
ENDROOT
BRANCH   1   2
ATOM      2  C   UNL     1       9.791  17.682  33.313  1.00  0.00     0.053 C 
BRANCH   2   3
ATOM      3  C   UNL     1       8.599  18.164  34.079  1.00  0.00     0.041 C 
ATOM      4  O   UNL     1       8.144  19.322  33.880  1.00  0.00    -0.550 OA
ATOM      5  O   UNL     1       8.021  17.354  35.048  1.00  0.00    -0.550 OA
ENDBRANCH   2   3
ENDBRANCH   1   2
BRANCH   1   6
ATOM      6  C   UNL     1       9.865  17.753  30.788  1.00  0.00     0.000 C 
BRANCH   6   7
ATOM      7  C   UNL     1       9.050  18.537  29.748  1.00  0.00    -0.000 C 
BRANCH   7   8
ATOM      8  C   UNL     1       8.467  19.840  30.316  1.00  0.00    -0.003 C 
ATOM      9  C   UNL     1       7.906  20.758  29.230  1.00  0.00     0.004 C 
ENDBRANCH   7   8
ENDBRANCH   6   7
ENDBRANCH   1   6
TORSDOF 5
ENDMDL
MODEL 5
REMARK VINA RESULT:    -3.952      3.833      4.692
REMARK INTER + INTRA:          -5.276
REMARK INTER:                  -4.948
REMARK INTRA:                  -0.327
REMARK UNBOUND:                -0.169
REMARK SMILES CCCCCCC(=O)[O-]
REMARK SMILES IDX 5 1 6 2 7 3 8 4 9 5 4 6 3 7 2 8 1 9
REMARK H PARENT
REMARK Flexibility Score: inf
ROOT
ATOM      1  C   UNL     1       8.690  19.753  33.966  1.00  0.00     0.006 C 
ENDROOT
BRANCH   1   2
ATOM      2  C   UNL     1       8.173  18.313  33.913  1.00  0.00     0.053 C 
BRANCH   2   3
ATOM      3  C   UNL     1       9.217  17.363  34.407  1.00  0.00     0.041 C 
ATOM      4  O   UNL     1      10.251  17.144  33.721  1.00  0.00    -0.550 OA
ATOM      5  O   UNL     1       9.028  16.680  35.602  1.00  0.00    -0.550 OA
ENDBRANCH   2   3
ENDBRANCH   1   2
BRANCH   1   6
ATOM      6  C   UNL     1       8.541  20.442  32.604  1.00  0.00     0.000 C 
BRANCH   6   7
ATOM      7  C   UNL     1       9.609  19.946  31.617  1.00  0.00    -0.000 C 
BRANCH   7   8
ATOM      8  C   UNL     1       9.029  19.028  30.531  1.00  0.00    -0.003 C 
ATOM      9  C   UNL     1       9.867  17.768  30.313  1.00  0.00     0.004 C 
ENDBRANCH   7   8
ENDBRANCH   6   7
ENDBRANCH   1   6
TORSDOF 5
ENDMDL
MODEL 6
REMARK VINA RESULT:    -3.914      4.074      5.230
REMARK INTER + INTRA:          -5.227
REMARK INTER:                  -5.033
REMARK INTRA:                  -0.194
REMARK UNBOUND:                -0.169
REMARK SMILES CCCCCCC(=O)[O-]
REMARK SMILES IDX 5 1 6 2 7 3 8 4 9 5 4 6 3 7 2 8 1 9
REMARK H PARENT
REMARK Flexibility Score: inf
ROOT
ATOM      1  C   UNL     1       8.356  18.399  33.938  1.00  0.00     0.006 C 
ENDROOT
BRANCH   1   2
ATOM      2  C   UNL     1       9.368  17.429  34.555  1.00  0.00     0.053 C 
BRANCH   2   3
ATOM      3  C   UNL     1       9.307  17.488  36.049  1.00  0.00     0.041 C 
ATOM      4  O   UNL     1       8.559  18.326  36.620  1.00  0.00    -0.550 OA
ATOM      5  O   UNL     1      10.112  16.653  36.812  1.00  0.00    -0.550 OA
ENDBRANCH   2   3
ENDBRANCH   1   2
BRANCH   1   6
ATOM      6  C   UNL     1       8.637  18.612  32.446  1.00  0.00     0.000 C 
BRANCH   6   7
ATOM      7  C   UNL     1       9.803  17.731  31.975  1.00  0.00    -0.000 C 
BRANCH   7   8
ATOM      8  C   UNL     1       9.905  17.655  30.444  1.00  0.00    -0.003 C 
ATOM      9  C   UNL     1       9.029  18.692  29.741  1.00  0.00     0.004 C 
ENDBRANCH   7   8
ENDBRANCH   6   7
ENDBRANCH   1   6
TORSDOF 5
ENDMDL
MODEL 7
REMARK VINA RESULT:    -3.906      2.799      4.340
REMARK INTER + INTRA:          -5.216
REMARK INTER:                  -4.963
REMARK INTRA:                  -0.253
REMARK UNBOUND:                -0.169
REMARK SMILES CCCCCCC(=O)[O-]
REMARK SMILES IDX 5 1 6 2 7 3 8 4 9 5 4 6 3 7 2 8 1 9
REMARK H PARENT
REMARK Flexibility Score: inf
ROOT
ATOM      1  C   UNL     1       8.371  20.019  29.757  1.00  0.00     0.006 C 
ENDROOT
BRANCH   1   2
ATOM      2  C   UNL     1       8.709  19.477  31.149  1.00  0.00     0.053 C 
BRANCH   2   3
ATOM      3  C   UNL     1       9.616  18.291  31.043  1.00  0.00     0.041 C 
ATOM      4  O   UNL     1       9.955  17.851  29.912  1.00  0.00    -0.550 OA
ATOM      5  O   UNL     1      10.047  17.641  32.192  1.00  0.00    -0.550 OA
ENDBRANCH   2   3
ENDBRANCH   1   2
BRANCH   1   6
ATOM      6  C   UNL     1       8.047  21.517  29.813  1.00  0.00     0.000 C 
BRANCH   6   7
ATOM      7  C   UNL     1       8.216  22.063  31.239  1.00  0.00    -0.000 C 
BRANCH   7   8
ATOM      8  C   UNL     1       9.356  23.087  31.347  1.00  0.00    -0.003 C 
ATOM      9  C   UNL     1      10.508  22.598  32.224  1.00  0.00     0.004 C 
ENDBRANCH   7   8
ENDBRANCH   6   7
ENDBRANCH   1   6
TORSDOF 5
ENDMDL
MODEL 8
REMARK VINA RESULT:    -3.794      1.399      1.824
REMARK INTER + INTRA:          -5.072
REMARK INTER:                  -4.917
REMARK INTRA:                  -0.155
REMARK UNBOUND:                -0.169
REMARK SMILES CCCCCCC(=O)[O-]
REMARK SMILES IDX 5 1 6 2 7 3 8 4 9 5 4 6 3 7 2 8 1 9
REMARK H PARENT
REMARK Flexibility Score: inf
ROOT
ATOM      1  C   UNL     1       8.589  21.512  32.060  1.00  0.00     0.006 C 
ENDROOT
BRANCH   1   2
ATOM      2  C   UNL     1       9.084  22.633  31.141  1.00  0.00     0.053 C 
BRANCH   2   3
ATOM      3  C   UNL     1      10.099  23.477  31.845  1.00  0.00     0.041 C 
ATOM      4  O   UNL     1      11.205  22.981  32.191  1.00  0.00    -0.550 OA
ATOM      5  O   UNL     1       9.808  24.797  32.163  1.00  0.00    -0.550 OA
ENDBRANCH   2   3
ENDBRANCH   1   2
BRANCH   1   6
ATOM      6  C   UNL     1       8.505  20.179  31.305  1.00  0.00     0.000 C 
BRANCH   6   7
ATOM      7  C   UNL     1       8.680  18.992  32.264  1.00  0.00    -0.000 C 
BRANCH   7   8
ATOM      8  C   UNL     1       9.643  17.928  31.716  1.00  0.00    -0.003 C 
ATOM      9  C   UNL     1       9.778  17.981  30.194  1.00  0.00     0.004 C 
ENDBRANCH   7   8
ENDBRANCH   6   7
ENDBRANCH   1   6
TORSDOF 5
ENDMDL
MODEL 9
REMARK VINA RESULT:    -3.770      2.392      3.433
REMARK INTER + INTRA:          -5.040
REMARK INTER:                  -4.772
REMARK INTRA:                  -0.268
REMARK UNBOUND:                -0.169
REMARK SMILES CCCCCCC(=O)[O-]
REMARK SMILES IDX 5 1 6 2 7 3 8 4 9 5 4 6 3 7 2 8 1 9
REMARK H PARENT
REMARK Flexibility Score: inf
ROOT
ATOM      1  C   UNL     1       9.313  18.749  30.336  1.00  0.00     0.006 C 
ENDROOT
BRANCH   1   2
ATOM      2  C   UNL     1       8.549  19.949  30.903  1.00  0.00     0.053 C 
BRANCH   2   3
ATOM      3  C   UNL     1       8.098  20.852  29.799  1.00  0.00     0.041 C 
ATOM      4  O   UNL     1       7.877  22.071  30.028  1.00  0.00    -0.550 OA
ATOM      5  O   UNL     1       7.875  20.340  28.528  1.00  0.00    -0.550 OA
ENDBRANCH   2   3
ENDBRANCH   1   2
BRANCH   1   6
ATOM      6  C   UNL     1       9.647  17.737  31.440  1.00  0.00     0.000 C 
BRANCH   6   7
ATOM      7  C   UNL     1       9.028  18.161  32.780  1.00  0.00    -0.000 C 
BRANCH   7   8
ATOM      8  C   UNL     1      10.025  18.072  33.945  1.00  0.00    -0.003 C 
ATOM      9  C   UNL     1      11.273  18.927  33.721  1.00  0.00     0.004 C 
ENDBRANCH   7   8
ENDBRANCH   6   7
ENDBRANCH   1   6
TORSDOF 5
ENDMDL
