MODEL 1
REMARK VINA RESULT:    -5.890      0.000      0.000
REMARK INTER + INTRA:          -5.890
REMARK INTER:                  -5.890
REMARK INTRA:                   0.000
REMARK UNBOUND:                 0.000
REMARK SMILES CC1=CC[C@@]2(C)CCCC(C)(C)[C@@]23C[C@@H]13
REMARK SMILES IDX 1 1 2 2 3 3 4 4 5 5 7 6 8 7 9 8 10 9 13 10 15 11 14 12 11 13
REMARK SMILES IDX 12 14 6 15
REMARK H PARENT
REMARK Flexibility Score: inf
ROOT
ATOM      1  C   UNL     1     143.871 141.812 157.346  1.00  0.00     0.039 C 
ATOM      2  C   UNL     1     143.397 142.188 158.720  1.00  0.00    -0.074 C 
ATOM      3  C   UNL     1     142.527 143.211 158.860  1.00  0.00    -0.027 C 
ATOM      4  C   UNL     1     142.004 143.636 160.209  1.00  0.00     0.034 C 
ATOM      5  C   UNL     1     143.084 143.449 161.315  1.00  0.00    -0.022 C 
ATOM      6  C   UNL     1     142.443 143.726 162.696  1.00  0.00     0.008 C 
ATOM      7  C   UNL     1     143.385 143.424 163.876  1.00  0.00     0.001 C 
ATOM      8  C   UNL     1     143.911 141.981 163.854  1.00  0.00     0.007 C 
ATOM      9  C   UNL     1     144.604 141.557 162.528  1.00  0.00    -0.029 C 
ATOM     10  C   UNL     1     143.660 141.975 161.321  1.00  0.00    -0.012 C 
ATOM     11  C   UNL     1     143.912 141.403 159.918  1.00  0.00     0.022 C 
ATOM     12  C   UNL     1     142.775 140.828 160.759  1.00  0.00     0.017 C 
ATOM     13  C   UNL     1     144.876 140.028 162.642  1.00  0.00     0.012 C 
ATOM     14  C   UNL     1     145.996 142.227 162.397  1.00  0.00     0.012 C 
ATOM     15  C   UNL     1     144.201 144.499 161.017  1.00  0.00     0.012 C 
ENDROOT
TORSDOF 0
ENDMDL
MODEL 2
REMARK VINA RESULT:    -5.886      3.792      5.352
REMARK INTER + INTRA:          -5.886
REMARK INTER:                  -5.886
REMARK INTRA:                   0.000
REMARK UNBOUND:                 0.000
REMARK SMILES CC1=CC[C@@]2(C)CCCC(C)(C)[C@@]23C[C@@H]13
REMARK SMILES IDX 1 1 2 2 3 3 4 4 5 5 7 6 8 7 9 8 10 9 13 10 15 11 14 12 11 13
REMARK SMILES IDX 12 14 6 15
REMARK H PARENT
REMARK Flexibility Score: inf
ROOT
ATOM      1  C   UNL     1     141.802 146.875 157.361  1.00  0.00     0.039 C 
ATOM      2  C   UNL     1     142.184 147.357 158.731  1.00  0.00    -0.074 C 
ATOM      3  C   UNL     1     143.203 148.234 158.861  1.00  0.00    -0.027 C 
ATOM      4  C   UNL     1     143.632 148.766 160.205  1.00  0.00     0.034 C 
ATOM      5  C   UNL     1     143.459 147.690 161.316  1.00  0.00    -0.022 C 
ATOM      6  C   UNL     1     143.740 148.339 162.693  1.00  0.00     0.008 C 
ATOM      7  C   UNL     1     143.452 147.399 163.879  1.00  0.00     0.001 C 
ATOM      8  C   UNL     1     142.012 146.864 163.869  1.00  0.00     0.007 C 
ATOM      9  C   UNL     1     141.584 146.162 162.548  1.00  0.00    -0.029 C 
ATOM     10  C   UNL     1     141.989 147.104 161.334  1.00  0.00    -0.012 C 
ATOM     11  C   UNL     1     141.410 146.843 159.936  1.00  0.00     0.022 C 
ATOM     12  C   UNL     1     140.832 147.979 160.776  1.00  0.00     0.017 C 
ATOM     13  C   UNL     1     140.058 145.882 162.673  1.00  0.00     0.012 C 
ATOM     14  C   UNL     1     142.263 144.774 162.419  1.00  0.00     0.012 C 
ATOM     15  C   UNL     1     144.514 146.578 161.017  1.00  0.00     0.012 C 
ENDROOT
TORSDOF 0
ENDMDL
MODEL 3
REMARK VINA RESULT:    -5.874      3.735      5.293
REMARK INTER + INTRA:          -5.874
REMARK INTER:                  -5.874
REMARK INTRA:                   0.000
REMARK UNBOUND:                 0.000
REMARK SMILES CC1=CC[C@@]2(C)CCCC(C)(C)[C@@]23C[C@@H]13
REMARK SMILES IDX 1 1 2 2 3 3 4 4 5 5 7 6 8 7 9 8 10 9 13 10 15 11 14 12 11 13
REMARK SMILES IDX 12 14 6 15
REMARK H PARENT
REMARK Flexibility Score: inf
ROOT
ATOM      1  C   UNL     1     148.942 143.887 157.348  1.00  0.00     0.039 C 
ATOM      2  C   UNL     1     148.553 143.382 158.708  1.00  0.00    -0.074 C 
ATOM      3  C   UNL     1     147.545 142.490 158.816  1.00  0.00    -0.027 C 
ATOM      4  C   UNL     1     147.109 141.935 160.149  1.00  0.00     0.034 C 
ATOM      5  C   UNL     1     147.258 142.998 161.276  1.00  0.00    -0.022 C 
ATOM      6  C   UNL     1     146.972 142.328 162.641  1.00  0.00     0.008 C 
ATOM      7  C   UNL     1     147.235 143.255 163.842  1.00  0.00     0.001 C 
ATOM      8  C   UNL     1     148.668 143.809 163.853  1.00  0.00     0.007 C 
ATOM      9  C   UNL     1     149.100 144.534 162.546  1.00  0.00    -0.029 C 
ATOM     10  C   UNL     1     148.720 143.603 161.316  1.00  0.00    -0.012 C 
ATOM     11  C   UNL     1     149.309 143.891 159.927  1.00  0.00     0.022 C 
ATOM     12  C   UNL     1     149.893 142.751 160.758  1.00  0.00     0.017 C 
ATOM     13  C   UNL     1     150.621 144.833 162.690  1.00  0.00     0.012 C 
ATOM     14  C   UNL     1     148.404 145.914 162.429  1.00  0.00     0.012 C 
ATOM     15  C   UNL     1     146.191 144.100 160.980  1.00  0.00     0.012 C 
ENDROOT
TORSDOF 0
ENDMDL
MODEL 4
REMARK VINA RESULT:    -5.868      5.403      7.550
REMARK INTER + INTRA:          -5.868
REMARK INTER:                  -5.868
REMARK INTRA:                   0.000
REMARK UNBOUND:                 0.000
REMARK SMILES CC1=CC[C@@]2(C)CCCC(C)(C)[C@@]23C[C@@H]13
REMARK SMILES IDX 1 1 2 2 3 3 4 4 5 5 7 6 8 7 9 8 10 9 13 10 15 11 14 12 11 13
REMARK SMILES IDX 12 14 6 15
REMARK H PARENT
REMARK Flexibility Score: inf
ROOT
ATOM      1  C   UNL     1     146.875 148.935 157.382  1.00  0.00     0.039 C 
ATOM      2  C   UNL     1     147.361 148.556 158.751  1.00  0.00    -0.074 C 
ATOM      3  C   UNL     1     148.244 147.542 158.879  1.00  0.00    -0.027 C 
ATOM      4  C   UNL     1     148.780 147.115 160.222  1.00  0.00     0.034 C 
ATOM      5  C   UNL     1     147.705 147.283 161.336  1.00  0.00    -0.022 C 
ATOM      6  C   UNL     1     148.358 147.005 162.711  1.00  0.00     0.008 C 
ATOM      7  C   UNL     1     147.419 147.288 163.898  1.00  0.00     0.001 C 
ATOM      8  C   UNL     1     146.876 148.725 163.889  1.00  0.00     0.007 C 
ATOM      9  C   UNL     1     146.170 149.149 162.570  1.00  0.00    -0.029 C 
ATOM     10  C   UNL     1     147.111 148.750 161.355  1.00  0.00    -0.012 C 
ATOM     11  C   UNL     1     146.845 149.327 159.957  1.00  0.00     0.022 C 
ATOM     12  C   UNL     1     147.979 149.911 160.795  1.00  0.00     0.017 C 
ATOM     13  C   UNL     1     145.882 150.674 162.695  1.00  0.00     0.012 C 
ATOM     14  C   UNL     1     144.785 148.463 162.443  1.00  0.00     0.012 C 
ATOM     15  C   UNL     1     146.598 146.222 161.038  1.00  0.00     0.012 C 
ENDROOT
TORSDOF 0
ENDMDL
MODEL 5
REMARK VINA RESULT:    -5.846      1.252      4.503
REMARK INTER + INTRA:          -5.846
REMARK INTER:                  -5.846
REMARK INTRA:                   0.000
REMARK UNBOUND:                 0.000
REMARK SMILES CC1=CC[C@@]2(C)CCCC(C)(C)[C@@]23C[C@@H]13
REMARK SMILES IDX 1 1 2 2 3 3 4 4 5 5 7 6 8 7 9 8 10 9 13 10 15 11 14 12 11 13
REMARK SMILES IDX 12 14 6 15
REMARK H PARENT
REMARK Flexibility Score: inf
ROOT
ATOM      1  C   UNL     1     146.440 142.819 164.814  1.00  0.00     0.039 C 
ATOM      2  C   UNL     1     145.532 142.243 163.765  1.00  0.00    -0.074 C 
ATOM      3  C   UNL     1     145.750 140.987 163.322  1.00  0.00    -0.027 C 
ATOM      4  C   UNL     1     144.873 140.345 162.277  1.00  0.00     0.034 C 
ATOM      5  C   UNL     1     144.362 141.396 161.249  1.00  0.00    -0.022 C 
ATOM      6  C   UNL     1     143.329 140.724 160.314  1.00  0.00     0.008 C 
ATOM      7  C   UNL     1     142.647 141.712 159.349  1.00  0.00     0.001 C 
ATOM      8  C   UNL     1     141.964 142.875 160.086  1.00  0.00     0.007 C 
ATOM      9  C   UNL     1     142.887 143.666 161.056  1.00  0.00    -0.029 C 
ATOM     10  C   UNL     1     143.659 142.619 161.968  1.00  0.00    -0.012 C 
ATOM     11  C   UNL     1     144.389 143.095 163.233  1.00  0.00     0.022 C 
ATOM     12  C   UNL     1     143.038 142.398 163.375  1.00  0.00     0.017 C 
ATOM     13  C   UNL     1     141.966 144.651 161.835  1.00  0.00     0.012 C 
ATOM     14  C   UNL     1     143.885 144.551 160.266  1.00  0.00     0.012 C 
ATOM     15  C   UNL     1     145.613 141.853 160.434  1.00  0.00     0.012 C 
ENDROOT
TORSDOF 0
ENDMDL
MODEL 6
REMARK VINA RESULT:    -5.829      3.553      6.045
REMARK INTER + INTRA:          -5.829
REMARK INTER:                  -5.829
REMARK INTRA:                   0.000
REMARK UNBOUND:                 0.000
REMARK SMILES CC1=CC[C@@]2(C)CCCC(C)(C)[C@@]23C[C@@H]13
REMARK SMILES IDX 1 1 2 2 3 3 4 4 5 5 7 6 8 7 9 8 10 9 13 10 15 11 14 12 11 13
REMARK SMILES IDX 12 14 6 15
REMARK H PARENT
REMARK Flexibility Score: inf
ROOT
ATOM      1  C   UNL     1     142.717 144.286 164.815  1.00  0.00     0.039 C 
ATOM      2  C   UNL     1     142.178 145.210 163.761  1.00  0.00    -0.074 C 
ATOM      3  C   UNL     1     140.927 145.018 163.293  1.00  0.00    -0.027 C 
ATOM      4  C   UNL     1     140.321 145.913 162.241  1.00  0.00     0.034 C 
ATOM      5  C   UNL     1     141.400 146.409 161.236  1.00  0.00    -0.022 C 
ATOM      6  C   UNL     1     140.765 147.460 160.294  1.00  0.00     0.008 C 
ATOM      7  C   UNL     1     141.784 148.127 159.352  1.00  0.00     0.001 C 
ATOM      8  C   UNL     1     142.946 148.784 160.113  1.00  0.00     0.007 C 
ATOM      9  C   UNL     1     143.701 147.841 161.093  1.00  0.00    -0.029 C 
ATOM     10  C   UNL     1     142.623 147.084 161.981  1.00  0.00    -0.012 C 
ATOM     11  C   UNL     1     143.061 146.339 163.250  1.00  0.00     0.022 C 
ATOM     12  C   UNL     1     142.387 147.702 163.387  1.00  0.00     0.017 C 
ATOM     13  C   UNL     1     144.689 148.739 161.895  1.00  0.00     0.012 C 
ATOM     14  C   UNL     1     144.581 146.830 160.314  1.00  0.00     0.012 C 
ATOM     15  C   UNL     1     141.849 145.154 160.422  1.00  0.00     0.012 C 
ENDROOT
TORSDOF 0
ENDMDL
MODEL 7
REMARK VINA RESULT:    -5.821      5.439      7.670
REMARK INTER + INTRA:          -5.821
REMARK INTER:                  -5.821
REMARK INTRA:                   0.000
REMARK UNBOUND:                 0.000
REMARK SMILES CC1=CC[C@@]2(C)CCCC(C)(C)[C@@]23C[C@@H]13
REMARK SMILES IDX 1 1 2 2 3 3 4 4 5 5 7 6 8 7 9 8 10 9 13 10 15 11 14 12 11 13
REMARK SMILES IDX 12 14 6 15
REMARK H PARENT
REMARK Flexibility Score: inf
ROOT
ATOM      1  C   UNL     1     144.269 147.977 164.824  1.00  0.00     0.039 C 
ATOM      2  C   UNL     1     145.200 148.519 163.777  1.00  0.00    -0.074 C 
ATOM      3  C   UNL     1     145.015 149.775 163.316  1.00  0.00    -0.027 C 
ATOM      4  C   UNL     1     145.917 150.384 162.273  1.00  0.00     0.034 C 
ATOM      5  C   UNL     1     146.413 149.309 161.263  1.00  0.00    -0.022 C 
ATOM      6  C   UNL     1     147.470 149.946 160.329  1.00  0.00     0.008 C 
ATOM      7  C   UNL     1     148.138 148.931 159.383  1.00  0.00     0.001 C 
ATOM      8  C   UNL     1     148.786 147.761 160.140  1.00  0.00     0.007 C 
ATOM      9  C   UNL     1     147.836 147.003 161.110  1.00  0.00    -0.029 C 
ATOM     10  C   UNL     1     147.080 148.079 162.002  1.00  0.00    -0.012 C 
ATOM     11  C   UNL     1     146.328 147.635 163.265  1.00  0.00     0.022 C 
ATOM     12  C   UNL     1     147.693 148.302 163.412  1.00  0.00     0.017 C 
ATOM     13  C   UNL     1     148.726 146.006 161.909  1.00  0.00     0.012 C 
ATOM     14  C   UNL     1     146.825 146.132 160.321  1.00  0.00     0.012 C 
ATOM     15  C   UNL     1     145.160 148.871 160.440  1.00  0.00     0.012 C 
ENDROOT
TORSDOF 0
ENDMDL
MODEL 8
REMARK VINA RESULT:    -5.696      3.896      6.342
REMARK INTER + INTRA:          -5.696
REMARK INTER:                  -5.696
REMARK INTRA:                   0.000
REMARK UNBOUND:                 0.000
REMARK SMILES CC1=CC[C@@]2(C)CCCC(C)(C)[C@@]23C[C@@H]13
REMARK SMILES IDX 1 1 2 2 3 3 4 4 5 5 7 6 8 7 9 8 10 9 13 10 15 11 14 12 11 13
REMARK SMILES IDX 12 14 6 15
REMARK H PARENT
REMARK Flexibility Score: inf
ROOT
ATOM      1  C   UNL     1     144.247 143.891 163.308  1.00  0.00     0.039 C 
ATOM      2  C   UNL     1     145.717 143.820 163.605  1.00  0.00    -0.074 C 
ATOM      3  C   UNL     1     146.122 143.591 164.873  1.00  0.00    -0.027 C 
ATOM      4  C   UNL     1     147.582 143.498 165.241  1.00  0.00     0.034 C 
ATOM      5  C   UNL     1     148.443 144.458 164.369  1.00  0.00    -0.022 C 
ATOM      6  C   UNL     1     149.940 144.194 164.658  1.00  0.00     0.008 C 
ATOM      7  C   UNL     1     150.887 144.988 163.739  1.00  0.00     0.001 C 
ATOM      8  C   UNL     1     150.617 144.725 162.250  1.00  0.00     0.007 C 
ATOM      9  C   UNL     1     149.148 144.968 161.799  1.00  0.00    -0.029 C 
ATOM     10  C   UNL     1     148.187 144.228 162.824  1.00  0.00    -0.012 C 
ATOM     11  C   UNL     1     146.710 144.007 162.467  1.00  0.00     0.022 C 
ATOM     12  C   UNL     1     147.681 142.836 162.353  1.00  0.00     0.017 C 
ATOM     13  C   UNL     1     149.049 144.459 160.330  1.00  0.00     0.012 C 
ATOM     14  C   UNL     1     148.834 146.485 161.745  1.00  0.00     0.012 C 
ATOM     15  C   UNL     1     148.056 145.907 164.803  1.00  0.00     0.012 C 
ENDROOT
TORSDOF 0
ENDMDL
MODEL 9
REMARK VINA RESULT:    -5.694      1.643      4.172
REMARK INTER + INTRA:          -5.694
REMARK INTER:                  -5.694
REMARK INTRA:                   0.000
REMARK UNBOUND:                 0.000
REMARK SMILES CC1=CC[C@@]2(C)CCCC(C)(C)[C@@]23C[C@@H]13
REMARK SMILES IDX 1 1 2 2 3 3 4 4 5 5 7 6 8 7 9 8 10 9 13 10 15 11 14 12 11 13
REMARK SMILES IDX 12 14 6 15
REMARK H PARENT
REMARK Flexibility Score: inf
ROOT
ATOM      1  C   UNL     1     143.819 146.486 163.332  1.00  0.00     0.039 C 
ATOM      2  C   UNL     1     143.768 145.013 163.621  1.00  0.00    -0.074 C 
ATOM      3  C   UNL     1     143.569 144.597 164.890  1.00  0.00    -0.027 C 
ATOM      4  C   UNL     1     143.498 143.134 165.249  1.00  0.00     0.034 C 
ATOM      5  C   UNL     1     144.448 142.289 164.351  1.00  0.00    -0.022 C 
ATOM      6  C   UNL     1     144.205 140.787 164.635  1.00  0.00     0.008 C 
ATOM      7  C   UNL     1     144.989 139.854 163.694  1.00  0.00     0.001 C 
ATOM      8  C   UNL     1     144.694 140.132 162.212  1.00  0.00     0.007 C 
ATOM      9  C   UNL     1     144.913 141.606 161.767  1.00  0.00    -0.029 C 
ATOM     10  C   UNL     1     144.184 142.552 162.813  1.00  0.00    -0.012 C 
ATOM     11  C   UNL     1     143.943 144.030 162.472  1.00  0.00     0.022 C 
ATOM     12  C   UNL     1     142.778 143.048 162.374  1.00  0.00     0.017 C 
ATOM     13  C   UNL     1     144.374 141.711 160.309  1.00  0.00     0.012 C 
ATOM     14  C   UNL     1     146.426 141.936 161.685  1.00  0.00     0.012 C 
ATOM     15  C   UNL     1     145.902 142.687 164.759  1.00  0.00     0.012 C 
ENDROOT
TORSDOF 0
ENDMDL
