MODEL 1
REMARK VINA RESULT:    -4.285      0.000      0.000
REMARK INTER + INTRA:          -6.713
REMARK INTER:                  -6.289
REMARK INTRA:                  -0.423
REMARK UNBOUND:                -0.423
REMARK SMILES Cc1cc2c(C(C)C)c(O)c(O)c(C=O)c2c(O)c1-c1c(C)cc2c(C(C)C)c(O)c(O)c(C=O)c2c1O
REMARK SMILES IDX 1 1 2 2 3 3 4 4 16 5 13 6 11 7 9 8 5 9 17 10 19 11 20 12
REMARK SMILES IDX 37 13 21 14 36 15 23 16 22 17 24 18 33 19 25 20 31 21 29 22
REMARK SMILES IDX 38 23 34 25 35 26 26 27 27 28 28 29 32 30 30 32 18 34 6 36
REMARK SMILES IDX 7 37 8 38 14 39 15 40 10 41 12 43
REMARK H PARENT 38 24 32 31 30 33 18 35 10 42 12 44
REMARK Flexibility Score: inf
ROOT
ATOM      1  C   UNL     1      43.044  57.682  57.277  1.00  0.00     0.045 C 
ATOM      2  C   UNL     1      43.239  58.678  58.394  1.00  0.00    -0.039 A 
ATOM      3  C   UNL     1      44.345  59.528  58.369  1.00  0.00     0.013 A 
ATOM      4  C   UNL     1      44.599  60.462  59.394  1.00  0.00    -0.006 A 
ATOM      5  C   UNL     1      43.747  60.463  60.542  1.00  0.00     0.039 A 
ATOM      6  C   UNL     1      44.082  61.295  61.652  1.00  0.00     0.072 A 
ATOM      7  C   UNL     1      45.227  62.114  61.597  1.00  0.00     0.169 A 
ATOM      8  C   UNL     1      46.005  62.172  60.437  1.00  0.00     0.162 A 
ATOM      9  C   UNL     1      45.690  61.387  59.306  1.00  0.00     0.008 A 
ATOM     10  C   UNL     1      42.578  59.640  60.535  1.00  0.00     0.132 A 
ATOM     11  C   UNL     1      42.337  58.748  59.468  1.00  0.00     0.031 A 
ENDROOT
BRANCH  11  12
ATOM     12  C   UNL     1      41.140  57.867  59.486  1.00  0.00     0.031 A 
ATOM     13  C   UNL     1      41.172  56.640  60.184  1.00  0.00     0.132 A 
ATOM     14  C   UNL     1      39.987  58.247  58.784  1.00  0.00    -0.039 A 
ATOM     15  C   UNL     1      40.023  55.790  60.212  1.00  0.00     0.039 A 
ATOM     16  C   UNL     1      38.868  57.415  58.794  1.00  0.00     0.013 A 
ATOM     17  C   UNL     1      39.946  59.534  57.995  1.00  0.00     0.045 C 
ATOM     18  C   UNL     1      38.836  56.214  59.538  1.00  0.00    -0.006 A 
ATOM     19  C   UNL     1      40.033  54.516  60.856  1.00  0.00     0.072 A 
ATOM     20  C   UNL     1      37.655  55.410  59.588  1.00  0.00     0.008 A 
ATOM     21  C   UNL     1      38.907  53.671  60.761  1.00  0.00     0.169 A 
ATOM     22  C   UNL     1      37.751  54.100  60.102  1.00  0.00     0.162 A 
BRANCH  13  23
ATOM     23  O   UNL     1      42.351  56.261  60.837  1.00  0.00    -0.507 OA
ATOM     24  H   UNL     1      43.027  56.915  61.212  1.00  0.00     0.293 HD
ENDBRANCH  13  23
BRANCH  19  25
ATOM     25  C   UNL     1      41.201  54.031  61.618  1.00  0.00     0.264 C 
ATOM     26  O   UNL     1      42.215  53.585  61.019  1.00  0.00    -0.298 OA
ENDBRANCH  19  25
BRANCH  20  27
ATOM     27  C   UNL     1      36.299  55.928  59.075  1.00  0.00     0.017 C 
ATOM     28  C   UNL     1      35.482  54.793  58.450  1.00  0.00     0.012 C 
ATOM     29  C   UNL     1      35.479  56.689  60.135  1.00  0.00     0.012 C 
ENDBRANCH  20  27
BRANCH  21  30
ATOM     30  O   UNL     1      38.894  52.399  61.344  1.00  0.00    -0.504 OA
ATOM     31  H   UNL     1      38.076  51.969  61.754  1.00  0.00     0.293 HD
ENDBRANCH  21  30
BRANCH  22  32
ATOM     32  O   UNL     1      36.681  53.214  59.957  1.00  0.00    -0.504 OA
ATOM     33  H   UNL     1      36.747  52.347  59.437  1.00  0.00     0.293 HD
ENDBRANCH  22  32
ENDBRANCH  11  12
BRANCH  10  34
ATOM     34  O   UNL     1      41.645  59.723  61.574  1.00  0.00    -0.507 OA
ATOM     35  H   UNL     1      41.447  60.570  62.092  1.00  0.00     0.293 HD
ENDBRANCH  10  34
BRANCH   9  36
ATOM     36  C   UNL     1      46.555  61.583  58.044  1.00  0.00     0.017 C 
ATOM     37  C   UNL     1      46.916  60.250  57.375  1.00  0.00     0.012 C 
ATOM     38  C   UNL     1      46.006  62.631  57.053  1.00  0.00     0.012 C 
ENDBRANCH   9  36
BRANCH   6  39
ATOM     39  C   UNL     1      43.303  61.276  62.908  1.00  0.00     0.264 C 
ATOM     40  O   UNL     1      43.663  60.552  63.872  1.00  0.00    -0.298 OA
ENDBRANCH   6  39
BRANCH   8  41
ATOM     41  O   UNL     1      47.125  63.011  60.411  1.00  0.00    -0.504 OA
ATOM     42  H   UNL     1      47.635  63.279  61.243  1.00  0.00     0.293 HD
ENDBRANCH   8  41
BRANCH   7  43
ATOM     43  O   UNL     1      45.636  62.875  62.698  1.00  0.00    -0.504 OA
ATOM     44  H   UNL     1      45.209  63.749  62.975  1.00  0.00     0.293 HD
ENDBRANCH   7  43
TORSDOF 11
ENDMDL
MODEL 2
REMARK VINA RESULT:    -3.184      1.036      9.000
REMARK INTER + INTRA:          -5.097
REMARK INTER:                  -4.834
REMARK INTRA:                  -0.262
REMARK UNBOUND:                -0.423
REMARK SMILES Cc1cc2c(C(C)C)c(O)c(O)c(C=O)c2c(O)c1-c1c(C)cc2c(C(C)C)c(O)c(O)c(C=O)c2c1O
REMARK SMILES IDX 1 1 2 2 3 3 4 4 16 5 13 6 11 7 9 8 5 9 17 10 19 11 20 12
REMARK SMILES IDX 37 13 21 14 36 15 23 16 22 17 24 18 33 19 25 20 31 21 29 22
REMARK SMILES IDX 38 23 34 25 35 26 26 27 27 28 28 29 32 30 30 32 18 34 6 36
REMARK SMILES IDX 7 37 8 38 14 39 15 40 10 41 12 43
REMARK H PARENT 38 24 32 31 30 33 18 35 10 42 12 44
REMARK Flexibility Score: inf
ROOT
ATOM      1  C   UNL     1      39.721  59.180  58.227  1.00  0.00     0.045 C 
ATOM      2  C   UNL     1      39.673  57.805  58.847  1.00  0.00    -0.039 A 
ATOM      3  C   UNL     1      38.481  57.079  58.813  1.00  0.00     0.013 A 
ATOM      4  C   UNL     1      38.362  55.801  59.395  1.00  0.00    -0.006 A 
ATOM      5  C   UNL     1      39.472  55.281  60.130  1.00  0.00     0.039 A 
ATOM      6  C   UNL     1      39.314  54.060  60.852  1.00  0.00     0.072 A 
ATOM      7  C   UNL     1      38.082  53.377  60.816  1.00  0.00     0.169 A 
ATOM      8  C   UNL     1      37.031  53.847  60.025  1.00  0.00     0.162 A 
ATOM      9  C   UNL     1      37.158  55.036  59.271  1.00  0.00     0.008 A 
ATOM     10  C   UNL     1      40.711  55.995  60.107  1.00  0.00     0.132 A 
ATOM     11  C   UNL     1      40.800  57.253  59.474  1.00  0.00     0.031 A 
ENDROOT
BRANCH  11  12
ATOM     12  C   UNL     1      42.081  58.007  59.489  1.00  0.00     0.031 A 
ATOM     13  C   UNL     1      42.365  58.906  60.540  1.00  0.00     0.132 A 
ATOM     14  C   UNL     1      42.996  57.842  58.438  1.00  0.00    -0.039 A 
ATOM     15  C   UNL     1      43.597  59.630  60.563  1.00  0.00     0.039 A 
ATOM     16  C   UNL     1      44.193  58.557  58.448  1.00  0.00     0.013 A 
ATOM     17  C   UNL     1      42.693  56.918  57.282  1.00  0.00     0.045 C 
ATOM     18  C   UNL     1      44.545  59.412  59.516  1.00  0.00    -0.006 A 
ATOM     19  C   UNL     1      43.898  60.591  61.576  1.00  0.00     0.072 A 
ATOM     20  C   UNL     1      45.807  60.084  59.537  1.00  0.00     0.008 A 
ATOM     21  C   UNL     1      45.080  61.355  61.492  1.00  0.00     0.169 A 
ATOM     22  C   UNL     1      46.000  61.129  60.464  1.00  0.00     0.162 A 
BRANCH  13  23
ATOM     23  O   UNL     1      41.414  59.089  61.551  1.00  0.00    -0.507 OA
ATOM     24  H   UNL     1      40.445  58.806  61.477  1.00  0.00     0.293 HD
ENDBRANCH  13  23
BRANCH  19  25
ATOM     25  C   UNL     1      42.995  60.833  62.719  1.00  0.00     0.264 C 
ATOM     26  O   UNL     1      42.192  61.803  62.706  1.00  0.00    -0.298 OA
ENDBRANCH  19  25
BRANCH  20  27
ATOM     27  C   UNL     1      46.940  59.712  58.562  1.00  0.00     0.017 C 
ATOM     28  C   UNL     1      47.125  58.193  58.496  1.00  0.00     0.012 C 
ATOM     29  C   UNL     1      46.778  60.318  57.155  1.00  0.00     0.012 C 
ENDBRANCH  20  27
BRANCH  21  30
ATOM     30  O   UNL     1      45.389  62.335  62.443  1.00  0.00    -0.504 OA
ATOM     31  H   UNL     1      45.777  63.241  62.220  1.00  0.00     0.293 HD
ENDBRANCH  21  30
BRANCH  22  32
ATOM     32  O   UNL     1      47.125  61.952  60.362  1.00  0.00    -0.504 OA
ATOM     33  H   UNL     1      47.431  62.564  61.108  1.00  0.00     0.293 HD
ENDBRANCH  22  32
ENDBRANCH  11  12
BRANCH  10  34
ATOM     34  O   UNL     1      41.858  55.445  60.691  1.00  0.00    -0.507 OA
ATOM     35  H   UNL     1      41.884  54.543  61.148  1.00  0.00     0.293 HD
ENDBRANCH  10  34
BRANCH   9  36
ATOM     36  C   UNL     1      35.975  55.428  58.361  1.00  0.00     0.017 C 
ATOM     37  C   UNL     1      35.132  54.213  57.950  1.00  0.00     0.012 C 
ATOM     38  C   UNL     1      35.129  56.605  58.888  1.00  0.00     0.012 C 
ENDBRANCH   9  36
BRANCH   6  39
ATOM     39  C   UNL     1      40.385  53.513  61.710  1.00  0.00     0.264 C 
ATOM     40  O   UNL     1      40.107  52.973  62.813  1.00  0.00    -0.298 OA
ENDBRANCH   6  39
BRANCH   8  41
ATOM     41  O   UNL     1      35.827  53.133  59.998  1.00  0.00    -0.504 OA
ATOM     42  H   UNL     1      35.043  53.392  59.413  1.00  0.00     0.293 HD
ENDBRANCH   8  41
BRANCH   7  43
ATOM     43  O   UNL     1      37.861  52.226  61.581  1.00  0.00    -0.504 OA
ATOM     44  H   UNL     1      36.963  51.769  61.673  1.00  0.00     0.293 HD
ENDBRANCH   7  43
TORSDOF 11
ENDMDL
MODEL 3
REMARK VINA RESULT:    -2.047      1.572      9.060
REMARK INTER + INTRA:          -3.427
REMARK INTER:                  -4.909
REMARK INTRA:                   1.482
REMARK UNBOUND:                -0.423
REMARK SMILES Cc1cc2c(C(C)C)c(O)c(O)c(C=O)c2c(O)c1-c1c(C)cc2c(C(C)C)c(O)c(O)c(C=O)c2c1O
REMARK SMILES IDX 1 1 2 2 3 3 4 4 16 5 13 6 11 7 9 8 5 9 17 10 19 11 20 12
REMARK SMILES IDX 37 13 21 14 36 15 23 16 22 17 24 18 33 19 25 20 31 21 29 22
REMARK SMILES IDX 38 23 34 25 35 26 26 27 27 28 28 29 32 30 30 32 18 34 6 36
REMARK SMILES IDX 7 37 8 38 14 39 15 40 10 41 12 43
REMARK H PARENT 38 24 32 31 30 33 18 35 10 42 12 44
REMARK Flexibility Score: inf
ROOT
ATOM      1  C   UNL     1      43.128  55.471  61.000  1.00  0.00     0.045 C 
ATOM      2  C   UNL     1      41.759  55.878  60.512  1.00  0.00    -0.039 A 
ATOM      3  C   UNL     1      40.678  55.018  60.708  1.00  0.00     0.013 A 
ATOM      4  C   UNL     1      39.380  55.326  60.253  1.00  0.00    -0.006 A 
ATOM      5  C   UNL     1      39.192  56.513  59.478  1.00  0.00     0.039 A 
ATOM      6  C   UNL     1      37.919  56.758  58.884  1.00  0.00     0.072 A 
ATOM      7  C   UNL     1      36.863  55.845  59.081  1.00  0.00     0.169 A 
ATOM      8  C   UNL     1      37.031  54.734  59.911  1.00  0.00     0.162 A 
ATOM      9  C   UNL     1      38.267  54.472  60.543  1.00  0.00     0.008 A 
ATOM     10  C   UNL     1      40.285  57.424  59.337  1.00  0.00     0.132 A 
ATOM     11  C   UNL     1      41.560  57.097  59.845  1.00  0.00     0.031 A 
ENDROOT
BRANCH  11  12
ATOM     12  C   UNL     1      42.701  58.032  59.659  1.00  0.00     0.031 A 
ATOM     13  C   UNL     1      42.930  59.067  60.591  1.00  0.00     0.132 A 
ATOM     14  C   UNL     1      43.534  57.897  58.538  1.00  0.00    -0.039 A 
ATOM     15  C   UNL     1      44.029  59.967  60.422  1.00  0.00     0.039 A 
ATOM     16  C   UNL     1      44.598  58.781  58.360  1.00  0.00     0.013 A 
ATOM     17  C   UNL     1      43.281  56.823  57.507  1.00  0.00     0.045 C 
ATOM     18  C   UNL     1      44.903  59.785  59.306  1.00  0.00    -0.006 A 
ATOM     19  C   UNL     1      44.261  61.062  61.308  1.00  0.00     0.072 A 
ATOM     20  C   UNL     1      46.038  60.637  59.135  1.00  0.00     0.008 A 
ATOM     21  C   UNL     1      45.295  61.981  61.034  1.00  0.00     0.169 A 
ATOM     22  C   UNL     1      46.144  61.790  59.940  1.00  0.00     0.162 A 
BRANCH  13  23
ATOM     23  O   UNL     1      42.056  59.210  61.675  1.00  0.00    -0.507 OA
ATOM     24  H   UNL     1      41.048  59.165  61.600  1.00  0.00     0.293 HD
ENDBRANCH  13  23
BRANCH  19  25
ATOM     25  C   UNL     1      43.437  61.284  62.513  1.00  0.00     0.264 C 
ATOM     26  O   UNL     1      43.908  61.066  63.661  1.00  0.00    -0.298 OA
ENDBRANCH  19  25
BRANCH  20  27
ATOM     27  C   UNL     1      47.125  60.340  58.085  1.00  0.00     0.017 C 
ATOM     28  C   UNL     1      47.125  58.856  57.705  1.00  0.00     0.012 C 
ATOM     29  C   UNL     1      47.049  61.237  56.835  1.00  0.00     0.012 C 
ENDBRANCH  20  27
BRANCH  21  30
ATOM     30  O   UNL     1      45.527  63.090  61.856  1.00  0.00    -0.504 OA
ATOM     31  H   UNL     1      46.065  63.062  62.712  1.00  0.00     0.293 HD
ENDBRANCH  21  30
BRANCH  22  32
ATOM     32  O   UNL     1      47.109  62.757  59.649  1.00  0.00    -0.504 OA
ATOM     33  H   UNL     1      47.714  63.164  60.352  1.00  0.00     0.293 HD
ENDBRANCH  22  32
ENDBRANCH  11  12
BRANCH  10  34
ATOM     34  O   UNL     1      40.100  58.662  58.712  1.00  0.00    -0.507 OA
ATOM     35  H   UNL     1      39.249  58.936  58.238  1.00  0.00     0.293 HD
ENDBRANCH  10  34
BRANCH   9  36
ATOM     36  C   UNL     1      38.329  53.270  61.508  1.00  0.00     0.017 C 
ATOM     37  C   UNL     1      37.510  52.076  61.002  1.00  0.00     0.012 C 
ATOM     38  C   UNL     1      39.756  52.884  61.953  1.00  0.00     0.012 C 
ENDBRANCH   9  36
BRANCH   6  39
ATOM     39  C   UNL     1      37.680  57.912  57.993  1.00  0.00     0.264 C 
ATOM     40  O   UNL     1      38.378  58.076  56.958  1.00  0.00    -0.298 OA
ENDBRANCH   6  39
BRANCH   8  41
ATOM     41  O   UNL     1      35.955  53.858  60.100  1.00  0.00    -0.504 OA
ATOM     42  H   UNL     1      35.229  54.015  60.787  1.00  0.00     0.293 HD
ENDBRANCH   8  41
BRANCH   7  43
ATOM     43  O   UNL     1      35.628  56.005  58.442  1.00  0.00    -0.504 OA
ATOM     44  H   UNL     1      35.343  55.490  57.620  1.00  0.00     0.293 HD
ENDBRANCH   7  43
TORSDOF 11
ENDMDL
