MODEL 1
REMARK VINA RESULT:    -3.372      0.000      0.000
REMARK INTER + INTRA:          -5.141
REMARK INTER:                  -4.752
REMARK INTRA:                  -0.389
REMARK UNBOUND:                -0.389
REMARK SMILES CCCCCCCCC(=O)[O-]
REMARK SMILES IDX 6 1 7 2 8 3 9 4 10 5 11 6 5 7 4 8 3 9 2 10 1 11
REMARK H PARENT
REMARK Flexibility Score: inf
ROOT
ATOM      1  C   UNL     1     -18.069  22.509  42.452  1.00  0.00     0.000 C 
ENDROOT
BRANCH   1   2
ATOM      2  C   UNL     1     -17.799  24.021  42.350  1.00  0.00     0.006 C 
BRANCH   2   3
ATOM      3  C   UNL     1     -19.098  24.836  42.270  1.00  0.00     0.053 C 
BRANCH   3   4
ATOM      4  C   UNL     1     -19.717  25.033  43.620  1.00  0.00     0.041 C 
ATOM      5  O   UNL     1     -20.958  25.207  43.728  1.00  0.00    -0.550 OA
ATOM      6  O   UNL     1     -18.926  24.992  44.762  1.00  0.00    -0.550 OA
ENDBRANCH   3   4
ENDBRANCH   2   3
ENDBRANCH   1   2
BRANCH   1   7
ATOM      7  C   UNL     1     -17.018  21.782  43.313  1.00  0.00     0.000 C 
BRANCH   7   8
ATOM      8  C   UNL     1     -17.619  20.698  44.229  1.00  0.00    -0.000 C 
BRANCH   8   9
ATOM      9  C   UNL     1     -18.755  21.227  45.133  1.00  0.00    -0.000 C 
BRANCH   9  10
ATOM     10  C   UNL     1     -19.456  20.124  45.943  1.00  0.00    -0.003 C 
ATOM     11  C   UNL     1     -18.666  18.818  45.976  1.00  0.00     0.004 C 
ENDBRANCH   9  10
ENDBRANCH   8   9
ENDBRANCH   7   8
ENDBRANCH   1   7
TORSDOF 7
ENDMDL
MODEL 2
REMARK VINA RESULT:    -3.339      1.844      3.028
REMARK INTER + INTRA:          -5.094
REMARK INTER:                  -4.478
REMARK INTRA:                  -0.616
REMARK UNBOUND:                -0.389
REMARK SMILES CCCCCCCCC(=O)[O-]
REMARK SMILES IDX 6 1 7 2 8 3 9 4 10 5 11 6 5 7 4 8 3 9 2 10 1 11
REMARK H PARENT
REMARK Flexibility Score: inf
ROOT
ATOM      1  C   UNL     1     -16.924  21.294  44.691  1.00  0.00     0.000 C 
ENDROOT
BRANCH   1   2
ATOM      2  C   UNL     1     -16.642  21.755  43.250  1.00  0.00     0.006 C 
BRANCH   2   3
ATOM      3  C   UNL     1     -17.901  22.298  42.559  1.00  0.00     0.053 C 
BRANCH   3   4
ATOM      4  C   UNL     1     -17.887  23.794  42.472  1.00  0.00     0.041 C 
ATOM      5  O   UNL     1     -16.803  24.424  42.575  1.00  0.00    -0.550 OA
ATOM      6  O   UNL     1     -19.068  24.489  42.243  1.00  0.00    -0.550 OA
ENDBRANCH   3   4
ENDBRANCH   2   3
ENDBRANCH   1   2
BRANCH   1   7
ATOM      7  C   UNL     1     -18.041  20.235  44.762  1.00  0.00     0.000 C 
BRANCH   7   8
ATOM      8  C   UNL     1     -19.224  20.649  45.659  1.00  0.00    -0.000 C 
BRANCH   8   9
ATOM      9  C   UNL     1     -19.168  22.131  46.093  1.00  0.00    -0.000 C 
BRANCH   9  10
ATOM     10  C   UNL     1     -20.264  22.998  45.452  1.00  0.00    -0.003 C 
ATOM     11  C   UNL     1     -21.637  22.782  46.084  1.00  0.00     0.004 C 
ENDBRANCH   9  10
ENDBRANCH   8   9
ENDBRANCH   7   8
ENDBRANCH   1   7
TORSDOF 7
ENDMDL
MODEL 3
REMARK VINA RESULT:    -3.283      1.203      1.691
REMARK INTER + INTRA:          -5.015
REMARK INTER:                  -4.653
REMARK INTRA:                  -0.362
REMARK UNBOUND:                -0.389
REMARK SMILES CCCCCCCCC(=O)[O-]
REMARK SMILES IDX 6 1 7 2 8 3 9 4 10 5 11 6 5 7 4 8 3 9 2 10 1 11
REMARK H PARENT
REMARK Flexibility Score: inf
ROOT
ATOM      1  C   UNL     1     -17.706  23.889  42.564  1.00  0.00     0.000 C 
ENDROOT
BRANCH   1   2
ATOM      2  C   UNL     1     -18.974  24.739  42.367  1.00  0.00     0.006 C 
BRANCH   2   3
ATOM      3  C   UNL     1     -19.669  25.058  43.698  1.00  0.00     0.053 C 
BRANCH   3   4
ATOM      4  C   UNL     1     -20.895  25.897  43.500  1.00  0.00     0.041 C 
ATOM      5  O   UNL     1     -22.034  25.420  43.741  1.00  0.00    -0.550 OA
ATOM      6  O   UNL     1     -20.776  27.216  43.079  1.00  0.00    -0.550 OA
ENDBRANCH   3   4
ENDBRANCH   2   3
ENDBRANCH   1   2
BRANCH   1   7
ATOM      7  C   UNL     1     -18.013  22.381  42.620  1.00  0.00     0.000 C 
BRANCH   7   8
ATOM      8  C   UNL     1     -17.048  21.591  43.526  1.00  0.00    -0.000 C 
BRANCH   8   9
ATOM      9  C   UNL     1     -17.772  20.630  44.494  1.00  0.00    -0.000 C 
BRANCH   9  10
ATOM     10  C   UNL     1     -18.941  21.286  45.247  1.00  0.00    -0.003 C 
ATOM     11  C   UNL     1     -19.607  20.343  46.248  1.00  0.00     0.004 C 
ENDBRANCH   9  10
ENDBRANCH   8   9
ENDBRANCH   7   8
ENDBRANCH   1   7
TORSDOF 7
ENDMDL
MODEL 4
REMARK VINA RESULT:    -3.272      2.089      3.401
REMARK INTER + INTRA:          -4.999
REMARK INTER:                  -4.301
REMARK INTRA:                  -0.698
REMARK UNBOUND:                -0.389
REMARK SMILES CCCCCCCCC(=O)[O-]
REMARK SMILES IDX 6 1 7 2 8 3 9 4 10 5 11 6 5 7 4 8 3 9 2 10 1 11
REMARK H PARENT
REMARK Flexibility Score: inf
ROOT
ATOM      1  C   UNL     1     -18.851  21.200  45.080  1.00  0.00     0.000 C 
ENDROOT
BRANCH   1   2
ATOM      2  C   UNL     1     -18.722  22.569  44.389  1.00  0.00     0.006 C 
BRANCH   2   3
ATOM      3  C   UNL     1     -18.103  22.455  42.989  1.00  0.00     0.053 C 
BRANCH   3   4
ATOM      4  C   UNL     1     -17.715  23.794  42.440  1.00  0.00     0.041 C 
ATOM      5  O   UNL     1     -18.598  24.581  42.009  1.00  0.00    -0.550 OA
ATOM      6  O   UNL     1     -16.382  24.185  42.434  1.00  0.00    -0.550 OA
ENDBRANCH   3   4
ENDBRANCH   2   3
ENDBRANCH   1   2
BRANCH   1   7
ATOM      7  C   UNL     1     -17.747  20.217  44.646  1.00  0.00     0.000 C 
BRANCH   7   8
ATOM      8  C   UNL     1     -16.796  19.816  45.791  1.00  0.00    -0.000 C 
BRANCH   8   9
ATOM      9  C   UNL     1     -15.317  20.149  45.496  1.00  0.00    -0.000 C 
BRANCH   9  10
ATOM     10  C   UNL     1     -15.107  21.568  44.943  1.00  0.00    -0.003 C 
ATOM     11  C   UNL     1     -14.394  21.579  43.592  1.00  0.00     0.004 C 
ENDBRANCH   9  10
ENDBRANCH   8   9
ENDBRANCH   7   8
ENDBRANCH   1   7
TORSDOF 7
ENDMDL
MODEL 5
REMARK VINA RESULT:    -3.231      2.419      2.798
REMARK INTER + INTRA:          -4.942
REMARK INTER:                  -4.506
REMARK INTRA:                  -0.437
REMARK UNBOUND:                -0.389
REMARK SMILES CCCCCCCCC(=O)[O-]
REMARK SMILES IDX 6 1 7 2 8 3 9 4 10 5 11 6 5 7 4 8 3 9 2 10 1 11
REMARK H PARENT
REMARK Flexibility Score: inf
ROOT
ATOM      1  C   UNL     1     -18.036  22.454  42.535  1.00  0.00     0.000 C 
ENDROOT
BRANCH   1   2
ATOM      2  C   UNL     1     -17.680  23.942  42.364  1.00  0.00     0.006 C 
BRANCH   2   3
ATOM      3  C   UNL     1     -16.735  24.441  43.466  1.00  0.00     0.053 C 
BRANCH   3   4
ATOM      4  C   UNL     1     -15.477  25.026  42.900  1.00  0.00     0.041 C 
ATOM      5  O   UNL     1     -14.771  24.356  42.102  1.00  0.00    -0.550 OA
ATOM      6  O   UNL     1     -15.103  26.323  43.228  1.00  0.00    -0.550 OA
ENDBRANCH   3   4
ENDBRANCH   2   3
ENDBRANCH   1   2
BRANCH   1   7
ATOM      7  C   UNL     1     -16.992  21.693  43.375  1.00  0.00     0.000 C 
BRANCH   7   8
ATOM      8  C   UNL     1     -17.611  20.648  44.323  1.00  0.00    -0.000 C 
BRANCH   8   9
ATOM      9  C   UNL     1     -18.833  21.183  45.103  1.00  0.00    -0.000 C 
BRANCH   9  10
ATOM     10  C   UNL     1     -19.451  20.147  46.057  1.00  0.00    -0.003 C 
ATOM     11  C   UNL     1     -18.756  18.788  45.989  1.00  0.00     0.004 C 
ENDBRANCH   9  10
ENDBRANCH   8   9
ENDBRANCH   7   8
ENDBRANCH   1   7
TORSDOF 7
ENDMDL
MODEL 6
REMARK VINA RESULT:    -3.155      1.933      3.363
REMARK INTER + INTRA:          -4.835
REMARK INTER:                  -4.189
REMARK INTRA:                  -0.645
REMARK UNBOUND:                -0.389
REMARK SMILES CCCCCCCCC(=O)[O-]
REMARK SMILES IDX 6 1 7 2 8 3 9 4 10 5 11 6 5 7 4 8 3 9 2 10 1 11
REMARK H PARENT
REMARK Flexibility Score: inf
ROOT
ATOM      1  C   UNL     1     -17.641  21.786  42.906  1.00  0.00     0.000 C 
ENDROOT
BRANCH   1   2
ATOM      2  C   UNL     1     -18.378  23.073  43.315  1.00  0.00     0.006 C 
BRANCH   2   3
ATOM      3  C   UNL     1     -18.183  24.202  42.292  1.00  0.00     0.053 C 
BRANCH   3   4
ATOM      4  C   UNL     1     -19.210  25.281  42.450  1.00  0.00     0.041 C 
ATOM      5  O   UNL     1     -20.138  25.154  43.291  1.00  0.00    -0.550 OA
ATOM      6  O   UNL     1     -19.124  26.441  41.690  1.00  0.00    -0.550 OA
ENDBRANCH   3   4
ENDBRANCH   2   3
ENDBRANCH   1   2
BRANCH   1   7
ATOM      7  C   UNL     1     -17.272  20.910  44.118  1.00  0.00     0.000 C 
BRANCH   7   8
ATOM      8  C   UNL     1     -15.794  21.035  44.538  1.00  0.00    -0.000 C 
BRANCH   8   9
ATOM      9  C   UNL     1     -14.910  21.698  43.459  1.00  0.00    -0.000 C 
BRANCH   9  10
ATOM     10  C   UNL     1     -14.095  22.892  43.985  1.00  0.00    -0.003 C 
ATOM     11  C   UNL     1     -14.974  24.027  44.506  1.00  0.00     0.004 C 
ENDBRANCH   9  10
ENDBRANCH   8   9
ENDBRANCH   7   8
ENDBRANCH   1   7
TORSDOF 7
ENDMDL
MODEL 7
REMARK VINA RESULT:    -3.141      1.783      2.961
REMARK INTER + INTRA:          -4.815
REMARK INTER:                  -4.387
REMARK INTRA:                  -0.429
REMARK UNBOUND:                -0.389
REMARK SMILES CCCCCCCCC(=O)[O-]
REMARK SMILES IDX 6 1 7 2 8 3 9 4 10 5 11 6 5 7 4 8 3 9 2 10 1 11
REMARK H PARENT
REMARK Flexibility Score: inf
ROOT
ATOM      1  C   UNL     1     -21.035  23.929  45.417  1.00  0.00     0.000 C 
ENDROOT
BRANCH   1   2
ATOM      2  C   UNL     1     -19.817  24.459  44.641  1.00  0.00     0.006 C 
BRANCH   2   3
ATOM      3  C   UNL     1     -20.224  25.384  43.485  1.00  0.00     0.053 C 
BRANCH   3   4
ATOM      4  C   UNL     1     -19.220  25.364  42.374  1.00  0.00     0.041 C 
ATOM      5  O   UNL     1     -19.019  26.397  41.684  1.00  0.00    -0.550 OA
ATOM      6  O   UNL     1     -18.483  24.214  42.122  1.00  0.00    -0.550 OA
ENDBRANCH   3   4
ENDBRANCH   2   3
ENDBRANCH   1   2
BRANCH   1   7
ATOM      7  C   UNL     1     -20.845  22.474  45.887  1.00  0.00     0.000 C 
BRANCH   7   8
ATOM      8  C   UNL     1     -19.374  22.013  45.876  1.00  0.00    -0.000 C 
BRANCH   8   9
ATOM      9  C   UNL     1     -19.216  20.491  45.663  1.00  0.00    -0.000 C 
BRANCH   9  10
ATOM     10  C   UNL     1     -17.994  20.117  44.808  1.00  0.00    -0.003 C 
ATOM     11  C   UNL     1     -17.607  21.210  43.815  1.00  0.00     0.004 C 
ENDBRANCH   9  10
ENDBRANCH   8   9
ENDBRANCH   7   8
ENDBRANCH   1   7
TORSDOF 7
ENDMDL
MODEL 8
REMARK VINA RESULT:    -3.127      3.515      4.638
REMARK INTER + INTRA:          -4.795
REMARK INTER:                  -4.133
REMARK INTRA:                  -0.662
REMARK UNBOUND:                -0.389
REMARK SMILES CCCCCCCCC(=O)[O-]
REMARK SMILES IDX 6 1 7 2 8 3 9 4 10 5 11 6 5 7 4 8 3 9 2 10 1 11
REMARK H PARENT
REMARK Flexibility Score: inf
ROOT
ATOM      1  C   UNL     1     -16.045  23.797  43.954  1.00  0.00     0.000 C 
ENDROOT
BRANCH   1   2
ATOM      2  C   UNL     1     -15.102  22.628  44.291  1.00  0.00     0.006 C 
BRANCH   2   3
ATOM      3  C   UNL     1     -14.334  22.130  43.059  1.00  0.00     0.053 C 
BRANCH   3   4
ATOM      4  C   UNL     1     -13.267  23.094  42.639  1.00  0.00     0.041 C 
ATOM      5  O   UNL     1     -12.333  23.387  43.429  1.00  0.00    -0.550 OA
ATOM      6  O   UNL     1     -13.288  23.644  41.364  1.00  0.00    -0.550 OA
ENDBRANCH   3   4
ENDBRANCH   2   3
ENDBRANCH   1   2
BRANCH   1   7
ATOM      7  C   UNL     1     -16.971  23.481  42.764  1.00  0.00     0.000 C 
BRANCH   7   8
ATOM      8  C   UNL     1     -17.983  22.356  43.055  1.00  0.00    -0.000 C 
BRANCH   8   9
ATOM      9  C   UNL     1     -18.730  22.542  44.394  1.00  0.00    -0.000 C 
BRANCH   9  10
ATOM     10  C   UNL     1     -18.880  21.239  45.197  1.00  0.00    -0.003 C 
ATOM     11  C   UNL     1     -17.868  20.170  44.789  1.00  0.00     0.004 C 
ENDBRANCH   9  10
ENDBRANCH   8   9
ENDBRANCH   7   8
ENDBRANCH   1   7
TORSDOF 7
ENDMDL
MODEL 9
REMARK VINA RESULT:    -3.102      2.386      4.779
REMARK INTER + INTRA:          -4.760
REMARK INTER:                  -4.074
REMARK INTRA:                  -0.686
REMARK UNBOUND:                -0.389
REMARK SMILES CCCCCCCCC(=O)[O-]
REMARK SMILES IDX 6 1 7 2 8 3 9 4 10 5 11 6 5 7 4 8 3 9 2 10 1 11
REMARK H PARENT
REMARK Flexibility Score: inf
ROOT
ATOM      1  C   UNL     1     -18.605  22.490  45.322  1.00  0.00     0.000 C 
ENDROOT
BRANCH   1   2
ATOM      2  C   UNL     1     -18.230  21.302  44.418  1.00  0.00     0.006 C 
BRANCH   2   3
ATOM      3  C   UNL     1     -17.597  21.758  43.096  1.00  0.00     0.053 C 
BRANCH   3   4
ATOM      4  C   UNL     1     -16.196  22.252  43.289  1.00  0.00     0.041 C 
ATOM      5  O   UNL     1     -15.929  23.473  43.141  1.00  0.00    -0.550 OA
ATOM      6  O   UNL     1     -15.192  21.369  43.666  1.00  0.00    -0.550 OA
ENDBRANCH   3   4
ENDBRANCH   2   3
ENDBRANCH   1   2
BRANCH   1   7
ATOM      7  C   UNL     1     -20.127  22.611  45.531  1.00  0.00     0.000 C 
BRANCH   7   8
ATOM      8  C   UNL     1     -20.688  24.000  45.173  1.00  0.00    -0.000 C 
BRANCH   8   9
ATOM      9  C   UNL     1     -19.613  24.966  44.625  1.00  0.00    -0.000 C 
BRANCH   9  10
ATOM     10  C   UNL     1     -19.941  25.519  43.228  1.00  0.00    -0.003 C 
ATOM     11  C   UNL     1     -18.985  25.013  42.150  1.00  0.00     0.004 C 
ENDBRANCH   9  10
ENDBRANCH   8   9
ENDBRANCH   7   8
ENDBRANCH   1   7
TORSDOF 7
ENDMDL
