MODEL 1
REMARK VINA RESULT:    -6.778      0.000      0.000
REMARK INTER + INTRA:         -14.956
REMARK INTER:                 -11.732
REMARK INTRA:                  -3.224
REMARK UNBOUND:                -3.224
REMARK SMILES OC[C@@H]1O[C@H](O[C@H]2[C@H](O)[C@H](O)[C@H](O[C@@H]3[C@@H](O)[C@H](O)[C@@H](O)O[C@@H]3CO)O[C@H]2CO)[C@@H](O)[C@@H](O)[C@@H]1O
REMARK SMILES IDX 7 1 26 2 25 3 12 4 10 5 8 6 6 7 5 8 3 9 33 10 4 11 31 12
REMARK SMILES IDX 29 13 2 14 1 15 34 17 32 19 30 21 27 23 28 24 9 26 11 28
REMARK SMILES IDX 13 30 14 31 22 32 15 33 21 34 17 35 19 36 23 37 24 38 16 40
REMARK SMILES IDX 18 42 20 44
REMARK H PARENT 1 16 34 18 32 20 30 22 28 25 9 27 11 29 24 39 16 41 18 43
REMARK H PARENT 20 45
REMARK Flexibility Score: inf
ROOT
ATOM      1  C   UNL     1      22.820   8.656  42.213  1.00  0.00     0.184 C 
ATOM      2  C   UNL     1      23.148   7.535  41.045  1.00  0.00     0.178 C 
ATOM      3  O   UNL     1      24.566   7.304  40.757  1.00  0.00    -0.341 OA
ATOM      4  C   UNL     1      25.218   6.931  41.961  1.00  0.00     0.282 C 
ATOM      5  C   UNL     1      25.212   8.143  42.912  1.00  0.00     0.202 C 
ATOM      6  C   UNL     1      24.222   9.283  42.431  1.00  0.00     0.180 C 
ENDROOT
BRANCH   1   7
ATOM      7  O   UNL     1      22.341   8.135  43.485  1.00  0.00    -0.341 OA
BRANCH   7   8
ATOM      8  C   UNL     1      21.296   8.752  44.423  1.00  0.00     0.282 C 
ATOM      9  C   UNL     1      22.401   7.455  46.084  1.00  0.00     0.178 C 
ATOM     10  C   UNL     1      23.319   8.863  46.447  1.00  0.00     0.177 C 
ATOM     11  O   UNL     1      21.120   7.722  45.469  1.00  0.00    -0.341 OA
ATOM     12  C   UNL     1      22.172   9.770  46.924  1.00  0.00     0.179 C 
ATOM     13  C   UNL     1      21.399  10.027  45.534  1.00  0.00     0.202 C 
BRANCH   9  14
ATOM     14  C   UNL     1      22.844   6.044  45.537  1.00  0.00     0.191 C 
BRANCH  14  15
ATOM     15  O   UNL     1      21.698   5.503  44.967  1.00  0.00    -0.394 OA
ATOM     16  H   UNL     1      21.686   4.559  45.376  1.00  0.00     0.210 HD
ENDBRANCH  14  15
ENDBRANCH   9  14
BRANCH  10  17
ATOM     17  O   UNL     1      24.271   9.819  45.906  1.00  0.00    -0.387 OA
ATOM     18  H   UNL     1      25.192   9.480  45.837  1.00  0.00     0.211 HD
ENDBRANCH  10  17
BRANCH  12  19
ATOM     19  O   UNL     1      21.245   9.191  47.848  1.00  0.00    -0.387 OA
ATOM     20  H   UNL     1      21.344   8.178  47.816  1.00  0.00     0.211 HD
ENDBRANCH  12  19
BRANCH  13  21
ATOM     21  O   UNL     1      20.078  10.307  45.922  1.00  0.00    -0.385 OA
ATOM     22  H   UNL     1      19.987  11.081  46.551  1.00  0.00     0.211 HD
ENDBRANCH  13  21
ENDBRANCH   7   8
ENDBRANCH   1   7
BRANCH   2  23
ATOM     23  C   UNL     1      22.320   6.250  40.916  1.00  0.00     0.191 C 
BRANCH  23  24
ATOM     24  O   UNL     1      21.822   5.737  42.156  1.00  0.00    -0.394 OA
ATOM     25  H   UNL     1      20.972   6.241  42.433  1.00  0.00     0.210 HD
ENDBRANCH  23  24
ENDBRANCH   2  23
BRANCH   6  26
ATOM     26  O   UNL     1      24.619   9.817  41.111  1.00  0.00    -0.387 OA
ATOM     27  H   UNL     1      25.324  10.482  41.255  1.00  0.00     0.211 HD
ENDBRANCH   6  26
BRANCH   5  28
ATOM     28  O   UNL     1      26.485   8.695  43.211  1.00  0.00    -0.385 OA
ATOM     29  H   UNL     1      26.269   9.597  43.526  1.00  0.00     0.211 HD
ENDBRANCH   5  28
BRANCH   4  30
ATOM     30  O   UNL     1      26.619   6.572  41.781  1.00  0.00    -0.341 OA
BRANCH  30  31
ATOM     31  C   UNL     1      27.083   5.345  42.430  1.00  0.00     0.184 C 
ATOM     32  C   UNL     1      28.341   5.656  43.356  1.00  0.00     0.178 C 
ATOM     33  C   UNL     1      26.064   4.489  43.346  1.00  0.00     0.180 C 
ATOM     34  O   UNL     1      27.960   6.374  44.520  1.00  0.00    -0.342 OA
ATOM     35  C   UNL     1      26.576   4.303  44.821  1.00  0.00     0.201 C 
ATOM     36  C   UNL     1      26.894   5.753  45.247  1.00  0.00     0.279 C 
BRANCH  32  37
ATOM     37  C   UNL     1      29.490   6.400  42.649  1.00  0.00     0.191 C 
BRANCH  37  38
ATOM     38  O   UNL     1      29.489   6.096  41.276  1.00  0.00    -0.394 OA
ATOM     39  H   UNL     1      29.881   6.925  40.868  1.00  0.00     0.210 HD
ENDBRANCH  37  38
ENDBRANCH  32  37
BRANCH  33  40
ATOM     40  O   UNL     1      25.799   3.244  42.764  1.00  0.00    -0.387 OA
ATOM     41  H   UNL     1      26.602   2.667  43.012  1.00  0.00     0.211 HD
ENDBRANCH  33  40
BRANCH  35  42
ATOM     42  O   UNL     1      25.636   3.692  45.704  1.00  0.00    -0.385 OA
ATOM     43  H   UNL     1      24.699   3.922  45.340  1.00  0.00     0.211 HD
ENDBRANCH  35  42
BRANCH  36  44
ATOM     44  O   UNL     1      27.248   5.764  46.593  1.00  0.00    -0.366 OA
ATOM     45  H   UNL     1      27.455   6.731  46.852  1.00  0.00     0.213 HD
ENDBRANCH  36  44
ENDBRANCH  30  31
ENDBRANCH   4  30
TORSDOF 18
ENDMDL
MODEL 2
REMARK VINA RESULT:    -6.552      2.133      6.224
REMARK INTER + INTRA:         -14.564
REMARK INTER:                 -11.765
REMARK INTRA:                  -2.800
REMARK UNBOUND:                -3.224
REMARK SMILES OC[C@@H]1O[C@H](O[C@H]2[C@H](O)[C@H](O)[C@H](O[C@@H]3[C@@H](O)[C@H](O)[C@@H](O)O[C@@H]3CO)O[C@H]2CO)[C@@H](O)[C@@H](O)[C@@H]1O
REMARK SMILES IDX 7 1 26 2 25 3 12 4 10 5 8 6 6 7 5 8 3 9 33 10 4 11 31 12
REMARK SMILES IDX 29 13 2 14 1 15 34 17 32 19 30 21 27 23 28 24 9 26 11 28
REMARK SMILES IDX 13 30 14 31 22 32 15 33 21 34 17 35 19 36 23 37 24 38 16 40
REMARK SMILES IDX 18 42 20 44
REMARK H PARENT 1 16 34 18 32 20 30 22 28 25 9 27 11 29 24 39 16 41 18 43
REMARK H PARENT 20 45
REMARK Flexibility Score: inf
ROOT
ATOM      1  C   UNL     1      27.484   4.214  44.849  1.00  0.00     0.184 C 
ATOM      2  C   UNL     1      27.920   5.543  45.727  1.00  0.00     0.178 C 
ATOM      3  O   UNL     1      27.809   6.832  45.039  1.00  0.00    -0.341 OA
ATOM      4  C   UNL     1      26.474   6.989  44.583  1.00  0.00     0.282 C 
ATOM      5  C   UNL     1      26.211   5.942  43.483  1.00  0.00     0.202 C 
ATOM      6  C   UNL     1      27.333   4.825  43.432  1.00  0.00     0.180 C 
ENDROOT
BRANCH   1   7
ATOM      7  O   UNL     1      26.224   3.585  45.220  1.00  0.00    -0.341 OA
BRANCH   7   8
ATOM      8  C   UNL     1      25.440   2.517  44.448  1.00  0.00     0.282 C 
ATOM      9  C   UNL     1      24.472   2.061  46.573  1.00  0.00     0.178 C 
ATOM     10  C   UNL     1      23.185   3.106  46.112  1.00  0.00     0.177 C 
ATOM     11  O   UNL     1      25.187   1.473  45.463  1.00  0.00    -0.341 OA
ATOM     12  C   UNL     1      22.649   2.297  44.918  1.00  0.00     0.179 C 
ATOM     13  C   UNL     1      23.850   2.495  43.862  1.00  0.00     0.202 C 
BRANCH   9  14
ATOM     14  C   UNL     1      25.527   2.173  47.740  1.00  0.00     0.191 C 
BRANCH  14  15
ATOM     15  O   UNL     1      25.231   1.117  48.594  1.00  0.00    -0.394 OA
ATOM     16  H   UNL     1      26.166   0.735  48.786  1.00  0.00     0.210 HD
ENDBRANCH  14  15
ENDBRANCH   9  14
BRANCH  10  17
ATOM     17  O   UNL     1      22.853   4.471  45.742  1.00  0.00    -0.387 OA
ATOM     18  H   UNL     1      22.030   4.559  45.211  1.00  0.00     0.211 HD
ENDBRANCH  10  17
BRANCH  12  19
ATOM     19  O   UNL     1      22.470   0.893  45.129  1.00  0.00    -0.387 OA
ATOM     20  H   UNL     1      21.758   0.761  45.844  1.00  0.00     0.211 HD
ENDBRANCH  12  19
BRANCH  13  21
ATOM     21  O   UNL     1      23.763   1.369  43.027  1.00  0.00    -0.385 OA
ATOM     22  H   UNL     1      23.842   0.493  43.504  1.00  0.00     0.211 HD
ENDBRANCH  13  21
ENDBRANCH   7   8
ENDBRANCH   1   7
BRANCH   2  23
ATOM     23  C   UNL     1      27.586   5.660  47.220  1.00  0.00     0.191 C 
BRANCH  23  24
ATOM     24  O   UNL     1      26.197   5.502  47.532  1.00  0.00    -0.394 OA
ATOM     25  H   UNL     1      25.919   4.520  47.424  1.00  0.00     0.210 HD
ENDBRANCH  23  24
ENDBRANCH   2  23
BRANCH   6  26
ATOM     26  O   UNL     1      28.656   5.406  43.116  1.00  0.00    -0.387 OA
ATOM     27  H   UNL     1      29.125   4.784  42.523  1.00  0.00     0.211 HD
ENDBRANCH   6  26
BRANCH   5  28
ATOM     28  O   UNL     1      25.979   6.463  42.183  1.00  0.00    -0.385 OA
ATOM     29  H   UNL     1      25.070   6.822  42.246  1.00  0.00     0.211 HD
ENDBRANCH   5  28
BRANCH   4  30
ATOM     30  O   UNL     1      26.213   8.285  43.971  1.00  0.00    -0.341 OA
BRANCH  30  31
ATOM     31  C   UNL     1      25.004   8.992  44.394  1.00  0.00     0.184 C 
ATOM     32  C   UNL     1      24.058   9.257  43.140  1.00  0.00     0.178 C 
ATOM     33  C   UNL     1      24.056   8.347  45.531  1.00  0.00     0.180 C 
ATOM     34  O   UNL     1      23.448   8.057  42.690  1.00  0.00    -0.342 OA
ATOM     35  C   UNL     1      22.578   8.124  45.042  1.00  0.00     0.201 C 
ATOM     36  C   UNL     1      22.778   7.335  43.730  1.00  0.00     0.279 C 
BRANCH  32  37
ATOM     37  C   UNL     1      24.745   9.958  41.953  1.00  0.00     0.191 C 
BRANCH  37  38
ATOM     38  O   UNL     1      26.008  10.440  42.343  1.00  0.00    -0.394 OA
ATOM     39  H   UNL     1      25.864  10.674  43.308  1.00  0.00     0.210 HD
ENDBRANCH  37  38
ENDBRANCH  32  37
BRANCH  33  40
ATOM     40  O   UNL     1      24.069   9.129  46.692  1.00  0.00    -0.387 OA
ATOM     41  H   UNL     1      24.761   8.685  47.294  1.00  0.00     0.211 HD
ENDBRANCH  33  40
BRANCH  35  42
ATOM     42  O   UNL     1      21.749   7.411  45.961  1.00  0.00    -0.385 OA
ATOM     43  H   UNL     1      22.380   6.991  46.659  1.00  0.00     0.211 HD
ENDBRANCH  35  42
BRANCH  36  44
ATOM     44  O   UNL     1      21.535   6.951  43.235  1.00  0.00    -0.366 OA
ATOM     45  H   UNL     1      20.821   7.331  43.860  1.00  0.00     0.213 HD
ENDBRANCH  36  44
ENDBRANCH  30  31
ENDBRANCH   4  30
TORSDOF 18
ENDMDL
MODEL 3
REMARK VINA RESULT:    -6.538      2.328      6.529
REMARK INTER + INTRA:         -14.540
REMARK INTER:                 -11.306
REMARK INTRA:                  -3.234
REMARK UNBOUND:                -3.224
REMARK SMILES OC[C@@H]1O[C@H](O[C@H]2[C@H](O)[C@H](O)[C@H](O[C@@H]3[C@@H](O)[C@H](O)[C@@H](O)O[C@@H]3CO)O[C@H]2CO)[C@@H](O)[C@@H](O)[C@@H]1O
REMARK SMILES IDX 7 1 26 2 25 3 12 4 10 5 8 6 6 7 5 8 3 9 33 10 4 11 31 12
REMARK SMILES IDX 29 13 2 14 1 15 34 17 32 19 30 21 27 23 28 24 9 26 11 28
REMARK SMILES IDX 13 30 14 31 22 32 15 33 21 34 17 35 19 36 23 37 24 38 16 40
REMARK SMILES IDX 18 42 20 44
REMARK H PARENT 1 16 34 18 32 20 30 22 28 25 9 27 11 29 24 39 16 41 18 43
REMARK H PARENT 20 45
REMARK Flexibility Score: inf
ROOT
ATOM      1  C   UNL     1      28.813   4.941  44.153  1.00  0.00     0.184 C 
ATOM      2  C   UNL     1      28.590   6.538  43.799  1.00  0.00     0.178 C 
ATOM      3  O   UNL     1      27.744   6.826  42.638  1.00  0.00    -0.341 OA
ATOM      4  C   UNL     1      26.481   6.209  42.833  1.00  0.00     0.282 C 
ATOM      5  C   UNL     1      26.677   4.681  42.796  1.00  0.00     0.202 C 
ATOM      6  C   UNL     1      28.202   4.265  42.898  1.00  0.00     0.180 C 
ENDROOT
BRANCH   1   7
ATOM      7  O   UNL     1      28.119   4.443  45.332  1.00  0.00    -0.341 OA
BRANCH   7   8
ATOM      8  C   UNL     1      28.582   4.501  46.794  1.00  0.00     0.282 C 
ATOM      9  C   UNL     1      26.444   3.557  47.237  1.00  0.00     0.178 C 
ATOM     10  C   UNL     1      27.218   2.020  47.224  1.00  0.00     0.177 C 
ATOM     11  O   UNL     1      27.321   4.662  47.549  1.00  0.00    -0.341 OA
ATOM     12  C   UNL     1      28.150   2.223  48.431  1.00  0.00     0.179 C 
ATOM     13  C   UNL     1      29.184   3.303  47.829  1.00  0.00     0.202 C 
BRANCH   9  14
ATOM     14  C   UNL     1      25.324   4.158  46.303  1.00  0.00     0.191 C 
BRANCH  14  15
ATOM     15  O   UNL     1      25.351   5.526  46.544  1.00  0.00    -0.394 OA
ATOM     16  H   UNL     1      26.303   5.773  46.242  1.00  0.00     0.210 HD
ENDBRANCH  14  15
ENDBRANCH   9  14
BRANCH  10  17
ATOM     17  O   UNL     1      27.967   1.088  46.400  1.00  0.00    -0.387 OA
ATOM     18  H   UNL     1      27.581   0.932  45.509  1.00  0.00     0.211 HD
ENDBRANCH  10  17
BRANCH  12  19
ATOM     19  O   UNL     1      27.558   2.781  49.608  1.00  0.00    -0.387 OA
ATOM     20  H   UNL     1      27.137   2.028  50.148  1.00  0.00     0.211 HD
ENDBRANCH  12  19
BRANCH  13  21
ATOM     21  O   UNL     1      29.670   3.980  48.960  1.00  0.00    -0.385 OA
ATOM     22  H   UNL     1      29.794   4.965  48.831  1.00  0.00     0.211 HD
ENDBRANCH  13  21
ENDBRANCH   7   8
ENDBRANCH   1   7
BRANCH   2  23
ATOM     23  C   UNL     1      28.420   7.586  44.906  1.00  0.00     0.191 C 
BRANCH  23  24
ATOM     24  O   UNL     1      27.323   7.341  45.793  1.00  0.00    -0.394 OA
ATOM     25  H   UNL     1      27.559   7.651  46.742  1.00  0.00     0.210 HD
ENDBRANCH  23  24
ENDBRANCH   2  23
BRANCH   6  26
ATOM     26  O   UNL     1      28.980   4.791  41.756  1.00  0.00    -0.387 OA
ATOM     27  H   UNL     1      28.475   5.533  41.363  1.00  0.00     0.211 HD
ENDBRANCH   6  26
BRANCH   5  28
ATOM     28  O   UNL     1      26.058   4.009  41.709  1.00  0.00    -0.385 OA
ATOM     29  H   UNL     1      25.826   4.738  41.099  1.00  0.00     0.211 HD
ENDBRANCH   5  28
BRANCH   4  30
ATOM     30  O   UNL     1      25.513   6.513  41.787  1.00  0.00    -0.341 OA
BRANCH  30  31
ATOM     31  C   UNL     1      24.176   6.927  42.214  1.00  0.00     0.184 C 
ATOM     32  C   UNL     1      23.073   5.993  41.543  1.00  0.00     0.178 C 
ATOM     33  C   UNL     1      23.816   6.971  43.788  1.00  0.00     0.180 C 
ATOM     34  O   UNL     1      23.080   4.694  42.114  1.00  0.00    -0.342 OA
ATOM     35  C   UNL     1      22.590   6.060  44.161  1.00  0.00     0.201 C 
ATOM     36  C   UNL     1      22.985   4.702  43.544  1.00  0.00     0.279 C 
BRANCH  32  37
ATOM     37  C   UNL     1      23.175   5.879  40.010  1.00  0.00     0.191 C 
BRANCH  37  38
ATOM     38  O   UNL     1      24.068   6.845  39.512  1.00  0.00    -0.394 OA
ATOM     39  H   UNL     1      24.957   6.502  39.827  1.00  0.00     0.210 HD
ENDBRANCH  37  38
ENDBRANCH  32  37
BRANCH  33  40
ATOM     40  O   UNL     1      23.589   8.286  44.209  1.00  0.00    -0.387 OA
ATOM     41  H   UNL     1      24.461   8.568  44.655  1.00  0.00     0.211 HD
ENDBRANCH  33  40
BRANCH  35  42
ATOM     42  O   UNL     1      22.338   5.946  45.562  1.00  0.00    -0.385 OA
ATOM     43  H   UNL     1      23.259   5.929  46.024  1.00  0.00     0.211 HD
ENDBRANCH  35  42
BRANCH  36  44
ATOM     44  O   UNL     1      22.039   3.746  43.903  1.00  0.00    -0.366 OA
ATOM     45  H   UNL     1      21.530   4.101  44.715  1.00  0.00     0.213 HD
ENDBRANCH  36  44
ENDBRANCH  30  31
ENDBRANCH   4  30
TORSDOF 18
ENDMDL
MODEL 4
REMARK VINA RESULT:    -6.533      1.641      6.631
REMARK INTER + INTRA:         -14.532
REMARK INTER:                 -11.951
REMARK INTRA:                  -2.581
REMARK UNBOUND:                -3.224
REMARK SMILES OC[C@@H]1O[C@H](O[C@H]2[C@H](O)[C@H](O)[C@H](O[C@@H]3[C@@H](O)[C@H](O)[C@@H](O)O[C@@H]3CO)O[C@H]2CO)[C@@H](O)[C@@H](O)[C@@H]1O
REMARK SMILES IDX 7 1 26 2 25 3 12 4 10 5 8 6 6 7 5 8 3 9 33 10 4 11 31 12
REMARK SMILES IDX 29 13 2 14 1 15 34 17 32 19 30 21 27 23 28 24 9 26 11 28
REMARK SMILES IDX 13 30 14 31 22 32 15 33 21 34 17 35 19 36 23 37 24 38 16 40
REMARK SMILES IDX 18 42 20 44
REMARK H PARENT 1 16 34 18 32 20 30 22 28 25 9 27 11 29 24 39 16 41 18 43
REMARK H PARENT 20 45
REMARK Flexibility Score: inf
ROOT
ATOM      1  C   UNL     1      24.377   4.459  42.982  1.00  0.00     0.184 C 
ATOM      2  C   UNL     1      23.626   5.314  41.785  1.00  0.00     0.178 C 
ATOM      3  O   UNL     1      22.401   6.019  42.170  1.00  0.00    -0.341 OA
ATOM      4  C   UNL     1      22.699   6.889  43.251  1.00  0.00     0.282 C 
ATOM      5  C   UNL     1      23.053   6.031  44.481  1.00  0.00     0.202 C 
ATOM      6  C   UNL     1      23.309   4.514  44.106  1.00  0.00     0.180 C 
ENDROOT
BRANCH   1   7
ATOM      7  O   UNL     1      25.618   5.025  43.493  1.00  0.00    -0.341 OA
BRANCH   7   8
ATOM      8  C   UNL     1      27.051   4.554  43.219  1.00  0.00     0.282 C 
ATOM      9  C   UNL     1      27.614   6.807  43.739  1.00  0.00     0.178 C 
ATOM     10  C   UNL     1      27.918   6.267  45.343  1.00  0.00     0.177 C 
ATOM     11  O   UNL     1      27.729   5.775  42.733  1.00  0.00    -0.341 OA
ATOM     12  C   UNL     1      29.087   5.312  45.047  1.00  0.00     0.179 C 
ATOM     13  C   UNL     1      28.314   4.132  44.266  1.00  0.00     0.202 C 
BRANCH   9  14
ATOM     14  C   UNL     1      26.553   7.828  43.175  1.00  0.00     0.191 C 
BRANCH  14  15
ATOM     15  O   UNL     1      27.288   8.952  42.820  1.00  0.00    -0.394 OA
ATOM     16  H   UNL     1      27.262   8.905  41.793  1.00  0.00     0.210 HD
ENDBRANCH  14  15
ENDBRANCH   9  14
BRANCH  10  17
ATOM     17  O   UNL     1      27.309   5.666  46.517  1.00  0.00    -0.387 OA
ATOM     18  H   UNL     1      26.618   4.995  46.318  1.00  0.00     0.211 HD
ENDBRANCH  10  17
BRANCH  12  19
ATOM     19  O   UNL     1      30.117   5.812  44.190  1.00  0.00    -0.387 OA
ATOM     20  H   UNL     1      30.297   5.124  43.462  1.00  0.00     0.211 HD
ENDBRANCH  12  19
BRANCH  13  21
ATOM     21  O   UNL     1      29.305   3.548  43.459  1.00  0.00    -0.385 OA
ATOM     22  H   UNL     1      28.955   3.090  42.641  1.00  0.00     0.211 HD
ENDBRANCH  13  21
ENDBRANCH   7   8
ENDBRANCH   1   7
BRANCH   2  23
ATOM     23  C   UNL     1      24.430   6.094  40.736  1.00  0.00     0.191 C 
BRANCH  23  24
ATOM     24  O   UNL     1      23.681   6.472  39.575  1.00  0.00    -0.394 OA
ATOM     25  H   UNL     1      24.312   6.820  38.845  1.00  0.00     0.210 HD
ENDBRANCH  23  24
ENDBRANCH   2  23
BRANCH   6  26
ATOM     26  O   UNL     1      22.100   3.892  43.525  1.00  0.00    -0.387 OA
ATOM     27  H   UNL     1      21.993   4.236  42.614  1.00  0.00     0.211 HD
ENDBRANCH   6  26
BRANCH   5  28
ATOM     28  O   UNL     1      22.147   6.120  45.572  1.00  0.00    -0.385 OA
ATOM     29  H   UNL     1      22.188   5.226  45.968  1.00  0.00     0.211 HD
ENDBRANCH   5  28
BRANCH   4  30
ATOM     30  O   UNL     1      21.577   7.725  43.656  1.00  0.00    -0.341 OA
BRANCH  30  31
ATOM     31  C   UNL     1      21.765   9.175  43.590  1.00  0.00     0.184 C 
ATOM     32  C   UNL     1      21.884   9.780  45.058  1.00  0.00     0.178 C 
ATOM     33  C   UNL     1      23.012   9.783  42.762  1.00  0.00     0.180 C 
ATOM     34  O   UNL     1      23.124   9.438  45.659  1.00  0.00    -0.342 OA
ATOM     35  C   UNL     1      23.952  10.682  43.644  1.00  0.00     0.201 C 
ATOM     36  C   UNL     1      24.258   9.763  44.846  1.00  0.00     0.279 C 
BRANCH  32  37
ATOM     37  C   UNL     1      20.732   9.396  46.006  1.00  0.00     0.191 C 
BRANCH  37  38
ATOM     38  O   UNL     1      21.216   8.584  47.048  1.00  0.00    -0.394 OA
ATOM     39  H   UNL     1      20.944   9.095  47.867  1.00  0.00     0.210 HD
ENDBRANCH  37  38
ENDBRANCH  32  37
BRANCH  33  40
ATOM     40  O   UNL     1      22.565  10.498  41.645  1.00  0.00    -0.387 OA
ATOM     41  H   UNL     1      22.562   9.817  40.886  1.00  0.00     0.211 HD
ENDBRANCH  33  40
BRANCH  35  42
ATOM     42  O   UNL     1      25.149  11.108  42.993  1.00  0.00    -0.385 OA
ATOM     43  H   UNL     1      25.274  10.492  42.177  1.00  0.00     0.211 HD
ENDBRANCH  35  42
BRANCH  36  44
ATOM     44  O   UNL     1      25.193  10.386  45.669  1.00  0.00    -0.366 OA
ATOM     45  H   UNL     1      26.044  10.527  45.121  1.00  0.00     0.213 HD
ENDBRANCH  36  44
ENDBRANCH  30  31
ENDBRANCH   4  30
TORSDOF 18
ENDMDL
MODEL 5
REMARK VINA RESULT:    -6.529      1.864      5.208
REMARK INTER + INTRA:         -14.525
REMARK INTER:                 -11.407
REMARK INTRA:                  -3.118
REMARK UNBOUND:                -3.224
REMARK SMILES OC[C@@H]1O[C@H](O[C@H]2[C@H](O)[C@H](O)[C@H](O[C@@H]3[C@@H](O)[C@H](O)[C@@H](O)O[C@@H]3CO)O[C@H]2CO)[C@@H](O)[C@@H](O)[C@@H]1O
REMARK SMILES IDX 7 1 26 2 25 3 12 4 10 5 8 6 6 7 5 8 3 9 33 10 4 11 31 12
REMARK SMILES IDX 29 13 2 14 1 15 34 17 32 19 30 21 27 23 28 24 9 26 11 28
REMARK SMILES IDX 13 30 14 31 22 32 15 33 21 34 17 35 19 36 23 37 24 38 16 40
REMARK SMILES IDX 18 42 20 44
REMARK H PARENT 1 16 34 18 32 20 30 22 28 25 9 27 11 29 24 39 16 41 18 43
REMARK H PARENT 20 45
REMARK Flexibility Score: inf
ROOT
ATOM      1  C   UNL     1      21.866   7.753  43.782  1.00  0.00     0.184 C 
ATOM      2  C   UNL     1      22.790   9.050  44.220  1.00  0.00     0.178 C 
ATOM      3  O   UNL     1      23.756   8.817  45.297  1.00  0.00    -0.341 OA
ATOM      4  C   UNL     1      24.604   7.744  44.920  1.00  0.00     0.282 C 
ATOM      5  C   UNL     1      23.763   6.454  44.871  1.00  0.00     0.202 C 
ATOM      6  C   UNL     1      22.206   6.746  44.911  1.00  0.00     0.180 C 
ENDROOT
BRANCH   1   7
ATOM      7  O   UNL     1      22.188   7.141  42.501  1.00  0.00    -0.341 OA
BRANCH   7   8
ATOM      8  C   UNL     1      21.498   7.364  41.149  1.00  0.00     0.282 C 
ATOM      9  C   UNL     1      23.247   5.980  40.321  1.00  0.00     0.178 C 
ATOM     10  C   UNL     1      22.155   4.660  40.475  1.00  0.00     0.177 C 
ATOM     11  O   UNL     1      22.606   7.268  40.176  1.00  0.00    -0.341 OA
ATOM     12  C   UNL     1      21.095   5.119  39.460  1.00  0.00     0.179 C 
ATOM     13  C   UNL     1      20.462   6.378  40.242  1.00  0.00     0.202 C 
BRANCH   9  14
ATOM     14  C   UNL     1      24.623   6.273  41.034  1.00  0.00     0.191 C 
BRANCH  14  15
ATOM     15  O   UNL     1      25.293   5.055  41.037  1.00  0.00    -0.394 OA
ATOM     16  H   UNL     1      24.880   4.591  41.857  1.00  0.00     0.210 HD
ENDBRANCH  14  15
ENDBRANCH   9  14
BRANCH  10  17
ATOM     17  O   UNL     1      21.371   3.887  41.423  1.00  0.00    -0.387 OA
ATOM     18  H   UNL     1      20.421   3.794  41.184  1.00  0.00     0.211 HD
ENDBRANCH  10  17
BRANCH  12  19
ATOM     19  O   UNL     1      21.580   5.578  38.195  1.00  0.00    -0.387 OA
ATOM     20  H   UNL     1      21.812   6.566  38.275  1.00  0.00     0.211 HD
ENDBRANCH  12  19
BRANCH  13  21
ATOM     21  O   UNL     1      19.950   7.195  39.219  1.00  0.00    -0.385 OA
ATOM     22  H   UNL     1      19.128   7.708  39.472  1.00  0.00     0.211 HD
ENDBRANCH  13  21
ENDBRANCH   7   8
ENDBRANCH   1   7
BRANCH   2  23
ATOM     23  C   UNL     1      23.323  10.041  43.177  1.00  0.00     0.191 C 
BRANCH  23  24
ATOM     24  O   UNL     1      23.913   9.429  42.025  1.00  0.00    -0.394 OA
ATOM     25  H   UNL     1      24.653   8.778  42.308  1.00  0.00     0.210 HD
ENDBRANCH  23  24
ENDBRANCH   2  23
BRANCH   6  26
ATOM     26  O   UNL     1      21.819   7.423  46.167  1.00  0.00    -0.387 OA
ATOM     27  H   UNL     1      20.955   7.060  46.452  1.00  0.00     0.211 HD
ENDBRANCH   6  26
BRANCH   5  28
ATOM     28  O   UNL     1      24.100   5.464  45.832  1.00  0.00    -0.385 OA
ATOM     29  H   UNL     1      24.750   4.906  45.359  1.00  0.00     0.211 HD
ENDBRANCH   5  28
BRANCH   4  30
ATOM     30  O   UNL     1      25.678   7.484  45.869  1.00  0.00    -0.341 OA
BRANCH  30  31
ATOM     31  C   UNL     1      27.028   7.328  45.326  1.00  0.00     0.184 C 
ATOM     32  C   UNL     1      27.683   5.980  45.865  1.00  0.00     0.178 C 
ATOM     33  C   UNL     1      27.250   7.315  43.726  1.00  0.00     0.180 C 
ATOM     34  O   UNL     1      27.085   4.840  45.266  1.00  0.00    -0.342 OA
ATOM     35  C   UNL     1      27.946   6.001  43.215  1.00  0.00     0.201 C 
ATOM     36  C   UNL     1      27.063   4.896  43.835  1.00  0.00     0.279 C 
BRANCH  32  37
ATOM     37  C   UNL     1      27.661   5.823  47.398  1.00  0.00     0.191 C 
BRANCH  37  38
ATOM     38  O   UNL     1      26.399   5.366  47.818  1.00  0.00    -0.394 OA
ATOM     39  H   UNL     1      26.101   4.804  47.042  1.00  0.00     0.210 HD
ENDBRANCH  37  38
ENDBRANCH  32  37
BRANCH  33  40
ATOM     40  O   UNL     1      27.976   8.439  43.317  1.00  0.00    -0.387 OA
ATOM     41  H   UNL     1      27.493   8.768  42.482  1.00  0.00     0.211 HD
ENDBRANCH  33  40
BRANCH  35  42
ATOM     42  O   UNL     1      28.016   5.880  41.795  1.00  0.00    -0.385 OA
ATOM     43  H   UNL     1      27.051   5.735  41.464  1.00  0.00     0.211 HD
ENDBRANCH  35  42
BRANCH  36  44
ATOM     44  O   UNL     1      27.488   3.656  43.364  1.00  0.00    -0.366 OA
ATOM     45  H   UNL     1      27.196   3.578  42.388  1.00  0.00     0.213 HD
ENDBRANCH  36  44
ENDBRANCH  30  31
ENDBRANCH   4  30
TORSDOF 18
ENDMDL
MODEL 6
REMARK VINA RESULT:    -6.496      1.674      2.180
REMARK INTER + INTRA:         -14.467
REMARK INTER:                 -12.108
REMARK INTRA:                  -2.359
REMARK UNBOUND:                -3.224
REMARK SMILES OC[C@@H]1O[C@H](O[C@H]2[C@H](O)[C@H](O)[C@H](O[C@@H]3[C@@H](O)[C@H](O)[C@@H](O)O[C@@H]3CO)O[C@H]2CO)[C@@H](O)[C@@H](O)[C@@H]1O
REMARK SMILES IDX 7 1 26 2 25 3 12 4 10 5 8 6 6 7 5 8 3 9 33 10 4 11 31 12
REMARK SMILES IDX 29 13 2 14 1 15 34 17 32 19 30 21 27 23 28 24 9 26 11 28
REMARK SMILES IDX 13 30 14 31 22 32 15 33 21 34 17 35 19 36 23 37 24 38 16 40
REMARK SMILES IDX 18 42 20 44
REMARK H PARENT 1 16 34 18 32 20 30 22 28 25 9 27 11 29 24 39 16 41 18 43
REMARK H PARENT 20 45
REMARK Flexibility Score: inf
ROOT
ATOM      1  C   UNL     1      24.437   8.451  42.720  1.00  0.00     0.184 C 
ATOM      2  C   UNL     1      25.211   7.265  41.869  1.00  0.00     0.178 C 
ATOM      3  O   UNL     1      26.514   6.847  42.392  1.00  0.00    -0.341 OA
ATOM      4  C   UNL     1      26.350   6.426  43.737  1.00  0.00     0.282 C 
ATOM      5  C   UNL     1      25.972   7.656  44.586  1.00  0.00     0.202 C 
ATOM      6  C   UNL     1      25.554   8.899  43.698  1.00  0.00     0.180 C 
ENDROOT
BRANCH   1   7
ATOM      7  O   UNL     1      23.280   8.030  43.498  1.00  0.00    -0.341 OA
BRANCH   7   8
ATOM      8  C   UNL     1      22.008   8.831  43.804  1.00  0.00     0.282 C 
ATOM      9  C   UNL     1      21.813   7.326  45.636  1.00  0.00     0.178 C 
ATOM     10  C   UNL     1      22.599   8.523  46.589  1.00  0.00     0.177 C 
ATOM     11  O   UNL     1      21.132   7.846  44.472  1.00  0.00    -0.341 OA
ATOM     12  C   UNL     1      21.538   9.632  46.486  1.00  0.00     0.179 C 
ATOM     13  C   UNL     1      21.695  10.050  44.938  1.00  0.00     0.202 C 
BRANCH   9  14
ATOM     14  C   UNL     1      22.250   5.861  45.249  1.00  0.00     0.191 C 
BRANCH  14  15
ATOM     15  O   UNL     1      21.872   5.712  43.920  1.00  0.00    -0.394 OA
ATOM     16  H   UNL     1      21.442   6.625  43.720  1.00  0.00     0.210 HD
ENDBRANCH  14  15
ENDBRANCH   9  14
BRANCH  10  17
ATOM     17  O   UNL     1      23.830   9.278  46.748  1.00  0.00    -0.387 OA
ATOM     18  H   UNL     1      24.262   9.171  47.625  1.00  0.00     0.211 HD
ENDBRANCH  10  17
BRANCH  12  19
ATOM     19  O   UNL     1      20.181   9.237  46.706  1.00  0.00    -0.387 OA
ATOM     20  H   UNL     1      20.004   8.379  46.187  1.00  0.00     0.211 HD
ENDBRANCH  12  19
BRANCH  13  21
ATOM     21  O   UNL     1      20.440  10.581  44.597  1.00  0.00    -0.385 OA
ATOM     22  H   UNL     1      20.159  10.403  43.653  1.00  0.00     0.211 HD
ENDBRANCH  13  21
ENDBRANCH   7   8
ENDBRANCH   1   7
BRANCH   2  23
ATOM     23  C   UNL     1      24.439   6.094  41.248  1.00  0.00     0.191 C 
BRANCH  23  24
ATOM     24  O   UNL     1      23.014   6.209  41.333  1.00  0.00    -0.394 OA
ATOM     25  H   UNL     1      22.743   6.587  42.247  1.00  0.00     0.210 HD
ENDBRANCH  23  24
ENDBRANCH   2  23
BRANCH   6  26
ATOM     26  O   UNL     1      26.671   9.342  42.836  1.00  0.00    -0.387 OA
ATOM     27  H   UNL     1      27.417   8.719  42.964  1.00  0.00     0.211 HD
ENDBRANCH   6  26
BRANCH   5  28
ATOM     28  O   UNL     1      26.930   8.048  45.558  1.00  0.00    -0.385 OA
ATOM     29  H   UNL     1      26.729   8.996  45.699  1.00  0.00     0.211 HD
ENDBRANCH   5  28
BRANCH   4  30
ATOM     30  O   UNL     1      27.564   5.886  44.334  1.00  0.00    -0.341 OA
BRANCH  30  31
ATOM     31  C   UNL     1      27.480   4.552  44.929  1.00  0.00     0.184 C 
ATOM     32  C   UNL     1      28.937   4.016  45.281  1.00  0.00     0.178 C 
ATOM     33  C   UNL     1      26.594   4.324  46.261  1.00  0.00     0.180 C 
ATOM     34  O   UNL     1      29.486   4.704  46.394  1.00  0.00    -0.342 OA
ATOM     35  C   UNL     1      27.429   3.739  47.458  1.00  0.00     0.201 C 
ATOM     36  C   UNL     1      28.623   4.714  47.538  1.00  0.00     0.279 C 
BRANCH  32  37
ATOM     37  C   UNL     1      29.937   4.058  44.109  1.00  0.00     0.191 C 
BRANCH  37  38
ATOM     38  O   UNL     1      30.116   5.384  43.675  1.00  0.00    -0.394 OA
ATOM     39  H   UNL     1      30.952   5.322  43.124  1.00  0.00     0.210 HD
ENDBRANCH  37  38
ENDBRANCH  32  37
BRANCH  33  40
ATOM     40  O   UNL     1      25.493   3.503  45.991  1.00  0.00    -0.387 OA
ATOM     41  H   UNL     1      25.894   2.658  45.586  1.00  0.00     0.211 HD
ENDBRANCH  33  40
BRANCH  35  42
ATOM     42  O   UNL     1      26.724   3.671  48.697  1.00  0.00    -0.385 OA
ATOM     43  H   UNL     1      27.422   3.825  49.440  1.00  0.00     0.211 HD
ENDBRANCH  35  42
BRANCH  36  44
ATOM     44  O   UNL     1      29.400   4.393  48.647  1.00  0.00    -0.366 OA
ATOM     45  H   UNL     1      28.774   4.043  49.375  1.00  0.00     0.213 HD
ENDBRANCH  36  44
ENDBRANCH  30  31
ENDBRANCH   4  30
TORSDOF 18
ENDMDL
MODEL 7
REMARK VINA RESULT:    -6.481      1.901      6.444
REMARK INTER + INTRA:         -14.442
REMARK INTER:                 -11.578
REMARK INTRA:                  -2.864
REMARK UNBOUND:                -3.224
REMARK SMILES OC[C@@H]1O[C@H](O[C@H]2[C@H](O)[C@H](O)[C@H](O[C@@H]3[C@@H](O)[C@H](O)[C@@H](O)O[C@@H]3CO)O[C@H]2CO)[C@@H](O)[C@@H](O)[C@@H]1O
REMARK SMILES IDX 7 1 26 2 25 3 12 4 10 5 8 6 6 7 5 8 3 9 33 10 4 11 31 12
REMARK SMILES IDX 29 13 2 14 1 15 34 17 32 19 30 21 27 23 28 24 9 26 11 28
REMARK SMILES IDX 13 30 14 31 22 32 15 33 21 34 17 35 19 36 23 37 24 38 16 40
REMARK SMILES IDX 18 42 20 44
REMARK H PARENT 1 16 34 18 32 20 30 22 28 25 9 27 11 29 24 39 16 41 18 43
REMARK H PARENT 20 45
REMARK Flexibility Score: inf
ROOT
ATOM      1  C   UNL     1      27.782   3.984  43.643  1.00  0.00     0.184 C 
ATOM      2  C   UNL     1      28.151   5.011  42.403  1.00  0.00     0.178 C 
ATOM      3  O   UNL     1      27.021   5.467  41.589  1.00  0.00    -0.341 OA
ATOM      4  C   UNL     1      26.069   6.084  42.441  1.00  0.00     0.282 C 
ATOM      5  C   UNL     1      25.469   5.004  43.361  1.00  0.00     0.202 C 
ATOM      6  C   UNL     1      26.299   3.655  43.331  1.00  0.00     0.180 C 
ENDROOT
BRANCH   1   7
ATOM      7  O   UNL     1      27.861   4.545  44.984  1.00  0.00    -0.341 OA
BRANCH   7   8
ATOM      8  C   UNL     1      28.376   3.867  46.260  1.00  0.00     0.282 C 
ATOM      9  C   UNL     1      26.565   5.015  47.291  1.00  0.00     0.178 C 
ATOM     10  C   UNL     1      25.651   3.572  47.088  1.00  0.00     0.177 C 
ATOM     11  O   UNL     1      27.996   4.812  47.331  1.00  0.00    -0.341 OA
ATOM     12  C   UNL     1      26.485   2.644  47.988  1.00  0.00     0.179 C 
ATOM     13  C   UNL     1      27.828   2.506  47.108  1.00  0.00     0.202 C 
BRANCH   9  14
ATOM     14  C   UNL     1      26.362   6.460  46.692  1.00  0.00     0.191 C 
BRANCH  14  15
ATOM     15  O   UNL     1      25.497   7.096  47.574  1.00  0.00    -0.394 OA
ATOM     16  H   UNL     1      26.077   7.877  47.910  1.00  0.00     0.210 HD
ENDBRANCH  14  15
ENDBRANCH   9  14
BRANCH  10  17
ATOM     17  O   UNL     1      25.108   2.652  46.104  1.00  0.00    -0.387 OA
ATOM     18  H   UNL     1      25.506   2.733  45.208  1.00  0.00     0.211 HD
ENDBRANCH  10  17
BRANCH  12  19
ATOM     19  O   UNL     1      26.846   3.158  49.274  1.00  0.00    -0.387 OA
ATOM     20  H   UNL     1      27.577   2.569  49.665  1.00  0.00     0.211 HD
ENDBRANCH  12  19
BRANCH  13  21
ATOM     21  O   UNL     1      28.827   2.211  48.051  1.00  0.00    -0.385 OA
ATOM     22  H   UNL     1      29.597   2.851  48.051  1.00  0.00     0.211 HD
ENDBRANCH  13  21
ENDBRANCH   7   8
ENDBRANCH   1   7
BRANCH   2  23
ATOM     23  C   UNL     1      29.222   6.099  42.557  1.00  0.00     0.191 C 
BRANCH  23  24
ATOM     24  O   UNL     1      29.930   6.411  41.353  1.00  0.00    -0.394 OA
ATOM     25  H   UNL     1      29.621   5.797  40.591  1.00  0.00     0.210 HD
ENDBRANCH  23  24
ENDBRANCH   2  23
BRANCH   6  26
ATOM     26  O   UNL     1      26.309   3.061  41.977  1.00  0.00    -0.387 OA
ATOM     27  H   UNL     1      26.150   2.098  42.069  1.00  0.00     0.211 HD
ENDBRANCH   6  26
BRANCH   5  28
ATOM     28  O   UNL     1      24.088   4.733  43.171  1.00  0.00    -0.385 OA
ATOM     29  H   UNL     1      23.835   4.272  43.996  1.00  0.00     0.211 HD
ENDBRANCH   5  28
BRANCH   4  30
ATOM     30  O   UNL     1      24.942   6.674  41.730  1.00  0.00    -0.341 OA
BRANCH  30  31
ATOM     31  C   UNL     1      24.581   8.050  42.074  1.00  0.00     0.184 C 
ATOM     32  C   UNL     1      23.076   8.109  42.589  1.00  0.00     0.178 C 
ATOM     33  C   UNL     1      25.453   8.856  43.169  1.00  0.00     0.180 C 
ATOM     34  O   UNL     1      22.948   7.534  43.880  1.00  0.00    -0.342 OA
ATOM     35  C   UNL     1      24.592   9.361  44.384  1.00  0.00     0.201 C 
ATOM     36  C   UNL     1      23.869   8.074  44.836  1.00  0.00     0.279 C 
BRANCH  32  37
ATOM     37  C   UNL     1      22.046   7.468  41.639  1.00  0.00     0.191 C 
BRANCH  37  38
ATOM     38  O   UNL     1      21.867   6.112  41.966  1.00  0.00    -0.394 OA
ATOM     39  H   UNL     1      22.798   5.744  41.887  1.00  0.00     0.210 HD
ENDBRANCH  37  38
ENDBRANCH  32  37
BRANCH  33  40
ATOM     40  O   UNL     1      26.128   9.928  42.575  1.00  0.00    -0.387 OA
ATOM     41  H   UNL     1      25.499  10.722  42.684  1.00  0.00     0.211 HD
ENDBRANCH  33  40
BRANCH  35  42
ATOM     42  O   UNL     1      25.348   9.938  45.449  1.00  0.00    -0.385 OA
ATOM     43  H   UNL     1      25.662   9.156  46.042  1.00  0.00     0.211 HD
ENDBRANCH  35  42
BRANCH  36  44
ATOM     44  O   UNL     1      23.151   8.339  45.999  1.00  0.00    -0.366 OA
ATOM     45  H   UNL     1      22.959   9.343  46.024  1.00  0.00     0.213 HD
ENDBRANCH  36  44
ENDBRANCH  30  31
ENDBRANCH   4  30
TORSDOF 18
ENDMDL
MODEL 8
REMARK VINA RESULT:    -6.472      1.758      3.183
REMARK INTER + INTRA:         -14.427
REMARK INTER:                 -12.164
REMARK INTRA:                  -2.263
REMARK UNBOUND:                -3.224
REMARK SMILES OC[C@@H]1O[C@H](O[C@H]2[C@H](O)[C@H](O)[C@H](O[C@@H]3[C@@H](O)[C@H](O)[C@@H](O)O[C@@H]3CO)O[C@H]2CO)[C@@H](O)[C@@H](O)[C@@H]1O
REMARK SMILES IDX 7 1 26 2 25 3 12 4 10 5 8 6 6 7 5 8 3 9 33 10 4 11 31 12
REMARK SMILES IDX 29 13 2 14 1 15 34 17 32 19 30 21 27 23 28 24 9 26 11 28
REMARK SMILES IDX 13 30 14 31 22 32 15 33 21 34 17 35 19 36 23 37 24 38 16 40
REMARK SMILES IDX 18 42 20 44
REMARK H PARENT 1 16 34 18 32 20 30 22 28 25 9 27 11 29 24 39 16 41 18 43
REMARK H PARENT 20 45
REMARK Flexibility Score: inf
ROOT
ATOM      1  C   UNL     1      22.667   5.578  43.789  1.00  0.00     0.184 C 
ATOM      2  C   UNL     1      23.193   4.150  44.429  1.00  0.00     0.178 C 
ATOM      3  O   UNL     1      24.264   3.472  43.694  1.00  0.00    -0.341 OA
ATOM      4  C   UNL     1      25.362   4.362  43.569  1.00  0.00     0.282 C 
ATOM      5  C   UNL     1      24.941   5.526  42.651  1.00  0.00     0.202 C 
ATOM      6  C   UNL     1      23.376   5.570  42.410  1.00  0.00     0.180 C 
ENDROOT
BRANCH   1   7
ATOM      7  O   UNL     1      23.058   6.784  44.505  1.00  0.00    -0.341 OA
BRANCH   7   8
ATOM      8  C   UNL     1      22.276   7.529  45.595  1.00  0.00     0.282 C 
ATOM      9  C   UNL     1      23.823   9.279  45.145  1.00  0.00     0.178 C 
ATOM     10  C   UNL     1      22.641   9.931  44.079  1.00  0.00     0.177 C 
ATOM     11  O   UNL     1      23.285   8.434  46.186  1.00  0.00    -0.341 OA
ATOM     12  C   UNL     1      21.540  10.228  45.112  1.00  0.00     0.179 C 
ATOM     13  C   UNL     1      21.086   8.731  45.499  1.00  0.00     0.202 C 
BRANCH   9  14
ATOM     14  C   UNL     1      25.275   8.730  44.866  1.00  0.00     0.191 C 
BRANCH  14  15
ATOM     15  O   UNL     1      25.593   7.968  45.984  1.00  0.00    -0.394 OA
ATOM     16  H   UNL     1      25.200   7.052  45.732  1.00  0.00     0.210 HD
ENDBRANCH  14  15
ENDBRANCH   9  14
BRANCH  10  17
ATOM     17  O   UNL     1      21.877   9.674  42.870  1.00  0.00    -0.387 OA
ATOM     18  H   UNL     1      21.377  10.451  42.533  1.00  0.00     0.211 HD
ENDBRANCH  10  17
BRANCH  12  19
ATOM     19  O   UNL     1      21.952  10.892  46.310  1.00  0.00    -0.387 OA
ATOM     20  H   UNL     1      22.892  11.257  46.172  1.00  0.00     0.211 HD
ENDBRANCH  12  19
BRANCH  13  21
ATOM     21  O   UNL     1      20.560   8.856  46.796  1.00  0.00    -0.385 OA
ATOM     22  H   UNL     1      21.192   9.257  47.461  1.00  0.00     0.211 HD
ENDBRANCH  13  21
ENDBRANCH   7   8
ENDBRANCH   1   7
BRANCH   2  23
ATOM     23  C   UNL     1      23.327   3.954  45.945  1.00  0.00     0.191 C 
BRANCH  23  24
ATOM     24  O   UNL     1      22.535   2.887  46.479  1.00  0.00    -0.394 OA
ATOM     25  H   UNL     1      22.790   2.710  47.456  1.00  0.00     0.210 HD
ENDBRANCH  23  24
ENDBRANCH   2  23
BRANCH   6  26
ATOM     26  O   UNL     1      22.901   4.343  41.736  1.00  0.00    -0.387 OA
ATOM     27  H   UNL     1      22.462   3.781  42.407  1.00  0.00     0.211 HD
ENDBRANCH   6  26
BRANCH   5  28
ATOM     28  O   UNL     1      25.630   5.610  41.412  1.00  0.00    -0.385 OA
ATOM     29  H   UNL     1      26.570   5.538  41.674  1.00  0.00     0.211 HD
ENDBRANCH   5  28
BRANCH   4  30
ATOM     30  O   UNL     1      26.533   3.763  42.943  1.00  0.00    -0.341 OA
BRANCH  30  31
ATOM     31  C   UNL     1      27.719   3.581  43.781  1.00  0.00     0.184 C 
ATOM     32  C   UNL     1      28.477   4.969  43.967  1.00  0.00     0.178 C 
ATOM     33  C   UNL     1      27.563   2.964  45.266  1.00  0.00     0.180 C 
ATOM     34  O   UNL     1      27.754   5.843  44.819  1.00  0.00    -0.342 OA
ATOM     35  C   UNL     1      28.117   3.917  46.386  1.00  0.00     0.201 C 
ATOM     36  C   UNL     1      27.400   5.248  46.074  1.00  0.00     0.279 C 
BRANCH  32  37
ATOM     37  C   UNL     1      28.813   5.699  42.652  1.00  0.00     0.191 C 
BRANCH  37  38
ATOM     38  O   UNL     1      28.592   4.844  41.556  1.00  0.00    -0.394 OA
ATOM     39  H   UNL     1      27.897   4.213  41.909  1.00  0.00     0.210 HD
ENDBRANCH  37  38
ENDBRANCH  32  37
BRANCH  33  40
ATOM     40  O   UNL     1      28.177   1.709  45.349  1.00  0.00    -0.387 OA
ATOM     41  H   UNL     1      28.665   1.720  46.244  1.00  0.00     0.211 HD
ENDBRANCH  33  40
BRANCH  35  42
ATOM     42  O   UNL     1      27.855   3.482  47.720  1.00  0.00    -0.385 OA
ATOM     43  H   UNL     1      27.874   4.325  48.313  1.00  0.00     0.211 HD
ENDBRANCH  35  42
BRANCH  36  44
ATOM     44  O   UNL     1      27.700   6.172  47.071  1.00  0.00    -0.366 OA
ATOM     45  H   UNL     1      27.168   7.023  46.877  1.00  0.00     0.213 HD
ENDBRANCH  36  44
ENDBRANCH  30  31
ENDBRANCH   4  30
TORSDOF 18
ENDMDL
MODEL 9
REMARK VINA RESULT:    -6.400      1.888      5.374
REMARK INTER + INTRA:         -14.301
REMARK INTER:                 -11.193
REMARK INTRA:                  -3.108
REMARK UNBOUND:                -3.224
REMARK SMILES OC[C@@H]1O[C@H](O[C@H]2[C@H](O)[C@H](O)[C@H](O[C@@H]3[C@@H](O)[C@H](O)[C@@H](O)O[C@@H]3CO)O[C@H]2CO)[C@@H](O)[C@@H](O)[C@@H]1O
REMARK SMILES IDX 7 1 26 2 25 3 12 4 10 5 8 6 6 7 5 8 3 9 33 10 4 11 31 12
REMARK SMILES IDX 29 13 2 14 1 15 34 17 32 19 30 21 27 23 28 24 9 26 11 28
REMARK SMILES IDX 13 30 14 31 22 32 15 33 21 34 17 35 19 36 23 37 24 38 16 40
REMARK SMILES IDX 18 42 20 44
REMARK H PARENT 1 16 34 18 32 20 30 22 28 25 9 27 11 29 24 39 16 41 18 43
REMARK H PARENT 20 45
REMARK Flexibility Score: inf
ROOT
ATOM      1  C   UNL     1      21.763   9.667  44.427  1.00  0.00     0.184 C 
ATOM      2  C   UNL     1      22.801   9.796  45.704  1.00  0.00     0.178 C 
ATOM      3  O   UNL     1      23.042   8.566  46.463  1.00  0.00    -0.341 OA
ATOM      4  C   UNL     1      23.517   7.570  45.572  1.00  0.00     0.282 C 
ATOM      5  C   UNL     1      22.378   7.205  44.600  1.00  0.00     0.202 C 
ATOM      6  C   UNL     1      21.185   8.246  44.650  1.00  0.00     0.180 C 
ENDROOT
BRANCH   1   7
ATOM      7  O   UNL     1      22.366   9.721  43.102  1.00  0.00    -0.341 OA
BRANCH   7   8
ATOM      8  C   UNL     1      21.696  10.102  41.776  1.00  0.00     0.282 C 
ATOM      9  C   UNL     1      23.814   9.545  40.846  1.00  0.00     0.178 C 
ATOM     10  C   UNL     1      23.167   7.982  40.534  1.00  0.00     0.177 C 
ATOM     11  O   UNL     1      22.821  10.590  40.949  1.00  0.00    -0.341 OA
ATOM     12  C   UNL     1      22.059   8.384  39.546  1.00  0.00     0.179 C 
ATOM     13  C   UNL     1      21.044   9.153  40.534  1.00  0.00     0.202 C 
BRANCH   9  14
ATOM     14  C   UNL     1      25.007  10.005  41.769  1.00  0.00     0.191 C 
BRANCH  14  15
ATOM     15  O   UNL     1      25.271   8.913  42.586  1.00  0.00    -0.394 OA
ATOM     16  H   UNL     1      25.408   9.363  43.500  1.00  0.00     0.210 HD
ENDBRANCH  14  15
ENDBRANCH   9  14
BRANCH  10  17
ATOM     17  O   UNL     1      22.614   6.792  41.159  1.00  0.00    -0.387 OA
ATOM     18  H   UNL     1      22.213   6.152  40.529  1.00  0.00     0.211 HD
ENDBRANCH  10  17
BRANCH  12  19
ATOM     19  O   UNL     1      22.434   9.289  38.502  1.00  0.00    -0.387 OA
ATOM     20  H   UNL     1      23.325   8.985  38.114  1.00  0.00     0.211 HD
ENDBRANCH  12  19
BRANCH  13  21
ATOM     21  O   UNL     1      20.352  10.040  39.693  1.00  0.00    -0.385 OA
ATOM     22  H   UNL     1      19.434  10.282  40.013  1.00  0.00     0.211 HD
ENDBRANCH  13  21
ENDBRANCH   7   8
ENDBRANCH   1   7
BRANCH   2  23
ATOM     23  C   UNL     1      24.055  10.678  45.630  1.00  0.00     0.191 C 
BRANCH  23  24
ATOM     24  O   UNL     1      25.258   9.974  45.301  1.00  0.00    -0.394 OA
ATOM     25  H   UNL     1      25.301   9.799  44.291  1.00  0.00     0.210 HD
ENDBRANCH  23  24
ENDBRANCH   2  23
BRANCH   6  26
ATOM     26  O   UNL     1      20.563   8.285  45.991  1.00  0.00    -0.387 OA
ATOM     27  H   UNL     1      20.821   9.127  46.419  1.00  0.00     0.211 HD
ENDBRANCH   6  26
BRANCH   5  28
ATOM     28  O   UNL     1      21.878   5.881  44.709  1.00  0.00    -0.385 OA
ATOM     29  H   UNL     1      22.409   5.387  44.051  1.00  0.00     0.211 HD
ENDBRANCH   5  28
BRANCH   4  30
ATOM     30  O   UNL     1      23.893   6.326  46.231  1.00  0.00    -0.341 OA
BRANCH  30  31
ATOM     31  C   UNL     1      25.193   5.752  45.885  1.00  0.00     0.184 C 
ATOM     32  C   UNL     1      25.002   4.306  45.245  1.00  0.00     0.178 C 
ATOM     33  C   UNL     1      26.178   6.549  44.883  1.00  0.00     0.180 C 
ATOM     34  O   UNL     1      24.457   4.388  43.937  1.00  0.00    -0.342 OA
ATOM     35  C   UNL     1      26.563   5.712  43.609  1.00  0.00     0.201 C 
ATOM     36  C   UNL     1      25.184   5.270  43.073  1.00  0.00     0.279 C 
BRANCH  32  37
ATOM     37  C   UNL     1      24.155   3.336  46.091  1.00  0.00     0.191 C 
BRANCH  37  38
ATOM     38  O   UNL     1      22.795   3.680  46.003  1.00  0.00    -0.394 OA
ATOM     39  H   UNL     1      22.797   4.402  45.306  1.00  0.00     0.210 HD
ENDBRANCH  37  38
ENDBRANCH  32  37
BRANCH  33  40
ATOM     40  O   UNL     1      27.332   6.971  45.552  1.00  0.00    -0.387 OA
ATOM     41  H   UNL     1      26.988   7.479  46.366  1.00  0.00     0.211 HD
ENDBRANCH  33  40
BRANCH  35  42
ATOM     42  O   UNL     1      27.301   6.435  42.623  1.00  0.00    -0.385 OA
ATOM     43  H   UNL     1      28.298   6.268  42.823  1.00  0.00     0.211 HD
ENDBRANCH  35  42
BRANCH  36  44
ATOM     44  O   UNL     1      25.357   4.612  41.858  1.00  0.00    -0.366 OA
ATOM     45  H   UNL     1      25.715   3.676  42.060  1.00  0.00     0.213 HD
ENDBRANCH  36  44
ENDBRANCH  30  31
ENDBRANCH   4  30
TORSDOF 18
ENDMDL
