MODEL 1
REMARK VINA RESULT:    -4.750      0.000      0.000
REMARK INTER + INTRA:          -5.414
REMARK INTER:                  -5.166
REMARK INTRA:                  -0.248
REMARK UNBOUND:                -0.248
REMARK SMILES O=C([O-])c1ccccc1O
REMARK SMILES IDX 4 1 9 2 5 3 8 4 6 5 7 6 2 7 1 8 3 9 10 10
REMARK H PARENT 10 11
REMARK Flexibility Score: inf
ROOT
ATOM      1  C   UNL     1      -9.216   3.604  -0.307  1.00  0.00     0.039 A 
ATOM      2  C   UNL     1      -7.903   3.839   0.173  1.00  0.00     0.124 A 
ATOM      3  C   UNL     1     -10.198   3.152   0.593  1.00  0.00     0.014 A 
ATOM      4  C   UNL     1      -7.593   3.559   1.511  1.00  0.00     0.047 A 
ATOM      5  C   UNL     1      -9.879   2.898   1.928  1.00  0.00     0.001 A 
ATOM      6  C   UNL     1      -8.576   3.091   2.384  1.00  0.00     0.004 A 
ENDROOT
BRANCH   1   7
ATOM      7  C   UNL     1      -9.584   3.781  -1.729  1.00  0.00     0.075 C 
ATOM      8  O   UNL     1     -10.773   4.050  -2.045  1.00  0.00    -0.545 OA
ATOM      9  O   UNL     1      -8.647   3.585  -2.737  1.00  0.00    -0.545 OA
ENDBRANCH   1   7
BRANCH   2  10
ATOM     10  O   UNL     1      -6.894   4.379  -0.628  1.00  0.00    -0.507 OA
ATOM     11  H   UNL     1      -6.513   5.305  -0.493  1.00  0.00     0.293 HD
ENDBRANCH   2  10
TORSDOF 2
ENDMDL
MODEL 2
REMARK VINA RESULT:    -4.476      1.114      2.149
REMARK INTER + INTRA:          -5.117
REMARK INTER:                  -4.867
REMARK INTRA:                  -0.250
REMARK UNBOUND:                -0.248
REMARK SMILES O=C([O-])c1ccccc1O
REMARK SMILES IDX 4 1 9 2 5 3 8 4 6 5 7 6 2 7 1 8 3 9 10 10
REMARK H PARENT 10 11
REMARK Flexibility Score: inf
ROOT
ATOM      1  C   UNL     1      -8.971   3.698  -0.545  1.00  0.00     0.039 A 
ATOM      2  C   UNL     1      -9.655   2.968   0.459  1.00  0.00     0.124 A 
ATOM      3  C   UNL     1      -7.730   4.285  -0.235  1.00  0.00     0.014 A 
ATOM      4  C   UNL     1      -9.118   2.897   1.751  1.00  0.00     0.047 A 
ATOM      5  C   UNL     1      -7.198   4.186   1.052  1.00  0.00     0.001 A 
ATOM      6  C   UNL     1      -7.896   3.502   2.047  1.00  0.00     0.004 A 
ENDROOT
BRANCH   1   7
ATOM      7  C   UNL     1      -9.530   3.898  -1.901  1.00  0.00     0.075 C 
ATOM      8  O   UNL     1     -10.747   4.187  -2.046  1.00  0.00    -0.545 OA
ATOM      9  O   UNL     1      -8.745   3.704  -3.031  1.00  0.00    -0.545 OA
ENDBRANCH   1   7
BRANCH   2  10
ATOM     10  O   UNL     1     -10.841   2.274   0.209  1.00  0.00    -0.507 OA
ATOM     11  H   UNL     1     -11.320   2.295  -0.680  1.00  0.00     0.293 HD
ENDBRANCH   2  10
TORSDOF 2
ENDMDL
MODEL 3
REMARK VINA RESULT:    -4.449     13.625     14.510
REMARK INTER + INTRA:          -5.087
REMARK INTER:                  -4.834
REMARK INTRA:                  -0.252
REMARK UNBOUND:                -0.248
REMARK SMILES O=C([O-])c1ccccc1O
REMARK SMILES IDX 4 1 9 2 5 3 8 4 6 5 7 6 2 7 1 8 3 9 10 10
REMARK H PARENT 10 11
REMARK Flexibility Score: inf
ROOT
ATOM      1  C   UNL     1      -9.631  -5.601 -11.295  1.00  0.00     0.039 A 
ATOM      2  C   UNL     1      -9.523  -6.120  -9.980  1.00  0.00     0.124 A 
ATOM      3  C   UNL     1     -10.815  -4.944 -11.672  1.00  0.00     0.014 A 
ATOM      4  C   UNL     1     -10.615  -6.025  -9.106  1.00  0.00     0.047 A 
ATOM      5  C   UNL     1     -11.886  -4.838 -10.783  1.00  0.00     0.001 A 
ATOM      6  C   UNL     1     -11.790  -5.388  -9.505  1.00  0.00     0.004 A 
ENDROOT
BRANCH   1   7
ATOM      7  C   UNL     1      -8.555  -5.758 -12.300  1.00  0.00     0.075 C 
ATOM      8  O   UNL     1      -8.824  -6.194 -13.450  1.00  0.00    -0.545 OA
ATOM      9  O   UNL     1      -7.231  -5.494 -11.972  1.00  0.00    -0.545 OA
ENDBRANCH   1   7
BRANCH   2  10
ATOM     10  O   UNL     1      -8.349  -6.700  -9.493  1.00  0.00    -0.507 OA
ATOM     11  H   UNL     1      -7.525  -6.845 -10.058  1.00  0.00     0.293 HD
ENDBRANCH   2  10
TORSDOF 2
ENDMDL
MODEL 4
REMARK VINA RESULT:    -4.441      1.719      2.508
REMARK INTER + INTRA:          -5.078
REMARK INTER:                  -4.841
REMARK INTRA:                  -0.237
REMARK UNBOUND:                -0.248
REMARK SMILES O=C([O-])c1ccccc1O
REMARK SMILES IDX 4 1 9 2 5 3 8 4 6 5 7 6 2 7 1 8 3 9 10 10
REMARK H PARENT 10 11
REMARK Flexibility Score: inf
ROOT
ATOM      1  C   UNL     1      -9.913   2.825  -1.046  1.00  0.00     0.039 A 
ATOM      2  C   UNL     1      -9.127   3.884  -1.565  1.00  0.00     0.124 A 
ATOM      3  C   UNL     1     -10.325   2.878   0.298  1.00  0.00     0.014 A 
ATOM      4  C   UNL     1      -8.723   4.926  -0.720  1.00  0.00     0.047 A 
ATOM      5  C   UNL     1      -9.932   3.935   1.122  1.00  0.00     0.001 A 
ATOM      6  C   UNL     1      -9.124   4.953   0.616  1.00  0.00     0.004 A 
ENDROOT
BRANCH   1   7
ATOM      7  C   UNL     1     -10.287   1.643  -1.856  1.00  0.00     0.075 C 
ATOM      8  O   UNL     1      -9.552   1.271  -2.808  1.00  0.00    -0.545 OA
ATOM      9  O   UNL     1     -11.482   0.973  -1.625  1.00  0.00    -0.545 OA
ENDBRANCH   1   7
BRANCH   2  10
ATOM     10  O   UNL     1      -8.757   3.958  -2.911  1.00  0.00    -0.507 OA
ATOM     11  H   UNL     1      -8.789   4.811  -3.449  1.00  0.00     0.293 HD
ENDBRANCH   2  10
TORSDOF 2
ENDMDL
MODEL 5
REMARK VINA RESULT:    -4.344      2.476      4.221
REMARK INTER + INTRA:          -4.973
REMARK INTER:                  -4.732
REMARK INTRA:                  -0.241
REMARK UNBOUND:                -0.248
REMARK SMILES O=C([O-])c1ccccc1O
REMARK SMILES IDX 4 1 9 2 5 3 8 4 6 5 7 6 2 7 1 8 3 9 10 10
REMARK H PARENT 10 11
REMARK Flexibility Score: inf
ROOT
ATOM      1  C   UNL     1      -9.943   3.221  -2.188  1.00  0.00     0.039 A 
ATOM      2  C   UNL     1     -10.401   3.526  -3.494  1.00  0.00     0.124 A 
ATOM      3  C   UNL     1     -10.253   1.966  -1.633  1.00  0.00     0.014 A 
ATOM      4  C   UNL     1     -11.202   2.604  -4.180  1.00  0.00     0.047 A 
ATOM      5  C   UNL     1     -11.034   1.049  -2.339  1.00  0.00     0.001 A 
ATOM      6  C   UNL     1     -11.517   1.372  -3.607  1.00  0.00     0.004 A 
ENDROOT
BRANCH   1   7
ATOM      7  C   UNL     1      -9.180   4.189  -1.368  1.00  0.00     0.075 C 
ATOM      8  O   UNL     1      -9.612   5.361  -1.209  1.00  0.00    -0.545 OA
ATOM      9  O   UNL     1      -7.949   3.845  -0.823  1.00  0.00    -0.545 OA
ENDBRANCH   1   7
BRANCH   2  10
ATOM     10  O   UNL     1     -10.057   4.708  -4.156  1.00  0.00    -0.507 OA
ATOM     11  H   UNL     1     -10.533   5.586  -4.008  1.00  0.00     0.293 HD
ENDBRANCH   2  10
TORSDOF 2
ENDMDL
MODEL 6
REMARK VINA RESULT:    -4.284      2.235      2.947
REMARK INTER + INTRA:          -4.907
REMARK INTER:                  -4.694
REMARK INTRA:                  -0.213
REMARK UNBOUND:                -0.248
REMARK SMILES O=C([O-])c1ccccc1O
REMARK SMILES IDX 4 1 9 2 5 3 8 4 6 5 7 6 2 7 1 8 3 9 10 10
REMARK H PARENT 10 11
REMARK Flexibility Score: inf
ROOT
ATOM      1  C   UNL     1      -9.897   3.508  -2.172  1.00  0.00     0.039 A 
ATOM      2  C   UNL     1      -9.985   2.544  -1.136  1.00  0.00     0.124 A 
ATOM      3  C   UNL     1      -9.208   4.710  -1.927  1.00  0.00     0.014 A 
ATOM      4  C   UNL     1      -9.444   2.830   0.125  1.00  0.00     0.047 A 
ATOM      5  C   UNL     1      -8.655   4.971  -0.671  1.00  0.00     0.001 A 
ATOM      6  C   UNL     1      -8.782   4.037   0.356  1.00  0.00     0.004 A 
ENDROOT
BRANCH   1   7
ATOM      7  C   UNL     1     -10.535   3.313  -3.493  1.00  0.00     0.075 C 
ATOM      8  O   UNL     1     -10.713   4.296  -4.260  1.00  0.00    -0.545 OA
ATOM      9  O   UNL     1     -11.008   2.064  -3.877  1.00  0.00    -0.545 OA
ENDBRANCH   1   7
BRANCH   2  10
ATOM     10  O   UNL     1     -10.565   1.287  -1.324  1.00  0.00    -0.507 OA
ATOM     11  H   UNL     1     -11.099   1.039  -2.144  1.00  0.00     0.293 HD
ENDBRANCH   2  10
TORSDOF 2
ENDMDL
MODEL 7
REMARK VINA RESULT:    -4.245     12.805     14.176
REMARK INTER + INTRA:          -4.865
REMARK INTER:                  -4.618
REMARK INTRA:                  -0.247
REMARK UNBOUND:                -0.248
REMARK SMILES O=C([O-])c1ccccc1O
REMARK SMILES IDX 4 1 9 2 5 3 8 4 6 5 7 6 2 7 1 8 3 9 10 10
REMARK H PARENT 10 11
REMARK Flexibility Score: inf
ROOT
ATOM      1  C   UNL     1      -9.933  -5.610 -11.046  1.00  0.00     0.039 A 
ATOM      2  C   UNL     1     -10.029  -4.655 -10.003  1.00  0.00     0.124 A 
ATOM      3  C   UNL     1     -10.896  -6.633 -11.124  1.00  0.00     0.014 A 
ATOM      4  C   UNL     1     -11.037  -4.782  -9.038  1.00  0.00     0.047 A 
ATOM      5  C   UNL     1     -11.908  -6.733 -10.167  1.00  0.00     0.001 A 
ATOM      6  C   UNL     1     -11.972  -5.815  -9.119  1.00  0.00     0.004 A 
ENDROOT
BRANCH   1   7
ATOM      7  C   UNL     1      -8.835  -5.594 -12.038  1.00  0.00     0.075 C 
ATOM      8  O   UNL     1      -9.077  -5.818 -13.253  1.00  0.00    -0.545 OA
ATOM      9  O   UNL     1      -7.518  -5.404 -11.637  1.00  0.00    -0.545 OA
ENDBRANCH   1   7
BRANCH   2  10
ATOM     10  O   UNL     1      -9.174  -3.554  -9.909  1.00  0.00    -0.507 OA
ATOM     11  H   UNL     1      -8.168  -3.628  -9.944  1.00  0.00     0.293 HD
ENDBRANCH   2  10
TORSDOF 2
ENDMDL
MODEL 8
REMARK VINA RESULT:    -4.241     12.710     14.235
REMARK INTER + INTRA:          -4.861
REMARK INTER:                  -4.608
REMARK INTRA:                  -0.253
REMARK UNBOUND:                -0.248
REMARK SMILES O=C([O-])c1ccccc1O
REMARK SMILES IDX 4 1 9 2 5 3 8 4 6 5 7 6 2 7 1 8 3 9 10 10
REMARK H PARENT 10 11
REMARK Flexibility Score: inf
ROOT
ATOM      1  C   UNL     1     -10.309  -5.322 -10.302  1.00  0.00     0.039 A 
ATOM      2  C   UNL     1      -9.079  -5.976 -10.561  1.00  0.00     0.124 A 
ATOM      3  C   UNL     1     -11.010  -4.740 -11.374  1.00  0.00     0.014 A 
ATOM      4  C   UNL     1      -8.554  -5.976 -11.861  1.00  0.00     0.047 A 
ATOM      5  C   UNL     1     -10.484  -4.768 -12.668  1.00  0.00     0.001 A 
ATOM      6  C   UNL     1      -9.253  -5.376 -12.909  1.00  0.00     0.004 A 
ENDROOT
BRANCH   1   7
ATOM      7  C   UNL     1     -10.869  -5.195  -8.938  1.00  0.00     0.075 C 
ATOM      8  O   UNL     1     -11.253  -4.073  -8.514  1.00  0.00    -0.545 OA
ATOM      9  O   UNL     1     -10.914  -6.290  -8.083  1.00  0.00    -0.545 OA
ENDBRANCH   1   7
BRANCH   2  10
ATOM     10  O   UNL     1      -8.368  -6.662  -9.573  1.00  0.00    -0.507 OA
ATOM     11  H   UNL     1      -7.474  -6.355  -9.217  1.00  0.00     0.293 HD
ENDBRANCH   2  10
TORSDOF 2
ENDMDL
MODEL 9
REMARK VINA RESULT:    -4.125     10.021     10.627
REMARK INTER + INTRA:          -4.735
REMARK INTER:                  -4.512
REMARK INTRA:                  -0.223
REMARK UNBOUND:                -0.248
REMARK SMILES O=C([O-])c1ccccc1O
REMARK SMILES IDX 4 1 9 2 5 3 8 4 6 5 7 6 2 7 1 8 3 9 10 10
REMARK H PARENT 10 11
REMARK Flexibility Score: inf
ROOT
ATOM      1  C   UNL     1      -8.453  -6.400   1.437  1.00  0.00     0.039 A 
ATOM      2  C   UNL     1      -8.465  -6.650   0.042  1.00  0.00     0.124 A 
ATOM      3  C   UNL     1      -9.499  -6.907   2.229  1.00  0.00     0.014 A 
ATOM      4  C   UNL     1      -9.544  -7.338  -0.529  1.00  0.00     0.047 A 
ATOM      5  C   UNL     1     -10.556  -7.610   1.648  1.00  0.00     0.001 A 
ATOM      6  C   UNL     1     -10.584  -7.816   0.269  1.00  0.00     0.004 A 
ENDROOT
BRANCH   1   7
ATOM      7  C   UNL     1      -7.397  -5.593   2.090  1.00  0.00     0.075 C 
ATOM      8  O   UNL     1      -7.304  -5.572   3.345  1.00  0.00    -0.545 OA
ATOM      9  O   UNL     1      -6.543  -4.797   1.336  1.00  0.00    -0.545 OA
ENDBRANCH   1   7
BRANCH   2  10
ATOM     10  O   UNL     1      -7.419  -6.267  -0.801  1.00  0.00    -0.507 OA
ATOM     11  H   UNL     1      -6.644  -5.694  -0.499  1.00  0.00     0.293 HD
ENDBRANCH   2  10
TORSDOF 2
ENDMDL
