MODEL 1
REMARK VINA RESULT:    -7.097      0.000      0.000
REMARK INTER + INTRA:          -8.607
REMARK INTER:                  -8.342
REMARK INTRA:                  -0.265
REMARK UNBOUND:                -0.265
REMARK SMILES O=c1cc(-c2ccc(O)c(O)c2)oc2cc(O)cc(O)c12
REMARK SMILES IDX 4 1 3 2 2 3 1 4 21 5 19 6 18 7 16 8 15 9 14 10 13 11 5 12
REMARK SMILES IDX 6 13 7 14 8 15 12 16 10 17 9 18 11 20 20 22 17 24
REMARK H PARENT 9 19 11 21 20 23 17 25
REMARK Flexibility Score: inf
ROOT
ATOM      1  C   UNL     1     -13.655 -10.021 -16.305  1.00  0.00     0.138 A 
ATOM      2  C   UNL     1     -13.205  -8.882 -16.992  1.00  0.00     0.100 A 
ATOM      3  C   UNL     1     -11.877  -8.812 -17.416  1.00  0.00     0.197 A 
ATOM      4  O   UNL     1     -11.485  -7.787 -18.033  1.00  0.00    -0.289 OA
ATOM      5  C   UNL     1     -11.006  -9.888 -17.149  1.00  0.00     0.107 A 
ATOM      6  C   UNL     1      -9.646  -9.899 -17.541  1.00  0.00     0.134 A 
ATOM      7  C   UNL     1      -8.846 -11.011 -17.242  1.00  0.00     0.093 A 
ATOM      8  C   UNL     1      -9.381 -12.112 -16.561  1.00  0.00     0.123 A 
ATOM      9  C   UNL     1     -10.722 -12.105 -16.173  1.00  0.00     0.094 A 
ATOM     10  C   UNL     1     -11.535 -11.006 -16.461  1.00  0.00     0.146 A 
ATOM     11  O   UNL     1     -12.809 -11.024 -16.078  1.00  0.00    -0.456 OA
ENDROOT
BRANCH   1  12
ATOM     12  C   UNL     1     -15.056 -10.149 -15.833  1.00  0.00     0.021 A 
ATOM     13  C   UNL     1     -15.934 -11.015 -16.505  1.00  0.00     0.016 A 
ATOM     14  C   UNL     1     -17.255 -11.157 -16.076  1.00  0.00     0.051 A 
ATOM     15  C   UNL     1     -17.728 -10.450 -14.967  1.00  0.00     0.157 A 
ATOM     16  C   UNL     1     -15.526  -9.447 -14.707  1.00  0.00     0.062 A 
ATOM     17  C   UNL     1     -16.849  -9.587 -14.269  1.00  0.00     0.158 A 
BRANCH  15  18
ATOM     18  O   UNL     1     -19.061 -10.633 -14.595  1.00  0.00    -0.504 OA
ATOM     19  H   UNL     1     -19.429 -11.496 -14.220  1.00  0.00     0.293 HD
ENDBRANCH  15  18
BRANCH  17  20
ATOM     20  O   UNL     1     -17.244  -8.860 -13.144  1.00  0.00    -0.504 OA
ATOM     21  H   UNL     1     -17.033  -7.884 -13.000  1.00  0.00     0.293 HD
ENDBRANCH  17  20
ENDBRANCH   1  12
BRANCH   6  22
ATOM     22  O   UNL     1      -9.087  -8.817 -18.221  1.00  0.00    -0.507 OA
ATOM     23  H   UNL     1      -9.636  -8.240 -18.849  1.00  0.00     0.293 HD
ENDBRANCH   6  22
BRANCH   8  24
ATOM     24  O   UNL     1      -8.586 -13.217 -16.265  1.00  0.00    -0.508 OA
ATOM     25  H   UNL     1      -8.374 -13.477 -15.309  1.00  0.00     0.293 HD
ENDBRANCH   8  24
TORSDOF 5
ENDMDL
MODEL 2
REMARK VINA RESULT:    -7.074     13.109     16.123
REMARK INTER + INTRA:          -8.580
REMARK INTER:                  -8.307
REMARK INTRA:                  -0.273
REMARK UNBOUND:                -0.265
REMARK SMILES O=c1cc(-c2ccc(O)c(O)c2)oc2cc(O)cc(O)c12
REMARK SMILES IDX 4 1 3 2 2 3 1 4 21 5 19 6 18 7 16 8 15 9 14 10 13 11 5 12
REMARK SMILES IDX 6 13 7 14 8 15 12 16 10 17 9 18 11 20 20 22 17 24
REMARK H PARENT 9 19 11 21 20 23 17 25
REMARK Flexibility Score: inf
ROOT
ATOM      1  C   UNL     1      -7.924 -19.854  -6.436  1.00  0.00     0.138 A 
ATOM      2  C   UNL     1      -8.219 -18.775  -7.285  1.00  0.00     0.100 A 
ATOM      3  C   UNL     1      -9.544 -18.369  -7.447  1.00  0.00     0.197 A 
ATOM      4  O   UNL     1      -9.798 -17.399  -8.210  1.00  0.00    -0.289 OA
ATOM      5  C   UNL     1     -10.568 -19.047  -6.755  1.00  0.00     0.107 A 
ATOM      6  C   UNL     1     -11.936 -18.703  -6.864  1.00  0.00     0.134 A 
ATOM      7  C   UNL     1     -12.894 -19.425  -6.138  1.00  0.00     0.093 A 
ATOM      8  C   UNL     1     -12.509 -20.482  -5.305  1.00  0.00     0.123 A 
ATOM      9  C   UNL     1     -11.160 -20.825  -5.194  1.00  0.00     0.094 A 
ATOM     10  C   UNL     1     -10.191 -20.119  -5.911  1.00  0.00     0.146 A 
ATOM     11  O   UNL     1      -8.913 -20.467  -5.789  1.00  0.00    -0.456 OA
ENDROOT
BRANCH   1  12
ATOM     12  C   UNL     1      -6.533 -20.327  -6.225  1.00  0.00     0.021 A 
ATOM     13  C   UNL     1      -6.227 -21.683  -6.428  1.00  0.00     0.016 A 
ATOM     14  C   UNL     1      -4.925 -22.151  -6.241  1.00  0.00     0.051 A 
ATOM     15  C   UNL     1      -3.900 -21.281  -5.859  1.00  0.00     0.157 A 
ATOM     16  C   UNL     1      -5.498 -19.447  -5.854  1.00  0.00     0.062 A 
ATOM     17  C   UNL     1      -4.189 -19.909  -5.669  1.00  0.00     0.158 A 
BRANCH  15  18
ATOM     18  O   UNL     1      -2.621 -21.815  -5.684  1.00  0.00    -0.504 OA
ATOM     19  H   UNL     1      -2.005 -22.066  -6.445  1.00  0.00     0.293 HD
ENDBRANCH  15  18
BRANCH  17  20
ATOM     20  O   UNL     1      -3.215 -18.978  -5.303  1.00  0.00    -0.504 OA
ATOM     21  H   UNL     1      -2.910 -18.823  -4.354  1.00  0.00     0.293 HD
ENDBRANCH  17  20
ENDBRANCH   1  12
BRANCH   6  22
ATOM     22  O   UNL     1     -12.348 -17.653  -7.686  1.00  0.00    -0.507 OA
ATOM     23  H   UNL     1     -13.003 -16.950  -7.364  1.00  0.00     0.293 HD
ENDBRANCH   6  22
BRANCH   8  24
ATOM     24  O   UNL     1     -13.461 -21.198  -4.582  1.00  0.00    -0.508 OA
ATOM     25  H   UNL     1     -14.442 -21.178  -4.833  1.00  0.00     0.293 HD
ENDBRANCH   8  24
TORSDOF 5
ENDMDL
MODEL 3
REMARK VINA RESULT:    -6.836      1.864      6.922
REMARK INTER + INTRA:          -8.300
REMARK INTER:                  -8.014
REMARK INTRA:                  -0.286
REMARK UNBOUND:                -0.265
REMARK SMILES O=c1cc(-c2ccc(O)c(O)c2)oc2cc(O)cc(O)c12
REMARK SMILES IDX 4 1 3 2 2 3 1 4 21 5 19 6 18 7 16 8 15 9 14 10 13 11 5 12
REMARK SMILES IDX 6 13 7 14 8 15 12 16 10 17 9 18 11 20 20 22 17 24
REMARK H PARENT 9 19 11 21 20 23 17 25
REMARK Flexibility Score: inf
ROOT
ATOM      1  C   UNL     1     -12.280 -10.445 -15.459  1.00  0.00     0.138 A 
ATOM      2  C   UNL     1     -12.281  -9.096 -15.067  1.00  0.00     0.100 A 
ATOM      3  C   UNL     1     -13.472  -8.503 -14.647  1.00  0.00     0.197 A 
ATOM      4  O   UNL     1     -13.462  -7.293 -14.296  1.00  0.00    -0.289 OA
ATOM      5  C   UNL     1     -14.657  -9.266 -14.619  1.00  0.00     0.107 A 
ATOM      6  C   UNL     1     -15.906  -8.743 -14.209  1.00  0.00     0.134 A 
ATOM      7  C   UNL     1     -17.038  -9.570 -14.205  1.00  0.00     0.093 A 
ATOM      8  C   UNL     1     -16.944 -10.909 -14.603  1.00  0.00     0.123 A 
ATOM      9  C   UNL     1     -15.713 -11.430 -15.008  1.00  0.00     0.094 A 
ATOM     10  C   UNL     1     -14.574 -10.621 -15.020  1.00  0.00     0.146 A 
ATOM     11  O   UNL     1     -13.415 -11.141 -15.412  1.00  0.00    -0.456 OA
ENDROOT
BRANCH   1  12
ATOM     12  C   UNL     1     -11.043 -11.128 -15.914  1.00  0.00     0.021 A 
ATOM     13  C   UNL     1     -10.262 -10.541 -16.922  1.00  0.00     0.016 A 
ATOM     14  C   UNL     1      -9.091 -11.161 -17.363  1.00  0.00     0.051 A 
ATOM     15  C   UNL     1      -8.668 -12.370 -16.805  1.00  0.00     0.157 A 
ATOM     16  C   UNL     1     -10.611 -12.339 -15.341  1.00  0.00     0.062 A 
ATOM     17  C   UNL     1      -9.436 -12.965 -15.775  1.00  0.00     0.158 A 
BRANCH  15  18
ATOM     18  O   UNL     1      -7.491 -12.940 -17.295  1.00  0.00    -0.504 OA
ATOM     19  H   UNL     1      -7.438 -13.478 -18.149  1.00  0.00     0.293 HD
ENDBRANCH  15  18
BRANCH  17  20
ATOM     20  O   UNL     1      -9.069 -14.163 -15.159  1.00  0.00    -0.504 OA
ATOM     21  H   UNL     1      -8.556 -14.217 -14.291  1.00  0.00     0.293 HD
ENDBRANCH  17  20
ENDBRANCH   1  12
BRANCH   6  22
ATOM     22  O   UNL     1     -16.029  -7.412 -13.807  1.00  0.00    -0.507 OA
ATOM     23  H   UNL     1     -16.042  -7.150 -12.828  1.00  0.00     0.293 HD
ENDBRANCH   6  22
BRANCH   8  24
ATOM     24  O   UNL     1     -18.069 -11.732 -14.598  1.00  0.00    -0.508 OA
ATOM     25  H   UNL     1     -18.393 -12.190 -15.440  1.00  0.00     0.293 HD
ENDBRANCH   8  24
TORSDOF 5
ENDMDL
MODEL 4
REMARK VINA RESULT:    -6.833      1.968      3.097
REMARK INTER + INTRA:          -8.296
REMARK INTER:                  -8.030
REMARK INTRA:                  -0.266
REMARK UNBOUND:                -0.265
REMARK SMILES O=c1cc(-c2ccc(O)c(O)c2)oc2cc(O)cc(O)c12
REMARK SMILES IDX 4 1 3 2 2 3 1 4 21 5 19 6 18 7 16 8 15 9 14 10 13 11 5 12
REMARK SMILES IDX 6 13 7 14 8 15 12 16 10 17 9 18 11 20 20 22 17 24
REMARK H PARENT 9 19 11 21 20 23 17 25
REMARK Flexibility Score: inf
ROOT
ATOM      1  C   UNL     1     -11.413 -10.920 -15.880  1.00  0.00     0.138 A 
ATOM      2  C   UNL     1     -10.594 -10.297 -16.835  1.00  0.00     0.100 A 
ATOM      3  C   UNL     1      -9.466 -10.966 -17.315  1.00  0.00     0.197 A 
ATOM      4  O   UNL     1      -8.739 -10.399 -18.173  1.00  0.00    -0.289 OA
ATOM      5  C   UNL     1      -9.168 -12.257 -16.836  1.00  0.00     0.107 A 
ATOM      6  C   UNL     1      -8.046 -13.003 -17.267  1.00  0.00     0.134 A 
ATOM      7  C   UNL     1      -7.821 -14.285 -16.745  1.00  0.00     0.093 A 
ATOM      8  C   UNL     1      -8.698 -14.834 -15.801  1.00  0.00     0.123 A 
ATOM      9  C   UNL     1      -9.806 -14.101 -15.373  1.00  0.00     0.094 A 
ATOM     10  C   UNL     1     -10.047 -12.822 -15.881  1.00  0.00     0.146 A 
ATOM     11  O   UNL     1     -11.109 -12.145 -15.454  1.00  0.00    -0.456 OA
ENDROOT
BRANCH   1  12
ATOM     12  C   UNL     1     -12.625 -10.257 -15.335  1.00  0.00     0.021 A 
ATOM     13  C   UNL     1     -13.894 -10.759 -15.665  1.00  0.00     0.016 A 
ATOM     14  C   UNL     1     -15.048 -10.156 -15.161  1.00  0.00     0.051 A 
ATOM     15  C   UNL     1     -14.964  -9.049 -14.311  1.00  0.00     0.157 A 
ATOM     16  C   UNL     1     -12.538  -9.151 -14.468  1.00  0.00     0.062 A 
ATOM     17  C   UNL     1     -13.691  -8.543 -13.956  1.00  0.00     0.158 A 
BRANCH  15  18
ATOM     18  O   UNL     1     -16.156  -8.490 -13.847  1.00  0.00    -0.504 OA
ATOM     19  H   UNL     1     -16.202  -7.721 -13.194  1.00  0.00     0.293 HD
ENDBRANCH  15  18
BRANCH  17  20
ATOM     20  O   UNL     1     -13.527  -7.451 -13.100  1.00  0.00    -0.504 OA
ATOM     21  H   UNL     1     -13.745  -7.469 -12.115  1.00  0.00     0.293 HD
ENDBRANCH  17  20
ENDBRANCH   1  12
BRANCH   6  22
ATOM     22  O   UNL     1      -7.156 -12.482 -18.207  1.00  0.00    -0.507 OA
ATOM     23  H   UNL     1      -6.616 -11.644 -18.023  1.00  0.00     0.293 HD
ENDBRANCH   6  22
BRANCH   8  24
ATOM     24  O   UNL     1      -8.475 -16.108 -15.284  1.00  0.00    -0.508 OA
ATOM     25  H   UNL     1      -8.468 -16.928 -15.878  1.00  0.00     0.293 HD
ENDBRANCH   8  24
TORSDOF 5
ENDMDL
MODEL 5
REMARK VINA RESULT:    -6.799      1.430      2.075
REMARK INTER + INTRA:          -8.256
REMARK INTER:                  -7.956
REMARK INTRA:                  -0.300
REMARK UNBOUND:                -0.265
REMARK SMILES O=c1cc(-c2ccc(O)c(O)c2)oc2cc(O)cc(O)c12
REMARK SMILES IDX 4 1 3 2 2 3 1 4 21 5 19 6 18 7 16 8 15 9 14 10 13 11 5 12
REMARK SMILES IDX 6 13 7 14 8 15 12 16 10 17 9 18 11 20 20 22 17 24
REMARK H PARENT 9 19 11 21 20 23 17 25
REMARK Flexibility Score: inf
ROOT
ATOM      1  C   UNL     1     -12.428 -10.252 -15.980  1.00  0.00     0.138 A 
ATOM      2  C   UNL     1     -11.887  -9.497 -17.034  1.00  0.00     0.100 A 
ATOM      3  C   UNL     1     -10.696  -9.909 -17.634  1.00  0.00     0.197 A 
ATOM      4  O   UNL     1     -10.220  -9.226 -18.580  1.00  0.00    -0.289 OA
ATOM      5  C   UNL     1     -10.054 -11.077 -17.175  1.00  0.00     0.107 A 
ATOM      6  C   UNL     1      -8.845 -11.563 -17.726  1.00  0.00     0.134 A 
ATOM      7  C   UNL     1      -8.272 -12.737 -17.216  1.00  0.00     0.093 A 
ATOM      8  C   UNL     1      -8.886 -13.433 -16.168  1.00  0.00     0.123 A 
ATOM      9  C   UNL     1     -10.079 -12.957 -15.622  1.00  0.00     0.094 A 
ATOM     10  C   UNL     1     -10.666 -11.788 -16.116  1.00  0.00     0.146 A 
ATOM     11  O   UNL     1     -11.801 -11.355 -15.576  1.00  0.00    -0.456 OA
ENDROOT
BRANCH   1  12
ATOM     12  C   UNL     1     -13.691  -9.862 -15.305  1.00  0.00     0.021 A 
ATOM     13  C   UNL     1     -13.973  -8.502 -15.101  1.00  0.00     0.016 A 
ATOM     14  C   UNL     1     -15.158  -8.110 -14.474  1.00  0.00     0.051 A 
ATOM     15  C   UNL     1     -16.089  -9.060 -14.047  1.00  0.00     0.157 A 
ATOM     16  C   UNL     1     -14.635 -10.820 -14.888  1.00  0.00     0.062 A 
ATOM     17  C   UNL     1     -15.827 -10.434 -14.262  1.00  0.00     0.158 A 
BRANCH  15  18
ATOM     18  O   UNL     1     -17.251  -8.601 -13.422  1.00  0.00    -0.504 OA
ATOM     19  H   UNL     1     -18.185  -8.797 -13.753  1.00  0.00     0.293 HD
ENDBRANCH  15  18
BRANCH  17  20
ATOM     20  O   UNL     1     -16.716 -11.440 -13.877  1.00  0.00    -0.504 OA
ATOM     21  H   UNL     1     -17.672 -11.500 -14.195  1.00  0.00     0.293 HD
ENDBRANCH  17  20
ENDBRANCH   1  12
BRANCH   6  22
ATOM     22  O   UNL     1      -8.211 -10.890 -18.771  1.00  0.00    -0.507 OA
ATOM     23  H   UNL     1      -7.571 -11.363 -19.400  1.00  0.00     0.293 HD
ENDBRANCH   6  22
BRANCH   8  24
ATOM     24  O   UNL     1      -8.317 -14.600 -15.662  1.00  0.00    -0.508 OA
ATOM     25  H   UNL     1      -8.116 -14.707 -14.675  1.00  0.00     0.293 HD
ENDBRANCH   8  24
TORSDOF 5
ENDMDL
MODEL 6
REMARK VINA RESULT:    -6.731     12.925     14.659
REMARK INTER + INTRA:          -8.177
REMARK INTER:                  -7.859
REMARK INTRA:                  -0.317
REMARK UNBOUND:                -0.265
REMARK SMILES O=c1cc(-c2ccc(O)c(O)c2)oc2cc(O)cc(O)c12
REMARK SMILES IDX 4 1 3 2 2 3 1 4 21 5 19 6 18 7 16 8 15 9 14 10 13 11 5 12
REMARK SMILES IDX 6 13 7 14 8 15 12 16 10 17 9 18 11 20 20 22 17 24
REMARK H PARENT 9 19 11 21 20 23 17 25
REMARK Flexibility Score: inf
ROOT
ATOM      1  C   UNL     1      -8.573 -19.638  -6.778  1.00  0.00     0.138 A 
ATOM      2  C   UNL     1      -8.115 -19.000  -7.943  1.00  0.00     0.100 A 
ATOM      3  C   UNL     1      -6.745 -18.944  -8.204  1.00  0.00     0.197 A 
ATOM      4  O   UNL     1      -6.346 -18.370  -9.252  1.00  0.00    -0.289 OA
ATOM      5  C   UNL     1      -5.841 -19.530  -7.296  1.00  0.00     0.107 A 
ATOM      6  C   UNL     1      -4.438 -19.517  -7.483  1.00  0.00     0.134 A 
ATOM      7  C   UNL     1      -3.605 -20.128  -6.535  1.00  0.00     0.093 A 
ATOM      8  C   UNL     1      -4.148 -20.752  -5.405  1.00  0.00     0.123 A 
ATOM      9  C   UNL     1      -5.532 -20.767  -5.217  1.00  0.00     0.094 A 
ATOM     10  C   UNL     1      -6.379 -20.163  -6.150  1.00  0.00     0.146 A 
ATOM     11  O   UNL     1      -7.692 -20.190  -5.946  1.00  0.00    -0.456 OA
ENDROOT
BRANCH   1  12
ATOM     12  C   UNL     1     -10.018 -19.729  -6.450  1.00  0.00     0.021 A 
ATOM     13  C   UNL     1     -10.947 -19.016  -7.225  1.00  0.00     0.016 A 
ATOM     14  C   UNL     1     -12.312 -19.090  -6.940  1.00  0.00     0.051 A 
ATOM     15  C   UNL     1     -12.781 -19.879  -5.887  1.00  0.00     0.157 A 
ATOM     16  C   UNL     1     -10.490 -20.535  -5.398  1.00  0.00     0.062 A 
ATOM     17  C   UNL     1     -11.858 -20.617  -5.108  1.00  0.00     0.158 A 
BRANCH  15  18
ATOM     18  O   UNL     1     -14.157 -19.904  -5.652  1.00  0.00    -0.504 OA
ATOM     19  H   UNL     1     -14.573 -19.900  -4.731  1.00  0.00     0.293 HD
ENDBRANCH  15  18
BRANCH  17  20
ATOM     20  O   UNL     1     -12.252 -21.439  -4.050  1.00  0.00    -0.504 OA
ATOM     21  H   UNL     1     -11.736 -21.536  -3.188  1.00  0.00     0.293 HD
ENDBRANCH  17  20
ENDBRANCH   1  12
BRANCH   6  22
ATOM     22  O   UNL     1      -3.869 -18.903  -8.600  1.00  0.00    -0.507 OA
ATOM     23  H   UNL     1      -4.436 -18.562  -9.368  1.00  0.00     0.293 HD
ENDBRANCH   6  22
BRANCH   8  24
ATOM     24  O   UNL     1      -3.320 -21.360  -4.464  1.00  0.00    -0.508 OA
ATOM     25  H   UNL     1      -3.637 -22.145  -3.909  1.00  0.00     0.293 HD
ENDBRANCH   8  24
TORSDOF 5
ENDMDL
MODEL 7
REMARK VINA RESULT:    -6.725      1.449      7.081
REMARK INTER + INTRA:          -8.169
REMARK INTER:                  -7.907
REMARK INTRA:                  -0.263
REMARK UNBOUND:                -0.265
REMARK SMILES O=c1cc(-c2ccc(O)c(O)c2)oc2cc(O)cc(O)c12
REMARK SMILES IDX 4 1 3 2 2 3 1 4 21 5 19 6 18 7 16 8 15 9 14 10 13 11 5 12
REMARK SMILES IDX 6 13 7 14 8 15 12 16 10 17 9 18 11 20 20 22 17 24
REMARK H PARENT 9 19 11 21 20 23 17 25
REMARK Flexibility Score: inf
ROOT
ATOM      1  C   UNL     1     -12.741  -9.702 -16.215  1.00  0.00     0.138 A 
ATOM      2  C   UNL     1     -12.876  -9.189 -14.915  1.00  0.00     0.100 A 
ATOM      3  C   UNL     1     -14.107  -9.279 -14.263  1.00  0.00     0.197 A 
ATOM      4  O   UNL     1     -14.216  -8.817 -13.096  1.00  0.00    -0.289 OA
ATOM      5  C   UNL     1     -15.197  -9.887 -14.919  1.00  0.00     0.107 A 
ATOM      6  C   UNL     1     -16.478 -10.018 -14.332  1.00  0.00     0.134 A 
ATOM      7  C   UNL     1     -17.510 -10.641 -15.049  1.00  0.00     0.093 A 
ATOM      8  C   UNL     1     -17.284 -11.135 -16.340  1.00  0.00     0.123 A 
ATOM      9  C   UNL     1     -16.021 -11.007 -16.922  1.00  0.00     0.094 A 
ATOM     10  C   UNL     1     -14.980 -10.389 -16.224  1.00  0.00     0.146 A 
ATOM     11  O   UNL     1     -13.788 -10.279 -16.803  1.00  0.00    -0.456 OA
ENDROOT
BRANCH   1  12
ATOM     12  C   UNL     1     -11.456  -9.634 -16.955  1.00  0.00     0.021 A 
ATOM     13  C   UNL     1     -11.272  -8.639 -17.928  1.00  0.00     0.016 A 
ATOM     14  C   UNL     1     -10.070  -8.550 -18.633  1.00  0.00     0.051 A 
ATOM     15  C   UNL     1      -9.025  -9.443 -18.380  1.00  0.00     0.157 A 
ATOM     16  C   UNL     1     -10.399 -10.525 -16.688  1.00  0.00     0.062 A 
ATOM     17  C   UNL     1      -9.190 -10.441 -17.390  1.00  0.00     0.158 A 
BRANCH  15  18
ATOM     18  O   UNL     1      -7.852  -9.304 -19.124  1.00  0.00    -0.504 OA
ATOM     19  H   UNL     1      -7.680  -9.778 -20.000  1.00  0.00     0.293 HD
ENDBRANCH  15  18
BRANCH  17  20
ATOM     20  O   UNL     1      -8.186 -11.357 -17.070  1.00  0.00    -0.504 OA
ATOM     21  H   UNL     1      -7.200 -11.183 -17.201  1.00  0.00     0.293 HD
ENDBRANCH  17  20
ENDBRANCH   1  12
BRANCH   6  22
ATOM     22  O   UNL     1     -16.732  -9.536 -13.047  1.00  0.00    -0.507 OA
ATOM     23  H   UNL     1     -16.437  -8.611 -12.757  1.00  0.00     0.293 HD
ENDBRANCH   6  22
BRANCH   8  24
ATOM     24  O   UNL     1     -18.309 -11.754 -17.052  1.00  0.00    -0.508 OA
ATOM     25  H   UNL     1     -18.145 -12.176 -17.958  1.00  0.00     0.293 HD
ENDBRANCH   8  24
TORSDOF 5
ENDMDL
MODEL 8
REMARK VINA RESULT:    -6.722     13.067     13.940
REMARK INTER + INTRA:          -8.166
REMARK INTER:                  -7.900
REMARK INTRA:                  -0.266
REMARK UNBOUND:                -0.265
REMARK SMILES O=c1cc(-c2ccc(O)c(O)c2)oc2cc(O)cc(O)c12
REMARK SMILES IDX 4 1 3 2 2 3 1 4 21 5 19 6 18 7 16 8 15 9 14 10 13 11 5 12
REMARK SMILES IDX 6 13 7 14 8 15 12 16 10 17 9 18 11 20 20 22 17 24
REMARK H PARENT 9 19 11 21 20 23 17 25
REMARK Flexibility Score: inf
ROOT
ATOM      1  C   UNL     1      -8.650 -19.652  -7.459  1.00  0.00     0.138 A 
ATOM      2  C   UNL     1      -8.219 -20.521  -8.475  1.00  0.00     0.100 A 
ATOM      3  C   UNL     1      -6.907 -20.435  -8.943  1.00  0.00     0.197 A 
ATOM      4  O   UNL     1      -6.530 -21.220  -9.853  1.00  0.00    -0.289 OA
ATOM      5  C   UNL     1      -6.032 -19.479  -8.389  1.00  0.00     0.107 A 
ATOM      6  C   UNL     1      -4.689 -19.323  -8.806  1.00  0.00     0.134 A 
ATOM      7  C   UNL     1      -3.882 -18.351  -8.200  1.00  0.00     0.093 A 
ATOM      8  C   UNL     1      -4.391 -17.532  -7.185  1.00  0.00     0.123 A 
ATOM      9  C   UNL     1      -5.716 -17.682  -6.770  1.00  0.00     0.094 A 
ATOM     10  C   UNL     1      -6.537 -18.645  -7.362  1.00  0.00     0.146 A 
ATOM     11  O   UNL     1      -7.796 -18.766  -6.950  1.00  0.00    -0.456 OA
ENDROOT
BRANCH   1  12
ATOM     12  C   UNL     1     -10.033 -19.699  -6.922  1.00  0.00     0.021 A 
ATOM     13  C   UNL     1     -11.053 -18.995  -7.581  1.00  0.00     0.016 A 
ATOM     14  C   UNL     1     -12.363 -19.029  -7.099  1.00  0.00     0.051 A 
ATOM     15  C   UNL     1     -12.687 -19.769  -5.958  1.00  0.00     0.157 A 
ATOM     16  C   UNL     1     -10.360 -20.456  -5.781  1.00  0.00     0.062 A 
ATOM     17  C   UNL     1     -11.672 -20.497  -5.293  1.00  0.00     0.158 A 
BRANCH  15  18
ATOM     18  O   UNL     1     -14.014 -19.755  -5.525  1.00  0.00    -0.504 OA
ATOM     19  H   UNL     1     -14.811 -19.758  -6.147  1.00  0.00     0.293 HD
ENDBRANCH  15  18
BRANCH  17  20
ATOM     20  O   UNL     1     -11.922 -21.272  -4.158  1.00  0.00    -0.504 OA
ATOM     21  H   UNL     1     -11.854 -20.926  -3.213  1.00  0.00     0.293 HD
ENDBRANCH  17  20
ENDBRANCH   1  12
BRANCH   6  22
ATOM     22  O   UNL     1      -4.155 -20.125  -9.815  1.00  0.00    -0.507 OA
ATOM     23  H   UNL     1      -3.273 -20.612  -9.699  1.00  0.00     0.293 HD
ENDBRANCH   6  22
BRANCH   8  24
ATOM     24  O   UNL     1      -3.588 -16.567  -6.582  1.00  0.00    -0.508 OA
ATOM     25  H   UNL     1      -2.585 -16.683  -6.507  1.00  0.00     0.293 HD
ENDBRANCH   8  24
TORSDOF 5
ENDMDL
MODEL 9
REMARK VINA RESULT:    -6.712     12.775     14.578
REMARK INTER + INTRA:          -8.153
REMARK INTER:                  -7.850
REMARK INTRA:                  -0.303
REMARK UNBOUND:                -0.265
REMARK SMILES O=c1cc(-c2ccc(O)c(O)c2)oc2cc(O)cc(O)c12
REMARK SMILES IDX 4 1 3 2 2 3 1 4 21 5 19 6 18 7 16 8 15 9 14 10 13 11 5 12
REMARK SMILES IDX 6 13 7 14 8 15 12 16 10 17 9 18 11 20 20 22 17 24
REMARK H PARENT 9 19 11 21 20 23 17 25
REMARK Flexibility Score: inf
ROOT
ATOM      1  C   UNL     1      -8.070 -19.853  -6.566  1.00  0.00     0.138 A 
ATOM      2  C   UNL     1      -7.402 -21.088  -6.523  1.00  0.00     0.100 A 
ATOM      3  C   UNL     1      -6.018 -21.128  -6.695  1.00  0.00     0.197 A 
ATOM      4  O   UNL     1      -5.429 -22.240  -6.652  1.00  0.00    -0.289 OA
ATOM      5  C   UNL     1      -5.309 -19.928  -6.906  1.00  0.00     0.107 A 
ATOM      6  C   UNL     1      -3.907 -19.879  -7.091  1.00  0.00     0.134 A 
ATOM      7  C   UNL     1      -3.275 -18.643  -7.291  1.00  0.00     0.093 A 
ATOM      8  C   UNL     1      -4.019 -17.457  -7.309  1.00  0.00     0.123 A 
ATOM      9  C   UNL     1      -5.403 -17.501  -7.127  1.00  0.00     0.094 A 
ATOM     10  C   UNL     1      -6.051 -18.723  -6.927  1.00  0.00     0.146 A 
ATOM     11  O   UNL     1      -7.370 -18.736  -6.759  1.00  0.00    -0.456 OA
ENDROOT
BRANCH   1  12
ATOM     12  C   UNL     1      -9.540 -19.751  -6.390  1.00  0.00     0.021 A 
ATOM     13  C   UNL     1     -10.193 -20.631  -5.512  1.00  0.00     0.016 A 
ATOM     14  C   UNL     1     -11.574 -20.551  -5.325  1.00  0.00     0.051 A 
ATOM     15  C   UNL     1     -12.333 -19.589  -5.997  1.00  0.00     0.157 A 
ATOM     16  C   UNL     1     -10.301 -18.772  -7.057  1.00  0.00     0.062 A 
ATOM     17  C   UNL     1     -11.687 -18.683  -6.872  1.00  0.00     0.158 A 
BRANCH  15  18
ATOM     18  O   UNL     1     -13.710 -19.567  -5.769  1.00  0.00    -0.504 OA
ATOM     19  H   UNL     1     -14.401 -19.435  -6.495  1.00  0.00     0.293 HD
ENDBRANCH  15  18
BRANCH  17  20
ATOM     20  O   UNL     1     -12.375 -17.686  -7.565  1.00  0.00    -0.504 OA
ATOM     21  H   UNL     1     -13.380 -17.641  -7.639  1.00  0.00     0.293 HD
ENDBRANCH  17  20
ENDBRANCH   1  12
BRANCH   6  22
ATOM     22  O   UNL     1      -3.140 -21.045  -7.077  1.00  0.00    -0.507 OA
ATOM     23  H   UNL     1      -2.707 -21.407  -7.918  1.00  0.00     0.293 HD
ENDBRANCH   6  22
BRANCH   8  24
ATOM     24  O   UNL     1      -3.392 -16.229  -7.507  1.00  0.00    -0.508 OA
ATOM     25  H   UNL     1      -3.889 -15.435  -7.892  1.00  0.00     0.293 HD
ENDBRANCH   8  24
TORSDOF 5
ENDMDL
