MODEL 1
REMARK VINA RESULT:    -4.231      0.000      0.000
REMARK INTER + INTRA:          -5.424
REMARK INTER:                  -5.220
REMARK INTRA:                  -0.204
REMARK UNBOUND:                -0.204
REMARK SMILES C=CC[C@H](C)C(=O)CC
REMARK SMILES IDX 4 1 5 2 6 3 7 4 8 5 9 6 3 7 2 8 1 9
REMARK H PARENT
REMARK Flexibility Score: inf
ROOT
ATOM      1  C   UNL     1     100.893 113.163 126.753  1.00  0.00     0.057 C 
ATOM      2  C   UNL     1     100.310 112.785 125.387  1.00  0.00     0.016 C 
ENDROOT
BRANCH   1   3
ATOM      3  C   UNL     1     101.039 114.669 126.854  1.00  0.00     0.135 C 
ATOM      4  O   UNL     1     102.125 115.153 127.141  1.00  0.00    -0.299 OA
BRANCH   3   5
ATOM      5  C   UNL     1      99.874 115.585 126.588  1.00  0.00     0.072 C 
ATOM      6  C   UNL     1     100.352 116.964 126.145  1.00  0.00     0.012 C 
ENDBRANCH   3   5
ENDBRANCH   1   3
BRANCH   1   7
ATOM      7  C   UNL     1     102.244 112.453 126.981  1.00  0.00     0.038 C 
BRANCH   7   8
ATOM      8  C   UNL     1     102.677 111.656 125.780  1.00  0.00    -0.034 C 
ATOM      9  C   UNL     1     103.388 110.531 125.900  1.00  0.00     0.004 C 
ENDBRANCH   7   8
ENDBRANCH   1   7
TORSDOF 4
ENDMDL
MODEL 2
REMARK VINA RESULT:    -4.150      1.839      4.541
REMARK INTER + INTRA:          -5.324
REMARK INTER:                  -5.059
REMARK INTRA:                  -0.265
REMARK UNBOUND:                -0.204
REMARK SMILES C=CC[C@H](C)C(=O)CC
REMARK SMILES IDX 4 1 5 2 6 3 7 4 8 5 9 6 3 7 2 8 1 9
REMARK H PARENT
REMARK Flexibility Score: inf
ROOT
ATOM      1  C   UNL     1     100.639 114.494 126.868  1.00  0.00     0.057 C 
ATOM      2  C   UNL     1     102.147 114.765 126.844  1.00  0.00     0.016 C 
ENDROOT
BRANCH   1   3
ATOM      3  C   UNL     1     100.353 113.110 126.318  1.00  0.00     0.135 C 
ATOM      4  O   UNL     1      99.288 112.566 126.573  1.00  0.00    -0.299 OA
BRANCH   3   5
ATOM      5  C   UNL     1     101.352 112.397 125.445  1.00  0.00     0.072 C 
ATOM      6  C   UNL     1     100.906 112.401 123.986  1.00  0.00     0.012 C 
ENDBRANCH   3   5
ENDBRANCH   1   3
BRANCH   1   7
ATOM      7  C   UNL     1      99.881 115.579 126.074  1.00  0.00     0.038 C 
BRANCH   7   8
ATOM      8  C   UNL     1     100.583 116.910 126.117  1.00  0.00    -0.034 C 
ATOM      9  C   UNL     1      99.951 118.029 126.482  1.00  0.00     0.004 C 
ENDBRANCH   7   8
ENDBRANCH   1   7
TORSDOF 4
ENDMDL
MODEL 3
REMARK VINA RESULT:    -4.089      1.149      4.408
REMARK INTER + INTRA:          -5.249
REMARK INTER:                  -5.103
REMARK INTRA:                  -0.146
REMARK UNBOUND:                -0.204
REMARK SMILES C=CC[C@H](C)C(=O)CC
REMARK SMILES IDX 4 1 5 2 6 3 7 4 8 5 9 6 3 7 2 8 1 9
REMARK H PARENT
REMARK Flexibility Score: inf
ROOT
ATOM      1  C   UNL     1     101.017 113.377 125.988  1.00  0.00     0.057 C 
ATOM      2  C   UNL     1      99.604 112.821 126.191  1.00  0.00     0.016 C 
ENDROOT
BRANCH   1   3
ATOM      3  C   UNL     1     102.045 112.311 126.313  1.00  0.00     0.135 C 
ATOM      4  O   UNL     1     102.474 112.212 127.454  1.00  0.00    -0.299 OA
BRANCH   3   5
ATOM      5  C   UNL     1     102.537 111.356 125.258  1.00  0.00     0.072 C 
ATOM      6  C   UNL     1     103.570 110.391 125.833  1.00  0.00     0.012 C 
ENDBRANCH   3   5
ENDBRANCH   1   3
BRANCH   1   7
ATOM      7  C   UNL     1     101.230 114.640 126.849  1.00  0.00     0.038 C 
BRANCH   7   8
ATOM      8  C   UNL     1     100.123 115.644 126.669  1.00  0.00    -0.034 C 
ATOM      9  C   UNL     1     100.250 116.697 125.855  1.00  0.00     0.004 C 
ENDBRANCH   7   8
ENDBRANCH   1   7
TORSDOF 4
ENDMDL
MODEL 4
REMARK VINA RESULT:    -4.031      1.264      1.764
REMARK INTER + INTRA:          -5.178
REMARK INTER:                  -4.826
REMARK INTRA:                  -0.352
REMARK UNBOUND:                -0.204
REMARK SMILES C=CC[C@H](C)C(=O)CC
REMARK SMILES IDX 4 1 5 2 6 3 7 4 8 5 9 6 3 7 2 8 1 9
REMARK H PARENT
REMARK Flexibility Score: inf
ROOT
ATOM      1  C   UNL     1     100.895 113.007 126.482  1.00  0.00     0.057 C 
ATOM      2  C   UNL     1      99.396 112.796 126.243  1.00  0.00     0.016 C 
ENDROOT
BRANCH   1   3
ATOM      3  C   UNL     1     101.176 114.472 126.751  1.00  0.00     0.135 C 
ATOM      4  O   UNL     1     102.300 114.822 127.083  1.00  0.00    -0.299 OA
BRANCH   3   5
ATOM      5  C   UNL     1     100.098 115.513 126.599  1.00  0.00     0.072 C 
ATOM      6  C   UNL     1     100.314 116.344 125.338  1.00  0.00     0.012 C 
ENDBRANCH   3   5
ENDBRANCH   1   3
BRANCH   1   7
ATOM      7  C   UNL     1     101.712 112.492 125.279  1.00  0.00     0.038 C 
BRANCH   7   8
ATOM      8  C   UNL     1     100.933 112.557 123.993  1.00  0.00    -0.034 C 
ATOM      9  C   UNL     1     100.957 111.561 123.102  1.00  0.00     0.004 C 
ENDBRANCH   7   8
ENDBRANCH   1   7
TORSDOF 4
ENDMDL
MODEL 5
REMARK VINA RESULT:    -3.995      1.882      3.977
REMARK INTER + INTRA:          -5.134
REMARK INTER:                  -4.840
REMARK INTRA:                  -0.293
REMARK UNBOUND:                -0.204
REMARK SMILES C=CC[C@H](C)C(=O)CC
REMARK SMILES IDX 4 1 5 2 6 3 7 4 8 5 9 6 3 7 2 8 1 9
REMARK H PARENT
REMARK Flexibility Score: inf
ROOT
ATOM      1  C   UNL     1     100.454 114.094 125.959  1.00  0.00     0.057 C 
ATOM      2  C   UNL     1      99.549 112.875 126.169  1.00  0.00     0.016 C 
ENDROOT
BRANCH   1   3
ATOM      3  C   UNL     1     101.844 113.804 126.488  1.00  0.00     0.135 C 
ATOM      4  O   UNL     1     102.069 112.738 127.046  1.00  0.00    -0.299 OA
BRANCH   3   5
ATOM      5  C   UNL     1     102.964 114.798 126.326  1.00  0.00     0.072 C 
ATOM      6  C   UNL     1     103.348 115.413 127.667  1.00  0.00     0.012 C 
ENDBRANCH   3   5
ENDBRANCH   1   3
BRANCH   1   7
ATOM      7  C   UNL     1      99.847 115.341 126.637  1.00  0.00     0.038 C 
BRANCH   7   8
ATOM      8  C   UNL     1      99.964 116.570 125.776  1.00  0.00    -0.034 C 
ATOM      9  C   UNL     1     100.249 117.769 126.293  1.00  0.00     0.004 C 
ENDBRANCH   7   8
ENDBRANCH   1   7
TORSDOF 4
ENDMDL
MODEL 6
REMARK VINA RESULT:    -3.944      2.589      3.529
REMARK INTER + INTRA:          -5.070
REMARK INTER:                  -4.878
REMARK INTRA:                  -0.192
REMARK UNBOUND:                -0.204
REMARK SMILES C=CC[C@H](C)C(=O)CC
REMARK SMILES IDX 4 1 5 2 6 3 7 4 8 5 9 6 3 7 2 8 1 9
REMARK H PARENT
REMARK Flexibility Score: inf
ROOT
ATOM      1  C   UNL     1     100.016 116.044 125.090  1.00  0.00     0.057 C 
ATOM      2  C   UNL     1     101.215 115.551 124.273  1.00  0.00     0.016 C 
ENDROOT
BRANCH   1   3
ATOM      3  C   UNL     1     100.088 117.549 125.257  1.00  0.00     0.135 C 
ATOM      4  O   UNL     1     100.232 118.261 124.273  1.00  0.00    -0.299 OA
BRANCH   3   5
ATOM      5  C   UNL     1      99.967 118.189 126.615  1.00  0.00     0.072 C 
ATOM      6  C   UNL     1     100.023 119.709 126.511  1.00  0.00     0.012 C 
ENDBRANCH   3   5
ENDBRANCH   1   3
BRANCH   1   7
ATOM      7  C   UNL     1      99.962 115.331 126.457  1.00  0.00     0.038 C 
BRANCH   7   8
ATOM      8  C   UNL     1     100.535 113.940 126.395  1.00  0.00    -0.034 C 
ATOM      9  C   UNL     1      99.754 112.857 126.340  1.00  0.00     0.004 C 
ENDBRANCH   7   8
ENDBRANCH   1   7
TORSDOF 4
ENDMDL
MODEL 7
REMARK VINA RESULT:    -3.919      1.979      4.497
REMARK INTER + INTRA:          -5.039
REMARK INTER:                  -4.760
REMARK INTRA:                  -0.279
REMARK UNBOUND:                -0.204
REMARK SMILES C=CC[C@H](C)C(=O)CC
REMARK SMILES IDX 4 1 5 2 6 3 7 4 8 5 9 6 3 7 2 8 1 9
REMARK H PARENT
REMARK Flexibility Score: inf
ROOT
ATOM      1  C   UNL     1     101.488 114.881 126.436  1.00  0.00     0.057 C 
ATOM      2  C   UNL     1     102.779 115.157 127.214  1.00  0.00     0.016 C 
ENDROOT
BRANCH   1   3
ATOM      3  C   UNL     1     101.696 113.723 125.481  1.00  0.00     0.135 C 
ATOM      4  O   UNL     1     102.772 113.592 124.913  1.00  0.00    -0.299 OA
BRANCH   3   5
ATOM      5  C   UNL     1     100.606 112.714 125.229  1.00  0.00     0.072 C 
ATOM      6  C   UNL     1      99.481 112.857 126.249  1.00  0.00     0.012 C 
ENDBRANCH   3   5
ENDBRANCH   1   3
BRANCH   1   7
ATOM      7  C   UNL     1     101.027 116.149 125.686  1.00  0.00     0.038 C 
BRANCH   7   8
ATOM      8  C   UNL     1     100.036 116.953 126.484  1.00  0.00    -0.034 C 
ATOM      9  C   UNL     1      99.998 118.288 126.423  1.00  0.00     0.004 C 
ENDBRANCH   7   8
ENDBRANCH   1   7
TORSDOF 4
ENDMDL
MODEL 8
REMARK VINA RESULT:    -3.884      2.407      3.830
REMARK INTER + INTRA:          -4.996
REMARK INTER:                  -4.719
REMARK INTRA:                  -0.277
REMARK UNBOUND:                -0.204
REMARK SMILES C=CC[C@H](C)C(=O)CC
REMARK SMILES IDX 4 1 5 2 6 3 7 4 8 5 9 6 3 7 2 8 1 9
REMARK H PARENT
REMARK Flexibility Score: inf
ROOT
ATOM      1  C   UNL     1     100.612 116.420 125.738  1.00  0.00     0.057 C 
ATOM      2  C   UNL     1     100.194 117.837 126.144  1.00  0.00     0.016 C 
ENDROOT
BRANCH   1   3
ATOM      3  C   UNL     1     100.409 116.227 124.248  1.00  0.00     0.135 C 
ATOM      4  O   UNL     1     101.306 115.741 123.574  1.00  0.00    -0.299 OA
BRANCH   3   5
ATOM      5  C   UNL     1      99.114 116.609 123.581  1.00  0.00     0.072 C 
ATOM      6  C   UNL     1      99.368 117.434 122.324  1.00  0.00     0.012 C 
ENDBRANCH   3   5
ENDBRANCH   1   3
BRANCH   1   7
ATOM      7  C   UNL     1      99.824 115.370 126.550  1.00  0.00     0.038 C 
BRANCH   7   8
ATOM      8  C   UNL     1     100.462 114.008 126.489  1.00  0.00    -0.034 C 
ATOM      9  C   UNL     1      99.760 112.913 126.179  1.00  0.00     0.004 C 
ENDBRANCH   7   8
ENDBRANCH   1   7
TORSDOF 4
ENDMDL
MODEL 9
REMARK VINA RESULT:    -3.876      1.980      5.280
REMARK INTER + INTRA:          -4.986
REMARK INTER:                  -4.830
REMARK INTRA:                  -0.156
REMARK UNBOUND:                -0.204
REMARK SMILES C=CC[C@H](C)C(=O)CC
REMARK SMILES IDX 4 1 5 2 6 3 7 4 8 5 9 6 3 7 2 8 1 9
REMARK H PARENT
REMARK Flexibility Score: inf
ROOT
ATOM      1  C   UNL     1     100.547 116.705 125.600  1.00  0.00     0.057 C 
ATOM      2  C   UNL     1      99.686 116.664 124.332  1.00  0.00     0.016 C 
ENDROOT
BRANCH   1   3
ATOM      3  C   UNL     1     100.672 115.313 126.186  1.00  0.00     0.135 C 
ATOM      4  O   UNL     1     101.557 115.074 126.995  1.00  0.00    -0.299 OA
BRANCH   3   5
ATOM      5  C   UNL     1      99.713 114.217 125.803  1.00  0.00     0.072 C 
ATOM      6  C   UNL     1     100.090 112.900 126.474  1.00  0.00     0.012 C 
ENDBRANCH   3   5
ENDBRANCH   1   3
BRANCH   1   7
ATOM      7  C   UNL     1      99.952 117.693 126.626  1.00  0.00     0.038 C 
BRANCH   7   8
ATOM      8  C   UNL     1      99.804 119.080 126.060  1.00  0.00    -0.034 C 
ATOM      9  C   UNL     1     100.211 120.162 126.731  1.00  0.00     0.004 C 
ENDBRANCH   7   8
ENDBRANCH   1   7
TORSDOF 4
ENDMDL
