MODEL 1
REMARK VINA RESULT:    -5.712      0.000      0.000
REMARK INTER + INTRA:          -6.980
REMARK INTER:                  -6.714
REMARK INTRA:                  -0.266
REMARK UNBOUND:                -0.266
REMARK SMILES O=c1cc(-c2ccc(O)c(O)c2)oc2cc(O)cc(O)c12
REMARK SMILES IDX 4 1 3 2 2 3 1 4 21 5 19 6 18 7 16 8 15 9 14 10 13 11 5 12
REMARK SMILES IDX 6 13 7 14 8 15 12 16 10 17 9 18 11 20 20 22 17 24
REMARK H PARENT 9 19 11 21 20 23 17 25
REMARK Flexibility Score: inf
ROOT
ATOM      1  C   UNL     1     145.429 151.646 157.472  1.00  0.00     0.138 A 
ATOM      2  C   UNL     1     144.196 152.242 157.767  1.00  0.00     0.100 A 
ATOM      3  C   UNL     1     143.024 151.489 157.667  1.00  0.00     0.197 A 
ATOM      4  O   UNL     1     141.927 152.068 157.877  1.00  0.00    -0.289 OA
ATOM      5  C   UNL     1     143.094 150.125 157.298  1.00  0.00     0.107 A 
ATOM      6  C   UNL     1     141.971 149.250 157.202  1.00  0.00     0.134 A 
ATOM      7  C   UNL     1     142.148 147.949 156.714  1.00  0.00     0.093 A 
ATOM      8  C   UNL     1     143.415 147.472 156.377  1.00  0.00     0.123 A 
ATOM      9  C   UNL     1     144.527 148.302 156.518  1.00  0.00     0.094 A 
ATOM     10  C   UNL     1     144.379 149.615 156.969  1.00  0.00     0.146 A 
ATOM     11  O   UNL     1     145.462 150.378 157.075  1.00  0.00    -0.456 OA
ENDROOT
BRANCH   1  12
ATOM     12  C   UNL     1     146.706 152.399 157.565  1.00  0.00     0.021 A 
ATOM     13  C   UNL     1     147.609 152.194 158.623  1.00  0.00     0.016 A 
ATOM     14  C   UNL     1     148.807 152.910 158.679  1.00  0.00     0.051 A 
ATOM     15  C   UNL     1     149.134 153.835 157.683  1.00  0.00     0.157 A 
ATOM     16  C   UNL     1     147.043 153.319 156.557  1.00  0.00     0.062 A 
ATOM     17  C   UNL     1     148.241 154.041 156.606  1.00  0.00     0.158 A 
BRANCH  15  18
ATOM     18  O   UNL     1     150.346 154.518 157.801  1.00  0.00    -0.504 OA
ATOM     19  H   UNL     1     150.863 154.892 157.017  1.00  0.00     0.293 HD
ENDBRANCH  15  18
BRANCH  17  20
ATOM     20  O   UNL     1     148.502 154.943 155.573  1.00  0.00    -0.504 OA
ATOM     21  H   UNL     1     149.420 155.300 155.353  1.00  0.00     0.293 HD
ENDBRANCH  17  20
ENDBRANCH   1  12
BRANCH   6  22
ATOM     22  O   UNL     1     140.674 149.598 157.592  1.00  0.00    -0.507 OA
ATOM     23  H   UNL     1     139.938 148.940 157.801  1.00  0.00     0.293 HD
ENDBRANCH   6  22
BRANCH   8  24
ATOM     24  O   UNL     1     143.555 146.168 155.911  1.00  0.00    -0.508 OA
ATOM     25  H   UNL     1     143.030 145.831 155.112  1.00  0.00     0.293 HD
ENDBRANCH   8  24
TORSDOF 5
ENDMDL
MODEL 2
REMARK VINA RESULT:    -5.704      5.174      7.878
REMARK INTER + INTRA:          -6.971
REMARK INTER:                  -6.708
REMARK INTRA:                  -0.262
REMARK UNBOUND:                -0.266
REMARK SMILES O=c1cc(-c2ccc(O)c(O)c2)oc2cc(O)cc(O)c12
REMARK SMILES IDX 4 1 3 2 2 3 1 4 21 5 19 6 18 7 16 8 15 9 14 10 13 11 5 12
REMARK SMILES IDX 6 13 7 14 8 15 12 16 10 17 9 18 11 20 20 22 17 24
REMARK H PARENT 9 19 11 21 20 23 17 25
REMARK Flexibility Score: inf
ROOT
ATOM      1  C   UNL     1     151.666 150.192 157.516  1.00  0.00     0.138 A 
ATOM      2  C   UNL     1     152.248 151.424 157.844  1.00  0.00     0.100 A 
ATOM      3  C   UNL     1     151.493 152.593 157.740  1.00  0.00     0.197 A 
ATOM      4  O   UNL     1     152.060 153.689 157.981  1.00  0.00    -0.289 OA
ATOM      5  C   UNL     1     150.139 152.522 157.335  1.00  0.00     0.107 A 
ATOM      6  C   UNL     1     149.261 153.643 157.233  1.00  0.00     0.134 A 
ATOM      7  C   UNL     1     147.974 153.466 156.710  1.00  0.00     0.093 A 
ATOM      8  C   UNL     1     147.512 152.203 156.343  1.00  0.00     0.123 A 
ATOM      9  C   UNL     1     148.343 151.092 156.489  1.00  0.00     0.094 A 
ATOM     10  C   UNL     1     149.644 151.240 156.975  1.00  0.00     0.146 A 
ATOM     11  O   UNL     1     150.409 150.159 157.086  1.00  0.00    -0.456 OA
ENDROOT
BRANCH   1  12
ATOM     12  C   UNL     1     152.423 148.917 157.609  1.00  0.00     0.021 A 
ATOM     13  C   UNL     1     152.239 148.027 158.682  1.00  0.00     0.016 A 
ATOM     14  C   UNL     1     152.958 146.831 158.739  1.00  0.00     0.051 A 
ATOM     15  C   UNL     1     153.865 146.492 157.730  1.00  0.00     0.157 A 
ATOM     16  C   UNL     1     153.325 148.570 156.589  1.00  0.00     0.062 A 
ATOM     17  C   UNL     1     154.049 147.373 156.639  1.00  0.00     0.158 A 
BRANCH  15  18
ATOM     18  O   UNL     1     154.552 145.283 157.849  1.00  0.00    -0.504 OA
ATOM     19  H   UNL     1     155.276 144.979 157.213  1.00  0.00     0.293 HD
ENDBRANCH  15  18
BRANCH  17  20
ATOM     20  O   UNL     1     154.932 147.101 155.592  1.00  0.00    -0.504 OA
ATOM     21  H   UNL     1     154.659 147.047 154.622  1.00  0.00     0.293 HD
ENDBRANCH  17  20
ENDBRANCH   1  12
BRANCH   6  22
ATOM     22  O   UNL     1     149.592 154.935 157.651  1.00  0.00    -0.507 OA
ATOM     23  H   UNL     1     150.448 155.415 157.417  1.00  0.00     0.293 HD
ENDBRANCH   6  22
BRANCH   8  24
ATOM     24  O   UNL     1     146.220 152.063 155.841  1.00  0.00    -0.508 OA
ATOM     25  H   UNL     1     145.965 151.284 155.245  1.00  0.00     0.293 HD
ENDBRANCH   8  24
TORSDOF 5
ENDMDL
MODEL 3
REMARK VINA RESULT:    -5.703      5.284      7.922
REMARK INTER + INTRA:          -6.969
REMARK INTER:                  -6.706
REMARK INTRA:                  -0.262
REMARK UNBOUND:                -0.266
REMARK SMILES O=c1cc(-c2ccc(O)c(O)c2)oc2cc(O)cc(O)c12
REMARK SMILES IDX 4 1 3 2 2 3 1 4 21 5 19 6 18 7 16 8 15 9 14 10 13 11 5 12
REMARK SMILES IDX 6 13 7 14 8 15 12 16 10 17 9 18 11 20 20 22 17 24
REMARK H PARENT 9 19 11 21 20 23 17 25
REMARK Flexibility Score: inf
ROOT
ATOM      1  C   UNL     1     143.913 145.374 157.520  1.00  0.00     0.138 A 
ATOM      2  C   UNL     1     143.338 144.139 157.847  1.00  0.00     0.100 A 
ATOM      3  C   UNL     1     144.102 142.974 157.750  1.00  0.00     0.197 A 
ATOM      4  O   UNL     1     143.542 141.874 157.988  1.00  0.00    -0.289 OA
ATOM      5  C   UNL     1     145.458 143.055 157.353  1.00  0.00     0.107 A 
ATOM      6  C   UNL     1     146.345 141.941 157.258  1.00  0.00     0.134 A 
ATOM      7  C   UNL     1     147.634 142.126 156.742  1.00  0.00     0.093 A 
ATOM      8  C   UNL     1     148.089 143.392 156.376  1.00  0.00     0.123 A 
ATOM      9  C   UNL     1     147.248 144.497 156.515  1.00  0.00     0.094 A 
ATOM     10  C   UNL     1     145.946 144.340 156.994  1.00  0.00     0.146 A 
ATOM     11  O   UNL     1     145.172 145.416 157.099  1.00  0.00    -0.456 OA
ENDROOT
BRANCH   1  12
ATOM     12  C   UNL     1     143.145 146.643 157.608  1.00  0.00     0.021 A 
ATOM     13  C   UNL     1     143.306 147.530 158.687  1.00  0.00     0.016 A 
ATOM     14  C   UNL     1     142.579 148.721 158.738  1.00  0.00     0.051 A 
ATOM     15  C   UNL     1     141.686 149.058 157.716  1.00  0.00     0.157 A 
ATOM     16  C   UNL     1     142.258 146.989 156.574  1.00  0.00     0.062 A 
ATOM     17  C   UNL     1     141.524 148.181 156.618  1.00  0.00     0.158 A 
BRANCH  15  18
ATOM     18  O   UNL     1     140.989 150.262 157.829  1.00  0.00    -0.504 OA
ATOM     19  H   UNL     1     140.009 150.371 157.606  1.00  0.00     0.293 HD
ENDBRANCH  15  18
BRANCH  17  20
ATOM     20  O   UNL     1     140.656 148.451 155.559  1.00  0.00    -0.504 OA
ATOM     21  H   UNL     1     139.668 148.246 155.572  1.00  0.00     0.293 HD
ENDBRANCH  17  20
ENDBRANCH   1  12
BRANCH   6  22
ATOM     22  O   UNL     1     146.021 140.647 157.675  1.00  0.00    -0.507 OA
ATOM     23  H   UNL     1     146.341 139.800 157.230  1.00  0.00     0.293 HD
ENDBRANCH   6  22
BRANCH   8  24
ATOM     24  O   UNL     1     149.382 143.541 155.882  1.00  0.00    -0.508 OA
ATOM     25  H   UNL     1     150.139 143.869 156.471  1.00  0.00     0.293 HD
ENDBRANCH   8  24
TORSDOF 5
ENDMDL
MODEL 4
REMARK VINA RESULT:    -5.697      1.248      2.849
REMARK INTER + INTRA:          -6.962
REMARK INTER:                  -6.691
REMARK INTRA:                  -0.271
REMARK UNBOUND:                -0.266
REMARK SMILES O=c1cc(-c2ccc(O)c(O)c2)oc2cc(O)cc(O)c12
REMARK SMILES IDX 4 1 3 2 2 3 1 4 21 5 19 6 18 7 16 8 15 9 14 10 13 11 5 12
REMARK SMILES IDX 6 13 7 14 8 15 12 16 10 17 9 18 11 20 20 22 17 24
REMARK H PARENT 9 19 11 21 20 23 17 25
REMARK Flexibility Score: inf
ROOT
ATOM      1  C   UNL     1     146.426 150.286 157.056  1.00  0.00     0.138 A 
ATOM      2  C   UNL     1     146.938 148.997 156.859  1.00  0.00     0.100 A 
ATOM      3  C   UNL     1     146.061 147.921 156.710  1.00  0.00     0.197 A 
ATOM      4  O   UNL     1     146.550 146.768 156.598  1.00  0.00    -0.289 OA
ATOM      5  C   UNL     1     144.664 148.145 156.729  1.00  0.00     0.107 A 
ATOM      6  C   UNL     1     143.676 147.131 156.547  1.00  0.00     0.134 A 
ATOM      7  C   UNL     1     142.322 147.452 156.701  1.00  0.00     0.093 A 
ATOM      8  C   UNL     1     141.916 148.759 156.970  1.00  0.00     0.123 A 
ATOM      9  C   UNL     1     142.871 149.768 157.096  1.00  0.00     0.094 A 
ATOM     10  C   UNL     1     144.232 149.474 156.982  1.00  0.00     0.146 A 
ATOM     11  O   UNL     1     145.111 150.461 157.123  1.00  0.00    -0.456 OA
ENDROOT
BRANCH   1  12
ATOM     12  C   UNL     1     147.314 151.466 157.218  1.00  0.00     0.021 A 
ATOM     13  C   UNL     1     148.115 151.636 158.361  1.00  0.00     0.016 A 
ATOM     14  C   UNL     1     148.947 152.751 158.482  1.00  0.00     0.051 A 
ATOM     15  C   UNL     1     149.006 153.712 157.468  1.00  0.00     0.157 A 
ATOM     16  C   UNL     1     147.384 152.426 156.194  1.00  0.00     0.062 A 
ATOM     17  C   UNL     1     148.215 153.547 156.308  1.00  0.00     0.158 A 
BRANCH  15  18
ATOM     18  O   UNL     1     149.857 154.803 157.653  1.00  0.00    -0.504 OA
ATOM     19  H   UNL     1     149.674 155.730 157.294  1.00  0.00     0.293 HD
ENDBRANCH  15  18
BRANCH  17  20
ATOM     20  O   UNL     1     148.225 154.462 155.253  1.00  0.00    -0.504 OA
ATOM     21  H   UNL     1     149.029 155.013 154.990  1.00  0.00     0.293 HD
ENDBRANCH  17  20
ENDBRANCH   1  12
BRANCH   6  22
ATOM     22  O   UNL     1     143.967 145.811 156.193  1.00  0.00    -0.507 OA
ATOM     23  H   UNL     1     143.400 145.238 155.586  1.00  0.00     0.293 HD
ENDBRANCH   6  22
BRANCH   8  24
ATOM     24  O   UNL     1     140.560 149.044 157.101  1.00  0.00    -0.508 OA
ATOM     25  H   UNL     1     140.112 149.759 156.539  1.00  0.00     0.293 HD
ENDBRANCH   8  24
TORSDOF 5
ENDMDL
MODEL 5
REMARK VINA RESULT:    -5.694      7.447     11.115
REMARK INTER + INTRA:          -6.959
REMARK INTER:                  -6.696
REMARK INTRA:                  -0.262
REMARK UNBOUND:                -0.266
REMARK SMILES O=c1cc(-c2ccc(O)c(O)c2)oc2cc(O)cc(O)c12
REMARK SMILES IDX 4 1 3 2 2 3 1 4 21 5 19 6 18 7 16 8 15 9 14 10 13 11 5 12
REMARK SMILES IDX 6 13 7 14 8 15 12 16 10 17 9 18 11 20 20 22 17 24
REMARK H PARENT 9 19 11 21 20 23 17 25
REMARK Flexibility Score: inf
ROOT
ATOM      1  C   UNL     1     150.174 143.964 157.499  1.00  0.00     0.138 A 
ATOM      2  C   UNL     1     151.415 143.398 157.817  1.00  0.00     0.100 A 
ATOM      3  C   UNL     1     152.574 144.168 157.707  1.00  0.00     0.197 A 
ATOM      4  O   UNL     1     153.679 143.614 157.939  1.00  0.00    -0.289 OA
ATOM      5  C   UNL     1     152.483 145.522 157.306  1.00  0.00     0.107 A 
ATOM      6  C   UNL     1     153.591 146.414 157.198  1.00  0.00     0.134 A 
ATOM      7  C   UNL     1     153.395 147.700 156.678  1.00  0.00     0.093 A 
ATOM      8  C   UNL     1     152.122 148.146 156.321  1.00  0.00     0.123 A 
ATOM      9  C   UNL     1     151.023 147.300 156.473  1.00  0.00     0.094 A 
ATOM     10  C   UNL     1     151.192 146.001 156.956  1.00  0.00     0.146 A 
ATOM     11  O   UNL     1     150.121 145.221 157.073  1.00  0.00    -0.456 OA
ENDROOT
BRANCH   1  12
ATOM     12  C   UNL     1     148.909 143.191 157.600  1.00  0.00     0.021 A 
ATOM     13  C   UNL     1     148.022 143.364 158.678  1.00  0.00     0.016 A 
ATOM     14  C   UNL     1     146.836 142.629 158.742  1.00  0.00     0.051 A 
ATOM     15  C   UNL     1     146.504 141.717 157.735  1.00  0.00     0.157 A 
ATOM     16  C   UNL     1     148.568 142.284 156.582  1.00  0.00     0.062 A 
ATOM     17  C   UNL     1     147.381 141.543 156.639  1.00  0.00     0.158 A 
BRANCH  15  18
ATOM     18  O   UNL     1     145.305 141.015 157.861  1.00  0.00    -0.504 OA
ATOM     19  H   UNL     1     145.139 140.300 158.557  1.00  0.00     0.293 HD
ENDBRANCH  15  18
BRANCH  17  20
ATOM     20  O   UNL     1     147.116 140.656 155.595  1.00  0.00    -0.504 OA
ATOM     21  H   UNL     1     147.816 140.082 155.150  1.00  0.00     0.293 HD
ENDBRANCH  17  20
ENDBRANCH   1  12
BRANCH   6  22
ATOM     22  O   UNL     1     154.891 146.098 157.605  1.00  0.00    -0.507 OA
ATOM     23  H   UNL     1     155.122 145.482 158.370  1.00  0.00     0.293 HD
ENDBRANCH   6  22
BRANCH   8  24
ATOM     24  O   UNL     1     151.962 149.437 155.823  1.00  0.00    -0.508 OA
ATOM     25  H   UNL     1     151.936 149.621 154.827  1.00  0.00     0.293 HD
ENDBRANCH   8  24
TORSDOF 5
ENDMDL
MODEL 6
REMARK VINA RESULT:    -5.683      5.076      7.166
REMARK INTER + INTRA:          -6.945
REMARK INTER:                  -6.673
REMARK INTRA:                  -0.272
REMARK UNBOUND:                -0.266
REMARK SMILES O=c1cc(-c2ccc(O)c(O)c2)oc2cc(O)cc(O)c12
REMARK SMILES IDX 4 1 3 2 2 3 1 4 21 5 19 6 18 7 16 8 15 9 14 10 13 11 5 12
REMARK SMILES IDX 6 13 7 14 8 15 12 16 10 17 9 18 11 20 20 22 17 24
REMARK H PARENT 9 19 11 21 20 23 17 25
REMARK Flexibility Score: inf
ROOT
ATOM      1  C   UNL     1     150.251 149.195 157.072  1.00  0.00     0.138 A 
ATOM      2  C   UNL     1     148.957 148.693 156.885  1.00  0.00     0.100 A 
ATOM      3  C   UNL     1     147.889 149.578 156.724  1.00  0.00     0.197 A 
ATOM      4  O   UNL     1     146.731 149.099 156.621  1.00  0.00    -0.289 OA
ATOM      5  C   UNL     1     148.127 150.973 156.721  1.00  0.00     0.107 A 
ATOM      6  C   UNL     1     147.124 151.968 156.526  1.00  0.00     0.134 A 
ATOM      7  C   UNL     1     147.458 153.322 156.659  1.00  0.00     0.093 A 
ATOM      8  C   UNL     1     148.770 153.718 156.919  1.00  0.00     0.123 A 
ATOM      9  C   UNL     1     149.770 152.755 157.059  1.00  0.00     0.094 A 
ATOM     10  C   UNL     1     149.462 151.396 156.966  1.00  0.00     0.146 A 
ATOM     11  O   UNL     1     150.440 150.509 157.119  1.00  0.00    -0.456 OA
ENDROOT
BRANCH   1  12
ATOM     12  C   UNL     1     151.423 148.298 157.246  1.00  0.00     0.021 A 
ATOM     13  C   UNL     1     151.582 147.507 158.397  1.00  0.00     0.016 A 
ATOM     14  C   UNL     1     152.689 146.666 158.529  1.00  0.00     0.051 A 
ATOM     15  C   UNL     1     153.653 146.588 157.519  1.00  0.00     0.157 A 
ATOM     16  C   UNL     1     152.385 148.209 156.225  1.00  0.00     0.062 A 
ATOM     17  C   UNL     1     153.498 147.368 156.350  1.00  0.00     0.158 A 
BRANCH  15  18
ATOM     18  O   UNL     1     154.735 145.728 157.715  1.00  0.00    -0.504 OA
ATOM     19  H   UNL     1     155.556 145.967 158.255  1.00  0.00     0.293 HD
ENDBRANCH  15  18
BRANCH  17  20
ATOM     20  O   UNL     1     154.414 147.339 155.298  1.00  0.00    -0.504 OA
ATOM     21  H   UNL     1     155.225 147.937 155.239  1.00  0.00     0.293 HD
ENDBRANCH  17  20
ENDBRANCH   1  12
BRANCH   6  22
ATOM     22  O   UNL     1     145.800 151.685 156.178  1.00  0.00    -0.507 OA
ATOM     23  H   UNL     1     145.024 151.671 156.824  1.00  0.00     0.293 HD
ENDBRANCH   6  22
BRANCH   8  24
ATOM     24  O   UNL     1     149.069 155.074 157.029  1.00  0.00    -0.508 OA
ATOM     25  H   UNL     1     149.071 155.545 157.926  1.00  0.00     0.293 HD
ENDBRANCH   8  24
TORSDOF 5
ENDMDL
MODEL 7
REMARK VINA RESULT:    -5.683      4.709      7.606
REMARK INTER + INTRA:          -6.945
REMARK INTER:                  -6.673
REMARK INTRA:                  -0.272
REMARK UNBOUND:                -0.266
REMARK SMILES O=c1cc(-c2ccc(O)c(O)c2)oc2cc(O)cc(O)c12
REMARK SMILES IDX 4 1 3 2 2 3 1 4 21 5 19 6 18 7 16 8 15 9 14 10 13 11 5 12
REMARK SMILES IDX 6 13 7 14 8 15 12 16 10 17 9 18 11 20 20 22 17 24
REMARK H PARENT 9 19 11 21 20 23 17 25
REMARK Flexibility Score: inf
ROOT
ATOM      1  C   UNL     1     145.348 146.377 157.042  1.00  0.00     0.138 A 
ATOM      2  C   UNL     1     146.643 146.885 156.869  1.00  0.00     0.100 A 
ATOM      3  C   UNL     1     147.716 146.004 156.725  1.00  0.00     0.197 A 
ATOM      4  O   UNL     1     148.873 146.488 156.634  1.00  0.00    -0.289 OA
ATOM      5  C   UNL     1     147.485 144.608 156.724  1.00  0.00     0.107 A 
ATOM      6  C   UNL     1     148.496 143.617 156.545  1.00  0.00     0.134 A 
ATOM      7  C   UNL     1     148.166 142.262 156.679  1.00  0.00     0.093 A 
ATOM      8  C   UNL     1     146.853 141.861 156.925  1.00  0.00     0.123 A 
ATOM      9  C   UNL     1     145.847 142.820 157.049  1.00  0.00     0.094 A 
ATOM     10  C   UNL     1     146.150 144.180 156.954  1.00  0.00     0.146 A 
ATOM     11  O   UNL     1     145.165 145.062 157.092  1.00  0.00    -0.456 OA
ENDROOT
BRANCH   1  12
ATOM     12  C   UNL     1     144.170 147.269 157.198  1.00  0.00     0.021 A 
ATOM     13  C   UNL     1     144.030 148.118 158.310  1.00  0.00     0.016 A 
ATOM     14  C   UNL     1     142.916 148.953 158.426  1.00  0.00     0.051 A 
ATOM     15  C   UNL     1     141.927 148.967 157.438  1.00  0.00     0.157 A 
ATOM     16  C   UNL     1     143.182 147.293 156.199  1.00  0.00     0.062 A 
ATOM     17  C   UNL     1     142.062 148.127 156.308  1.00  0.00     0.158 A 
BRANCH  15  18
ATOM     18  O   UNL     1     140.839 149.823 157.616  1.00  0.00    -0.504 OA
ATOM     19  H   UNL     1     140.573 150.543 156.959  1.00  0.00     0.293 HD
ENDBRANCH  15  18
BRANCH  17  20
ATOM     20  O   UNL     1     141.119 148.089 155.280  1.00  0.00    -0.504 OA
ATOM     21  H   UNL     1     140.451 147.343 155.153  1.00  0.00     0.293 HD
ENDBRANCH  17  20
ENDBRANCH   1  12
BRANCH   6  22
ATOM     22  O   UNL     1     149.823 143.905 156.213  1.00  0.00    -0.507 OA
ATOM     23  H   UNL     1     150.184 144.830 156.030  1.00  0.00     0.293 HD
ENDBRANCH   6  22
BRANCH   8  24
ATOM     24  O   UNL     1     146.560 140.504 157.037  1.00  0.00    -0.508 OA
ATOM     25  H   UNL     1     146.911 139.830 156.367  1.00  0.00     0.293 HD
ENDBRANCH   8  24
TORSDOF 5
ENDMDL
MODEL 8
REMARK VINA RESULT:    -5.680      6.411     10.040
REMARK INTER + INTRA:          -6.942
REMARK INTER:                  -6.671
REMARK INTRA:                  -0.271
REMARK UNBOUND:                -0.266
REMARK SMILES O=c1cc(-c2ccc(O)c(O)c2)oc2cc(O)cc(O)c12
REMARK SMILES IDX 4 1 3 2 2 3 1 4 21 5 19 6 18 7 16 8 15 9 14 10 13 11 5 12
REMARK SMILES IDX 6 13 7 14 8 15 12 16 10 17 9 18 11 20 20 22 17 24
REMARK H PARENT 9 19 11 21 20 23 17 25
REMARK Flexibility Score: inf
ROOT
ATOM      1  C   UNL     1     149.203 145.330 157.041  1.00  0.00     0.138 A 
ATOM      2  C   UNL     1     148.690 146.621 156.865  1.00  0.00     0.100 A 
ATOM      3  C   UNL     1     149.566 147.699 156.721  1.00  0.00     0.197 A 
ATOM      4  O   UNL     1     149.077 148.853 156.628  1.00  0.00    -0.289 OA
ATOM      5  C   UNL     1     150.963 147.474 156.723  1.00  0.00     0.107 A 
ATOM      6  C   UNL     1     151.950 148.489 156.544  1.00  0.00     0.134 A 
ATOM      7  C   UNL     1     153.306 148.166 156.681  1.00  0.00     0.093 A 
ATOM      8  C   UNL     1     153.713 146.855 156.929  1.00  0.00     0.123 A 
ATOM      9  C   UNL     1     152.758 145.845 157.052  1.00  0.00     0.094 A 
ATOM     10  C   UNL     1     151.397 146.141 156.955  1.00  0.00     0.146 A 
ATOM     11  O   UNL     1     150.519 145.153 157.093  1.00  0.00    -0.456 OA
ENDROOT
BRANCH   1  12
ATOM     12  C   UNL     1     148.317 144.148 157.197  1.00  0.00     0.021 A 
ATOM     13  C   UNL     1     147.483 143.993 158.319  1.00  0.00     0.016 A 
ATOM     14  C   UNL     1     146.653 142.877 158.434  1.00  0.00     0.051 A 
ATOM     15  C   UNL     1     146.627 141.898 157.436  1.00  0.00     0.157 A 
ATOM     16  C   UNL     1     148.280 143.170 156.188  1.00  0.00     0.062 A 
ATOM     17  C   UNL     1     147.451 142.047 156.296  1.00  0.00     0.158 A 
BRANCH  15  18
ATOM     18  O   UNL     1     145.776 140.806 157.615  1.00  0.00    -0.504 OA
ATOM     19  H   UNL     1     145.352 140.289 156.856  1.00  0.00     0.293 HD
ENDBRANCH  15  18
BRANCH  17  20
ATOM     20  O   UNL     1     147.476 141.115 155.257  1.00  0.00    -0.504 OA
ATOM     21  H   UNL     1     147.839 141.307 154.335  1.00  0.00     0.293 HD
ENDBRANCH  17  20
ENDBRANCH   1  12
BRANCH   6  22
ATOM     22  O   UNL     1     151.656 149.814 156.210  1.00  0.00    -0.507 OA
ATOM     23  H   UNL     1     152.307 150.461 155.791  1.00  0.00     0.293 HD
ENDBRANCH   6  22
BRANCH   8  24
ATOM     24  O   UNL     1     155.071 146.567 157.043  1.00  0.00    -0.508 OA
ATOM     25  H   UNL     1     155.542 145.963 156.379  1.00  0.00     0.293 HD
ENDBRANCH   8  24
TORSDOF 5
ENDMDL
MODEL 9
REMARK VINA RESULT:    -5.332      5.280      8.032
REMARK INTER + INTRA:          -6.533
REMARK INTER:                  -6.239
REMARK INTRA:                  -0.294
REMARK UNBOUND:                -0.266
REMARK SMILES O=c1cc(-c2ccc(O)c(O)c2)oc2cc(O)cc(O)c12
REMARK SMILES IDX 4 1 3 2 2 3 1 4 21 5 19 6 18 7 16 8 15 9 14 10 13 11 5 12
REMARK SMILES IDX 6 13 7 14 8 15 12 16 10 17 9 18 11 20 20 22 17 24
REMARK H PARENT 9 19 11 21 20 23 17 25
REMARK Flexibility Score: inf
ROOT
ATOM      1  C   UNL     1     151.008 150.605 157.280  1.00  0.00     0.138 A 
ATOM      2  C   UNL     1     152.185 151.115 157.844  1.00  0.00     0.100 A 
ATOM      3  C   UNL     1     153.264 150.262 158.078  1.00  0.00     0.197 A 
ATOM      4  O   UNL     1     154.284 150.735 158.643  1.00  0.00    -0.289 OA
ATOM      5  C   UNL     1     153.173 148.897 157.717  1.00  0.00     0.107 A 
ATOM      6  C   UNL     1     154.223 147.943 157.871  1.00  0.00     0.134 A 
ATOM      7  C   UNL     1     153.977 146.593 157.586  1.00  0.00     0.093 A 
ATOM      8  C   UNL     1     152.741 146.174 157.095  1.00  0.00     0.123 A 
ATOM      9  C   UNL     1     151.725 147.107 156.889  1.00  0.00     0.094 A 
ATOM     10  C   UNL     1     151.927 148.454 157.197  1.00  0.00     0.146 A 
ATOM     11  O   UNL     1     150.928 149.309 157.000  1.00  0.00    -0.456 OA
ENDROOT
BRANCH   1  12
ATOM     12  C   UNL     1     149.830 151.469 157.008  1.00  0.00     0.021 A 
ATOM     13  C   UNL     1     148.591 150.927 156.623  1.00  0.00     0.016 A 
ATOM     14  C   UNL     1     147.498 151.763 156.382  1.00  0.00     0.051 A 
ATOM     15  C   UNL     1     147.612 153.149 156.528  1.00  0.00     0.157 A 
ATOM     16  C   UNL     1     149.940 152.861 157.167  1.00  0.00     0.062 A 
ATOM     17  C   UNL     1     148.849 153.705 156.927  1.00  0.00     0.158 A 
BRANCH  15  18
ATOM     18  O   UNL     1     146.482 153.926 156.271  1.00  0.00    -0.504 OA
ATOM     19  H   UNL     1     145.636 153.571 155.847  1.00  0.00     0.293 HD
ENDBRANCH  15  18
BRANCH  17  20
ATOM     20  O   UNL     1     149.038 155.078 157.098  1.00  0.00    -0.504 OA
ATOM     21  H   UNL     1     149.872 155.573 156.818  1.00  0.00     0.293 HD
ENDBRANCH  17  20
ENDBRANCH   1  12
BRANCH   6  22
ATOM     22  O   UNL     1     155.521 148.268 158.275  1.00  0.00    -0.507 OA
ATOM     23  H   UNL     1     155.840 148.288 159.232  1.00  0.00     0.293 HD
ENDBRANCH   6  22
BRANCH   8  24
ATOM     24  O   UNL     1     152.539 144.826 156.807  1.00  0.00    -0.508 OA
ATOM     25  H   UNL     1     151.608 144.448 156.672  1.00  0.00     0.293 HD
ENDBRANCH   8  24
TORSDOF 5
ENDMDL
