MODEL 1
REMARK VINA RESULT:    -4.787      0.000      0.000
REMARK INTER + INTRA:          -8.287
REMARK INTER:                  -7.306
REMARK INTRA:                  -0.982
REMARK UNBOUND:                -0.982
REMARK SMILES CCCCCCCCCCC(=O)[O-]
REMARK SMILES IDX 7 1 8 2 9 3 10 4 11 5 12 6 13 7 6 8 5 9 4 10 3 11 2 12 1 13
REMARK H PARENT
REMARK Flexibility Score: inf
ROOT
ATOM      1  C   UNL     1       3.545  48.127  25.578  1.00  0.00     0.000 C 
ENDROOT
BRANCH   1   2
ATOM      2  C   UNL     1       2.881  46.911  24.910  1.00  0.00     0.000 C 
BRANCH   2   3
ATOM      3  C   UNL     1       1.465  47.215  24.401  1.00  0.00     0.006 C 
BRANCH   3   4
ATOM      4  C   UNL     1       1.513  48.019  23.098  1.00  0.00     0.053 C 
BRANCH   4   5
ATOM      5  C   UNL     1       0.536  47.471  22.107  1.00  0.00     0.041 C 
ATOM      6  O   UNL     1       0.889  47.267  20.916  1.00  0.00    -0.550 OA
ATOM      7  O   UNL     1      -0.751  47.138  22.510  1.00  0.00    -0.550 OA
ENDBRANCH   4   5
ENDBRANCH   3   4
ENDBRANCH   2   3
ENDBRANCH   1   2
BRANCH   1   8
ATOM      8  C   UNL     1       5.070  47.979  25.694  1.00  0.00     0.000 C 
BRANCH   8   9
ATOM      9  C   UNL     1       5.789  49.110  24.943  1.00  0.00    -0.000 C 
BRANCH   9  10
ATOM     10  C   UNL     1       6.852  48.587  23.964  1.00  0.00    -0.000 C 
BRANCH  10  11
ATOM     11  C   UNL     1       6.317  47.481  23.041  1.00  0.00    -0.000 C 
BRANCH  11  12
ATOM     12  C   UNL     1       5.174  48.005  22.163  1.00  0.00    -0.003 C 
ATOM     13  C   UNL     1       4.528  46.875  21.367  1.00  0.00     0.004 C 
ENDBRANCH  11  12
ENDBRANCH  10  11
ENDBRANCH   9  10
ENDBRANCH   8   9
ENDBRANCH   1   8
TORSDOF 9
ENDMDL
MODEL 2
REMARK VINA RESULT:    -4.736      3.850      5.500
REMARK INTER + INTRA:          -8.210
REMARK INTER:                  -7.325
REMARK INTRA:                  -0.885
REMARK UNBOUND:                -0.982
REMARK SMILES CCCCCCCCCCC(=O)[O-]
REMARK SMILES IDX 7 1 8 2 9 3 10 4 11 5 12 6 13 7 6 8 5 9 4 10 3 11 2 12 1 13
REMARK H PARENT
REMARK Flexibility Score: inf
ROOT
ATOM      1  C   UNL     1       3.446  48.151  25.116  1.00  0.00     0.000 C 
ENDROOT
BRANCH   1   2
ATOM      2  C   UNL     1       4.651  47.512  25.827  1.00  0.00     0.000 C 
BRANCH   2   3
ATOM      3  C   UNL     1       5.953  47.646  25.022  1.00  0.00     0.006 C 
BRANCH   3   4
ATOM      4  C   UNL     1       6.458  49.091  25.036  1.00  0.00     0.053 C 
BRANCH   4   5
ATOM      5  C   UNL     1       7.646  49.223  25.935  1.00  0.00     0.041 C 
ATOM      6  O   UNL     1       7.600  48.787  27.115  1.00  0.00    -0.550 OA
ATOM      7  O   UNL     1       8.824  49.782  25.454  1.00  0.00    -0.550 OA
ENDBRANCH   4   5
ENDBRANCH   3   4
ENDBRANCH   2   3
ENDBRANCH   1   2
BRANCH   1   8
ATOM      8  C   UNL     1       2.198  47.256  25.146  1.00  0.00     0.000 C 
BRANCH   8   9
ATOM      9  C   UNL     1       1.331  47.484  23.899  1.00  0.00    -0.000 C 
BRANCH   9  10
ATOM     10  C   UNL     1       2.112  48.131  22.744  1.00  0.00    -0.000 C 
BRANCH  10  11
ATOM     11  C   UNL     1       2.548  47.112  21.680  1.00  0.00    -0.000 C 
BRANCH  11  12
ATOM     12  C   UNL     1       4.062  46.875  21.735  1.00  0.00    -0.003 C 
ATOM     13  C   UNL     1       4.824  48.012  21.060  1.00  0.00     0.004 C 
ENDBRANCH  11  12
ENDBRANCH  10  11
ENDBRANCH   9  10
ENDBRANCH   8   9
ENDBRANCH   1   8
TORSDOF 9
ENDMDL
MODEL 3
REMARK VINA RESULT:    -4.733      3.868      6.117
REMARK INTER + INTRA:          -8.206
REMARK INTER:                  -7.459
REMARK INTRA:                  -0.747
REMARK UNBOUND:                -0.982
REMARK SMILES CCCCCCCCCCC(=O)[O-]
REMARK SMILES IDX 7 1 8 2 9 3 10 4 11 5 12 6 13 7 6 8 5 9 4 10 3 11 2 12 1 13
REMARK H PARENT
REMARK Flexibility Score: inf
ROOT
ATOM      1  C   UNL     1       5.658  47.025  22.250  1.00  0.00     0.000 C 
ENDROOT
BRANCH   1   2
ATOM      2  C   UNL     1       6.550  48.050  22.970  1.00  0.00     0.000 C 
BRANCH   2   3
ATOM      3  C   UNL     1       6.184  48.214  24.453  1.00  0.00     0.006 C 
BRANCH   3   4
ATOM      4  C   UNL     1       6.692  49.552  24.998  1.00  0.00     0.053 C 
BRANCH   4   5
ATOM      5  C   UNL     1       7.857  49.338  25.911  1.00  0.00     0.041 C 
ATOM      6  O   UNL     1       7.676  48.898  27.076  1.00  0.00    -0.550 OA
ATOM      7  O   UNL     1       9.148  49.577  25.459  1.00  0.00    -0.550 OA
ENDBRANCH   4   5
ENDBRANCH   3   4
ENDBRANCH   2   3
ENDBRANCH   1   2
BRANCH   1   8
ATOM      8  C   UNL     1       4.670  47.682  21.274  1.00  0.00     0.000 C 
BRANCH   8   9
ATOM      9  C   UNL     1       3.219  47.364  21.667  1.00  0.00    -0.000 C 
BRANCH   9  10
ATOM     10  C   UNL     1       2.651  48.360  22.690  1.00  0.00    -0.000 C 
BRANCH  10  11
ATOM     11  C   UNL     1       1.291  47.920  23.255  1.00  0.00    -0.000 C 
BRANCH  11  12
ATOM     12  C   UNL     1       1.472  47.053  24.507  1.00  0.00    -0.003 C 
ATOM     13  C   UNL     1       2.702  47.479  25.301  1.00  0.00     0.004 C 
ENDBRANCH  11  12
ENDBRANCH  10  11
ENDBRANCH   9  10
ENDBRANCH   8   9
ENDBRANCH   1   8
TORSDOF 9
ENDMDL
MODEL 4
REMARK VINA RESULT:    -4.615     10.151     11.138
REMARK INTER + INTRA:          -8.025
REMARK INTER:                  -7.015
REMARK INTRA:                  -1.010
REMARK UNBOUND:                -0.982
REMARK SMILES CCCCCCCCCCC(=O)[O-]
REMARK SMILES IDX 7 1 8 2 9 3 10 4 11 5 12 6 13 7 6 8 5 9 4 10 3 11 2 12 1 13
REMARK H PARENT
REMARK Flexibility Score: inf
ROOT
ATOM      1  C   UNL     1       3.125  58.131  22.126  1.00  0.00     0.000 C 
ENDROOT
BRANCH   1   2
ATOM      2  C   UNL     1       1.939  57.214  21.785  1.00  0.00     0.000 C 
BRANCH   2   3
ATOM      3  C   UNL     1       1.518  56.326  22.966  1.00  0.00     0.006 C 
BRANCH   3   4
ATOM      4  C   UNL     1       2.393  55.071  23.046  1.00  0.00     0.053 C 
BRANCH   4   5
ATOM      5  C   UNL     1       3.181  55.062  24.317  1.00  0.00     0.041 C 
ATOM      6  O   UNL     1       2.915  55.882  25.235  1.00  0.00    -0.550 OA
ATOM      7  O   UNL     1       4.178  54.114  24.511  1.00  0.00    -0.550 OA
ENDBRANCH   4   5
ENDBRANCH   3   4
ENDBRANCH   2   3
ENDBRANCH   1   2
BRANCH   1   8
ATOM      8  C   UNL     1       2.884  58.967  23.393  1.00  0.00     0.000 C 
BRANCH   8   9
ATOM      9  C   UNL     1       2.756  60.458  23.048  1.00  0.00    -0.000 C 
BRANCH   9  10
ATOM     10  C   UNL     1       1.502  61.102  23.659  1.00  0.00    -0.000 C 
BRANCH  10  11
ATOM     11  C   UNL     1       0.317  60.127  23.748  1.00  0.00    -0.000 C 
BRANCH  11  12
ATOM     12  C   UNL     1      -0.102  59.904  25.206  1.00  0.00    -0.003 C 
ATOM     13  C   UNL     1      -0.019  58.428  25.584  1.00  0.00     0.004 C 
ENDBRANCH  11  12
ENDBRANCH  10  11
ENDBRANCH   9  10
ENDBRANCH   8   9
ENDBRANCH   1   8
TORSDOF 9
ENDMDL
MODEL 5
REMARK VINA RESULT:    -4.535      1.183      2.814
REMARK INTER + INTRA:          -7.902
REMARK INTER:                  -7.335
REMARK INTRA:                  -0.567
REMARK UNBOUND:                -0.982
REMARK SMILES CCCCCCCCCCC(=O)[O-]
REMARK SMILES IDX 7 1 8 2 9 3 10 4 11 5 12 6 13 7 6 8 5 9 4 10 3 11 2 12 1 13
REMARK H PARENT
REMARK Flexibility Score: inf
ROOT
ATOM      1  C   UNL     1       3.934  48.051  22.530  1.00  0.00     0.000 C 
ENDROOT
BRANCH   1   2
ATOM      2  C   UNL     1       3.277  47.531  23.820  1.00  0.00     0.000 C 
BRANCH   2   3
ATOM      3  C   UNL     1       1.744  47.509  23.735  1.00  0.00     0.006 C 
BRANCH   3   4
ATOM      4  C   UNL     1       1.249  48.335  22.545  1.00  0.00     0.053 C 
BRANCH   4   5
ATOM      5  C   UNL     1       0.283  47.543  21.722  1.00  0.00     0.041 C 
ATOM      6  O   UNL     1       0.582  47.202  20.547  1.00  0.00    -0.550 OA
ATOM      7  O   UNL     1      -0.928  47.137  22.269  1.00  0.00    -0.550 OA
ENDBRANCH   4   5
ENDBRANCH   3   4
ENDBRANCH   2   3
ENDBRANCH   1   2
BRANCH   1   8
ATOM      8  C   UNL     1       5.270  47.356  22.224  1.00  0.00     0.000 C 
BRANCH   8   9
ATOM      9  C   UNL     1       6.138  47.256  23.487  1.00  0.00    -0.000 C 
BRANCH   9  10
ATOM     10  C   UNL     1       6.907  48.553  23.781  1.00  0.00    -0.000 C 
BRANCH  10  11
ATOM     11  C   UNL     1       6.496  49.198  25.114  1.00  0.00    -0.000 C 
BRANCH  11  12
ATOM     12  C   UNL     1       7.705  49.357  26.044  1.00  0.00    -0.003 C 
ATOM     13  C   UNL     1       9.010  49.368  25.254  1.00  0.00     0.004 C 
ENDBRANCH  11  12
ENDBRANCH  10  11
ENDBRANCH   9  10
ENDBRANCH   8   9
ENDBRANCH   1   8
TORSDOF 9
ENDMDL
MODEL 6
REMARK VINA RESULT:    -4.506      3.926      6.062
REMARK INTER + INTRA:          -7.859
REMARK INTER:                  -7.159
REMARK INTRA:                  -0.700
REMARK UNBOUND:                -0.982
REMARK SMILES CCCCCCCCCCC(=O)[O-]
REMARK SMILES IDX 7 1 8 2 9 3 10 4 11 5 12 6 13 7 6 8 5 9 4 10 3 11 2 12 1 13
REMARK H PARENT
REMARK Flexibility Score: inf
ROOT
ATOM      1  C   UNL     1       5.192  47.290  22.071  1.00  0.00     0.000 C 
ENDROOT
BRANCH   1   2
ATOM      2  C   UNL     1       5.672  47.430  23.526  1.00  0.00     0.000 C 
BRANCH   2   3
ATOM      3  C   UNL     1       6.854  48.401  23.668  1.00  0.00     0.006 C 
BRANCH   3   4
ATOM      4  C   UNL     1       6.643  49.349  24.852  1.00  0.00     0.053 C 
BRANCH   4   5
ATOM      5  C   UNL     1       7.808  49.287  25.788  1.00  0.00     0.041 C 
ATOM      6  O   UNL     1       7.642  48.927  26.983  1.00  0.00    -0.550 OA
ATOM      7  O   UNL     1       9.086  49.578  25.328  1.00  0.00    -0.550 OA
ENDBRANCH   4   5
ENDBRANCH   3   4
ENDBRANCH   2   3
ENDBRANCH   1   2
BRANCH   1   8
ATOM      8  C   UNL     1       3.680  47.518  21.922  1.00  0.00     0.000 C 
BRANCH   8   9
ATOM      9  C   UNL     1       3.221  48.714  22.769  1.00  0.00    -0.000 C 
BRANCH   9  10
ATOM     10  C   UNL     1       2.013  48.381  23.659  1.00  0.00    -0.000 C 
BRANCH  10  11
ATOM     11  C   UNL     1       1.390  47.016  23.326  1.00  0.00    -0.000 C 
BRANCH  11  12
ATOM     12  C   UNL     1      -0.014  47.183  22.733  1.00  0.00    -0.003 C 
ATOM     13  C   UNL     1       0.051  47.512  21.245  1.00  0.00     0.004 C 
ENDBRANCH  11  12
ENDBRANCH  10  11
ENDBRANCH   9  10
ENDBRANCH   8   9
ENDBRANCH   1   8
TORSDOF 9
ENDMDL
MODEL 7
REMARK VINA RESULT:    -4.356      9.683     10.601
REMARK INTER + INTRA:          -7.629
REMARK INTER:                  -6.783
REMARK INTRA:                  -0.846
REMARK UNBOUND:                -0.982
REMARK SMILES CCCCCCCCCCC(=O)[O-]
REMARK SMILES IDX 7 1 8 2 9 3 10 4 11 5 12 6 13 7 6 8 5 9 4 10 3 11 2 12 1 13
REMARK H PARENT
REMARK Flexibility Score: inf
ROOT
ATOM      1  C   UNL     1       1.894  57.393  25.288  1.00  0.00     0.000 C 
ENDROOT
BRANCH   1   2
ATOM      2  C   UNL     1       2.974  57.031  24.255  1.00  0.00     0.000 C 
BRANCH   2   3
ATOM      3  C   UNL     1       2.442  56.129  23.132  1.00  0.00     0.006 C 
BRANCH   3   4
ATOM      4  C   UNL     1       2.678  54.651  23.459  1.00  0.00     0.053 C 
BRANCH   4   5
ATOM      5  C   UNL     1       2.183  53.783  22.347  1.00  0.00     0.041 C 
ATOM      6  O   UNL     1       2.639  53.924  21.181  1.00  0.00    -0.550 OA
ATOM      7  O   UNL     1       1.255  52.782  22.605  1.00  0.00    -0.550 OA
ENDBRANCH   4   5
ENDBRANCH   3   4
ENDBRANCH   2   3
ENDBRANCH   1   2
BRANCH   1   8
ATOM      8  C   UNL     1       0.557  57.778  24.637  1.00  0.00     0.000 C 
BRANCH   8   9
ATOM      9  C   UNL     1      -0.258  58.695  25.562  1.00  0.00    -0.000 C 
BRANCH   9  10
ATOM     10  C   UNL     1      -0.037  60.186  25.262  1.00  0.00    -0.000 C 
BRANCH  10  11
ATOM     11  C   UNL     1       0.340  60.447  23.795  1.00  0.00    -0.000 C 
BRANCH  11  12
ATOM     12  C   UNL     1       1.637  61.259  23.698  1.00  0.00    -0.003 C 
ATOM     13  C   UNL     1       2.715  60.489  22.942  1.00  0.00     0.004 C 
ENDBRANCH  11  12
ENDBRANCH  10  11
ENDBRANCH   9  10
ENDBRANCH   8   9
ENDBRANCH   1   8
TORSDOF 9
ENDMDL
MODEL 8
REMARK VINA RESULT:    -4.331     10.071     11.099
REMARK INTER + INTRA:          -7.591
REMARK INTER:                  -6.537
REMARK INTRA:                  -1.055
REMARK UNBOUND:                -0.982
REMARK SMILES CCCCCCCCCCC(=O)[O-]
REMARK SMILES IDX 7 1 8 2 9 3 10 4 11 5 12 6 13 7 6 8 5 9 4 10 3 11 2 12 1 13
REMARK H PARENT
REMARK Flexibility Score: inf
ROOT
ATOM      1  C   UNL     1       3.102  58.294  22.467  1.00  0.00     0.000 C 
ENDROOT
BRANCH   1   2
ATOM      2  C   UNL     1       3.496  58.010  23.926  1.00  0.00     0.000 C 
BRANCH   2   3
ATOM      3  C   UNL     1       3.094  56.600  24.383  1.00  0.00     0.006 C 
BRANCH   3   4
ATOM      4  C   UNL     1       2.318  55.868  23.284  1.00  0.00     0.053 C 
BRANCH   4   5
ATOM      5  C   UNL     1       2.658  54.411  23.284  1.00  0.00     0.041 C 
ATOM      6  O   UNL     1       3.623  53.985  23.971  1.00  0.00    -0.550 OA
ATOM      7  O   UNL     1       1.877  53.515  22.565  1.00  0.00    -0.550 OA
ENDBRANCH   4   5
ENDBRANCH   3   4
ENDBRANCH   2   3
ENDBRANCH   1   2
BRANCH   1   8
ATOM      8  C   UNL     1       2.895  59.791  22.189  1.00  0.00     0.000 C 
BRANCH   8   9
ATOM      9  C   UNL     1       2.785  60.581  23.502  1.00  0.00    -0.000 C 
BRANCH   9  10
ATOM     10  C   UNL     1       1.448  61.329  23.633  1.00  0.00    -0.000 C 
BRANCH  10  11
ATOM     11  C   UNL     1       0.244  60.379  23.728  1.00  0.00    -0.000 C 
BRANCH  11  12
ATOM     12  C   UNL     1      -0.055  60.017  25.188  1.00  0.00    -0.003 C 
ATOM     13  C   UNL     1       0.124  58.523  25.434  1.00  0.00     0.004 C 
ENDBRANCH  11  12
ENDBRANCH  10  11
ENDBRANCH   9  10
ENDBRANCH   8   9
ENDBRANCH   1   8
TORSDOF 9
ENDMDL
