MODEL 1
REMARK VINA RESULT:    -3.911      0.000      0.000
REMARK INTER + INTRA:          -4.657
REMARK INTER:                  -4.597
REMARK INTRA:                  -0.060
REMARK UNBOUND:                -0.060
REMARK SMILES CCCCC(=O)[O-]
REMARK SMILES IDX 4 1 5 2 6 3 7 4 3 5 2 6 1 7
REMARK H PARENT
REMARK Flexibility Score: inf
ROOT
ATOM      1  C   UNL     1       2.488  21.728 -19.495  1.00  0.00     0.053 C 
ENDROOT
BRANCH   1   2
ATOM      2  C   UNL     1       2.311  22.172 -18.075  1.00  0.00     0.041 C 
ATOM      3  O   UNL     1       1.420  21.649 -17.353  1.00  0.00    -0.550 OA
ATOM      4  O   UNL     1       3.150  23.140 -17.540  1.00  0.00    -0.550 OA
ENDBRANCH   1   2
BRANCH   1   5
ATOM      5  C   UNL     1       1.516  20.597 -19.867  1.00  0.00     0.006 C 
BRANCH   5   6
ATOM      6  C   UNL     1       2.206  19.300 -20.325  1.00  0.00    -0.003 C 
ATOM      7  C   UNL     1       3.561  19.548 -20.986  1.00  0.00     0.004 C 
ENDBRANCH   5   6
ENDBRANCH   1   5
TORSDOF 3
ENDMDL
MODEL 2
REMARK VINA RESULT:    -3.826      2.448      3.688
REMARK INTER + INTRA:          -4.556
REMARK INTER:                  -4.452
REMARK INTRA:                  -0.104
REMARK UNBOUND:                -0.060
REMARK SMILES CCCCC(=O)[O-]
REMARK SMILES IDX 4 1 5 2 6 3 7 4 3 5 2 6 1 7
REMARK H PARENT
REMARK Flexibility Score: inf
ROOT
ATOM      1  C   UNL     1       1.439  20.584 -19.856  1.00  0.00     0.053 C 
ENDROOT
BRANCH   1   2
ATOM      2  C   UNL     1       2.714  20.385 -20.617  1.00  0.00     0.041 C 
ATOM      3  O   UNL     1       3.348  21.379 -21.063  1.00  0.00    -0.550 OA
ATOM      4  O   UNL     1       3.218  19.106 -20.807  1.00  0.00    -0.550 OA
ENDBRANCH   1   2
BRANCH   1   5
ATOM      5  C   UNL     1       1.427  21.918 -19.095  1.00  0.00     0.006 C 
BRANCH   5   6
ATOM      6  C   UNL     1       1.960  21.825 -17.654  1.00  0.00    -0.003 C 
ATOM      7  C   UNL     1       3.221  22.661 -17.432  1.00  0.00     0.004 C 
ENDBRANCH   5   6
ENDBRANCH   1   5
TORSDOF 3
ENDMDL
MODEL 3
REMARK VINA RESULT:    -3.672      8.923     10.001
REMARK INTER + INTRA:          -4.375
REMARK INTER:                  -4.300
REMARK INTRA:                  -0.075
REMARK UNBOUND:                -0.060
REMARK SMILES CCCCC(=O)[O-]
REMARK SMILES IDX 4 1 5 2 6 3 7 4 3 5 2 6 1 7
REMARK H PARENT
REMARK Flexibility Score: inf
ROOT
ATOM      1  C   UNL     1       8.359  25.149 -12.612  1.00  0.00     0.053 C 
ENDROOT
BRANCH   1   2
ATOM      2  C   UNL     1       6.930  25.528 -12.856  1.00  0.00     0.041 C 
ATOM      3  O   UNL     1       6.647  26.655 -13.343  1.00  0.00    -0.550 OA
ATOM      4  O   UNL     1       5.914  24.626 -12.574  1.00  0.00    -0.550 OA
ENDBRANCH   1   2
BRANCH   1   5
ATOM      5  C   UNL     1       8.479  23.820 -11.851  1.00  0.00     0.006 C 
BRANCH   5   6
ATOM      6  C   UNL     1       8.533  23.973 -10.320  1.00  0.00    -0.003 C 
ATOM      7  C   UNL     1       7.760  22.878  -9.586  1.00  0.00     0.004 C 
ENDBRANCH   5   6
ENDBRANCH   1   5
TORSDOF 3
ENDMDL
MODEL 4
REMARK VINA RESULT:    -3.610      1.025      1.479
REMARK INTER + INTRA:          -4.303
REMARK INTER:                  -4.256
REMARK INTRA:                  -0.047
REMARK UNBOUND:                -0.060
REMARK SMILES CCCCC(=O)[O-]
REMARK SMILES IDX 4 1 5 2 6 3 7 4 3 5 2 6 1 7
REMARK H PARENT
REMARK Flexibility Score: inf
ROOT
ATOM      1  C   UNL     1       1.640  22.587 -18.985  1.00  0.00     0.053 C 
ENDROOT
BRANCH   1   2
ATOM      2  C   UNL     1       2.425  22.705 -17.714  1.00  0.00     0.041 C 
ATOM      3  O   UNL     1       3.682  22.616 -17.735  1.00  0.00    -0.550 OA
ATOM      4  O   UNL     1       1.772  22.943 -16.513  1.00  0.00    -0.550 OA
ENDBRANCH   1   2
BRANCH   1   5
ATOM      5  C   UNL     1       1.441  21.122 -19.402  1.00  0.00     0.006 C 
BRANCH   5   6
ATOM      6  C   UNL     1       2.477  20.610 -20.420  1.00  0.00    -0.003 C 
ATOM      7  C   UNL     1       2.390  19.102 -20.650  1.00  0.00     0.004 C 
ENDBRANCH   5   6
ENDBRANCH   1   5
TORSDOF 3
ENDMDL
MODEL 5
REMARK VINA RESULT:    -3.562     13.351     14.205
REMARK INTER + INTRA:          -4.246
REMARK INTER:                  -4.225
REMARK INTRA:                  -0.021
REMARK UNBOUND:                -0.060
REMARK SMILES CCCCC(=O)[O-]
REMARK SMILES IDX 4 1 5 2 6 3 7 4 3 5 2 6 1 7
REMARK H PARENT
REMARK Flexibility Score: inf
ROOT
ATOM      1  C   UNL     1      -6.045  31.850 -16.870  1.00  0.00     0.053 C 
ENDROOT
BRANCH   1   2
ATOM      2  C   UNL     1      -7.338  32.388 -16.339  1.00  0.00     0.041 C 
ATOM      3  O   UNL     1      -7.654  32.204 -15.133  1.00  0.00    -0.550 OA
ATOM      4  O   UNL     1      -8.178  33.120 -17.167  1.00  0.00    -0.550 OA
ENDBRANCH   1   2
BRANCH   1   5
ATOM      5  C   UNL     1      -6.009  31.853 -18.406  1.00  0.00     0.006 C 
BRANCH   5   6
ATOM      6  C   UNL     1      -4.659  31.419 -19.006  1.00  0.00    -0.003 C 
ATOM      7  C   UNL     1      -3.551  32.448 -18.783  1.00  0.00     0.004 C 
ENDBRANCH   5   6
ENDBRANCH   1   5
TORSDOF 3
ENDMDL
MODEL 6
REMARK VINA RESULT:    -3.433      9.610     10.447
REMARK INTER + INTRA:          -4.095
REMARK INTER:                  -3.987
REMARK INTRA:                  -0.108
REMARK UNBOUND:                -0.060
REMARK SMILES CCCCC(=O)[O-]
REMARK SMILES IDX 4 1 5 2 6 3 7 4 3 5 2 6 1 7
REMARK H PARENT
REMARK Flexibility Score: inf
ROOT
ATOM      1  C   UNL     1       8.887  24.388 -10.961  1.00  0.00     0.053 C 
ENDROOT
BRANCH   1   2
ATOM      2  C   UNL     1       7.712  23.613 -10.450  1.00  0.00     0.041 C 
ATOM      3  O   UNL     1       6.613  23.646 -11.066  1.00  0.00    -0.550 OA
ATOM      4  O   UNL     1       7.838  22.828  -9.312  1.00  0.00    -0.550 OA
ENDBRANCH   1   2
BRANCH   1   5
ATOM      5  C   UNL     1       8.766  24.689 -12.463  1.00  0.00     0.006 C 
BRANCH   5   6
ATOM      6  C   UNL     1       8.576  26.181 -12.794  1.00  0.00    -0.003 C 
ATOM      7  C   UNL     1       7.115  26.553 -13.042  1.00  0.00     0.004 C 
ENDBRANCH   5   6
ENDBRANCH   1   5
TORSDOF 3
ENDMDL
MODEL 7
REMARK VINA RESULT:    -3.405     12.505     13.678
REMARK INTER + INTRA:          -4.062
REMARK INTER:                  -3.986
REMARK INTRA:                  -0.076
REMARK UNBOUND:                -0.060
REMARK SMILES CCCCC(=O)[O-]
REMARK SMILES IDX 4 1 5 2 6 3 7 4 3 5 2 6 1 7
REMARK H PARENT
REMARK Flexibility Score: inf
ROOT
ATOM      1  C   UNL     1      -4.629  31.525 -19.016  1.00  0.00     0.053 C 
ENDROOT
BRANCH   1   2
ATOM      2  C   UNL     1      -3.621  32.595 -18.727  1.00  0.00     0.041 C 
ATOM      3  O   UNL     1      -3.945  33.810 -18.806  1.00  0.00    -0.550 OA
ATOM      4  O   UNL     1      -2.333  32.250 -18.341  1.00  0.00    -0.550 OA
ENDBRANCH   1   2
BRANCH   1   5
ATOM      5  C   UNL     1      -6.010  31.865 -18.434  1.00  0.00     0.006 C 
BRANCH   5   6
ATOM      6  C   UNL     1      -6.122  31.652 -16.913  1.00  0.00    -0.003 C 
ATOM      7  C   UNL     1      -7.128  32.595 -16.253  1.00  0.00     0.004 C 
ENDBRANCH   5   6
ENDBRANCH   1   5
TORSDOF 3
ENDMDL
MODEL 8
REMARK VINA RESULT:    -3.322      8.997     10.287
REMARK INTER + INTRA:          -3.964
REMARK INTER:                  -3.947
REMARK INTRA:                  -0.018
REMARK UNBOUND:                -0.060
REMARK SMILES CCCCC(=O)[O-]
REMARK SMILES IDX 4 1 5 2 6 3 7 4 3 5 2 6 1 7
REMARK H PARENT
REMARK Flexibility Score: inf
ROOT
ATOM      1  C   UNL     1       8.085  25.746 -13.027  1.00  0.00     0.053 C 
ENDROOT
BRANCH   1   2
ATOM      2  C   UNL     1       7.204  24.715 -12.390  1.00  0.00     0.041 C 
ATOM      3  O   UNL     1       5.976  24.670 -12.669  1.00  0.00    -0.550 OA
ATOM      4  O   UNL     1       7.745  23.785 -11.512  1.00  0.00    -0.550 OA
ENDBRANCH   1   2
BRANCH   1   5
ATOM      5  C   UNL     1       7.391  27.113 -13.124  1.00  0.00     0.006 C 
BRANCH   5   6
ATOM      6  C   UNL     1       8.356  28.312 -13.097  1.00  0.00    -0.003 C 
ATOM      7  C   UNL     1       7.650  29.637 -12.807  1.00  0.00     0.004 C 
ENDBRANCH   5   6
ENDBRANCH   1   5
TORSDOF 3
ENDMDL
MODEL 9
REMARK VINA RESULT:    -3.301      9.616     10.350
REMARK INTER + INTRA:          -3.939
REMARK INTER:                  -3.865
REMARK INTRA:                  -0.074
REMARK UNBOUND:                -0.060
REMARK SMILES CCCCC(=O)[O-]
REMARK SMILES IDX 4 1 5 2 6 3 7 4 3 5 2 6 1 7
REMARK H PARENT
REMARK Flexibility Score: inf
ROOT
ATOM      1  C   UNL     1       7.980  25.357 -12.744  1.00  0.00     0.053 C 
ENDROOT
BRANCH   1   2
ATOM      2  C   UNL     1       9.263  24.985 -13.421  1.00  0.00     0.041 C 
ATOM      3  O   UNL     1       9.356  23.897 -14.050  1.00  0.00    -0.550 OA
ATOM      4  O   UNL     1      10.346  25.852 -13.383  1.00  0.00    -0.550 OA
ENDBRANCH   1   2
BRANCH   1   5
ATOM      5  C   UNL     1       7.481  24.245 -11.808  1.00  0.00     0.006 C 
BRANCH   5   6
ATOM      6  C   UNL     1       8.392  23.986 -10.595  1.00  0.00    -0.003 C 
ATOM      7  C   UNL     1       7.807  22.966  -9.619  1.00  0.00     0.004 C 
ENDBRANCH   5   6
ENDBRANCH   1   5
TORSDOF 3
ENDMDL
