MODEL 1
REMARK VINA RESULT:    -5.399      0.000      0.000
REMARK INTER + INTRA:         -10.157
REMARK INTER:                  -8.871
REMARK INTRA:                  -1.285
REMARK UNBOUND:                -1.285
REMARK SMILES OC[C@@H]1O[C@@H](O)[C@H](O)[C@@H](O)[C@H]1O[C@H]1O[C@H](CO)[C@H](O[C@H]2O[C@H](CO)[C@@H](O)[C@H](O)[C@@H]2O)[C@H](O)[C@H]1O
REMARK SMILES IDX 18 1 15 2 14 3 13 4 33 5 31 6 19 7 20 8 22 9 25 10 21 11
REMARK SMILES IDX 27 12 29 13 23 14 24 15 26 17 28 19 30 21 16 23 17 24 32 26
REMARK SMILES IDX 34 28 12 30 11 31 3 32 9 33 4 34 7 35 5 36 2 37 1 38 10 40
REMARK SMILES IDX 8 42 6 44
REMARK H PARENT 24 16 26 18 28 20 30 22 17 25 32 27 34 29 1 39 10 41 8 43 6 45
REMARK Flexibility Score: inf
ROOT
ATOM      1  C   UNL     1      11.112   6.020   3.317  1.00  0.00     0.184 C 
ATOM      2  C   UNL     1      12.403   5.472   4.125  1.00  0.00     0.178 C 
ATOM      3  O   UNL     1      13.494   6.542   4.058  1.00  0.00    -0.341 OA
ATOM      4  C   UNL     1      13.941   6.823   2.617  1.00  0.00     0.282 C 
ATOM      5  C   UNL     1      12.748   6.189   1.744  1.00  0.00     0.202 C 
ATOM      6  C   UNL     1      11.248   6.548   1.894  1.00  0.00     0.180 C 
ENDROOT
BRANCH   1   7
ATOM      7  O   UNL     1       9.917   5.521   3.871  1.00  0.00    -0.341 OA
BRANCH   7   8
ATOM      8  C   UNL     1       8.865   4.907   3.093  1.00  0.00     0.282 C 
ATOM      9  C   UNL     1       7.869   3.085   2.035  1.00  0.00     0.178 C 
ATOM     10  C   UNL     1       6.757   2.815   3.077  1.00  0.00     0.177 C 
ATOM     11  O   UNL     1       9.003   3.593   2.656  1.00  0.00    -0.341 OA
ATOM     12  C   UNL     1       6.378   4.017   3.926  1.00  0.00     0.179 C 
ATOM     13  C   UNL     1       7.487   5.130   3.934  1.00  0.00     0.202 C 
BRANCH   9  14
ATOM     14  C   UNL     1       7.561   3.807   0.740  1.00  0.00     0.191 C 
BRANCH  14  15
ATOM     15  O   UNL     1       6.145   3.891   0.494  1.00  0.00    -0.394 OA
ATOM     16  H   UNL     1       5.912   3.326  -0.357  1.00  0.00     0.210 HD
ENDBRANCH  14  15
ENDBRANCH   9  14
BRANCH  10  17
ATOM     17  O   UNL     1       7.087   1.739   3.961  1.00  0.00    -0.387 OA
ATOM     18  H   UNL     1       6.961   0.872   3.433  1.00  0.00     0.211 HD
ENDBRANCH  10  17
BRANCH  12  19
ATOM     19  O   UNL     1       5.146   4.649   3.494  1.00  0.00    -0.387 OA
ATOM     20  H   UNL     1       4.341   4.106   3.890  1.00  0.00     0.211 HD
ENDBRANCH  12  19
BRANCH  13  21
ATOM     21  O   UNL     1       6.951   6.394   3.669  1.00  0.00    -0.385 OA
ATOM     22  H   UNL     1       7.634   6.896   3.101  1.00  0.00     0.211 HD
ENDBRANCH  13  21
ENDBRANCH   7   8
ENDBRANCH   1   7
BRANCH   2  23
ATOM     23  C   UNL     1      12.799   4.039   3.488  1.00  0.00     0.191 C 
BRANCH  23  24
ATOM     24  O   UNL     1      11.781   3.038   3.613  1.00  0.00    -0.394 OA
ATOM     25  H   UNL     1      11.405   3.310   4.569  1.00  0.00     0.210 HD
ENDBRANCH  23  24
ENDBRANCH   2  23
BRANCH   6  26
ATOM     26  O   UNL     1      10.524   5.949   0.778  1.00  0.00    -0.387 OA
ATOM     27  H   UNL     1      10.648   6.408  -0.177  1.00  0.00     0.211 HD
ENDBRANCH   6  26
BRANCH   5  28
ATOM     28  O   UNL     1      13.066   5.299   0.648  1.00  0.00    -0.385 OA
ATOM     29  H   UNL     1      12.357   5.105  -0.107  1.00  0.00     0.211 HD
ENDBRANCH   5  28
BRANCH   4  30
ATOM     30  O   UNL     1      14.776   8.132   2.081  1.00  0.00    -0.341 OA
BRANCH  30  31
ATOM     31  C   UNL     1      16.217   7.994   1.298  1.00  0.00     0.184 C 
ATOM     32  C   UNL     1      16.611   9.411   1.334  1.00  0.00     0.178 C 
ATOM     33  C   UNL     1      18.016   7.844   0.775  1.00  0.00     0.180 C 
ATOM     34  O   UNL     1      17.317  10.116   2.418  1.00  0.00    -0.342 OA
ATOM     35  C   UNL     1      19.097   8.593   1.750  1.00  0.00     0.201 C 
ATOM     36  C   UNL     1      18.574   9.516   2.898  1.00  0.00     0.279 C 
BRANCH  32  37
ATOM     37  C   UNL     1      16.046   9.999  -0.162  1.00  0.00     0.191 C 
BRANCH  37  38
ATOM     38  O   UNL     1      17.113  10.112  -1.109  1.00  0.00    -0.394 OA
ATOM     39  H   UNL     1      17.690   9.312  -0.962  1.00  0.00     0.210 HD
ENDBRANCH  37  38
ENDBRANCH  32  37
BRANCH  33  40
ATOM     40  O   UNL     1      18.485   6.498   0.456  1.00  0.00    -0.387 OA
ATOM     41  H   UNL     1      19.215   6.290   1.116  1.00  0.00     0.211 HD
ENDBRANCH  33  40
BRANCH  35  42
ATOM     42  O   UNL     1      19.862   9.517   0.990  1.00  0.00    -0.385 OA
ATOM     43  H   UNL     1      19.285  10.361   1.080  1.00  0.00     0.211 HD
ENDBRANCH  35  42
BRANCH  36  44
ATOM     44  O   UNL     1      18.373   8.733   4.116  1.00  0.00    -0.366 OA
ATOM     45  H   UNL     1      18.981   7.902   4.118  1.00  0.00     0.213 HD
ENDBRANCH  36  44
ENDBRANCH  30  31
ENDBRANCH   4  30
TORSDOF 18
ENDMDL
MODEL 2
REMARK VINA RESULT:    -4.110      1.616      9.655
REMARK INTER + INTRA:          -8.038
REMARK INTER:                  -6.429
REMARK INTRA:                  -1.609
REMARK UNBOUND:                -1.285
REMARK SMILES OC[C@@H]1O[C@@H](O)[C@H](O)[C@@H](O)[C@H]1O[C@H]1O[C@H](CO)[C@H](O[C@H]2O[C@H](CO)[C@@H](O)[C@H](O)[C@@H]2O)[C@H](O)[C@H]1O
REMARK SMILES IDX 18 1 15 2 14 3 13 4 33 5 31 6 19 7 20 8 22 9 25 10 21 11
REMARK SMILES IDX 27 12 29 13 23 14 24 15 26 17 28 19 30 21 16 23 17 24 32 26
REMARK SMILES IDX 34 28 12 30 11 31 3 32 9 33 4 34 7 35 5 36 2 37 1 38 10 40
REMARK SMILES IDX 8 42 6 44
REMARK H PARENT 24 16 26 18 28 20 30 22 17 25 32 27 34 29 1 39 10 41 8 43 6 45
REMARK Flexibility Score: inf
ROOT
ATOM      1  C   UNL     1      12.505   6.970   1.929  1.00  0.00     0.184 C 
ATOM      2  C   UNL     1      12.823   6.986   3.516  1.00  0.00     0.178 C 
ATOM      3  O   UNL     1      12.296   5.681   4.118  1.00  0.00    -0.341 OA
ATOM      4  C   UNL     1      10.777   5.543   3.958  1.00  0.00     0.282 C 
ATOM      5  C   UNL     1      10.438   6.627   2.819  1.00  0.00     0.202 C 
ATOM      6  C   UNL     1      11.097   6.681   1.418  1.00  0.00     0.180 C 
ENDROOT
BRANCH   1   7
ATOM      7  O   UNL     1      13.485   7.678   1.207  1.00  0.00    -0.341 OA
BRANCH   7   8
ATOM      8  C   UNL     1      14.778   8.035   1.744  1.00  0.00     0.282 C 
ATOM      9  C   UNL     1      16.825   7.514   2.730  1.00  0.00     0.178 C 
ATOM     10  C   UNL     1      17.712   7.664   1.471  1.00  0.00     0.177 C 
ATOM     11  O   UNL     1      15.555   7.070   2.379  1.00  0.00    -0.341 OA
ATOM     12  C   UNL     1      17.136   8.568   0.394  1.00  0.00     0.179 C 
ATOM     13  C   UNL     1      15.585   8.773   0.536  1.00  0.00     0.202 C 
BRANCH   9  14
ATOM     14  C   UNL     1      16.774   8.604   3.779  1.00  0.00     0.191 C 
BRANCH  14  15
ATOM     15  O   UNL     1      17.603   9.728   3.428  1.00  0.00    -0.394 OA
ATOM     16  H   UNL     1      17.088  10.613   3.643  1.00  0.00     0.210 HD
ENDBRANCH  14  15
ENDBRANCH   9  14
BRANCH  10  17
ATOM     17  O   UNL     1      18.021   6.403   0.867  1.00  0.00    -0.387 OA
ATOM     18  H   UNL     1      17.999   5.704   1.613  1.00  0.00     0.211 HD
ENDBRANCH  10  17
BRANCH  12  19
ATOM     19  O   UNL     1      17.739   9.887   0.381  1.00  0.00    -0.387 OA
ATOM     20  H   UNL     1      17.973  10.133  -0.611  1.00  0.00     0.211 HD
ENDBRANCH  12  19
BRANCH  13  21
ATOM     21  O   UNL     1      15.236  10.125   0.468  1.00  0.00    -0.385 OA
ATOM     22  H   UNL     1      14.527  10.216  -0.260  1.00  0.00     0.211 HD
ENDBRANCH  13  21
ENDBRANCH   7   8
ENDBRANCH   1   7
BRANCH   2  23
ATOM     23  C   UNL     1      12.180   8.338   4.125  1.00  0.00     0.191 C 
BRANCH  23  24
ATOM     24  O   UNL     1      11.962   9.374   3.158  1.00  0.00    -0.394 OA
ATOM     25  H   UNL     1      12.071  10.215   3.797  1.00  0.00     0.210 HD
ENDBRANCH  23  24
ENDBRANCH   2  23
BRANCH   6  26
ATOM     26  O   UNL     1      10.361   7.644   0.606  1.00  0.00    -0.387 OA
ATOM     27  H   UNL     1       9.298   7.549   0.595  1.00  0.00     0.211 HD
ENDBRANCH   6  26
BRANCH   5  28
ATOM     28  O   UNL     1       9.362   7.569   3.034  1.00  0.00    -0.385 OA
ATOM     29  H   UNL     1       9.543   8.606   3.002  1.00  0.00     0.211 HD
ENDBRANCH   5  28
BRANCH   4  30
ATOM     30  O   UNL     1       9.892   4.166   4.103  1.00  0.00    -0.341 OA
BRANCH  30  31
ATOM     31  C   UNL     1       9.045   3.531   2.843  1.00  0.00     0.184 C 
ATOM     32  C   UNL     1       7.726   3.462   3.492  1.00  0.00     0.178 C 
ATOM     33  C   UNL     1       7.963   3.187   1.345  1.00  0.00     0.180 C 
ATOM     34  O   UNL     1       6.714   4.529   3.578  1.00  0.00    -0.342 OA
ATOM     35  C   UNL     1       6.670   4.175   1.169  1.00  0.00     0.201 C 
ATOM     36  C   UNL     1       6.314   5.175   2.316  1.00  0.00     0.279 C 
BRANCH  32  37
ATOM     37  C   UNL     1       7.687   1.870   4.101  1.00  0.00     0.191 C 
BRANCH  37  38
ATOM     38  O   UNL     1       6.468   1.211   3.745  1.00  0.00    -0.394 OA
ATOM     39  H   UNL     1       6.550   0.282   4.100  1.00  0.00     0.210 HD
ENDBRANCH  37  38
ENDBRANCH  32  37
BRANCH  33  40
ATOM     40  O   UNL     1       8.656   3.045   0.067  1.00  0.00    -0.387 OA
ATOM     41  H   UNL     1       9.204   2.204   0.134  1.00  0.00     0.211 HD
ENDBRANCH  33  40
BRANCH  35  42
ATOM     42  O   UNL     1       5.482   3.398   1.113  1.00  0.00    -0.385 OA
ATOM     43  H   UNL     1       4.846   3.983   1.667  1.00  0.00     0.211 HD
ENDBRANCH  35  42
BRANCH  36  44
ATOM     44  O   UNL     1       7.014   6.442   2.108  1.00  0.00    -0.366 OA
ATOM     45  H   UNL     1       7.069   6.667   1.104  1.00  0.00     0.213 HD
ENDBRANCH  36  44
ENDBRANCH  30  31
ENDBRANCH   4  30
TORSDOF 18
ENDMDL
MODEL 3
REMARK VINA RESULT:    -3.958      1.865      3.499
REMARK INTER + INTRA:          -7.789
REMARK INTER:                  -6.749
REMARK INTRA:                  -1.040
REMARK UNBOUND:                -1.285
REMARK SMILES OC[C@@H]1O[C@@H](O)[C@H](O)[C@@H](O)[C@H]1O[C@H]1O[C@H](CO)[C@H](O[C@H]2O[C@H](CO)[C@@H](O)[C@H](O)[C@@H]2O)[C@H](O)[C@H]1O
REMARK SMILES IDX 18 1 15 2 14 3 13 4 33 5 31 6 19 7 20 8 22 9 25 10 21 11
REMARK SMILES IDX 27 12 29 13 23 14 24 15 26 17 28 19 30 21 16 23 17 24 32 26
REMARK SMILES IDX 34 28 12 30 11 31 3 32 9 33 4 34 7 35 5 36 2 37 1 38 10 40
REMARK SMILES IDX 8 42 6 44
REMARK H PARENT 24 16 26 18 28 20 30 22 17 25 32 27 34 29 1 39 10 41 8 43 6 45
REMARK Flexibility Score: inf
ROOT
ATOM      1  C   UNL     1       9.040   6.498   3.733  1.00  0.00     0.184 C 
ATOM      2  C   UNL     1      10.093   5.611   2.882  1.00  0.00     0.178 C 
ATOM      3  O   UNL     1      11.491   5.863   3.450  1.00  0.00    -0.341 OA
ATOM      4  C   UNL     1      11.915   7.331   3.313  1.00  0.00     0.282 C 
ATOM      5  C   UNL     1      10.519   8.080   3.035  1.00  0.00     0.202 C 
ATOM      6  C   UNL     1       9.266   7.991   3.942  1.00  0.00     0.180 C 
ENDROOT
BRANCH   1   7
ATOM      7  O   UNL     1       7.784   5.864   3.806  1.00  0.00    -0.341 OA
BRANCH   7   8
ATOM      8  C   UNL     1       7.513   4.552   3.263  1.00  0.00     0.282 C 
ATOM      9  C   UNL     1       6.967   2.296   3.476  1.00  0.00     0.178 C 
ATOM     10  C   UNL     1       5.491   2.391   3.021  1.00  0.00     0.177 C 
ATOM     11  O   UNL     1       7.351   3.467   4.119  1.00  0.00    -0.341 OA
ATOM     12  C   UNL     1       5.175   3.585   2.137  1.00  0.00     0.179 C 
ATOM     13  C   UNL     1       6.244   4.731   2.256  1.00  0.00     0.202 C 
BRANCH   9  14
ATOM     14  C   UNL     1       8.039   1.788   2.536  1.00  0.00     0.191 C 
BRANCH  14  15
ATOM     15  O   UNL     1       8.049   0.350   2.458  1.00  0.00    -0.394 OA
ATOM     16  H   UNL     1       8.895  -0.013   2.956  1.00  0.00     0.210 HD
ENDBRANCH  14  15
ENDBRANCH   9  14
BRANCH  10  17
ATOM     17  O   UNL     1       4.579   2.408   4.124  1.00  0.00    -0.387 OA
ATOM     18  H   UNL     1       4.161   3.341   4.149  1.00  0.00     0.211 HD
ENDBRANCH  10  17
BRANCH  12  19
ATOM     19  O   UNL     1       5.079   3.239   0.731  1.00  0.00    -0.387 OA
ATOM     20  H   UNL     1       4.568   2.326   0.651  1.00  0.00     0.211 HD
ENDBRANCH  12  19
BRANCH  13  21
ATOM     21  O   UNL     1       6.674   5.167   0.999  1.00  0.00    -0.385 OA
ATOM     22  H   UNL     1       7.047   6.109   1.120  1.00  0.00     0.211 HD
ENDBRANCH  13  21
ENDBRANCH   7   8
ENDBRANCH   1   7
BRANCH   2  23
ATOM     23  C   UNL     1       9.899   5.994   1.323  1.00  0.00     0.191 C 
BRANCH  23  24
ATOM     24  O   UNL     1       9.419   4.917   0.508  1.00  0.00    -0.394 OA
ATOM     25  H   UNL     1       9.680   5.309  -0.444  1.00  0.00     0.210 HD
ENDBRANCH  23  24
ENDBRANCH   2  23
BRANCH   6  26
ATOM     26  O   UNL     1       8.302   8.986   3.484  1.00  0.00    -0.387 OA
ATOM     27  H   UNL     1       8.692   9.820   2.945  1.00  0.00     0.211 HD
ENDBRANCH   6  26
BRANCH   5  28
ATOM     28  O   UNL     1      10.419   9.008   1.930  1.00  0.00    -0.385 OA
ATOM     29  H   UNL     1      11.045   8.908   1.089  1.00  0.00     0.211 HD
ENDBRANCH   5  28
BRANCH   4  30
ATOM     30  O   UNL     1      13.132   8.085   4.119  1.00  0.00    -0.341 OA
BRANCH  30  31
ATOM     31  C   UNL     1      14.716   7.733   3.845  1.00  0.00     0.184 C 
ATOM     32  C   UNL     1      14.542   6.925   2.628  1.00  0.00     0.178 C 
ATOM     33  C   UNL     1      16.501   7.630   3.266  1.00  0.00     0.180 C 
ATOM     34  O   UNL     1      14.454   7.408   1.239  1.00  0.00    -0.342 OA
ATOM     35  C   UNL     1      16.758   8.045   1.703  1.00  0.00     0.201 C 
ATOM     36  C   UNL     1      15.530   8.298   0.771  1.00  0.00     0.279 C 
BRANCH  32  37
ATOM     37  C   UNL     1      14.468   5.335   3.236  1.00  0.00     0.191 C 
BRANCH  37  38
ATOM     38  O   UNL     1      13.925   4.435   2.265  1.00  0.00    -0.394 OA
ATOM     39  H   UNL     1      13.011   4.203   2.592  1.00  0.00     0.210 HD
ENDBRANCH  37  38
ENDBRANCH  32  37
BRANCH  33  40
ATOM     40  O   UNL     1      17.495   8.275   4.120  1.00  0.00    -0.387 OA
ATOM     41  H   UNL     1      16.981   8.761   4.835  1.00  0.00     0.211 HD
ENDBRANCH  33  40
BRANCH  35  42
ATOM     42  O   UNL     1      17.393   6.971   1.025  1.00  0.00    -0.385 OA
ATOM     43  H   UNL     1      16.684   6.236   1.128  1.00  0.00     0.211 HD
ENDBRANCH  35  42
BRANCH  36  44
ATOM     44  O   UNL     1      15.138   9.705   0.834  1.00  0.00    -0.366 OA
ATOM     45  H   UNL     1      14.670   9.913   1.728  1.00  0.00     0.213 HD
ENDBRANCH  36  44
ENDBRANCH  30  31
ENDBRANCH   4  30
TORSDOF 18
ENDMDL
MODEL 4
REMARK VINA RESULT:    -3.881      1.561      2.993
REMARK INTER + INTRA:          -7.663
REMARK INTER:                  -7.609
REMARK INTRA:                  -0.054
REMARK UNBOUND:                -1.285
REMARK SMILES OC[C@@H]1O[C@@H](O)[C@H](O)[C@@H](O)[C@H]1O[C@H]1O[C@H](CO)[C@H](O[C@H]2O[C@H](CO)[C@@H](O)[C@H](O)[C@@H]2O)[C@H](O)[C@H]1O
REMARK SMILES IDX 18 1 15 2 14 3 13 4 33 5 31 6 19 7 20 8 22 9 25 10 21 11
REMARK SMILES IDX 27 12 29 13 23 14 24 15 26 17 28 19 30 21 16 23 17 24 32 26
REMARK SMILES IDX 34 28 12 30 11 31 3 32 9 33 4 34 7 35 5 36 2 37 1 38 10 40
REMARK SMILES IDX 8 42 6 44
REMARK H PARENT 24 16 26 18 28 20 30 22 17 25 32 27 34 29 1 39 10 41 8 43 6 45
REMARK Flexibility Score: inf
ROOT
ATOM      1  C   UNL     1      10.860   6.710   3.556  1.00  0.00     0.184 C 
ATOM      2  C   UNL     1      11.675   6.344   2.206  1.00  0.00     0.178 C 
ATOM      3  O   UNL     1      13.001   7.106   2.231  1.00  0.00    -0.341 OA
ATOM      4  C   UNL     1      12.794   8.626   2.241  1.00  0.00     0.282 C 
ATOM      5  C   UNL     1      11.253   8.773   2.678  1.00  0.00     0.202 C 
ATOM      6  C   UNL     1      10.629   8.163   3.958  1.00  0.00     0.180 C 
ENDROOT
BRANCH   1   7
ATOM      7  O   UNL     1      10.060   5.630   3.976  1.00  0.00    -0.341 OA
BRANCH   7   8
ATOM      8  C   UNL     1       9.008   5.049   3.173  1.00  0.00     0.282 C 
ATOM      9  C   UNL     1       7.980   3.261   2.088  1.00  0.00     0.178 C 
ATOM     10  C   UNL     1       6.837   3.024   3.105  1.00  0.00     0.177 C 
ATOM     11  O   UNL     1       9.115   3.732   2.737  1.00  0.00    -0.341 OA
ATOM     12  C   UNL     1       6.477   4.236   3.947  1.00  0.00     0.179 C 
ATOM     13  C   UNL     1       7.619   5.314   3.983  1.00  0.00     0.202 C 
BRANCH   9  14
ATOM     14  C   UNL     1       7.724   3.994   0.789  1.00  0.00     0.191 C 
BRANCH  14  15
ATOM     15  O   UNL     1       8.733   3.707  -0.199  1.00  0.00    -0.394 OA
ATOM     16  H   UNL     1       8.876   4.554  -0.797  1.00  0.00     0.210 HD
ENDBRANCH  14  15
ENDBRANCH   9  14
BRANCH  10  17
ATOM     17  O   UNL     1       7.114   1.937   3.994  1.00  0.00    -0.387 OA
ATOM     18  H   UNL     1       6.989   1.075   3.457  1.00  0.00     0.211 HD
ENDBRANCH  10  17
BRANCH  12  19
ATOM     19  O   UNL     1       5.274   4.906   3.489  1.00  0.00    -0.387 OA
ATOM     20  H   UNL     1       4.457   4.513   4.017  1.00  0.00     0.211 HD
ENDBRANCH  12  19
BRANCH  13  21
ATOM     21  O   UNL     1       7.128   6.594   3.709  1.00  0.00    -0.385 OA
ATOM     22  H   UNL     1       6.161   6.485   3.400  1.00  0.00     0.211 HD
ENDBRANCH  13  21
ENDBRANCH   7   8
ENDBRANCH   1   7
BRANCH   2  23
ATOM     23  C   UNL     1      10.708   6.677   0.953  1.00  0.00     0.191 C 
BRANCH  23  24
ATOM     24  O   UNL     1      10.970   5.892  -0.217  1.00  0.00    -0.394 OA
ATOM     25  H   UNL     1      10.099   6.138  -0.774  1.00  0.00     0.210 HD
ENDBRANCH  23  24
ENDBRANCH   2  23
BRANCH   6  26
ATOM     26  O   UNL     1       9.286   8.713   4.116  1.00  0.00    -0.387 OA
ATOM     27  H   UNL     1       8.587   8.503   3.338  1.00  0.00     0.211 HD
ENDBRANCH   6  26
BRANCH   5  28
ATOM     28  O   UNL     1      10.375   9.627   1.907  1.00  0.00    -0.385 OA
ATOM     29  H   UNL     1       9.554   9.220   1.386  1.00  0.00     0.211 HD
ENDBRANCH   5  28
BRANCH   4  30
ATOM     30  O   UNL     1      13.900   9.769   2.653  1.00  0.00    -0.341 OA
BRANCH  30  31
ATOM     31  C   UNL     1      15.484   9.405   2.910  1.00  0.00     0.184 C 
ATOM     32  C   UNL     1      15.427   7.974   2.569  1.00  0.00     0.178 C 
ATOM     33  C   UNL     1      17.321   9.021   2.804  1.00  0.00     0.180 C 
ATOM     34  O   UNL     1      15.548   7.367   1.232  1.00  0.00    -0.342 OA
ATOM     35  C   UNL     1      17.804   8.263   1.436  1.00  0.00     0.201 C 
ATOM     36  C   UNL     1      16.725   7.747   0.431  1.00  0.00     0.279 C 
BRANCH  32  37
ATOM     37  C   UNL     1      15.184   7.233   4.085  1.00  0.00     0.191 C 
BRANCH  37  38
ATOM     38  O   UNL     1      14.708   5.892   3.934  1.00  0.00    -0.394 OA
ATOM     39  H   UNL     1      13.927   5.812   4.550  1.00  0.00     0.210 HD
ENDBRANCH  37  38
ENDBRANCH  32  37
BRANCH  33  40
ATOM     40  O   UNL     1      18.229  10.125   3.107  1.00  0.00    -0.387 OA
ATOM     41  H   UNL     1      19.021  10.015   2.497  1.00  0.00     0.211 HD
ENDBRANCH  33  40
BRANCH  35  42
ATOM     42  O   UNL     1      18.461   7.050   1.771  1.00  0.00    -0.385 OA
ATOM     43  H   UNL     1      18.615   7.189   2.777  1.00  0.00     0.211 HD
ENDBRANCH  35  42
BRANCH  36  44
ATOM     44  O   UNL     1      16.407   8.792  -0.541  1.00  0.00    -0.366 OA
ATOM     45  H   UNL     1      15.397   8.996  -0.539  1.00  0.00     0.213 HD
ENDBRANCH  36  44
ENDBRANCH  30  31
ENDBRANCH   4  30
TORSDOF 18
ENDMDL
MODEL 5
REMARK VINA RESULT:    -3.845      2.193      3.373
REMARK INTER + INTRA:          -7.602
REMARK INTER:                  -6.013
REMARK INTRA:                  -1.589
REMARK UNBOUND:                -1.285
REMARK SMILES OC[C@@H]1O[C@@H](O)[C@H](O)[C@@H](O)[C@H]1O[C@H]1O[C@H](CO)[C@H](O[C@H]2O[C@H](CO)[C@@H](O)[C@H](O)[C@@H]2O)[C@H](O)[C@H]1O
REMARK SMILES IDX 18 1 15 2 14 3 13 4 33 5 31 6 19 7 20 8 22 9 25 10 21 11
REMARK SMILES IDX 27 12 29 13 23 14 24 15 26 17 28 19 30 21 16 23 17 24 32 26
REMARK SMILES IDX 34 28 12 30 11 31 3 32 9 33 4 34 7 35 5 36 2 37 1 38 10 40
REMARK SMILES IDX 8 42 6 44
REMARK H PARENT 24 16 26 18 28 20 30 22 17 25 32 27 34 29 1 39 10 41 8 43 6 45
REMARK Flexibility Score: inf
ROOT
ATOM      1  C   UNL     1      11.696   6.900   1.958  1.00  0.00     0.184 C 
ATOM      2  C   UNL     1      11.713   6.662   3.559  1.00  0.00     0.178 C 
ATOM      3  O   UNL     1      12.968   7.330   4.124  1.00  0.00    -0.341 OA
ATOM      4  C   UNL     1      14.254   6.716   3.558  1.00  0.00     0.282 C 
ATOM      5  C   UNL     1      13.730   5.925   2.260  1.00  0.00     0.202 C 
ATOM      6  C   UNL     1      12.912   6.554   1.104  1.00  0.00     0.180 C 
ENDROOT
BRANCH   1   7
ATOM      7  O   UNL     1      10.378   6.985   1.470  1.00  0.00    -0.341 OA
BRANCH   7   8
ATOM      8  C   UNL     1       9.348   7.798   2.075  1.00  0.00     0.282 C 
ATOM      9  C   UNL     1       7.865   9.596   2.078  1.00  0.00     0.178 C 
ATOM     10  C   UNL     1       6.566   8.802   1.799  1.00  0.00     0.177 C 
ATOM     11  O   UNL     1       8.950   8.982   1.463  1.00  0.00    -0.341 OA
ATOM     12  C   UNL     1       6.620   7.337   2.202  1.00  0.00     0.179 C 
ATOM     13  C   UNL     1       8.088   6.801   2.355  1.00  0.00     0.202 C 
BRANCH   9  14
ATOM     14  C   UNL     1       8.200  10.071   3.476  1.00  0.00     0.191 C 
BRANCH  14  15
ATOM     15  O   UNL     1       9.622  10.118   3.701  1.00  0.00    -0.394 OA
ATOM     16  H   UNL     1      10.010  10.979   3.251  1.00  0.00     0.210 HD
ENDBRANCH  14  15
ENDBRANCH   9  14
BRANCH  10  17
ATOM     17  O   UNL     1       6.172   8.865   0.425  1.00  0.00    -0.387 OA
ATOM     18  H   UNL     1       6.957   8.509  -0.126  1.00  0.00     0.211 HD
ENDBRANCH  10  17
BRANCH  12  19
ATOM     19  O   UNL     1       5.938   7.070   3.454  1.00  0.00    -0.387 OA
ATOM     20  H   UNL     1       5.953   7.946   4.031  1.00  0.00     0.211 HD
ENDBRANCH  12  19
BRANCH  13  21
ATOM     21  O   UNL     1       8.264   6.118   3.562  1.00  0.00    -0.385 OA
ATOM     22  H   UNL     1       7.449   5.517   3.689  1.00  0.00     0.211 HD
ENDBRANCH  13  21
ENDBRANCH   7   8
ENDBRANCH   1   7
BRANCH   2  23
ATOM     23  C   UNL     1      11.602   5.069   3.811  1.00  0.00     0.191 C 
BRANCH  23  24
ATOM     24  O   UNL     1      10.564   4.425   3.061  1.00  0.00    -0.394 OA
ATOM     25  H   UNL     1      10.642   3.452   3.483  1.00  0.00     0.210 HD
ENDBRANCH  23  24
ENDBRANCH   2  23
BRANCH   6  26
ATOM     26  O   UNL     1      12.837   5.582   0.018  1.00  0.00    -0.387 OA
ATOM     27  H   UNL     1      13.363   4.664   0.159  1.00  0.00     0.211 HD
ENDBRANCH   6  26
BRANCH   5  28
ATOM     28  O   UNL     1      14.129   4.548   2.059  1.00  0.00    -0.385 OA
ATOM     29  H   UNL     1      13.703   3.975   1.284  1.00  0.00     0.211 HD
ENDBRANCH   5  28
BRANCH   4  30
ATOM     30  O   UNL     1      15.760   7.374   3.595  1.00  0.00    -0.341 OA
BRANCH  30  31
ATOM     31  C   UNL     1      16.665   7.568   2.234  1.00  0.00     0.184 C 
ATOM     32  C   UNL     1      16.764   9.036   2.258  1.00  0.00     0.178 C 
ATOM     33  C   UNL     1      18.004   7.825   0.940  1.00  0.00     0.180 C 
ATOM     34  O   UNL     1      17.752   9.855   2.981  1.00  0.00    -0.342 OA
ATOM     35  C   UNL     1      19.258   8.770   1.403  1.00  0.00     0.201 C 
ATOM     36  C   UNL     1      19.174   9.533   2.764  1.00  0.00     0.279 C 
BRANCH  32  37
ATOM     37  C   UNL     1      15.468   9.518   1.262  1.00  0.00     0.191 C 
BRANCH  37  38
ATOM     38  O   UNL     1      14.270   9.698   2.024  1.00  0.00    -0.394 OA
ATOM     39  H   UNL     1      13.608   9.056   1.642  1.00  0.00     0.210 HD
ENDBRANCH  37  38
ENDBRANCH  32  37
BRANCH  33  40
ATOM     40  O   UNL     1      18.507   6.620   0.285  1.00  0.00    -0.387 OA
ATOM     41  H   UNL     1      19.214   6.925  -0.363  1.00  0.00     0.211 HD
ENDBRANCH  33  40
BRANCH  35  42
ATOM     42  O   UNL     1      19.395   9.854   0.495  1.00  0.00    -0.385 OA
ATOM     43  H   UNL     1      18.410  10.073   0.311  1.00  0.00     0.211 HD
ENDBRANCH  35  42
BRANCH  36  44
ATOM     44  O   UNL     1      19.713   8.700   3.837  1.00  0.00    -0.366 OA
ATOM     45  H   UNL     1      19.382   7.728   3.744  1.00  0.00     0.213 HD
ENDBRANCH  36  44
ENDBRANCH  30  31
ENDBRANCH   4  30
TORSDOF 18
ENDMDL
