MODEL 1
REMARK VINA RESULT:    -0.303      0.000      0.000
REMARK INTER + INTRA:          -0.312
REMARK INTER:                  -0.312
REMARK INTRA:                   0.000
REMARK UNBOUND:                 0.000
REMARK SMILES Cc1ccccc1O
REMARK SMILES IDX 1 1 2 2 3 3 4 4 5 5 6 6 7 7 8 8
REMARK H PARENT 8 9
REMARK Flexibility Score: inf
ROOT
ATOM      1  C   UNL     1      -3.124  57.801  25.330  1.00  0.00     0.048 C 
ATOM      2  C   UNL     1      -3.122  58.803  24.211  1.00  0.00    -0.009 A 
ATOM      3  C   UNL     1      -3.125  60.179  24.492  1.00  0.00     0.007 A 
ATOM      4  C   UNL     1      -3.123  61.113  23.452  1.00  0.00     0.001 A 
ATOM      5  C   UNL     1      -3.118  60.680  22.124  1.00  0.00     0.004 A 
ATOM      6  C   UNL     1      -3.116  59.315  21.832  1.00  0.00     0.046 A 
ATOM      7  C   UNL     1      -3.118  58.370  22.870  1.00  0.00     0.118 A 
ENDROOT
BRANCH   7   8
ATOM      8  O   UNL     1      -3.116  57.007  22.576  1.00  0.00    -0.508 OA
ATOM      9  H   UNL     1      -3.441  56.657  21.682  1.00  0.00     0.293 HD
ENDBRANCH   7   8
TORSDOF 1
ENDMDL
MODEL 2
REMARK VINA RESULT:     1.847     17.941     19.328
REMARK INTER + INTRA:           1.901
REMARK INTER:                   1.901
REMARK INTRA:                   0.000
REMARK UNBOUND:                 0.000
REMARK SMILES Cc1ccccc1O
REMARK SMILES IDX 1 1 2 2 3 3 4 4 5 5 6 6 7 7 8 8
REMARK H PARENT 8 9
REMARK Flexibility Score: inf
ROOT
ATOM      1  C   UNL     1       6.253  44.637  23.129  1.00  0.00     0.048 C 
ATOM      2  C   UNL     1       6.014  43.325  23.821  1.00  0.00    -0.009 A 
ATOM      3  C   UNL     1       4.734  43.001  24.303  1.00  0.00     0.007 A 
ATOM      4  C   UNL     1       4.510  41.781  24.947  1.00  0.00     0.001 A 
ATOM      5  C   UNL     1       5.560  40.875  25.114  1.00  0.00     0.004 A 
ATOM      6  C   UNL     1       6.836  41.187  24.639  1.00  0.00     0.046 A 
ATOM      7  C   UNL     1       7.070  42.409  23.992  1.00  0.00     0.118 A 
ENDROOT
BRANCH   7   8
ATOM      8  O   UNL     1       8.345  42.717  23.519  1.00  0.00    -0.508 OA
ATOM      9  H   UNL     1       8.481  43.262  22.675  1.00  0.00     0.293 HD
ENDBRANCH   7   8
TORSDOF 1
ENDMDL
MODEL 3
REMARK VINA RESULT:     2.193     17.897     19.297
REMARK INTER + INTRA:           2.257
REMARK INTER:                   2.257
REMARK INTRA:                   0.000
REMARK UNBOUND:                 0.000
REMARK SMILES Cc1ccccc1O
REMARK SMILES IDX 1 1 2 2 3 3 4 4 5 5 6 6 7 7 8 8
REMARK H PARENT 8 9
REMARK Flexibility Score: inf
ROOT
ATOM      1  C   UNL     1       3.628  42.709  23.843  1.00  0.00     0.048 C 
ATOM      2  C   UNL     1       5.045  42.366  24.204  1.00  0.00    -0.009 A 
ATOM      3  C   UNL     1       5.327  41.208  24.948  1.00  0.00     0.007 A 
ATOM      4  C   UNL     1       6.646  40.888  25.284  1.00  0.00     0.001 A 
ATOM      5  C   UNL     1       7.692  41.720  24.881  1.00  0.00     0.004 A 
ATOM      6  C   UNL     1       7.424  42.874  24.142  1.00  0.00     0.046 A 
ATOM      7  C   UNL     1       6.103  43.204  23.800  1.00  0.00     0.118 A 
ENDROOT
BRANCH   7   8
ATOM      8  O   UNL     1       5.839  44.356  23.062  1.00  0.00    -0.508 OA
ATOM      9  H   UNL     1       5.843  44.351  22.048  1.00  0.00     0.293 HD
ENDBRANCH   7   8
TORSDOF 1
ENDMDL
MODEL 4
REMARK VINA RESULT:     2.236     18.113     19.495
REMARK INTER + INTRA:           2.301
REMARK INTER:                   2.301
REMARK INTRA:                   0.000
REMARK UNBOUND:                 0.000
REMARK SMILES Cc1ccccc1O
REMARK SMILES IDX 1 1 2 2 3 3 4 4 5 5 6 6 7 7 8 8
REMARK H PARENT 8 9
REMARK Flexibility Score: inf
ROOT
ATOM      1  C   UNL     1       8.500  42.006  23.874  1.00  0.00     0.048 C 
ATOM      2  C   UNL     1       7.032  42.005  24.192  1.00  0.00    -0.009 A 
ATOM      3  C   UNL     1       6.436  40.877  24.781  1.00  0.00     0.007 A 
ATOM      4  C   UNL     1       5.069  40.875  25.077  1.00  0.00     0.001 A 
ATOM      5  C   UNL     1       4.289  41.997  24.788  1.00  0.00     0.004 A 
ATOM      6  C   UNL     1       4.872  43.123  24.202  1.00  0.00     0.046 A 
ATOM      7  C   UNL     1       6.242  43.134  23.901  1.00  0.00     0.118 A 
ENDROOT
BRANCH   7   8
ATOM      8  O   UNL     1       6.820  44.260  23.316  1.00  0.00    -0.508 OA
ATOM      9  H   UNL     1       6.984  44.315  22.318  1.00  0.00     0.293 HD
ENDBRANCH   7   8
TORSDOF 1
ENDMDL
MODEL 5
REMARK VINA RESULT:     2.283     17.875     19.290
REMARK INTER + INTRA:           2.350
REMARK INTER:                   2.350
REMARK INTRA:                   0.000
REMARK UNBOUND:                 0.000
REMARK SMILES Cc1ccccc1O
REMARK SMILES IDX 1 1 2 2 3 3 4 4 5 5 6 6 7 7 8 8
REMARK H PARENT 8 9
REMARK Flexibility Score: inf
ROOT
ATOM      1  C   UNL     1       5.874  44.466  23.075  1.00  0.00     0.048 C 
ATOM      2  C   UNL     1       6.106  43.214  23.872  1.00  0.00    -0.009 A 
ATOM      3  C   UNL     1       7.408  42.847  24.252  1.00  0.00     0.007 A 
ATOM      4  C   UNL     1       7.625  41.683  24.995  1.00  0.00     0.001 A 
ATOM      5  C   UNL     1       6.546  40.877  25.363  1.00  0.00     0.004 A 
ATOM      6  C   UNL     1       5.248  41.232  24.991  1.00  0.00     0.046 A 
ATOM      7  C   UNL     1       5.020  42.399  24.246  1.00  0.00     0.118 A 
ENDROOT
BRANCH   7   8
ATOM      8  O   UNL     1       3.723  42.750  23.876  1.00  0.00    -0.508 OA
ATOM      9  H   UNL     1       3.432  42.762  22.905  1.00  0.00     0.293 HD
ENDBRANCH   7   8
TORSDOF 1
ENDMDL
MODEL 6
REMARK VINA RESULT:     2.633      1.747      3.115
REMARK INTER + INTRA:           2.709
REMARK INTER:                   2.709
REMARK INTRA:                   0.000
REMARK UNBOUND:                 0.000
REMARK SMILES Cc1ccccc1O
REMARK SMILES IDX 1 1 2 2 3 3 4 4 5 5 6 6 7 7 8 8
REMARK H PARENT 8 9
REMARK Flexibility Score: inf
ROOT
ATOM      1  C   UNL     1      -2.206  58.226  20.678  1.00  0.00     0.048 C 
ATOM      2  C   UNL     1      -2.526  58.762  22.044  1.00  0.00    -0.009 A 
ATOM      3  C   UNL     1      -2.770  57.881  23.111  1.00  0.00     0.007 A 
ATOM      4  C   UNL     1      -3.068  58.378  24.384  1.00  0.00     0.001 A 
ATOM      5  C   UNL     1      -3.125  59.757  24.600  1.00  0.00     0.004 A 
ATOM      6  C   UNL     1      -2.885  60.641  23.547  1.00  0.00     0.046 A 
ATOM      7  C   UNL     1      -2.586  60.151  22.267  1.00  0.00     0.118 A 
ENDROOT
BRANCH   7   8
ATOM      8  O   UNL     1      -2.347  61.038  21.217  1.00  0.00    -0.508 OA
ATOM      9  H   UNL     1      -1.424  61.420  21.044  1.00  0.00     0.293 HD
ENDBRANCH   7   8
TORSDOF 1
ENDMDL
