MODEL 1
REMARK VINA RESULT:    -4.301      0.000      0.000
REMARK INTER + INTRA:          -6.104
REMARK INTER:                  -5.809
REMARK INTRA:                  -0.295
REMARK UNBOUND:                -0.295
REMARK SMILES CCCCCCCC(=O)[O-]
REMARK SMILES IDX 5 1 6 2 7 3 8 4 9 5 10 6 4 7 3 8 2 9 1 10
REMARK H PARENT
REMARK Flexibility Score: inf
ROOT
ATOM      1  C   UNL     1      13.276  12.544   5.116  1.00  0.00     0.000 C 
ENDROOT
BRANCH   1   2
ATOM      2  C   UNL     1      14.788  12.818   5.171  1.00  0.00     0.006 C 
BRANCH   2   3
ATOM      3  C   UNL     1      15.222  13.937   4.216  1.00  0.00     0.053 C 
BRANCH   3   4
ATOM      4  C   UNL     1      16.316  13.458   3.315  1.00  0.00     0.041 C 
ATOM      5  O   UNL     1      17.516  13.741   3.570  1.00  0.00    -0.550 OA
ATOM      6  O   UNL     1      16.008  12.743   2.165  1.00  0.00    -0.550 OA
ENDBRANCH   3   4
ENDBRANCH   2   3
ENDBRANCH   1   2
BRANCH   1   7
ATOM      7  C   UNL     1      12.779  12.262   3.687  1.00  0.00     0.000 C 
BRANCH   7   8
ATOM      8  C   UNL     1      11.402  11.578   3.665  1.00  0.00    -0.000 C 
BRANCH   8   9
ATOM      9  C   UNL     1      10.867  11.279   5.074  1.00  0.00    -0.003 C 
ATOM     10  C   UNL     1      10.242   9.888   5.139  1.00  0.00     0.004 C 
ENDBRANCH   8   9
ENDBRANCH   7   8
ENDBRANCH   1   7
TORSDOF 6
ENDMDL
MODEL 2
REMARK VINA RESULT:    -4.290      0.186      1.034
REMARK INTER + INTRA:          -6.090
REMARK INTER:                  -5.807
REMARK INTRA:                  -0.283
REMARK UNBOUND:                -0.295
REMARK SMILES CCCCCCCC(=O)[O-]
REMARK SMILES IDX 5 1 6 2 7 3 8 4 9 5 10 6 4 7 3 8 2 9 1 10
REMARK H PARENT
REMARK Flexibility Score: inf
ROOT
ATOM      1  C   UNL     1      13.143  12.577   5.059  1.00  0.00     0.000 C 
ENDROOT
BRANCH   1   2
ATOM      2  C   UNL     1      14.658  12.833   5.057  1.00  0.00     0.006 C 
BRANCH   2   3
ATOM      3  C   UNL     1      15.072  13.933   4.071  1.00  0.00     0.053 C 
BRANCH   3   4
ATOM      4  C   UNL     1      16.217  13.471   3.225  1.00  0.00     0.041 C 
ATOM      5  O   UNL     1      16.002  12.930   2.109  1.00  0.00    -0.550 OA
ATOM      6  O   UNL     1      17.520  13.592   3.691  1.00  0.00    -0.550 OA
ENDBRANCH   3   4
ENDBRANCH   2   3
ENDBRANCH   1   2
BRANCH   1   7
ATOM      7  C   UNL     1      12.609  12.182   3.670  1.00  0.00     0.000 C 
BRANCH   7   8
ATOM      8  C   UNL     1      11.261  11.445   3.744  1.00  0.00    -0.000 C 
BRANCH   8   9
ATOM      9  C   UNL     1      10.785  11.226   5.188  1.00  0.00    -0.003 C 
ATOM     10  C   UNL     1      10.134   9.854   5.347  1.00  0.00     0.004 C 
ENDBRANCH   8   9
ENDBRANCH   7   8
ENDBRANCH   1   7
TORSDOF 6
ENDMDL
MODEL 3
REMARK VINA RESULT:    -4.206      5.236      7.103
REMARK INTER + INTRA:          -5.976
REMARK INTER:                  -5.684
REMARK INTRA:                  -0.292
REMARK UNBOUND:                -0.295
REMARK SMILES CCCCCCCC(=O)[O-]
REMARK SMILES IDX 5 1 6 2 7 3 8 4 9 5 10 6 4 7 3 8 2 9 1 10
REMARK H PARENT
REMARK Flexibility Score: inf
ROOT
ATOM      1  C   UNL     1       9.753  10.058   5.515  1.00  0.00     0.000 C 
ENDROOT
BRANCH   1   2
ATOM      2  C   UNL     1       8.877  11.316   5.622  1.00  0.00     0.006 C 
BRANCH   2   3
ATOM      3  C   UNL     1       8.692  11.788   7.070  1.00  0.00     0.053 C 
BRANCH   3   4
ATOM      4  C   UNL     1       7.238  11.842   7.420  1.00  0.00     0.041 C 
ATOM      5  O   UNL     1       6.437  12.493   6.700  1.00  0.00    -0.550 OA
ATOM      6  O   UNL     1       6.776  11.215   8.570  1.00  0.00    -0.550 OA
ENDBRANCH   3   4
ENDBRANCH   2   3
ENDBRANCH   1   2
BRANCH   1   7
ATOM      7  C   UNL     1      10.980  10.269   4.609  1.00  0.00     0.000 C 
BRANCH   7   8
ATOM      8  C   UNL     1      10.924  11.601   3.842  1.00  0.00    -0.000 C 
BRANCH   8   9
ATOM      9  C   UNL     1      12.317  12.117   3.451  1.00  0.00    -0.003 C 
ATOM     10  C   UNL     1      13.209  12.272   4.680  1.00  0.00     0.004 C 
ENDBRANCH   8   9
ENDBRANCH   7   8
ENDBRANCH   1   7
TORSDOF 6
ENDMDL
MODEL 4
REMARK VINA RESULT:    -4.171      1.279      1.548
REMARK INTER + INTRA:          -5.928
REMARK INTER:                  -5.796
REMARK INTRA:                  -0.132
REMARK UNBOUND:                -0.295
REMARK SMILES CCCCCCCC(=O)[O-]
REMARK SMILES IDX 5 1 6 2 7 3 8 4 9 5 10 6 4 7 3 8 2 9 1 10
REMARK H PARENT
REMARK Flexibility Score: inf
ROOT
ATOM      1  C   UNL     1      13.523  12.361   3.784  1.00  0.00     0.000 C 
ENDROOT
BRANCH   1   2
ATOM      2  C   UNL     1      14.132  13.394   2.822  1.00  0.00     0.006 C 
BRANCH   2   3
ATOM      3  C   UNL     1      15.596  13.093   2.480  1.00  0.00     0.053 C 
BRANCH   3   4
ATOM      4  C   UNL     1      16.504  14.051   3.184  1.00  0.00     0.041 C 
ATOM      5  O   UNL     1      17.624  13.665   3.611  1.00  0.00    -0.550 OA
ATOM      6  O   UNL     1      16.094  15.358   3.415  1.00  0.00    -0.550 OA
ENDBRANCH   3   4
ENDBRANCH   2   3
ENDBRANCH   1   2
BRANCH   1   7
ATOM      7  C   UNL     1      12.089  11.962   3.391  1.00  0.00     0.000 C 
BRANCH   7   8
ATOM      8  C   UNL     1      11.133  11.933   4.595  1.00  0.00    -0.000 C 
BRANCH   8   9
ATOM      9  C   UNL     1       9.973  10.944   4.406  1.00  0.00    -0.003 C 
ATOM     10  C   UNL     1      10.162   9.704   5.277  1.00  0.00     0.004 C 
ENDBRANCH   8   9
ENDBRANCH   7   8
ENDBRANCH   1   7
TORSDOF 6
ENDMDL
MODEL 5
REMARK VINA RESULT:    -4.092      1.686      2.525
REMARK INTER + INTRA:          -5.823
REMARK INTER:                  -5.340
REMARK INTRA:                  -0.483
REMARK UNBOUND:                -0.295
REMARK SMILES CCCCCCCC(=O)[O-]
REMARK SMILES IDX 5 1 6 2 7 3 8 4 9 5 10 6 4 7 3 8 2 9 1 10
REMARK H PARENT
REMARK Flexibility Score: inf
ROOT
ATOM      1  C   UNL     1      13.251  14.011   1.583  1.00  0.00     0.000 C 
ENDROOT
BRANCH   1   2
ATOM      2  C   UNL     1      14.707  14.372   1.919  1.00  0.00     0.006 C 
BRANCH   2   3
ATOM      3  C   UNL     1      15.531  13.157   2.362  1.00  0.00     0.053 C 
BRANCH   3   4
ATOM      4  C   UNL     1      16.390  13.509   3.536  1.00  0.00     0.041 C 
ATOM      5  O   UNL     1      16.005  13.246   4.705  1.00  0.00    -0.550 OA
ATOM      6  O   UNL     1      17.595  14.173   3.342  1.00  0.00    -0.550 OA
ENDBRANCH   3   4
ENDBRANCH   2   3
ENDBRANCH   1   2
BRANCH   1   7
ATOM      7  C   UNL     1      12.410  13.722   2.840  1.00  0.00     0.000 C 
BRANCH   7   8
ATOM      8  C   UNL     1      12.073  12.230   2.993  1.00  0.00    -0.000 C 
BRANCH   8   9
ATOM      9  C   UNL     1      12.637  11.625   4.288  1.00  0.00    -0.003 C 
ATOM     10  C   UNL     1      12.726  12.677   5.390  1.00  0.00     0.004 C 
ENDBRANCH   8   9
ENDBRANCH   7   8
ENDBRANCH   1   7
TORSDOF 6
ENDMDL
MODEL 6
REMARK VINA RESULT:    -4.042      6.210      7.149
REMARK INTER + INTRA:          -5.755
REMARK INTER:                  -5.116
REMARK INTRA:                  -0.639
REMARK UNBOUND:                -0.295
REMARK SMILES CCCCCCCC(=O)[O-]
REMARK SMILES IDX 5 1 6 2 7 3 8 4 9 5 10 6 4 7 3 8 2 9 1 10
REMARK H PARENT
REMARK Flexibility Score: inf
ROOT
ATOM      1  C   UNL     1      10.076  11.002   6.641  1.00  0.00     0.000 C 
ENDROOT
BRANCH   1   2
ATOM      2  C   UNL     1       8.881  11.332   7.550  1.00  0.00     0.006 C 
BRANCH   2   3
ATOM      3  C   UNL     1       8.470  12.808   7.474  1.00  0.00     0.053 C 
BRANCH   3   4
ATOM      4  C   UNL     1       7.048  12.930   7.022  1.00  0.00     0.041 C 
ATOM      5  O   UNL     1       6.453  11.938   6.526  1.00  0.00    -0.550 OA
ATOM      6  O   UNL     1       6.397  14.154   7.099  1.00  0.00    -0.550 OA
ENDBRANCH   3   4
ENDBRANCH   2   3
ENDBRANCH   1   2
BRANCH   1   7
ATOM      7  C   UNL     1       9.651  10.299   5.339  1.00  0.00     0.000 C 
BRANCH   7   8
ATOM      8  C   UNL     1       9.885  11.171   4.094  1.00  0.00    -0.000 C 
BRANCH   8   9
ATOM      9  C   UNL     1       8.652  12.004   3.714  1.00  0.00    -0.003 C 
ATOM     10  C   UNL     1       8.967  13.497   3.752  1.00  0.00     0.004 C 
ENDBRANCH   8   9
ENDBRANCH   7   8
ENDBRANCH   1   7
TORSDOF 6
ENDMDL
MODEL 7
REMARK VINA RESULT:    -4.038      3.008      4.744
REMARK INTER + INTRA:          -5.750
REMARK INTER:                  -5.275
REMARK INTRA:                  -0.474
REMARK UNBOUND:                -0.295
REMARK SMILES CCCCCCCC(=O)[O-]
REMARK SMILES IDX 5 1 6 2 7 3 8 4 9 5 10 6 4 7 3 8 2 9 1 10
REMARK H PARENT
REMARK Flexibility Score: inf
ROOT
ATOM      1  C   UNL     1      13.104  13.564   2.213  1.00  0.00     0.000 C 
ENDROOT
BRANCH   1   2
ATOM      2  C   UNL     1      14.205  12.958   3.098  1.00  0.00     0.006 C 
BRANCH   2   3
ATOM      3  C   UNL     1      15.605  13.117   2.494  1.00  0.00     0.053 C 
BRANCH   3   4
ATOM      4  C   UNL     1      16.405  14.105   3.283  1.00  0.00     0.041 C 
ATOM      5  O   UNL     1      17.576  13.823   3.651  1.00  0.00    -0.550 OA
ATOM      6  O   UNL     1      15.841  15.318   3.656  1.00  0.00    -0.550 OA
ENDBRANCH   3   4
ENDBRANCH   2   3
ENDBRANCH   1   2
BRANCH   1   7
ATOM      7  C   UNL     1      13.597  13.875   0.788  1.00  0.00     0.000 C 
BRANCH   7   8
ATOM      8  C   UNL     1      13.184  15.278   0.314  1.00  0.00    -0.000 C 
BRANCH   8   9
ATOM      9  C   UNL     1      14.290  15.981  -0.488  1.00  0.00    -0.003 C 
ATOM     10  C   UNL     1      15.309  16.635   0.441  1.00  0.00     0.004 C 
ENDBRANCH   8   9
ENDBRANCH   7   8
ENDBRANCH   1   7
TORSDOF 6
ENDMDL
MODEL 8
REMARK VINA RESULT:    -3.997      4.588      6.435
REMARK INTER + INTRA:          -5.694
REMARK INTER:                  -5.341
REMARK INTRA:                  -0.353
REMARK UNBOUND:                -0.295
REMARK SMILES CCCCCCCC(=O)[O-]
REMARK SMILES IDX 5 1 6 2 7 3 8 4 9 5 10 6 4 7 3 8 2 9 1 10
REMARK H PARENT
REMARK Flexibility Score: inf
ROOT
ATOM      1  C   UNL     1      10.600  10.341   4.609  1.00  0.00     0.000 C 
ENDROOT
BRANCH   1   2
ATOM      2  C   UNL     1       9.575  10.586   5.729  1.00  0.00     0.006 C 
BRANCH   2   3
ATOM      3  C   UNL     1       8.305  11.283   5.227  1.00  0.00     0.053 C 
BRANCH   3   4
ATOM      4  C   UNL     1       7.801  12.250   6.252  1.00  0.00     0.041 C 
ATOM      5  O   UNL     1       8.566  13.132   6.721  1.00  0.00    -0.550 OA
ATOM      6  O   UNL     1       6.500  12.146   6.726  1.00  0.00    -0.550 OA
ENDBRANCH   3   4
ENDBRANCH   2   3
ENDBRANCH   1   2
BRANCH   1   7
ATOM      7  C   UNL     1      11.225  11.646   4.086  1.00  0.00     0.000 C 
BRANCH   7   8
ATOM      8  C   UNL     1      12.760  11.641   4.175  1.00  0.00    -0.000 C 
BRANCH   8   9
ATOM      9  C   UNL     1      13.302  12.735   5.109  1.00  0.00    -0.003 C 
ATOM     10  C   UNL     1      12.233  13.189   6.098  1.00  0.00     0.004 C 
ENDBRANCH   8   9
ENDBRANCH   7   8
ENDBRANCH   1   7
TORSDOF 6
ENDMDL
MODEL 9
REMARK VINA RESULT:    -3.789      1.692      2.777
REMARK INTER + INTRA:          -5.412
REMARK INTER:                  -4.926
REMARK INTRA:                  -0.487
REMARK UNBOUND:                -0.295
REMARK SMILES CCCCCCCC(=O)[O-]
REMARK SMILES IDX 5 1 6 2 7 3 8 4 9 5 10 6 4 7 3 8 2 9 1 10
REMARK H PARENT
REMARK Flexibility Score: inf
ROOT
ATOM      1  C   UNL     1      10.782  12.910   3.750  1.00  0.00     0.000 C 
ENDROOT
BRANCH   1   2
ATOM      2  C   UNL     1      12.045  12.220   3.212  1.00  0.00     0.006 C 
BRANCH   2   3
ATOM      3  C   UNL     1      13.037  11.851   4.322  1.00  0.00     0.053 C 
BRANCH   3   4
ATOM      4  C   UNL     1      14.217  12.771   4.295  1.00  0.00     0.041 C 
ATOM      5  O   UNL     1      14.483  13.429   3.255  1.00  0.00    -0.550 OA
ATOM      6  O   UNL     1      15.053  12.863   5.400  1.00  0.00    -0.550 OA
ENDBRANCH   3   4
ENDBRANCH   2   3
ENDBRANCH   1   2
BRANCH   1   7
ATOM      7  C   UNL     1       9.636  11.918   4.017  1.00  0.00     0.000 C 
BRANCH   7   8
ATOM      8  C   UNL     1       9.215  11.887   5.495  1.00  0.00    -0.000 C 
BRANCH   8   9
ATOM      9  C   UNL     1       9.769  10.664   6.243  1.00  0.00    -0.003 C 
ATOM     10  C   UNL     1      10.143   9.550   5.268  1.00  0.00     0.004 C 
ENDBRANCH   8   9
ENDBRANCH   7   8
ENDBRANCH   1   7
TORSDOF 6
ENDMDL
