MODEL 1
REMARK VINA RESULT:    -7.750      0.000      0.000
REMARK INTER + INTRA:          -9.471
REMARK INTER:                  -9.336
REMARK INTRA:                  -0.136
REMARK UNBOUND:                -0.136
REMARK SMILES O=c1c(O)c(-c2ccc(O)cc2O)oc2cc(O)cc(O)c12
REMARK SMILES IDX 5 1 3 2 2 3 1 4 22 5 20 6 19 7 17 8 16 9 15 10 14 11 6 12
REMARK SMILES IDX 8 13 7 14 9 15 11 16 12 17 10 18 13 20 4 22 21 24 18 26
REMARK H PARENT 10 19 13 21 4 23 21 25 18 27
REMARK Flexibility Score: inf
ROOT
ATOM      1  C   UNL     1      29.173  23.244  49.075  1.00  0.00     0.184 A 
ATOM      2  C   UNL     1      30.445  22.658  49.153  1.00  0.00     0.208 A 
ATOM      3  C   UNL     1      30.910  22.203  50.397  1.00  0.00     0.238 A 
ATOM      4  O   UNL     1      32.028  21.629  50.452  1.00  0.00    -0.285 OA
ATOM      5  C   UNL     1      30.101  22.357  51.550  1.00  0.00     0.111 A 
ATOM      6  C   UNL     1      30.487  21.970  52.868  1.00  0.00     0.134 A 
ATOM      7  C   UNL     1      29.556  22.049  53.911  1.00  0.00     0.093 A 
ATOM      8  C   UNL     1      28.275  22.563  53.696  1.00  0.00     0.123 A 
ATOM      9  C   UNL     1      27.909  22.999  52.425  1.00  0.00     0.094 A 
ATOM     10  C   UNL     1      28.803  22.899  51.356  1.00  0.00     0.146 A 
ATOM     11  O   UNL     1      28.409  23.315  50.158  1.00  0.00    -0.451 OA
ENDROOT
BRANCH   1  12
ATOM     12  C   UNL     1      28.631  23.758  47.799  1.00  0.00     0.063 A 
ATOM     13  C   UNL     1      28.978  25.036  45.761  1.00  0.00     0.047 A 
ATOM     14  C   UNL     1      29.457  24.538  46.975  1.00  0.00     0.020 A 
ATOM     15  C   UNL     1      27.675  24.749  45.348  1.00  0.00     0.119 A 
ATOM     16  C   UNL     1      26.850  23.952  46.152  1.00  0.00     0.093 A 
ATOM     17  C   UNL     1      27.324  23.444  47.371  1.00  0.00     0.130 A 
BRANCH  15  18
ATOM     18  O   UNL     1      27.210  25.256  44.136  1.00  0.00    -0.508 OA
ATOM     19  H   UNL     1      27.124  24.669  43.314  1.00  0.00     0.293 HD
ENDBRANCH  15  18
BRANCH  17  20
ATOM     20  O   UNL     1      26.511  22.612  48.139  1.00  0.00    -0.507 OA
ATOM     21  H   UNL     1      26.361  21.640  47.893  1.00  0.00     0.293 HD
ENDBRANCH  17  20
ENDBRANCH   1  12
BRANCH   2  22
ATOM     22  O   UNL     1      31.215  22.502  47.997  1.00  0.00    -0.502 OA
ATOM     23  H   UNL     1      31.599  23.290  47.489  1.00  0.00     0.293 HD
ENDBRANCH   2  22
BRANCH   6  24
ATOM     24  O   UNL     1      31.769  21.529  53.208  1.00  0.00    -0.507 OA
ATOM     25  H   UNL     1      32.367  21.973  53.890  1.00  0.00     0.293 HD
ENDBRANCH   6  24
BRANCH   8  26
ATOM     26  O   UNL     1      27.360  22.653  54.743  1.00  0.00    -0.508 OA
ATOM     27  H   UNL     1      26.380  22.849  54.576  1.00  0.00     0.293 HD
ENDBRANCH   8  26
TORSDOF 6
ENDMDL
MODEL 2
REMARK VINA RESULT:    -6.974      1.582      6.986
REMARK INTER + INTRA:          -8.537
REMARK INTER:                  -8.204
REMARK INTRA:                  -0.333
REMARK UNBOUND:                -0.136
REMARK SMILES O=c1c(O)c(-c2ccc(O)cc2O)oc2cc(O)cc(O)c12
REMARK SMILES IDX 5 1 3 2 2 3 1 4 22 5 20 6 19 7 17 8 16 9 15 10 14 11 6 12
REMARK SMILES IDX 8 13 7 14 9 15 11 16 12 17 10 18 13 20 4 22 21 24 18 26
REMARK H PARENT 10 19 13 21 4 23 21 25 18 27
REMARK Flexibility Score: inf
ROOT
ATOM      1  C   UNL     1      29.551  22.716  50.205  1.00  0.00     0.184 A 
ATOM      2  C   UNL     1      28.197  22.425  49.980  1.00  0.00     0.208 A 
ATOM      3  C   UNL     1      27.589  22.884  48.801  1.00  0.00     0.238 A 
ATOM      4  O   UNL     1      26.390  22.575  48.579  1.00  0.00    -0.285 OA
ATOM      5  C   UNL     1      28.342  23.643  47.871  1.00  0.00     0.111 A 
ATOM      6  C   UNL     1      27.818  24.193  46.663  1.00  0.00     0.134 A 
ATOM      7  C   UNL     1      28.684  24.815  45.755  1.00  0.00     0.093 A 
ATOM      8  C   UNL     1      30.043  24.962  46.043  1.00  0.00     0.123 A 
ATOM      9  C   UNL     1      30.553  24.482  47.246  1.00  0.00     0.094 A 
ATOM     10  C   UNL     1      29.720  23.825  48.156  1.00  0.00     0.146 A 
ATOM     11  O   UNL     1      30.249  23.371  49.286  1.00  0.00    -0.451 OA
ENDROOT
BRANCH   1  12
ATOM     12  C   UNL     1      30.246  22.276  51.434  1.00  0.00     0.063 A 
ATOM     13  C   UNL     1      30.397  22.311  53.860  1.00  0.00     0.047 A 
ATOM     14  C   UNL     1      29.766  22.711  52.680  1.00  0.00     0.020 A 
ATOM     15  C   UNL     1      31.504  21.460  53.812  1.00  0.00     0.119 A 
ATOM     16  C   UNL     1      31.976  21.002  52.576  1.00  0.00     0.093 A 
ATOM     17  C   UNL     1      31.346  21.395  51.386  1.00  0.00     0.130 A 
BRANCH  15  18
ATOM     18  O   UNL     1      32.125  21.073  54.998  1.00  0.00    -0.508 OA
ATOM     19  H   UNL     1      31.691  20.412  55.632  1.00  0.00     0.293 HD
ENDBRANCH  15  18
BRANCH  17  20
ATOM     20  O   UNL     1      31.796  20.893  50.165  1.00  0.00    -0.507 OA
ATOM     21  H   UNL     1      31.664  19.922  49.908  1.00  0.00     0.293 HD
ENDBRANCH  17  20
ENDBRANCH   1  12
BRANCH   2  22
ATOM     22  O   UNL     1      27.483  21.659  50.907  1.00  0.00    -0.502 OA
ATOM     23  H   UNL     1      26.472  21.598  50.896  1.00  0.00     0.293 HD
ENDBRANCH   2  22
BRANCH   6  24
ATOM     24  O   UNL     1      26.462  24.180  46.322  1.00  0.00    -0.507 OA
ATOM     25  H   UNL     1      26.091  23.811  45.459  1.00  0.00     0.293 HD
ENDBRANCH   6  24
BRANCH   8  26
ATOM     26  O   UNL     1      30.896  25.597  45.140  1.00  0.00    -0.508 OA
ATOM     27  H   UNL     1      30.991  26.605  45.120  1.00  0.00     0.293 HD
ENDBRANCH   8  26
TORSDOF 6
ENDMDL
MODEL 3
REMARK VINA RESULT:    -6.911     12.446     14.248
REMARK INTER + INTRA:          -8.461
REMARK INTER:                  -8.120
REMARK INTRA:                  -0.342
REMARK UNBOUND:                -0.136
REMARK SMILES O=c1c(O)c(-c2ccc(O)cc2O)oc2cc(O)cc(O)c12
REMARK SMILES IDX 5 1 3 2 2 3 1 4 22 5 20 6 19 7 17 8 16 9 15 10 14 11 6 12
REMARK SMILES IDX 8 13 7 14 9 15 11 16 12 17 10 18 13 20 4 22 21 24 18 26
REMARK H PARENT 10 19 13 21 4 23 21 25 18 27
REMARK Flexibility Score: inf
ROOT
ATOM      1  C   UNL     1      18.320  24.861  41.056  1.00  0.00     0.184 A 
ATOM      2  C   UNL     1      17.050  24.575  41.580  1.00  0.00     0.208 A 
ATOM      3  C   UNL     1      16.638  25.219  42.758  1.00  0.00     0.238 A 
ATOM      4  O   UNL     1      15.479  25.000  43.193  1.00  0.00    -0.285 OA
ATOM      5  C   UNL     1      17.512  26.128  43.404  1.00  0.00     0.111 A 
ATOM      6  C   UNL     1      17.216  26.807  44.624  1.00  0.00     0.134 A 
ATOM      7  C   UNL     1      18.100  27.782  45.104  1.00  0.00     0.093 A 
ATOM      8  C   UNL     1      19.299  28.054  44.441  1.00  0.00     0.123 A 
ATOM      9  C   UNL     1      19.625  27.354  43.283  1.00  0.00     0.094 A 
ATOM     10  C   UNL     1      18.747  26.402  42.759  1.00  0.00     0.146 A 
ATOM     11  O   UNL     1      19.091  25.766  41.645  1.00  0.00    -0.451 OA
ENDROOT
BRANCH   1  12
ATOM     12  C   UNL     1      18.820  24.204  39.829  1.00  0.00     0.063 A 
ATOM     13  C   UNL     1      20.295  22.567  38.803  1.00  0.00     0.047 A 
ATOM     14  C   UNL     1      19.804  23.210  39.942  1.00  0.00     0.020 A 
ATOM     15  C   UNL     1      19.798  22.897  37.540  1.00  0.00     0.119 A 
ATOM     16  C   UNL     1      18.799  23.871  37.419  1.00  0.00     0.093 A 
ATOM     17  C   UNL     1      18.297  24.518  38.557  1.00  0.00     0.130 A 
BRANCH  15  18
ATOM     18  O   UNL     1      20.300  22.250  36.413  1.00  0.00    -0.508 OA
ATOM     19  H   UNL     1      20.112  21.270  36.237  1.00  0.00     0.293 HD
ENDBRANCH  15  18
BRANCH  17  20
ATOM     20  O   UNL     1      17.268  25.451  38.428  1.00  0.00    -0.507 OA
ATOM     21  H   UNL     1      17.338  26.379  38.828  1.00  0.00     0.293 HD
ENDBRANCH  17  20
ENDBRANCH   1  12
BRANCH   2  22
ATOM     22  O   UNL     1      16.201  23.687  40.912  1.00  0.00    -0.502 OA
ATOM     23  H   UNL     1      15.414  24.002  40.357  1.00  0.00     0.293 HD
ENDBRANCH   2  22
BRANCH   6  24
ATOM     24  O   UNL     1      16.091  26.545  45.410  1.00  0.00    -0.507 OA
ATOM     25  H   UNL     1      15.195  26.998  45.301  1.00  0.00     0.293 HD
ENDBRANCH   6  24
BRANCH   8  26
ATOM     26  O   UNL     1      20.181  29.015  44.934  1.00  0.00    -0.508 OA
ATOM     27  H   UNL     1      19.848  29.861  45.381  1.00  0.00     0.293 HD
ENDBRANCH   8  26
TORSDOF 6
ENDMDL
MODEL 4
REMARK VINA RESULT:    -6.752     12.738     14.068
REMARK INTER + INTRA:          -8.269
REMARK INTER:                  -7.953
REMARK INTRA:                  -0.315
REMARK UNBOUND:                -0.136
REMARK SMILES O=c1c(O)c(-c2ccc(O)cc2O)oc2cc(O)cc(O)c12
REMARK SMILES IDX 5 1 3 2 2 3 1 4 22 5 20 6 19 7 17 8 16 9 15 10 14 11 6 12
REMARK SMILES IDX 8 13 7 14 9 15 11 16 12 17 10 18 13 20 4 22 21 24 18 26
REMARK H PARENT 10 19 13 21 4 23 21 25 18 27
REMARK Flexibility Score: inf
ROOT
ATOM      1  C   UNL     1      18.635  25.366  40.894  1.00  0.00     0.184 A 
ATOM      2  C   UNL     1      19.654  26.289  41.175  1.00  0.00     0.208 A 
ATOM      3  C   UNL     1      19.610  27.006  42.381  1.00  0.00     0.238 A 
ATOM      4  O   UNL     1      20.554  27.792  42.652  1.00  0.00    -0.285 OA
ATOM      5  C   UNL     1      18.536  26.802  43.282  1.00  0.00     0.111 A 
ATOM      6  C   UNL     1      18.367  27.503  44.513  1.00  0.00     0.134 A 
ATOM      7  C   UNL     1      17.339  27.127  45.387  1.00  0.00     0.093 A 
ATOM      8  C   UNL     1      16.434  26.120  45.042  1.00  0.00     0.123 A 
ATOM      9  C   UNL     1      16.554  25.471  43.816  1.00  0.00     0.094 A 
ATOM     10  C   UNL     1      17.592  25.798  42.940  1.00  0.00     0.146 A 
ATOM     11  O   UNL     1      17.677  25.146  41.786  1.00  0.00    -0.451 OA
ENDROOT
BRANCH   1  12
ATOM     12  C   UNL     1      18.614  24.591  39.636  1.00  0.00     0.063 A 
ATOM     13  C   UNL     1      19.695  22.981  38.170  1.00  0.00     0.047 A 
ATOM     14  C   UNL     1      19.686  23.731  39.348  1.00  0.00     0.020 A 
ATOM     15  C   UNL     1      18.628  23.068  37.272  1.00  0.00     0.119 A 
ATOM     16  C   UNL     1      17.543  23.904  37.561  1.00  0.00     0.093 A 
ATOM     17  C   UNL     1      17.523  24.658  38.744  1.00  0.00     0.130 A 
BRANCH  15  18
ATOM     18  O   UNL     1      18.654  22.316  36.099  1.00  0.00    -0.508 OA
ATOM     19  H   UNL     1      18.502  21.314  36.109  1.00  0.00     0.293 HD
ENDBRANCH  15  18
BRANCH  17  20
ATOM     20  O   UNL     1      16.415  25.449  39.044  1.00  0.00    -0.507 OA
ATOM     21  H   UNL     1      16.334  26.401  38.705  1.00  0.00     0.293 HD
ENDBRANCH  17  20
ENDBRANCH   1  12
BRANCH   2  22
ATOM     22  O   UNL     1      20.712  26.457  40.276  1.00  0.00    -0.502 OA
ATOM     23  H   UNL     1      20.791  27.270  39.677  1.00  0.00     0.293 HD
ENDBRANCH   2  22
BRANCH   6  24
ATOM     24  O   UNL     1      19.159  28.584  44.911  1.00  0.00    -0.507 OA
ATOM     25  H   UNL     1      20.166  28.613  44.848  1.00  0.00     0.293 HD
ENDBRANCH   6  24
BRANCH   8  26
ATOM     26  O   UNL     1      15.404  25.763  45.911  1.00  0.00    -0.508 OA
ATOM     27  H   UNL     1      14.576  25.281  45.581  1.00  0.00     0.293 HD
ENDBRANCH   8  26
TORSDOF 6
ENDMDL
MODEL 5
REMARK VINA RESULT:    -6.642      1.497      2.990
REMARK INTER + INTRA:          -8.137
REMARK INTER:                  -8.644
REMARK INTRA:                   0.508
REMARK UNBOUND:                -0.136
REMARK SMILES O=c1c(O)c(-c2ccc(O)cc2O)oc2cc(O)cc(O)c12
REMARK SMILES IDX 5 1 3 2 2 3 1 4 22 5 20 6 19 7 17 8 16 9 15 10 14 11 6 12
REMARK SMILES IDX 8 13 7 14 9 15 11 16 12 17 10 18 13 20 4 22 21 24 18 26
REMARK H PARENT 10 19 13 21 4 23 21 25 18 27
REMARK Flexibility Score: inf
ROOT
ATOM      1  C   UNL     1      28.075  23.462  49.019  1.00  0.00     0.184 A 
ATOM      2  C   UNL     1      27.033  22.705  49.576  1.00  0.00     0.208 A 
ATOM      3  C   UNL     1      27.148  22.258  50.902  1.00  0.00     0.238 A 
ATOM      4  O   UNL     1      26.188  21.626  51.412  1.00  0.00    -0.285 OA
ATOM      5  C   UNL     1      28.314  22.562  51.647  1.00  0.00     0.111 A 
ATOM      6  C   UNL     1      28.556  22.126  52.984  1.00  0.00     0.134 A 
ATOM      7  C   UNL     1      29.685  22.595  53.669  1.00  0.00     0.093 A 
ATOM      8  C   UNL     1      30.612  23.430  53.042  1.00  0.00     0.123 A 
ATOM      9  C   UNL     1      30.416  23.812  51.717  1.00  0.00     0.094 A 
ATOM     10  C   UNL     1      29.281  23.391  51.019  1.00  0.00     0.146 A 
ATOM     11  O   UNL     1      29.126  23.788  49.762  1.00  0.00    -0.451 OA
ENDROOT
BRANCH   1  12
ATOM     12  C   UNL     1      28.023  23.949  47.624  1.00  0.00     0.063 A 
ATOM     13  C   UNL     1      26.711  24.390  45.626  1.00  0.00     0.047 A 
ATOM     14  C   UNL     1      26.796  23.933  46.943  1.00  0.00     0.020 A 
ATOM     15  C   UNL     1      27.846  24.882  44.978  1.00  0.00     0.119 A 
ATOM     16  C   UNL     1      29.071  24.924  45.656  1.00  0.00     0.093 A 
ATOM     17  C   UNL     1      29.164  24.472  46.981  1.00  0.00     0.130 A 
BRANCH  15  18
ATOM     18  O   UNL     1      27.747  25.331  43.663  1.00  0.00    -0.508 OA
ATOM     19  H   UNL     1      27.631  24.685  42.890  1.00  0.00     0.293 HD
ENDBRANCH  15  18
BRANCH  17  20
ATOM     20  O   UNL     1      30.378  24.565  47.662  1.00  0.00    -0.507 OA
ATOM     21  H   UNL     1      30.610  25.373  48.228  1.00  0.00     0.293 HD
ENDBRANCH  17  20
ENDBRANCH   1  12
BRANCH   2  22
ATOM     22  O   UNL     1      25.885  22.436  48.823  1.00  0.00    -0.502 OA
ATOM     23  H   UNL     1      25.929  22.103  47.867  1.00  0.00     0.293 HD
ENDBRANCH   2  22
BRANCH   6  24
ATOM     24  O   UNL     1      27.741  21.222  53.671  1.00  0.00    -0.507 OA
ATOM     25  H   UNL     1      28.050  20.631  54.429  1.00  0.00     0.293 HD
ENDBRANCH   6  24
BRANCH   8  26
ATOM     26  O   UNL     1      31.741  23.878  53.726  1.00  0.00    -0.508 OA
ATOM     27  H   UNL     1      32.672  23.575  53.467  1.00  0.00     0.293 HD
ENDBRANCH   8  26
TORSDOF 6
ENDMDL
MODEL 6
REMARK VINA RESULT:    -6.504     13.399     14.942
REMARK INTER + INTRA:          -7.971
REMARK INTER:                  -7.559
REMARK INTRA:                  -0.411
REMARK UNBOUND:                -0.136
REMARK SMILES O=c1c(O)c(-c2ccc(O)cc2O)oc2cc(O)cc(O)c12
REMARK SMILES IDX 5 1 3 2 2 3 1 4 22 5 20 6 19 7 17 8 16 9 15 10 14 11 6 12
REMARK SMILES IDX 8 13 7 14 9 15 11 16 12 17 10 18 13 20 4 22 21 24 18 26
REMARK H PARENT 10 19 13 21 4 23 21 25 18 27
REMARK Flexibility Score: inf
ROOT
ATOM      1  C   UNL     1      17.023  24.131  41.848  1.00  0.00     0.184 A 
ATOM      2  C   UNL     1      15.635  24.326  41.792  1.00  0.00     0.208 A 
ATOM      3  C   UNL     1      14.786  23.317  42.276  1.00  0.00     0.238 A 
ATOM      4  O   UNL     1      13.544  23.519  42.273  1.00  0.00    -0.285 OA
ATOM      5  C   UNL     1      15.340  22.120  42.793  1.00  0.00     0.111 A 
ATOM      6  C   UNL     1      14.574  21.015  43.271  1.00  0.00     0.134 A 
ATOM      7  C   UNL     1      15.227  19.936  43.881  1.00  0.00     0.093 A 
ATOM      8  C   UNL     1      16.621  19.894  43.968  1.00  0.00     0.123 A 
ATOM      9  C   UNL     1      17.379  20.940  43.450  1.00  0.00     0.094 A 
ATOM     10  C   UNL     1      16.756  22.047  42.869  1.00  0.00     0.146 A 
ATOM     11  O   UNL     1      17.516  23.029  42.398  1.00  0.00    -0.451 OA
ENDROOT
BRANCH   1  12
ATOM     12  C   UNL     1      17.971  25.147  41.341  1.00  0.00     0.063 A 
ATOM     13  C   UNL     1      19.221  26.070  39.471  1.00  0.00     0.047 A 
ATOM     14  C   UNL     1      18.332  25.123  39.984  1.00  0.00     0.020 A 
ATOM     15  C   UNL     1      19.749  27.061  40.302  1.00  0.00     0.119 A 
ATOM     16  C   UNL     1      19.377  27.108  41.652  1.00  0.00     0.093 A 
ATOM     17  C   UNL     1      18.481  26.164  42.174  1.00  0.00     0.130 A 
BRANCH  15  18
ATOM     18  O   UNL     1      20.637  27.997  39.777  1.00  0.00    -0.508 OA
ATOM     19  H   UNL     1      20.703  28.164  38.780  1.00  0.00     0.293 HD
ENDBRANCH  15  18
BRANCH  17  20
ATOM     20  O   UNL     1      18.080  26.251  43.507  1.00  0.00    -0.507 OA
ATOM     21  H   UNL     1      18.175  25.467  44.143  1.00  0.00     0.293 HD
ENDBRANCH  17  20
ENDBRANCH   1  12
BRANCH   2  22
ATOM     22  O   UNL     1      15.116  25.525  41.294  1.00  0.00    -0.502 OA
ATOM     23  H   UNL     1      14.763  25.613  40.349  1.00  0.00     0.293 HD
ENDBRANCH   2  22
BRANCH   6  24
ATOM     24  O   UNL     1      13.185  20.916  43.151  1.00  0.00    -0.507 OA
ATOM     25  H   UNL     1      12.549  21.699  43.174  1.00  0.00     0.293 HD
ENDBRANCH   6  24
BRANCH   8  26
ATOM     26  O   UNL     1      17.263  18.808  44.562  1.00  0.00    -0.508 OA
ATOM     27  H   UNL     1      17.646  18.051  44.008  1.00  0.00     0.293 HD
ENDBRANCH   8  26
TORSDOF 6
ENDMDL
MODEL 7
REMARK VINA RESULT:    -6.438     12.875     13.812
REMARK INTER + INTRA:          -7.891
REMARK INTER:                  -7.667
REMARK INTRA:                  -0.224
REMARK UNBOUND:                -0.136
REMARK SMILES O=c1c(O)c(-c2ccc(O)cc2O)oc2cc(O)cc(O)c12
REMARK SMILES IDX 5 1 3 2 2 3 1 4 22 5 20 6 19 7 17 8 16 9 15 10 14 11 6 12
REMARK SMILES IDX 8 13 7 14 9 15 11 16 12 17 10 18 13 20 4 22 21 24 18 26
REMARK H PARENT 10 19 13 21 4 23 21 25 18 27
REMARK Flexibility Score: inf
ROOT
ATOM      1  C   UNL     1      18.365  26.073  42.002  1.00  0.00     0.184 A 
ATOM      2  C   UNL     1      19.136  27.039  42.668  1.00  0.00     0.208 A 
ATOM      3  C   UNL     1      18.725  27.484  43.935  1.00  0.00     0.238 A 
ATOM      4  O   UNL     1      19.448  28.309  44.550  1.00  0.00    -0.285 OA
ATOM      5  C   UNL     1      17.537  26.968  44.509  1.00  0.00     0.111 A 
ATOM      6  C   UNL     1      17.004  27.377  45.768  1.00  0.00     0.134 A 
ATOM      7  C   UNL     1      15.894  26.706  46.298  1.00  0.00     0.093 A 
ATOM      8  C   UNL     1      15.261  25.686  45.584  1.00  0.00     0.123 A 
ATOM      9  C   UNL     1      15.738  25.321  44.328  1.00  0.00     0.094 A 
ATOM     10  C   UNL     1      16.865  25.946  43.789  1.00  0.00     0.146 A 
ATOM     11  O   UNL     1      17.294  25.559  42.593  1.00  0.00    -0.451 OA
ENDROOT
BRANCH   1  12
ATOM     12  C   UNL     1      18.734  25.575  40.660  1.00  0.00     0.063 A 
ATOM     13  C   UNL     1      19.356  26.064  38.362  1.00  0.00     0.047 A 
ATOM     14  C   UNL     1      19.000  26.502  39.640  1.00  0.00     0.020 A 
ATOM     15  C   UNL     1      19.465  24.698  38.091  1.00  0.00     0.119 A 
ATOM     16  C   UNL     1      19.225  23.766  39.108  1.00  0.00     0.093 A 
ATOM     17  C   UNL     1      18.872  24.196  40.396  1.00  0.00     0.130 A 
BRANCH  15  18
ATOM     18  O   UNL     1      19.817  24.278  36.810  1.00  0.00    -0.508 OA
ATOM     19  H   UNL     1      19.381  24.672  35.984  1.00  0.00     0.293 HD
ENDBRANCH  15  18
BRANCH  17  20
ATOM     20  O   UNL     1      18.683  23.261  41.412  1.00  0.00    -0.507 OA
ATOM     21  H   UNL     1      17.825  23.225  41.950  1.00  0.00     0.293 HD
ENDBRANCH  17  20
ENDBRANCH   1  12
BRANCH   2  22
ATOM     22  O   UNL     1      20.314  27.517  42.085  1.00  0.00    -0.502 OA
ATOM     23  H   UNL     1      21.020  26.899  41.704  1.00  0.00     0.293 HD
ENDBRANCH   2  22
BRANCH   6  24
ATOM     24  O   UNL     1      17.505  28.443  46.520  1.00  0.00    -0.507 OA
ATOM     25  H   UNL     1      18.454  28.785  46.472  1.00  0.00     0.293 HD
ENDBRANCH   6  24
BRANCH   8  26
ATOM     26  O   UNL     1      14.148  25.034  46.112  1.00  0.00    -0.508 OA
ATOM     27  H   UNL     1      14.085  24.023  46.131  1.00  0.00     0.293 HD
ENDBRANCH   8  26
TORSDOF 6
ENDMDL
MODEL 8
REMARK VINA RESULT:    -6.409     13.790     15.486
REMARK INTER + INTRA:          -7.856
REMARK INTER:                  -7.492
REMARK INTRA:                  -0.364
REMARK UNBOUND:                -0.136
REMARK SMILES O=c1c(O)c(-c2ccc(O)cc2O)oc2cc(O)cc(O)c12
REMARK SMILES IDX 5 1 3 2 2 3 1 4 22 5 20 6 19 7 17 8 16 9 15 10 14 11 6 12
REMARK SMILES IDX 8 13 7 14 9 15 11 16 12 17 10 18 13 20 4 22 21 24 18 26
REMARK H PARENT 10 19 13 21 4 23 21 25 18 27
REMARK Flexibility Score: inf
ROOT
ATOM      1  C   UNL     1      17.137  23.475  42.175  1.00  0.00     0.184 A 
ATOM      2  C   UNL     1      17.243  24.681  42.884  1.00  0.00     0.208 A 
ATOM      3  C   UNL     1      17.861  25.781  42.269  1.00  0.00     0.238 A 
ATOM      4  O   UNL     1      17.905  26.875  42.889  1.00  0.00    -0.285 OA
ATOM      5  C   UNL     1      18.382  25.652  40.958  1.00  0.00     0.111 A 
ATOM      6  C   UNL     1      19.065  26.688  40.253  1.00  0.00     0.134 A 
ATOM      7  C   UNL     1      19.422  26.491  38.913  1.00  0.00     0.093 A 
ATOM      8  C   UNL     1      19.178  25.273  38.274  1.00  0.00     0.123 A 
ATOM      9  C   UNL     1      18.567  24.235  38.972  1.00  0.00     0.094 A 
ATOM     10  C   UNL     1      18.165  24.413  40.299  1.00  0.00     0.146 A 
ATOM     11  O   UNL     1      17.574  23.402  40.924  1.00  0.00    -0.451 OA
ENDROOT
BRANCH   1  12
ATOM     12  C   UNL     1      16.512  22.275  42.771  1.00  0.00     0.063 A 
ATOM     13  C   UNL     1      16.775  20.159  43.938  1.00  0.00     0.047 A 
ATOM     14  C   UNL     1      17.334  21.302  43.362  1.00  0.00     0.020 A 
ATOM     15  C   UNL     1      15.390  19.980  43.946  1.00  0.00     0.119 A 
ATOM     16  C   UNL     1      14.560  20.956  43.381  1.00  0.00     0.093 A 
ATOM     17  C   UNL     1      15.112  22.110  42.804  1.00  0.00     0.130 A 
BRANCH  15  18
ATOM     18  O   UNL     1      14.848  18.833  44.521  1.00  0.00    -0.508 OA
ATOM     19  H   UNL     1      13.869  18.781  44.778  1.00  0.00     0.293 HD
ENDBRANCH  15  18
BRANCH  17  20
ATOM     20  O   UNL     1      14.273  23.097  42.288  1.00  0.00    -0.507 OA
ATOM     21  H   UNL     1      14.427  23.501  41.371  1.00  0.00     0.293 HD
ENDBRANCH  17  20
ENDBRANCH   1  12
BRANCH   2  22
ATOM     22  O   UNL     1      16.703  24.786  44.170  1.00  0.00    -0.502 OA
ATOM     23  H   UNL     1      15.705  24.793  44.342  1.00  0.00     0.293 HD
ENDBRANCH   2  22
BRANCH   6  24
ATOM     24  O   UNL     1      19.437  27.908  40.825  1.00  0.00    -0.507 OA
ATOM     25  H   UNL     1      20.032  28.592  40.381  1.00  0.00     0.293 HD
ENDBRANCH   6  24
BRANCH   8  26
ATOM     26  O   UNL     1      19.551  25.080  36.945  1.00  0.00    -0.508 OA
ATOM     27  H   UNL     1      19.813  25.857  36.350  1.00  0.00     0.293 HD
ENDBRANCH   8  26
TORSDOF 6
ENDMDL
MODEL 9
REMARK VINA RESULT:    -6.325     12.472     14.693
REMARK INTER + INTRA:          -7.755
REMARK INTER:                  -7.525
REMARK INTRA:                  -0.230
REMARK UNBOUND:                -0.136
REMARK SMILES O=c1c(O)c(-c2ccc(O)cc2O)oc2cc(O)cc(O)c12
REMARK SMILES IDX 5 1 3 2 2 3 1 4 22 5 20 6 19 7 17 8 16 9 15 10 14 11 6 12
REMARK SMILES IDX 8 13 7 14 9 15 11 16 12 17 10 18 13 20 4 22 21 24 18 26
REMARK H PARENT 10 19 13 21 4 23 21 25 18 27
REMARK Flexibility Score: inf
ROOT
ATOM      1  C   UNL     1      17.476  25.617  43.391  1.00  0.00     0.184 A 
ATOM      2  C   UNL     1      18.380  26.421  44.103  1.00  0.00     0.208 A 
ATOM      3  C   UNL     1      19.380  27.110  43.399  1.00  0.00     0.238 A 
ATOM      4  O   UNL     1      20.153  27.871  44.037  1.00  0.00    -0.285 OA
ATOM      5  C   UNL     1      19.472  26.971  41.993  1.00  0.00     0.111 A 
ATOM      6  C   UNL     1      20.470  27.591  41.183  1.00  0.00     0.134 A 
ATOM      7  C   UNL     1      20.388  27.489  39.788  1.00  0.00     0.093 A 
ATOM      8  C   UNL     1      19.380  26.737  39.179  1.00  0.00     0.123 A 
ATOM      9  C   UNL     1      18.437  26.080  39.964  1.00  0.00     0.094 A 
ATOM     10  C   UNL     1      18.471  26.192  41.356  1.00  0.00     0.146 A 
ATOM     11  O   UNL     1      17.545  25.559  42.067  1.00  0.00    -0.451 OA
ENDROOT
BRANCH   1  12
ATOM     12  C   UNL     1      16.410  24.853  44.073  1.00  0.00     0.063 A 
ATOM     13  C   UNL     1      14.505  24.840  45.582  1.00  0.00     0.047 A 
ATOM     14  C   UNL     1      15.525  25.531  44.926  1.00  0.00     0.020 A 
ATOM     15  C   UNL     1      14.345  23.466  45.384  1.00  0.00     0.119 A 
ATOM     16  C   UNL     1      15.208  22.784  44.517  1.00  0.00     0.093 A 
ATOM     17  C   UNL     1      16.233  23.471  43.850  1.00  0.00     0.130 A 
BRANCH  15  18
ATOM     18  O   UNL     1      13.325  22.790  46.049  1.00  0.00    -0.508 OA
ATOM     19  H   UNL     1      12.532  23.282  46.444  1.00  0.00     0.293 HD
ENDBRANCH  15  18
BRANCH  17  20
ATOM     20  O   UNL     1      17.055  22.791  42.952  1.00  0.00    -0.507 OA
ATOM     21  H   UNL     1      18.065  22.825  43.023  1.00  0.00     0.293 HD
ENDBRANCH  17  20
ENDBRANCH   1  12
BRANCH   2  22
ATOM     22  O   UNL     1      18.253  26.554  45.490  1.00  0.00    -0.502 OA
ATOM     23  H   UNL     1      18.715  27.291  46.009  1.00  0.00     0.293 HD
ENDBRANCH   2  22
BRANCH   6  24
ATOM     24  O   UNL     1      21.569  28.288  41.693  1.00  0.00    -0.507 OA
ATOM     25  H   UNL     1      22.111  27.999  42.493  1.00  0.00     0.293 HD
ENDBRANCH   6  24
BRANCH   8  26
ATOM     26  O   UNL     1      19.315  26.629  37.791  1.00  0.00    -0.508 OA
ATOM     27  H   UNL     1      20.117  26.828  37.205  1.00  0.00     0.293 HD
ENDBRANCH   8  26
TORSDOF 6
ENDMDL
