MODEL 1
REMARK VINA RESULT:    -5.950      0.000      0.000
REMARK INTER + INTRA:          -6.515
REMARK INTER:                  -6.298
REMARK INTRA:                  -0.217
REMARK UNBOUND:                -0.217
REMARK SMILES C=C(C)[C@H]1CC=C(C)C(=O)C1
REMARK SMILES IDX 8 1 7 2 6 3 5 4 4 5 11 6 9 7 10 8 2 9 1 10 3 11
REMARK H PARENT
REMARK Flexibility Score: inf
ROOT
ATOM      1  C   UNL     1      -2.440 -15.445  -5.429  1.00  0.00     0.048 C 
ATOM      2  C   UNL     1      -3.119 -15.103  -6.726  1.00  0.00    -0.012 C 
ATOM      3  C   UNL     1      -2.381 -14.745  -7.788  1.00  0.00    -0.019 C 
ATOM      4  C   UNL     1      -2.992 -14.422  -9.125  1.00  0.00     0.036 C 
ATOM      5  C   UNL     1      -4.420 -13.845  -9.028  1.00  0.00     0.025 C 
ATOM      6  C   UNL     1      -5.303 -14.663  -8.063  1.00  0.00     0.089 C 
ATOM      7  C   UNL     1      -4.597 -15.015  -6.783  1.00  0.00     0.158 C 
ATOM      8  O   UNL     1      -5.284 -15.275  -5.759  1.00  0.00    -0.295 OA
ENDROOT
BRANCH   5   9
ATOM      9  C   UNL     1      -4.436 -12.345  -8.730  1.00  0.00    -0.077 C 
ATOM     10  C   UNL     1      -3.439 -11.527  -9.106  1.00  0.00     0.008 C 
ATOM     11  C   UNL     1      -5.603 -11.742  -7.988  1.00  0.00     0.039 C 
ENDBRANCH   5   9
TORSDOF 1
ENDMDL
MODEL 2
REMARK VINA RESULT:    -5.532      1.775      3.992
REMARK INTER + INTRA:          -6.072
REMARK INTER:                  -5.944
REMARK INTRA:                  -0.128
REMARK UNBOUND:                -0.217
REMARK SMILES C=C(C)[C@H]1CC=C(C)C(=O)C1
REMARK SMILES IDX 8 1 7 2 6 3 5 4 4 5 11 6 9 7 10 8 2 9 1 10 3 11
REMARK H PARENT
REMARK Flexibility Score: inf
ROOT
ATOM      1  C   UNL     1      -5.903 -11.723  -7.983  1.00  0.00     0.048 C 
ATOM      2  C   UNL     1      -5.045 -12.920  -8.285  1.00  0.00    -0.012 C 
ATOM      3  C   UNL     1      -5.608 -14.134  -8.382  1.00  0.00    -0.019 C 
ATOM      4  C   UNL     1      -4.814 -15.369  -8.715  1.00  0.00     0.036 C 
ATOM      5  C   UNL     1      -3.346 -15.305  -8.245  1.00  0.00     0.025 C 
ATOM      6  C   UNL     1      -2.686 -13.959  -8.612  1.00  0.00     0.089 C 
ATOM      7  C   UNL     1      -3.571 -12.778  -8.325  1.00  0.00     0.158 C 
ATOM      8  O   UNL     1      -3.042 -11.647  -8.153  1.00  0.00    -0.295 OA
ENDROOT
BRANCH   5   9
ATOM      9  C   UNL     1      -3.177 -15.672  -6.770  1.00  0.00    -0.077 C 
ATOM     10  C   UNL     1      -2.531 -14.876  -5.901  1.00  0.00     0.008 C 
ATOM     11  C   UNL     1      -3.748 -16.969  -6.251  1.00  0.00     0.039 C 
ENDBRANCH   5   9
TORSDOF 1
ENDMDL
MODEL 3
REMARK VINA RESULT:    -5.258      1.350      1.819
REMARK INTER + INTRA:          -5.782
REMARK INTER:                  -5.579
REMARK INTRA:                  -0.203
REMARK UNBOUND:                -0.217
REMARK SMILES C=C(C)[C@H]1CC=C(C)C(=O)C1
REMARK SMILES IDX 8 1 7 2 6 3 5 4 4 5 11 6 9 7 10 8 2 9 1 10 3 11
REMARK H PARENT
REMARK Flexibility Score: inf
ROOT
ATOM      1  C   UNL     1      -3.055 -15.048  -4.802  1.00  0.00     0.048 C 
ATOM      2  C   UNL     1      -3.133 -14.556  -6.221  1.00  0.00    -0.012 C 
ATOM      3  C   UNL     1      -2.933 -13.256  -6.486  1.00  0.00    -0.019 C 
ATOM      4  C   UNL     1      -2.965 -12.702  -7.884  1.00  0.00     0.036 C 
ATOM      5  C   UNL     1      -3.892 -13.484  -8.838  1.00  0.00     0.025 C 
ATOM      6  C   UNL     1      -3.679 -15.008  -8.720  1.00  0.00     0.089 C 
ATOM      7  C   UNL     1      -3.578 -15.475  -7.294  1.00  0.00     0.158 C 
ATOM      8  O   UNL     1      -3.843 -16.677  -7.026  1.00  0.00    -0.295 OA
ENDROOT
BRANCH   5   9
ATOM      9  C   UNL     1      -5.359 -13.072  -8.711  1.00  0.00    -0.077 C 
ATOM     10  C   UNL     1      -6.365 -13.861  -9.125  1.00  0.00     0.008 C 
ATOM     11  C   UNL     1      -5.713 -11.737  -8.102  1.00  0.00     0.039 C 
ENDBRANCH   5   9
TORSDOF 1
ENDMDL
MODEL 4
REMARK VINA RESULT:    -5.187      1.386      1.977
REMARK INTER + INTRA:          -5.707
REMARK INTER:                  -5.581
REMARK INTRA:                  -0.127
REMARK UNBOUND:                -0.217
REMARK SMILES C=C(C)[C@H]1CC=C(C)C(=O)C1
REMARK SMILES IDX 8 1 7 2 6 3 5 4 4 5 11 6 9 7 10 8 2 9 1 10 3 11
REMARK H PARENT
REMARK Flexibility Score: inf
ROOT
ATOM      1  C   UNL     1      -4.384 -15.994  -4.916  1.00  0.00     0.048 C 
ATOM      2  C   UNL     1      -4.609 -15.506  -6.320  1.00  0.00    -0.012 C 
ATOM      3  C   UNL     1      -4.146 -16.224  -7.355  1.00  0.00    -0.019 C 
ATOM      4  C   UNL     1      -4.363 -15.812  -8.786  1.00  0.00     0.036 C 
ATOM      5  C   UNL     1      -4.480 -14.286  -8.979  1.00  0.00     0.025 C 
ATOM      6  C   UNL     1      -5.428 -13.649  -7.941  1.00  0.00     0.089 C 
ATOM      7  C   UNL     1      -5.203 -14.169  -6.549  1.00  0.00     0.158 C 
ATOM      8  O   UNL     1      -5.563 -13.463  -5.569  1.00  0.00    -0.295 OA
ENDROOT
BRANCH   5   9
ATOM      9  C   UNL     1      -3.119 -13.590  -9.053  1.00  0.00    -0.077 C 
ATOM     10  C   UNL     1      -1.966 -14.275  -9.125  1.00  0.00     0.008 C 
ATOM     11  C   UNL     1      -3.047 -12.083  -9.045  1.00  0.00     0.039 C 
ENDBRANCH   5   9
TORSDOF 1
ENDMDL
MODEL 5
REMARK VINA RESULT:    -4.950      1.871      3.845
REMARK INTER + INTRA:          -5.456
REMARK INTER:                  -5.552
REMARK INTRA:                   0.096
REMARK UNBOUND:                -0.217
REMARK SMILES C=C(C)[C@H]1CC=C(C)C(=O)C1
REMARK SMILES IDX 8 1 7 2 6 3 5 4 4 5 11 6 9 7 10 8 2 9 1 10 3 11
REMARK H PARENT
REMARK Flexibility Score: inf
ROOT
ATOM      1  C   UNL     1      -3.794 -11.060  -9.125  1.00  0.00     0.048 C 
ATOM      2  C   UNL     1      -4.006 -11.987  -7.960  1.00  0.00    -0.012 C 
ATOM      3  C   UNL     1      -2.947 -12.452  -7.280  1.00  0.00    -0.019 C 
ATOM      4  C   UNL     1      -3.088 -13.356  -6.085  1.00  0.00     0.036 C 
ATOM      5  C   UNL     1      -4.348 -14.245  -6.128  1.00  0.00     0.025 C 
ATOM      6  C   UNL     1      -5.605 -13.438  -6.515  1.00  0.00     0.089 C 
ATOM      7  C   UNL     1      -5.364 -12.500  -7.665  1.00  0.00     0.158 C 
ATOM      8  O   UNL     1      -6.346 -12.121  -8.359  1.00  0.00    -0.295 OA
ENDROOT
BRANCH   5   9
ATOM      9  C   UNL     1      -4.159 -15.503  -6.977  1.00  0.00    -0.077 C 
ATOM     10  C   UNL     1      -3.644 -16.638  -6.475  1.00  0.00     0.008 C 
ATOM     11  C   UNL     1      -4.557 -15.492  -8.432  1.00  0.00     0.039 C 
ENDBRANCH   5   9
TORSDOF 1
ENDMDL
MODEL 6
REMARK VINA RESULT:    -4.910      1.662      3.848
REMARK INTER + INTRA:          -5.414
REMARK INTER:                  -5.392
REMARK INTRA:                  -0.022
REMARK UNBOUND:                -0.217
REMARK SMILES C=C(C)[C@H]1CC=C(C)C(=O)C1
REMARK SMILES IDX 8 1 7 2 6 3 5 4 4 5 11 6 9 7 10 8 2 9 1 10 3 11
REMARK H PARENT
REMARK Flexibility Score: inf
ROOT
ATOM      1  C   UNL     1      -6.396 -13.473  -9.125  1.00  0.00     0.048 C 
ATOM      2  C   UNL     1      -5.001 -13.633  -8.588  1.00  0.00    -0.012 C 
ATOM      3  C   UNL     1      -4.234 -14.645  -9.024  1.00  0.00    -0.019 C 
ATOM      4  C   UNL     1      -2.819 -14.846  -8.553  1.00  0.00     0.036 C 
ATOM      5  C   UNL     1      -2.564 -14.329  -7.122  1.00  0.00     0.025 C 
ATOM      6  C   UNL     1      -3.151 -12.918  -6.910  1.00  0.00     0.089 C 
ATOM      7  C   UNL     1      -4.536 -12.772  -7.476  1.00  0.00     0.158 C 
ATOM      8  O   UNL     1      -5.292 -11.875  -7.016  1.00  0.00    -0.295 OA
ENDROOT
BRANCH   5   9
ATOM      9  C   UNL     1      -2.995 -15.326  -6.045  1.00  0.00    -0.077 C 
ATOM     10  C   UNL     1      -2.747 -15.125  -4.740  1.00  0.00     0.008 C 
ATOM     11  C   UNL     1      -3.725 -16.587  -6.440  1.00  0.00     0.039 C 
ENDBRANCH   5   9
TORSDOF 1
ENDMDL
MODEL 7
REMARK VINA RESULT:    -4.863      1.632      2.039
REMARK INTER + INTRA:          -5.365
REMARK INTER:                  -5.170
REMARK INTRA:                  -0.195
REMARK UNBOUND:                -0.217
REMARK SMILES C=C(C)[C@H]1CC=C(C)C(=O)C1
REMARK SMILES IDX 8 1 7 2 6 3 5 4 4 5 11 6 9 7 10 8 2 9 1 10 3 11
REMARK H PARENT
REMARK Flexibility Score: inf
ROOT
ATOM      1  C   UNL     1      -3.878 -16.661  -5.867  1.00  0.00     0.048 C 
ATOM      2  C   UNL     1      -3.654 -15.456  -6.739  1.00  0.00    -0.012 C 
ATOM      3  C   UNL     1      -3.323 -14.283  -6.177  1.00  0.00    -0.019 C 
ATOM      4  C   UNL     1      -3.054 -13.046  -6.991  1.00  0.00     0.036 C 
ATOM      5  C   UNL     1      -3.833 -12.999  -8.321  1.00  0.00     0.025 C 
ATOM      6  C   UNL     1      -3.746 -14.339  -9.082  1.00  0.00     0.089 C 
ATOM      7  C   UNL     1      -3.947 -15.531  -8.188  1.00  0.00     0.158 C 
ATOM      8  O   UNL     1      -4.336 -16.616  -8.698  1.00  0.00    -0.295 OA
ENDROOT
BRANCH   5   9
ATOM      9  C   UNL     1      -5.268 -12.498  -8.153  1.00  0.00    -0.077 C 
ATOM     10  C   UNL     1      -5.584 -11.493  -7.319  1.00  0.00     0.008 C 
ATOM     11  C   UNL     1      -6.383 -13.140  -8.940  1.00  0.00     0.039 C 
ENDBRANCH   5   9
TORSDOF 1
ENDMDL
MODEL 8
REMARK VINA RESULT:    -4.664      1.954      2.692
REMARK INTER + INTRA:          -5.153
REMARK INTER:                  -4.975
REMARK INTRA:                  -0.178
REMARK UNBOUND:                -0.217
REMARK SMILES C=C(C)[C@H]1CC=C(C)C(=O)C1
REMARK SMILES IDX 8 1 7 2 6 3 5 4 4 5 11 6 9 7 10 8 2 9 1 10 3 11
REMARK H PARENT
REMARK Flexibility Score: inf
ROOT
ATOM      1  C   UNL     1      -3.735 -18.518  -5.740  1.00  0.00     0.048 C 
ATOM      2  C   UNL     1      -4.178 -17.212  -6.338  1.00  0.00    -0.012 C 
ATOM      3  C   UNL     1      -4.092 -17.025  -7.665  1.00  0.00    -0.019 C 
ATOM      4  C   UNL     1      -4.547 -15.756  -8.333  1.00  0.00     0.036 C 
ATOM      5  C   UNL     1      -4.431 -14.508  -7.433  1.00  0.00     0.025 C 
ATOM      6  C   UNL     1      -4.996 -14.767  -6.021  1.00  0.00     0.089 C 
ATOM      7  C   UNL     1      -4.562 -16.089  -5.452  1.00  0.00     0.158 C 
ATOM      8  O   UNL     1      -4.564 -16.245  -4.201  1.00  0.00    -0.295 OA
ENDROOT
BRANCH   5   9
ATOM      9  C   UNL     1      -3.021 -13.917  -7.416  1.00  0.00    -0.077 C 
ATOM     10  C   UNL     1      -2.623 -13.036  -6.483  1.00  0.00     0.008 C 
ATOM     11  C   UNL     1      -2.025 -14.323  -8.474  1.00  0.00     0.039 C 
ENDBRANCH   5   9
TORSDOF 1
ENDMDL
MODEL 9
REMARK VINA RESULT:    -4.619      1.751      2.916
REMARK INTER + INTRA:          -5.105
REMARK INTER:                  -4.917
REMARK INTRA:                  -0.188
REMARK UNBOUND:                -0.217
REMARK SMILES C=C(C)[C@H]1CC=C(C)C(=O)C1
REMARK SMILES IDX 8 1 7 2 6 3 5 4 4 5 11 6 9 7 10 8 2 9 1 10 3 11
REMARK H PARENT
REMARK Flexibility Score: inf
ROOT
ATOM      1  C   UNL     1      -4.144 -17.608  -5.481  1.00  0.00     0.048 C 
ATOM      2  C   UNL     1      -4.062 -16.129  -5.737  1.00  0.00    -0.012 C 
ATOM      3  C   UNL     1      -5.186 -15.430  -5.961  1.00  0.00    -0.019 C 
ATOM      4  C   UNL     1      -5.180 -13.943  -6.192  1.00  0.00     0.036 C 
ATOM      5  C   UNL     1      -3.882 -13.424  -6.843  1.00  0.00     0.025 C 
ATOM      6  C   UNL     1      -2.627 -14.005  -6.159  1.00  0.00     0.089 C 
ATOM      7  C   UNL     1      -2.739 -15.480  -5.890  1.00  0.00     0.158 C 
ATOM      8  O   UNL     1      -1.685 -16.158  -5.758  1.00  0.00    -0.295 OA
ENDROOT
BRANCH   5   9
ATOM      9  C   UNL     1      -3.869 -13.594  -8.363  1.00  0.00    -0.077 C 
ATOM     10  C   UNL     1      -4.950 -13.349  -9.122  1.00  0.00     0.008 C 
ATOM     11  C   UNL     1      -2.610 -14.054  -9.055  1.00  0.00     0.039 C 
ENDBRANCH   5   9
TORSDOF 1
ENDMDL
