MODEL 1
REMARK VINA RESULT:    -3.610      0.000      0.000
REMARK INTER + INTRA:          -7.998
REMARK INTER:                  -6.353
REMARK INTRA:                  -1.645
REMARK UNBOUND:                -1.645
REMARK SMILES CCCCCCCCCCCCCCC(=O)[O-]
REMARK SMILES IDX 9 1 10 2 11 3 12 4 13 5 14 6 15 7 16 8 17 9 8 10 7 11 6 12
REMARK SMILES IDX 5 13 4 14 3 15 2 16 1 17
REMARK H PARENT
REMARK Flexibility Score: inf
ROOT
ATOM      1  C   UNL     1       3.935  24.953  13.726  1.00  0.00     0.000 C 
ENDROOT
BRANCH   1   2
ATOM      2  C   UNL     1       2.718  24.808  12.799  1.00  0.00     0.000 C 
BRANCH   2   3
ATOM      3  C   UNL     1       1.917  26.115  12.662  1.00  0.00     0.000 C 
BRANCH   3   4
ATOM      4  C   UNL     1       2.185  26.822  11.315  1.00  0.00     0.000 C 
BRANCH   4   5
ATOM      5  C   UNL     1       2.803  28.223  11.467  1.00  0.00     0.006 C 
BRANCH   5   6
ATOM      6  C   UNL     1       3.360  28.479  12.872  1.00  0.00     0.053 C 
BRANCH   6   7
ATOM      7  C   UNL     1       4.843  28.666  12.821  1.00  0.00     0.041 C 
ATOM      8  O   UNL     1       5.612  27.683  12.989  1.00  0.00    -0.550 OA
ATOM      9  O   UNL     1       5.378  29.935  12.638  1.00  0.00    -0.550 OA
ENDBRANCH   6   7
ENDBRANCH   5   6
ENDBRANCH   4   5
ENDBRANCH   3   4
ENDBRANCH   2   3
ENDBRANCH   1   2
BRANCH   1  10
ATOM     10  C   UNL     1       3.712  24.306  15.102  1.00  0.00     0.000 C 
BRANCH  10  11
ATOM     11  C   UNL     1       2.229  24.345  15.492  1.00  0.00    -0.000 C 
BRANCH  11  12
ATOM     12  C   UNL     1       1.927  25.559  16.383  1.00  0.00    -0.000 C 
BRANCH  12  13
ATOM     13  C   UNL     1       3.171  26.080  17.125  1.00  0.00    -0.000 C 
BRANCH  13  14
ATOM     14  C   UNL     1       3.553  27.527  16.748  1.00  0.00    -0.000 C 
BRANCH  14  15
ATOM     15  C   UNL     1       5.020  27.645  16.307  1.00  0.00    -0.000 C 
BRANCH  15  16
ATOM     16  C   UNL     1       5.886  26.579  16.988  1.00  0.00    -0.003 C 
ATOM     17  C   UNL     1       7.009  26.110  16.068  1.00  0.00     0.004 C 
ENDBRANCH  15  16
ENDBRANCH  14  15
ENDBRANCH  13  14
ENDBRANCH  12  13
ENDBRANCH  11  12
ENDBRANCH  10  11
ENDBRANCH   1  10
TORSDOF 13
ENDMDL
MODEL 2
REMARK VINA RESULT:    -3.604      9.916     11.563
REMARK INTER + INTRA:          -7.988
REMARK INTER:                  -6.897
REMARK INTRA:                  -1.091
REMARK UNBOUND:                -1.645
REMARK SMILES CCCCCCCCCCCCCCC(=O)[O-]
REMARK SMILES IDX 9 1 10 2 11 3 12 4 13 5 14 6 15 7 16 8 17 9 8 10 7 11 6 12
REMARK SMILES IDX 5 13 4 14 3 15 2 16 1 17
REMARK H PARENT
REMARK Flexibility Score: inf
ROOT
ATOM      1  C   UNL     1       4.566  17.663   8.867  1.00  0.00     0.000 C 
ENDROOT
BRANCH   1   2
ATOM      2  C   UNL     1       3.301  18.448   8.487  1.00  0.00     0.000 C 
BRANCH   2   3
ATOM      3  C   UNL     1       3.375  19.042   7.069  1.00  0.00     0.000 C 
BRANCH   3   4
ATOM      4  C   UNL     1       2.902  18.040   5.994  1.00  0.00     0.000 C 
BRANCH   4   5
ATOM      5  C   UNL     1       4.051  17.263   5.328  1.00  0.00     0.006 C 
BRANCH   5   6
ATOM      6  C   UNL     1       4.061  15.776   5.703  1.00  0.00     0.053 C 
BRANCH   6   7
ATOM      7  C   UNL     1       5.456  15.238   5.670  1.00  0.00     0.041 C 
ATOM      8  O   UNL     1       5.824  14.485   4.730  1.00  0.00    -0.550 OA
ATOM      9  O   UNL     1       6.336  15.527   6.706  1.00  0.00    -0.550 OA
ENDBRANCH   6   7
ENDBRANCH   5   6
ENDBRANCH   4   5
ENDBRANCH   3   4
ENDBRANCH   2   3
ENDBRANCH   1   2
BRANCH   1  10
ATOM     10  C   UNL     1       4.256  16.409   9.701  1.00  0.00     0.000 C 
BRANCH  10  11
ATOM     11  C   UNL     1       3.012  16.623  10.571  1.00  0.00    -0.000 C 
BRANCH  11  12
ATOM     12  C   UNL     1       3.367  16.561  12.063  1.00  0.00    -0.000 C 
BRANCH  12  13
ATOM     13  C   UNL     1       4.823  16.131  12.314  1.00  0.00    -0.000 C 
BRANCH  13  14
ATOM     14  C   UNL     1       5.519  16.932  13.435  1.00  0.00    -0.000 C 
BRANCH  14  15
ATOM     15  C   UNL     1       6.168  16.018  14.485  1.00  0.00    -0.000 C 
BRANCH  15  16
ATOM     16  C   UNL     1       5.459  16.147  15.838  1.00  0.00    -0.003 C 
ATOM     17  C   UNL     1       5.068  17.594  16.122  1.00  0.00     0.004 C 
ENDBRANCH  15  16
ENDBRANCH  14  15
ENDBRANCH  13  14
ENDBRANCH  12  13
ENDBRANCH  11  12
ENDBRANCH  10  11
ENDBRANCH   1  10
TORSDOF 13
ENDMDL
MODEL 3
REMARK VINA RESULT:    -3.600     10.038     12.669
REMARK INTER + INTRA:          -7.981
REMARK INTER:                  -6.342
REMARK INTRA:                  -1.639
REMARK UNBOUND:                -1.645
REMARK SMILES CCCCCCCCCCCCCCC(=O)[O-]
REMARK SMILES IDX 9 1 10 2 11 3 12 4 13 5 14 6 15 7 16 8 17 9 8 10 7 11 6 12
REMARK SMILES IDX 5 13 4 14 3 15 2 16 1 17
REMARK H PARENT
REMARK Flexibility Score: inf
ROOT
ATOM      1  C   UNL     1       4.178  16.073   8.663  1.00  0.00     0.000 C 
ENDROOT
BRANCH   1   2
ATOM      2  C   UNL     1       2.734  15.851   9.139  1.00  0.00     0.000 C 
BRANCH   2   3
ATOM      3  C   UNL     1       2.657  15.382  10.602  1.00  0.00     0.000 C 
BRANCH   3   4
ATOM      4  C   UNL     1       3.833  14.454  10.978  1.00  0.00     0.000 C 
BRANCH   4   5
ATOM      5  C   UNL     1       4.512  14.828  12.307  1.00  0.00     0.006 C 
BRANCH   5   6
ATOM      6  C   UNL     1       4.974  16.289  12.351  1.00  0.00     0.053 C 
BRANCH   6   7
ATOM      7  C   UNL     1       5.594  16.601  13.676  1.00  0.00     0.041 C 
ATOM      8  O   UNL     1       5.300  17.667  14.279  1.00  0.00    -0.550 OA
ATOM      9  O   UNL     1       6.536  15.738  14.223  1.00  0.00    -0.550 OA
ENDBRANCH   6   7
ENDBRANCH   5   6
ENDBRANCH   4   5
ENDBRANCH   3   4
ENDBRANCH   2   3
ENDBRANCH   1   2
BRANCH   1  10
ATOM     10  C   UNL     1       4.585  17.555   8.675  1.00  0.00     0.000 C 
BRANCH  10  11
ATOM     11  C   UNL     1       3.369  18.459   8.440  1.00  0.00    -0.000 C 
BRANCH  11  12
ATOM     12  C   UNL     1       3.377  19.032   7.016  1.00  0.00    -0.000 C 
BRANCH  12  13
ATOM     13  C   UNL     1       2.239  18.476   6.141  1.00  0.00    -0.000 C 
BRANCH  13  14
ATOM     14  C   UNL     1       2.735  17.710   4.896  1.00  0.00    -0.000 C 
BRANCH  14  15
ATOM     15  C   UNL     1       4.187  17.231   5.049  1.00  0.00    -0.000 C 
BRANCH  15  16
ATOM     16  C   UNL     1       4.312  15.740   4.719  1.00  0.00    -0.003 C 
ATOM     17  C   UNL     1       5.524  15.121   5.408  1.00  0.00     0.004 C 
ENDBRANCH  15  16
ENDBRANCH  14  15
ENDBRANCH  13  14
ENDBRANCH  12  13
ENDBRANCH  11  12
ENDBRANCH  10  11
ENDBRANCH   1  10
TORSDOF 13
ENDMDL
MODEL 4
REMARK VINA RESULT:    -3.554      9.326     10.972
REMARK INTER + INTRA:          -7.901
REMARK INTER:                  -6.517
REMARK INTRA:                  -1.383
REMARK UNBOUND:                -1.645
REMARK SMILES CCCCCCCCCCCCCCC(=O)[O-]
REMARK SMILES IDX 9 1 10 2 11 3 12 4 13 5 14 6 15 7 16 8 17 9 8 10 7 11 6 12
REMARK SMILES IDX 5 13 4 14 3 15 2 16 1 17
REMARK H PARENT
REMARK Flexibility Score: inf
ROOT
ATOM      1  C   UNL     1       3.348  16.238  12.430  1.00  0.00     0.000 C 
ENDROOT
BRANCH   1   2
ATOM      2  C   UNL     1       2.702  16.234  11.036  1.00  0.00     0.000 C 
BRANCH   2   3
ATOM      3  C   UNL     1       2.629  17.638  10.411  1.00  0.00     0.000 C 
BRANCH   3   4
ATOM      4  C   UNL     1       3.168  17.659   8.965  1.00  0.00     0.000 C 
BRANCH   4   5
ATOM      5  C   UNL     1       4.596  17.101   8.832  1.00  0.00     0.006 C 
BRANCH   5   6
ATOM      6  C   UNL     1       4.644  15.755   8.099  1.00  0.00     0.053 C 
BRANCH   6   7
ATOM      7  C   UNL     1       5.561  15.835   6.920  1.00  0.00     0.041 C 
ATOM      8  O   UNL     1       6.810  15.824   7.085  1.00  0.00    -0.550 OA
ATOM      9  O   UNL     1       5.037  15.974   5.640  1.00  0.00    -0.550 OA
ENDBRANCH   6   7
ENDBRANCH   5   6
ENDBRANCH   4   5
ENDBRANCH   3   4
ENDBRANCH   2   3
ENDBRANCH   1   2
BRANCH   1  10
ATOM     10  C   UNL     1       4.866  16.002  12.380  1.00  0.00     0.000 C 
BRANCH  10  11
ATOM     11  C   UNL     1       5.320  15.110  13.543  1.00  0.00    -0.000 C 
BRANCH  11  12
ATOM     12  C   UNL     1       4.153  14.811  14.495  1.00  0.00    -0.000 C 
BRANCH  12  13
ATOM     13  C   UNL     1       4.417  15.291  15.933  1.00  0.00    -0.000 C 
BRANCH  13  14
ATOM     14  C   UNL     1       5.598  16.279  16.047  1.00  0.00    -0.000 C 
BRANCH  14  15
ATOM     15  C   UNL     1       5.257  17.492  16.926  1.00  0.00    -0.000 C 
BRANCH  15  16
ATOM     16  C   UNL     1       4.296  18.442  16.202  1.00  0.00    -0.003 C 
ATOM     17  C   UNL     1       4.841  18.842  14.835  1.00  0.00     0.004 C 
ENDBRANCH  15  16
ENDBRANCH  14  15
ENDBRANCH  13  14
ENDBRANCH  12  13
ENDBRANCH  11  12
ENDBRANCH  10  11
ENDBRANCH   1  10
TORSDOF 13
ENDMDL
MODEL 5
REMARK VINA RESULT:    -3.503     10.182     11.911
REMARK INTER + INTRA:          -7.810
REMARK INTER:                  -6.751
REMARK INTRA:                  -1.060
REMARK UNBOUND:                -1.645
REMARK SMILES CCCCCCCCCCCCCCC(=O)[O-]
REMARK SMILES IDX 9 1 10 2 11 3 12 4 13 5 14 6 15 7 16 8 17 9 8 10 7 11 6 12
REMARK SMILES IDX 5 13 4 14 3 15 2 16 1 17
REMARK H PARENT
REMARK Flexibility Score: inf
ROOT
ATOM      1  C   UNL     1       3.373  18.475   8.377  1.00  0.00     0.000 C 
ENDROOT
BRANCH   1   2
ATOM      2  C   UNL     1       3.408  19.089   6.969  1.00  0.00     0.000 C 
BRANCH   2   3
ATOM      3  C   UNL     1       2.249  18.603   6.081  1.00  0.00     0.000 C 
BRANCH   3   4
ATOM      4  C   UNL     1       2.751  17.834   4.839  1.00  0.00     0.000 C 
BRANCH   4   5
ATOM      5  C   UNL     1       4.236  17.438   4.919  1.00  0.00     0.006 C 
BRANCH   5   6
ATOM      6  C   UNL     1       4.490  15.988   4.492  1.00  0.00     0.053 C 
BRANCH   6   7
ATOM      7  C   UNL     1       4.854  15.151   5.676  1.00  0.00     0.041 C 
ATOM      8  O   UNL     1       3.970  14.488   6.281  1.00  0.00    -0.550 OA
ATOM      9  O   UNL     1       6.162  15.142   6.146  1.00  0.00    -0.550 OA
ENDBRANCH   6   7
ENDBRANCH   5   6
ENDBRANCH   4   5
ENDBRANCH   3   4
ENDBRANCH   2   3
ENDBRANCH   1   2
BRANCH   1  10
ATOM     10  C   UNL     1       4.603  17.603   8.674  1.00  0.00     0.000 C 
BRANCH  10  11
ATOM     11  C   UNL     1       4.188  16.263   9.292  1.00  0.00    -0.000 C 
BRANCH  11  12
ATOM     12  C   UNL     1       3.544  16.469  10.671  1.00  0.00    -0.000 C 
BRANCH  12  13
ATOM     13  C   UNL     1       4.174  15.587  11.763  1.00  0.00    -0.000 C 
BRANCH  13  14
ATOM     14  C   UNL     1       5.196  16.333  12.646  1.00  0.00    -0.000 C 
BRANCH  14  15
ATOM     15  C   UNL     1       5.735  15.452  13.783  1.00  0.00    -0.000 C 
BRANCH  15  16
ATOM     16  C   UNL     1       5.557  16.136  15.142  1.00  0.00    -0.003 C 
ATOM     17  C   UNL     1       4.913  17.511  14.987  1.00  0.00     0.004 C 
ENDBRANCH  15  16
ENDBRANCH  14  15
ENDBRANCH  13  14
ENDBRANCH  12  13
ENDBRANCH  11  12
ENDBRANCH  10  11
ENDBRANCH   1  10
TORSDOF 13
ENDMDL
MODEL 6
REMARK VINA RESULT:    -3.477      9.197     12.017
REMARK INTER + INTRA:          -7.764
REMARK INTER:                  -6.474
REMARK INTRA:                  -1.290
REMARK UNBOUND:                -1.645
REMARK SMILES CCCCCCCCCCCCCCC(=O)[O-]
REMARK SMILES IDX 9 1 10 2 11 3 12 4 13 5 14 6 15 7 16 8 17 9 8 10 7 11 6 12
REMARK SMILES IDX 5 13 4 14 3 15 2 16 1 17
REMARK H PARENT
REMARK Flexibility Score: inf
ROOT
ATOM      1  C   UNL     1       4.454  16.053  11.407  1.00  0.00     0.000 C 
ENDROOT
BRANCH   1   2
ATOM      2  C   UNL     1       4.249  14.667  12.036  1.00  0.00     0.000 C 
BRANCH   2   3
ATOM      3  C   UNL     1       4.577  14.643  13.540  1.00  0.00     0.000 C 
BRANCH   3   4
ATOM      4  C   UNL     1       5.926  15.326  13.851  1.00  0.00     0.000 C 
BRANCH   4   5
ATOM      5  C   UNL     1       5.867  16.288  15.051  1.00  0.00     0.006 C 
BRANCH   5   6
ATOM      6  C   UNL     1       4.442  16.753  15.373  1.00  0.00     0.053 C 
BRANCH   6   7
ATOM      7  C   UNL     1       4.190  18.106  14.789  1.00  0.00     0.041 C 
ATOM      8  O   UNL     1       4.843  19.104  15.193  1.00  0.00    -0.550 OA
ATOM      9  O   UNL     1       3.196  18.276  13.833  1.00  0.00    -0.550 OA
ENDBRANCH   6   7
ENDBRANCH   5   6
ENDBRANCH   4   5
ENDBRANCH   3   4
ENDBRANCH   2   3
ENDBRANCH   1   2
BRANCH   1  10
ATOM     10  C   UNL     1       3.175  16.603  10.755  1.00  0.00     0.000 C 
BRANCH  10  11
ATOM     11  C   UNL     1       3.357  16.762   9.241  1.00  0.00    -0.000 C 
BRANCH  11  12
ATOM     12  C   UNL     1       4.829  17.020   8.888  1.00  0.00    -0.000 C 
BRANCH  12  13
ATOM     13  C   UNL     1       5.288  16.248   7.638  1.00  0.00    -0.000 C 
BRANCH  13  14
ATOM     14  C   UNL     1       4.184  16.085   6.573  1.00  0.00    -0.000 C 
BRANCH  14  15
ATOM     15  C   UNL     1       4.175  17.242   5.563  1.00  0.00    -0.000 C 
BRANCH  15  16
ATOM     16  C   UNL     1       2.891  18.069   5.685  1.00  0.00    -0.003 C 
ATOM     17  C   UNL     1       3.111  19.306   6.550  1.00  0.00     0.004 C 
ENDBRANCH  15  16
ENDBRANCH  14  15
ENDBRANCH  13  14
ENDBRANCH  12  13
ENDBRANCH  11  12
ENDBRANCH  10  11
ENDBRANCH   1  10
TORSDOF 13
ENDMDL
MODEL 7
REMARK VINA RESULT:    -3.390     10.718     13.042
REMARK INTER + INTRA:          -7.611
REMARK INTER:                  -5.911
REMARK INTRA:                  -1.700
REMARK UNBOUND:                -1.645
REMARK SMILES CCCCCCCCCCCCCCC(=O)[O-]
REMARK SMILES IDX 9 1 10 2 11 3 12 4 13 5 14 6 15 7 16 8 17 9 8 10 7 11 6 12
REMARK SMILES IDX 5 13 4 14 3 15 2 16 1 17
REMARK H PARENT
REMARK Flexibility Score: inf
ROOT
ATOM      1  C   UNL     1       3.383  18.662   8.374  1.00  0.00     0.000 C 
ENDROOT
BRANCH   1   2
ATOM      2  C   UNL     1       2.072  17.979   8.793  1.00  0.00     0.000 C 
BRANCH   2   3
ATOM      3  C   UNL     1       2.302  16.611   9.458  1.00  0.00     0.000 C 
BRANCH   3   4
ATOM      4  C   UNL     1       2.902  16.746  10.874  1.00  0.00     0.000 C 
BRANCH   4   5
ATOM      5  C   UNL     1       4.267  16.055  11.033  1.00  0.00     0.006 C 
BRANCH   5   6
ATOM      6  C   UNL     1       4.151  14.625  11.574  1.00  0.00     0.053 C 
BRANCH   6   7
ATOM      7  C   UNL     1       4.566  14.575  13.010  1.00  0.00     0.041 C 
ATOM      8  O   UNL     1       5.636  15.126  13.382  1.00  0.00    -0.550 OA
ATOM      9  O   UNL     1       3.796  13.875  13.931  1.00  0.00    -0.550 OA
ENDBRANCH   6   7
ENDBRANCH   5   6
ENDBRANCH   4   5
ENDBRANCH   3   4
ENDBRANCH   2   3
ENDBRANCH   1   2
BRANCH   1  10
ATOM     10  C   UNL     1       3.363  19.137   6.912  1.00  0.00     0.000 C 
BRANCH  10  11
ATOM     11  C   UNL     1       2.054  18.734   6.223  1.00  0.00    -0.000 C 
BRANCH  11  12
ATOM     12  C   UNL     1       2.302  18.329   4.763  1.00  0.00    -0.000 C 
BRANCH  12  13
ATOM     13  C   UNL     1       2.741  16.862   4.617  1.00  0.00    -0.000 C 
BRANCH  13  14
ATOM     14  C   UNL     1       4.251  16.693   4.343  1.00  0.00    -0.000 C 
BRANCH  14  15
ATOM     15  C   UNL     1       4.849  15.499   5.103  1.00  0.00    -0.000 C 
BRANCH  15  16
ATOM     16  C   UNL     1       4.538  15.588   6.601  1.00  0.00    -0.003 C 
ATOM     17  C   UNL     1       5.754  16.063   7.390  1.00  0.00     0.004 C 
ENDBRANCH  15  16
ENDBRANCH  14  15
ENDBRANCH  13  14
ENDBRANCH  12  13
ENDBRANCH  11  12
ENDBRANCH  10  11
ENDBRANCH   1  10
TORSDOF 13
ENDMDL
MODEL 8
REMARK VINA RESULT:    -3.375      8.369     10.151
REMARK INTER + INTRA:          -7.585
REMARK INTER:                  -5.909
REMARK INTRA:                  -1.677
REMARK UNBOUND:                -1.645
REMARK SMILES CCCCCCCCCCCCCCC(=O)[O-]
REMARK SMILES IDX 9 1 10 2 11 3 12 4 13 5 14 6 15 7 16 8 17 9 8 10 7 11 6 12
REMARK SMILES IDX 5 13 4 14 3 15 2 16 1 17
REMARK H PARENT
REMARK Flexibility Score: inf
ROOT
ATOM      1  C   UNL     1       4.715  15.989  12.223  1.00  0.00     0.000 C 
ENDROOT
BRANCH   1   2
ATOM      2  C   UNL     1       3.794  15.252  11.238  1.00  0.00     0.000 C 
BRANCH   2   3
ATOM      3  C   UNL     1       2.499  16.029  10.943  1.00  0.00     0.000 C 
BRANCH   3   4
ATOM      4  C   UNL     1       2.573  17.491  11.435  1.00  0.00     0.000 C 
BRANCH   4   5
ATOM      5  C   UNL     1       2.109  18.517  10.386  1.00  0.00     0.006 C 
BRANCH   5   6
ATOM      6  C   UNL     1       2.167  17.974   8.954  1.00  0.00     0.053 C 
BRANCH   6   7
ATOM      7  C   UNL     1       3.414  18.437   8.270  1.00  0.00     0.041 C 
ATOM      8  O   UNL     1       3.345  19.224   7.289  1.00  0.00    -0.550 OA
ATOM      9  O   UNL     1       4.651  17.958   8.683  1.00  0.00    -0.550 OA
ENDBRANCH   6   7
ENDBRANCH   5   6
ENDBRANCH   4   5
ENDBRANCH   3   4
ENDBRANCH   2   3
ENDBRANCH   1   2
BRANCH   1  10
ATOM     10  C   UNL     1       5.189  15.090  13.376  1.00  0.00     0.000 C 
BRANCH  10  11
ATOM     11  C   UNL     1       6.276  15.787  14.203  1.00  0.00    -0.000 C 
BRANCH  11  12
ATOM     12  C   UNL     1       5.840  15.941  15.667  1.00  0.00    -0.000 C 
BRANCH  12  13
ATOM     13  C   UNL     1       4.369  15.551  15.897  1.00  0.00    -0.000 C 
BRANCH  13  14
ATOM     14  C   UNL     1       3.471  16.738  16.302  1.00  0.00    -0.000 C 
BRANCH  14  15
ATOM     15  C   UNL     1       2.698  17.316  15.107  1.00  0.00    -0.000 C 
BRANCH  15  16
ATOM     16  C   UNL     1       2.968  18.816  14.950  1.00  0.00    -0.003 C 
ATOM     17  C   UNL     1       4.424  19.150  15.261  1.00  0.00     0.004 C 
ENDBRANCH  15  16
ENDBRANCH  14  15
ENDBRANCH  13  14
ENDBRANCH  12  13
ENDBRANCH  11  12
ENDBRANCH  10  11
ENDBRANCH   1  10
TORSDOF 13
ENDMDL
MODEL 9
REMARK VINA RESULT:    -3.315      9.064     10.698
REMARK INTER + INTRA:          -7.480
REMARK INTER:                  -6.243
REMARK INTRA:                  -1.237
REMARK UNBOUND:                -1.645
REMARK SMILES CCCCCCCCCCCCCCC(=O)[O-]
REMARK SMILES IDX 9 1 10 2 11 3 12 4 13 5 14 6 15 7 16 8 17 9 8 10 7 11 6 12
REMARK SMILES IDX 5 13 4 14 3 15 2 16 1 17
REMARK H PARENT
REMARK Flexibility Score: inf
ROOT
ATOM      1  C   UNL     1       3.348  16.263  12.337  1.00  0.00     0.000 C 
ENDROOT
BRANCH   1   2
ATOM      2  C   UNL     1       3.113  16.331  10.821  1.00  0.00     0.000 C 
BRANCH   2   3
ATOM      3  C   UNL     1       4.424  16.425  10.020  1.00  0.00     0.000 C 
BRANCH   3   4
ATOM      4  C   UNL     1       4.324  15.708   8.656  1.00  0.00     0.000 C 
BRANCH   4   5
ATOM      5  C   UNL     1       4.532  16.643   7.452  1.00  0.00     0.006 C 
BRANCH   5   6
ATOM      6  C   UNL     1       3.822  17.991   7.614  1.00  0.00     0.053 C 
BRANCH   6   7
ATOM      7  C   UNL     1       3.347  18.494   6.288  1.00  0.00     0.041 C 
ATOM      8  O   UNL     1       2.591  19.500   6.224  1.00  0.00    -0.550 OA
ATOM      9  O   UNL     1       3.697  17.821   5.124  1.00  0.00    -0.550 OA
ENDBRANCH   6   7
ENDBRANCH   5   6
ENDBRANCH   4   5
ENDBRANCH   3   4
ENDBRANCH   2   3
ENDBRANCH   1   2
BRANCH   1  10
ATOM     10  C   UNL     1       4.832  16.402  12.713  1.00  0.00     0.000 C 
BRANCH  10  11
ATOM     11  C   UNL     1       5.297  15.210  13.559  1.00  0.00    -0.000 C 
BRANCH  11  12
ATOM     12  C   UNL     1       4.158  14.688  14.447  1.00  0.00    -0.000 C 
BRANCH  12  13
ATOM     13  C   UNL     1       4.052  15.441  15.785  1.00  0.00    -0.000 C 
BRANCH  13  14
ATOM     14  C   UNL     1       5.410  15.937  16.325  1.00  0.00    -0.000 C 
BRANCH  14  15
ATOM     15  C   UNL     1       5.337  17.384  16.837  1.00  0.00    -0.000 C 
BRANCH  15  16
ATOM     16  C   UNL     1       4.162  18.134  16.202  1.00  0.00    -0.003 C 
ATOM     17  C   UNL     1       4.647  19.147  15.169  1.00  0.00     0.004 C 
ENDBRANCH  15  16
ENDBRANCH  14  15
ENDBRANCH  13  14
ENDBRANCH  12  13
ENDBRANCH  11  12
ENDBRANCH  10  11
ENDBRANCH   1  10
TORSDOF 13
ENDMDL
