MODEL 1
REMARK VINA RESULT:    -3.797      0.000      0.000
REMARK INTER + INTRA:          -5.938
REMARK INTER:                  -5.573
REMARK INTRA:                  -0.365
REMARK UNBOUND:                -0.365
REMARK SMILES O=C([O-])CCCCCCCC(=O)[O-]
REMARK SMILES IDX 7 1 6 2 5 3 4 4 2 5 1 6 3 7 8 8 9 9 10 10 11 11 12 12 13 13
REMARK H PARENT
REMARK Flexibility Score: inf
ROOT
ATOM      1  C   UNL     1     -23.216  -9.411  -4.226  1.00  0.00     0.000 C 
ENDROOT
BRANCH   1   2
ATOM      2  C   UNL     1     -24.493  -9.349  -5.082  1.00  0.00     0.000 C 
BRANCH   2   3
ATOM      3  C   UNL     1     -25.043  -7.914  -5.217  1.00  0.00     0.006 C 
BRANCH   3   4
ATOM      4  C   UNL     1     -25.677  -7.376  -3.925  1.00  0.00     0.053 C 
BRANCH   4   5
ATOM      5  C   UNL     1     -26.325  -6.042  -4.123  1.00  0.00     0.041 C 
ATOM      6  O   UNL     1     -27.028  -5.823  -5.143  1.00  0.00    -0.550 OA
ATOM      7  O   UNL     1     -26.131  -5.029  -3.191  1.00  0.00    -0.550 OA
ENDBRANCH   4   5
ENDBRANCH   3   4
ENDBRANCH   2   3
ENDBRANCH   1   2
BRANCH   1   8
ATOM      8  C   UNL     1     -22.566 -10.806  -4.220  1.00  0.00     0.000 C 
BRANCH   8   9
ATOM      9  C   UNL     1     -21.278 -10.931  -5.060  1.00  0.00     0.006 C 
BRANCH   9  10
ATOM     10  C   UNL     1     -21.498 -11.448  -6.490  1.00  0.00     0.053 C 
BRANCH  10  11
ATOM     11  C   UNL     1     -21.364 -10.358  -7.507  1.00  0.00     0.041 C 
ATOM     12  O   UNL     1     -20.247  -9.813  -7.711  1.00  0.00    -0.550 OA
ATOM     13  O   UNL     1     -22.481  -9.921  -8.208  1.00  0.00    -0.550 OA
ENDBRANCH  10  11
ENDBRANCH   9  10
ENDBRANCH   8   9
ENDBRANCH   1   8
TORSDOF 8
ENDMDL
MODEL 2
REMARK VINA RESULT:    -3.765      1.929      5.724
REMARK INTER + INTRA:          -5.891
REMARK INTER:                  -5.171
REMARK INTRA:                  -0.720
REMARK UNBOUND:                -0.365
REMARK SMILES O=C([O-])CCCCCCCC(=O)[O-]
REMARK SMILES IDX 7 1 6 2 5 3 4 4 2 5 1 6 3 7 8 8 9 9 10 10 11 11 12 12 13 13
REMARK H PARENT
REMARK Flexibility Score: inf
ROOT
ATOM      1  C   UNL     1     -22.569  -9.571  -8.061  1.00  0.00     0.000 C 
ENDROOT
BRANCH   1   2
ATOM      2  C   UNL     1     -21.262 -10.116  -7.460  1.00  0.00     0.000 C 
BRANCH   2   3
ATOM      3  C   UNL     1     -21.484 -11.399  -6.633  1.00  0.00     0.006 C 
BRANCH   3   4
ATOM      4  C   UNL     1     -21.605 -11.143  -5.123  1.00  0.00     0.053 C 
BRANCH   4   5
ATOM      5  C   UNL     1     -20.602 -10.145  -4.633  1.00  0.00     0.041 C 
ATOM      6  O   UNL     1     -19.387 -10.460  -4.540  1.00  0.00    -0.550 OA
ATOM      7  O   UNL     1     -21.014  -8.873  -4.256  1.00  0.00    -0.550 OA
ENDBRANCH   4   5
ENDBRANCH   3   4
ENDBRANCH   2   3
ENDBRANCH   1   2
BRANCH   1   8
ATOM      8  C   UNL     1     -23.259  -8.535  -7.156  1.00  0.00     0.000 C 
BRANCH   8   9
ATOM      9  C   UNL     1     -24.520  -9.042  -6.426  1.00  0.00     0.006 C 
BRANCH   9  10
ATOM     10  C   UNL     1     -24.497  -8.845  -4.902  1.00  0.00     0.053 C 
BRANCH  10  11
ATOM     11  C   UNL     1     -25.347  -7.690  -4.473  1.00  0.00     0.041 C 
ATOM     12  O   UNL     1     -25.490  -7.427  -3.250  1.00  0.00    -0.550 OA
ATOM     13  O   UNL     1     -26.008  -6.923  -5.424  1.00  0.00    -0.550 OA
ENDBRANCH  10  11
ENDBRANCH   9  10
ENDBRANCH   8   9
ENDBRANCH   1   8
TORSDOF 8
ENDMDL
MODEL 3
REMARK VINA RESULT:    -3.762      1.901      2.561
REMARK INTER + INTRA:          -5.886
REMARK INTER:                  -5.261
REMARK INTRA:                  -0.625
REMARK UNBOUND:                -0.365
REMARK SMILES O=C([O-])CCCCCCCC(=O)[O-]
REMARK SMILES IDX 7 1 6 2 5 3 4 4 2 5 1 6 3 7 8 8 9 9 10 10 11 11 12 12 13 13
REMARK H PARENT
REMARK Flexibility Score: inf
ROOT
ATOM      1  C   UNL     1     -22.510  -9.411  -6.729  1.00  0.00     0.000 C 
ENDROOT
BRANCH   1   2
ATOM      2  C   UNL     1     -23.992  -9.046  -6.538  1.00  0.00     0.000 C 
BRANCH   2   3
ATOM      3  C   UNL     1     -24.534  -9.486  -5.162  1.00  0.00     0.006 C 
BRANCH   3   4
ATOM      4  C   UNL     1     -23.992  -8.649  -3.993  1.00  0.00     0.053 C 
BRANCH   4   5
ATOM      5  C   UNL     1     -25.047  -7.788  -3.373  1.00  0.00     0.041 C 
ATOM      6  O   UNL     1     -25.962  -7.295  -4.083  1.00  0.00    -0.550 OA
ATOM      7  O   UNL     1     -25.005  -7.509  -2.012  1.00  0.00    -0.550 OA
ENDBRANCH   4   5
ENDBRANCH   3   4
ENDBRANCH   2   3
ENDBRANCH   1   2
BRANCH   1   8
ATOM      8  C   UNL     1     -22.275 -10.929  -6.836  1.00  0.00     0.000 C 
BRANCH   8   9
ATOM      9  C   UNL     1     -21.384 -11.531  -5.730  1.00  0.00     0.006 C 
BRANCH   9  10
ATOM     10  C   UNL     1     -20.482 -10.514  -5.014  1.00  0.00     0.053 C 
BRANCH  10  11
ATOM     11  C   UNL     1     -19.090 -10.514  -5.564  1.00  0.00     0.041 C 
ATOM     12  O   UNL     1     -18.186 -11.188  -5.002  1.00  0.00    -0.550 OA
ATOM     13  O   UNL     1     -18.782  -9.743  -6.677  1.00  0.00    -0.550 OA
ENDBRANCH  10  11
ENDBRANCH   9  10
ENDBRANCH   8   9
ENDBRANCH   1   8
TORSDOF 8
ENDMDL
MODEL 4
REMARK VINA RESULT:    -3.747      1.222      1.752
REMARK INTER + INTRA:          -5.865
REMARK INTER:                  -5.217
REMARK INTRA:                  -0.648
REMARK UNBOUND:                -0.365
REMARK SMILES O=C([O-])CCCCCCCC(=O)[O-]
REMARK SMILES IDX 7 1 6 2 5 3 4 4 2 5 1 6 3 7 8 8 9 9 10 10 11 11 12 12 13 13
REMARK H PARENT
REMARK Flexibility Score: inf
ROOT
ATOM      1  C   UNL     1     -22.827 -10.517  -4.196  1.00  0.00     0.000 C 
ENDROOT
BRANCH   1   2
ATOM      2  C   UNL     1     -23.719  -9.263  -4.175  1.00  0.00     0.000 C 
BRANCH   2   3
ATOM      3  C   UNL     1     -24.570  -9.125  -5.454  1.00  0.00     0.006 C 
BRANCH   3   4
ATOM      4  C   UNL     1     -24.422  -7.761  -6.145  1.00  0.00     0.053 C 
BRANCH   4   5
ATOM      5  C   UNL     1     -25.676  -6.946  -6.071  1.00  0.00     0.041 C 
ATOM      6  O   UNL     1     -26.221  -6.524  -7.124  1.00  0.00    -0.550 OA
ATOM      7  O   UNL     1     -26.229  -6.633  -4.835  1.00  0.00    -0.550 OA
ENDBRANCH   4   5
ENDBRANCH   3   4
ENDBRANCH   2   3
ENDBRANCH   1   2
BRANCH   1   8
ATOM      8  C   UNL     1     -21.337 -10.189  -4.402  1.00  0.00     0.000 C 
BRANCH   8   9
ATOM      9  C   UNL     1     -20.627 -11.031  -5.482  1.00  0.00     0.006 C 
BRANCH   9  10
ATOM     10  C   UNL     1     -21.471 -11.299  -6.738  1.00  0.00     0.053 C 
BRANCH  10  11
ATOM     11  C   UNL     1     -21.465 -10.132  -7.676  1.00  0.00     0.041 C 
ATOM     12  O   UNL     1     -22.502  -9.835  -8.327  1.00  0.00    -0.550 OA
ATOM     13  O   UNL     1     -20.304  -9.391  -7.856  1.00  0.00    -0.550 OA
ENDBRANCH  10  11
ENDBRANCH   9  10
ENDBRANCH   8   9
ENDBRANCH   1   8
TORSDOF 8
ENDMDL
MODEL 5
REMARK VINA RESULT:    -3.727      1.964      2.611
REMARK INTER + INTRA:          -5.836
REMARK INTER:                  -5.271
REMARK INTRA:                  -0.564
REMARK UNBOUND:                -0.365
REMARK SMILES O=C([O-])CCCCCCCC(=O)[O-]
REMARK SMILES IDX 7 1 6 2 5 3 4 4 2 5 1 6 3 7 8 8 9 9 10 10 11 11 12 12 13 13
REMARK H PARENT
REMARK Flexibility Score: inf
ROOT
ATOM      1  C   UNL     1     -24.262  -7.761  -3.895  1.00  0.00     0.000 C 
ENDROOT
BRANCH   1   2
ATOM      2  C   UNL     1     -25.629  -7.269  -3.389  1.00  0.00     0.000 C 
BRANCH   2   3
ATOM      3  C   UNL     1     -25.926  -5.816  -3.815  1.00  0.00     0.006 C 
BRANCH   3   4
ATOM      4  C   UNL     1     -26.935  -5.710  -4.969  1.00  0.00     0.053 C 
BRANCH   4   5
ATOM      5  C   UNL     1     -26.266  -5.658  -6.306  1.00  0.00     0.041 C 
ATOM      6  O   UNL     1     -26.376  -6.621  -7.108  1.00  0.00    -0.550 OA
ATOM      7  O   UNL     1     -25.498  -4.554  -6.657  1.00  0.00    -0.550 OA
ENDBRANCH   4   5
ENDBRANCH   3   4
ENDBRANCH   2   3
ENDBRANCH   1   2
BRANCH   1   8
ATOM      8  C   UNL     1     -24.295  -9.220  -4.386  1.00  0.00     0.000 C 
BRANCH   8   9
ATOM      9  C   UNL     1     -24.563  -9.394  -5.896  1.00  0.00     0.006 C 
BRANCH   9  10
ATOM     10  C   UNL     1     -23.501  -8.762  -6.809  1.00  0.00     0.053 C 
BRANCH  10  11
ATOM     11  C   UNL     1     -22.679  -9.796  -7.512  1.00  0.00     0.041 C 
ATOM     12  O   UNL     1     -22.345  -9.632  -8.715  1.00  0.00    -0.550 OA
ATOM     13  O   UNL     1     -22.309 -10.959  -6.848  1.00  0.00    -0.550 OA
ENDBRANCH  10  11
ENDBRANCH   9  10
ENDBRANCH   8   9
ENDBRANCH   1   8
TORSDOF 8
ENDMDL
MODEL 6
REMARK VINA RESULT:    -3.689      4.428      6.815
REMARK INTER + INTRA:          -5.779
REMARK INTER:                  -5.264
REMARK INTRA:                  -0.515
REMARK UNBOUND:                -0.365
REMARK SMILES O=C([O-])CCCCCCCC(=O)[O-]
REMARK SMILES IDX 7 1 6 2 5 3 4 4 2 5 1 6 3 7 8 8 9 9 10 10 11 11 12 12 13 13
REMARK H PARENT
REMARK Flexibility Score: inf
ROOT
ATOM      1  C   UNL     1     -26.298  -2.153  -5.377  1.00  0.00     0.000 C 
ENDROOT
BRANCH   1   2
ATOM      2  C   UNL     1     -25.984  -1.370  -4.090  1.00  0.00     0.000 C 
BRANCH   2   3
ATOM      3  C   UNL     1     -25.190  -2.209  -3.069  1.00  0.00     0.006 C 
BRANCH   3   4
ATOM      4  C   UNL     1     -25.914  -2.389  -1.726  1.00  0.00     0.053 C 
BRANCH   4   5
ATOM      5  C   UNL     1     -24.962  -2.591  -0.589  1.00  0.00     0.041 C 
ATOM      6  O   UNL     1     -24.234  -3.617  -0.546  1.00  0.00    -0.550 OA
ATOM      7  O   UNL     1     -24.898  -1.657   0.438  1.00  0.00    -0.550 OA
ENDBRANCH   4   5
ENDBRANCH   3   4
ENDBRANCH   2   3
ENDBRANCH   1   2
BRANCH   1   8
ATOM      8  C   UNL     1     -25.708  -3.575  -5.372  1.00  0.00     0.000 C 
BRANCH   8   9
ATOM      9  C   UNL     1     -26.747  -4.713  -5.452  1.00  0.00     0.006 C 
BRANCH   9  10
ATOM     10  C   UNL     1     -26.777  -5.636  -4.224  1.00  0.00     0.053 C 
BRANCH  10  11
ATOM     11  C   UNL     1     -25.936  -6.859  -4.422  1.00  0.00     0.041 C 
ATOM     12  O   UNL     1     -25.643  -7.246  -5.584  1.00  0.00    -0.550 OA
ATOM     13  O   UNL     1     -25.504  -7.591  -3.323  1.00  0.00    -0.550 OA
ENDBRANCH  10  11
ENDBRANCH   9  10
ENDBRANCH   8   9
ENDBRANCH   1   8
TORSDOF 8
ENDMDL
MODEL 7
REMARK VINA RESULT:    -3.684      4.432      7.531
REMARK INTER + INTRA:          -5.772
REMARK INTER:                  -5.083
REMARK INTRA:                  -0.689
REMARK UNBOUND:                -0.365
REMARK SMILES O=C([O-])CCCCCCCC(=O)[O-]
REMARK SMILES IDX 7 1 6 2 5 3 4 4 2 5 1 6 3 7 8 8 9 9 10 10 11 11 12 12 13 13
REMARK H PARENT
REMARK Flexibility Score: inf
ROOT
ATOM      1  C   UNL     1     -25.142  -2.987  -6.032  1.00  0.00     0.000 C 
ENDROOT
BRANCH   1   2
ATOM      2  C   UNL     1     -25.076  -4.504  -5.784  1.00  0.00     0.000 C 
BRANCH   2   3
ATOM      3  C   UNL     1     -26.472  -5.158  -5.754  1.00  0.00     0.006 C 
BRANCH   3   4
ATOM      4  C   UNL     1     -26.829  -5.781  -4.396  1.00  0.00     0.053 C 
BRANCH   4   5
ATOM      5  C   UNL     1     -25.942  -6.935  -4.049  1.00  0.00     0.041 C 
ATOM      6  O   UNL     1     -25.537  -7.092  -2.868  1.00  0.00    -0.550 OA
ATOM      7  O   UNL     1     -25.541  -7.825  -5.038  1.00  0.00    -0.550 OA
ENDBRANCH   4   5
ENDBRANCH   3   4
ENDBRANCH   2   3
ENDBRANCH   1   2
BRANCH   1   8
ATOM      8  C   UNL     1     -26.363  -2.325  -5.369  1.00  0.00     0.000 C 
BRANCH   8   9
ATOM      9  C   UNL     1     -26.030  -1.253  -4.310  1.00  0.00     0.006 C 
BRANCH   9  10
ATOM     10  C   UNL     1     -24.873  -1.625  -3.370  1.00  0.00     0.053 C 
BRANCH  10  11
ATOM     11  C   UNL     1     -25.287  -2.632  -2.342  1.00  0.00     0.041 C 
ATOM     12  O   UNL     1     -26.121  -2.323  -1.451  1.00  0.00    -0.550 OA
ATOM     13  O   UNL     1     -24.726  -3.903  -2.349  1.00  0.00    -0.550 OA
ENDBRANCH  10  11
ENDBRANCH   9  10
ENDBRANCH   8   9
ENDBRANCH   1   8
TORSDOF 8
ENDMDL
MODEL 8
REMARK VINA RESULT:    -3.674      1.265      5.623
REMARK INTER + INTRA:          -5.758
REMARK INTER:                  -5.137
REMARK INTRA:                  -0.622
REMARK UNBOUND:                -0.365
REMARK SMILES O=C([O-])CCCCCCCC(=O)[O-]
REMARK SMILES IDX 7 1 6 2 5 3 4 4 2 5 1 6 3 7 8 8 9 9 10 10 11 11 12 12 13 13
REMARK H PARENT
REMARK Flexibility Score: inf
ROOT
ATOM      1  C   UNL     1     -22.308  -9.689  -4.541  1.00  0.00     0.000 C 
ENDROOT
BRANCH   1   2
ATOM      2  C   UNL     1     -21.553 -10.985  -4.883  1.00  0.00     0.000 C 
BRANCH   2   3
ATOM      3  C   UNL     1     -21.518 -11.264  -6.400  1.00  0.00     0.006 C 
BRANCH   3   4
ATOM      4  C   UNL     1     -20.653 -10.268  -7.187  1.00  0.00     0.053 C 
BRANCH   4   5
ATOM      5  C   UNL     1     -21.449  -9.489  -8.186  1.00  0.00     0.041 C 
ATOM      6  O   UNL     1     -22.605  -9.868  -8.510  1.00  0.00    -0.550 OA
ATOM      7  O   UNL     1     -20.903  -8.357  -8.780  1.00  0.00    -0.550 OA
ENDBRANCH   4   5
ENDBRANCH   3   4
ENDBRANCH   2   3
ENDBRANCH   1   2
BRANCH   1   8
ATOM      8  C   UNL     1     -23.835  -9.876  -4.506  1.00  0.00     0.000 C 
BRANCH   8   9
ATOM      9  C   UNL     1     -24.593  -9.291  -5.717  1.00  0.00     0.006 C 
BRANCH   9  10
ATOM     10  C   UNL     1     -24.413  -7.777  -5.910  1.00  0.00     0.053 C 
BRANCH  10  11
ATOM     11  C   UNL     1     -25.611  -7.007  -5.449  1.00  0.00     0.041 C 
ATOM     12  O   UNL     1     -26.233  -6.261  -6.251  1.00  0.00    -0.550 OA
ATOM     13  O   UNL     1     -26.021  -7.087  -4.124  1.00  0.00    -0.550 OA
ENDBRANCH  10  11
ENDBRANCH   9  10
ENDBRANCH   8   9
ENDBRANCH   1   8
TORSDOF 8
ENDMDL
MODEL 9
REMARK VINA RESULT:    -3.661      2.143      6.010
REMARK INTER + INTRA:          -5.738
REMARK INTER:                  -5.078
REMARK INTRA:                  -0.660
REMARK UNBOUND:                -0.365
REMARK SMILES O=C([O-])CCCCCCCC(=O)[O-]
REMARK SMILES IDX 7 1 6 2 5 3 4 4 2 5 1 6 3 7 8 8 9 9 10 10 11 11 12 12 13 13
REMARK H PARENT
REMARK Flexibility Score: inf
ROOT
ATOM      1  C   UNL     1     -21.237 -10.710  -4.947  1.00  0.00     0.000 C 
ENDROOT
BRANCH   1   2
ATOM      2  C   UNL     1     -21.176 -11.402  -6.319  1.00  0.00     0.000 C 
BRANCH   2   3
ATOM      3  C   UNL     1     -20.943 -10.404  -7.472  1.00  0.00     0.006 C 
BRANCH   3   4
ATOM      4  C   UNL     1     -19.882  -9.339  -7.156  1.00  0.00     0.053 C 
BRANCH   4   5
ATOM      5  C   UNL     1     -18.489  -9.850  -7.348  1.00  0.00     0.041 C 
ATOM      6  O   UNL     1     -17.996  -9.931  -8.503  1.00  0.00    -0.550 OA
ATOM      7  O   UNL     1     -17.742 -10.261  -6.250  1.00  0.00    -0.550 OA
ENDBRANCH   4   5
ENDBRANCH   3   4
ENDBRANCH   2   3
ENDBRANCH   1   2
BRANCH   1   8
ATOM      8  C   UNL     1     -22.641 -10.755  -4.316  1.00  0.00     0.000 C 
BRANCH   8   9
ATOM      9  C   UNL     1     -23.495  -9.488  -4.533  1.00  0.00     0.006 C 
BRANCH   9  10
ATOM     10  C   UNL     1     -24.347  -9.507  -5.812  1.00  0.00     0.053 C 
BRANCH  10  11
ATOM     11  C   UNL     1     -24.357  -8.176  -6.498  1.00  0.00     0.041 C 
ATOM     12  O   UNL     1     -23.394  -7.834  -7.234  1.00  0.00    -0.550 OA
ATOM     13  O   UNL     1     -25.415  -7.299  -6.297  1.00  0.00    -0.550 OA
ENDBRANCH  10  11
ENDBRANCH   9  10
ENDBRANCH   8   9
ENDBRANCH   1   8
TORSDOF 8
ENDMDL
