MODEL 1
REMARK VINA RESULT:    -6.141      0.000      0.000
REMARK INTER + INTRA:          -7.489
REMARK INTER:                  -7.218
REMARK INTRA:                  -0.271
REMARK UNBOUND:                -0.271
REMARK SMILES O=c1cc(-c2ccc(O)c(O)c2)oc2cc(O)cc(O)c12
REMARK SMILES IDX 4 1 3 2 2 3 1 4 21 5 19 6 18 7 16 8 15 9 14 10 13 11 5 12
REMARK SMILES IDX 6 13 7 14 8 15 12 16 10 17 9 18 11 20 20 22 17 24
REMARK H PARENT 9 19 11 21 20 23 17 25
REMARK Flexibility Score: inf
ROOT
ATOM      1  C   UNL     1      16.567  -4.705  -1.412  1.00  0.00     0.138 A 
ATOM      2  C   UNL     1      16.555  -4.392  -2.779  1.00  0.00     0.100 A 
ATOM      3  C   UNL     1      15.343  -4.112  -3.412  1.00  0.00     0.197 A 
ATOM      4  O   UNL     1      15.370  -3.773  -4.623  1.00  0.00    -0.289 OA
ATOM      5  C   UNL     1      14.135  -4.177  -2.677  1.00  0.00     0.107 A 
ATOM      6  C   UNL     1      12.837  -3.952  -3.227  1.00  0.00     0.134 A 
ATOM      7  C   UNL     1      11.723  -3.929  -2.379  1.00  0.00     0.093 A 
ATOM      8  C   UNL     1      11.851  -4.183  -1.014  1.00  0.00     0.123 A 
ATOM      9  C   UNL     1      13.108  -4.458  -0.475  1.00  0.00     0.094 A 
ATOM     10  C   UNL     1      14.243  -4.454  -1.289  1.00  0.00     0.146 A 
ATOM     11  O   UNL     1      15.424  -4.706  -0.734  1.00  0.00    -0.456 OA
ENDROOT
BRANCH   1  12
ATOM     12  C   UNL     1      17.827  -5.012  -0.690  1.00  0.00     0.021 A 
ATOM     13  C   UNL     1      17.929  -6.205   0.048  1.00  0.00     0.016 A 
ATOM     14  C   UNL     1      19.107  -6.520   0.730  1.00  0.00     0.051 A 
ATOM     15  C   UNL     1      20.206  -5.654   0.679  1.00  0.00     0.157 A 
ATOM     16  C   UNL     1      18.942  -4.151  -0.747  1.00  0.00     0.062 A 
ATOM     17  C   UNL     1      20.124  -4.469  -0.062  1.00  0.00     0.158 A 
BRANCH  15  18
ATOM     18  O   UNL     1      21.381  -5.964   1.360  1.00  0.00    -0.504 OA
ATOM     19  H   UNL     1      22.255  -6.110   0.870  1.00  0.00     0.293 HD
ENDBRANCH  15  18
BRANCH  17  20
ATOM     20  O   UNL     1      21.223  -3.614  -0.119  1.00  0.00    -0.504 OA
ATOM     21  H   UNL     1      22.172  -3.967  -0.070  1.00  0.00     0.293 HD
ENDBRANCH  17  20
ENDBRANCH   1  12
BRANCH   6  22
ATOM     22  O   UNL     1      12.587  -3.771  -4.592  1.00  0.00    -0.507 OA
ATOM     23  H   UNL     1      11.690  -3.531  -4.985  1.00  0.00     0.293 HD
ENDBRANCH   6  22
BRANCH   8  24
ATOM     24  O   UNL     1      10.718  -4.166  -0.204  1.00  0.00    -0.508 OA
ATOM     25  H   UNL     1       9.800  -4.387  -0.572  1.00  0.00     0.293 HD
ENDBRANCH   8  24
TORSDOF 5
ENDMDL
MODEL 2
REMARK VINA RESULT:    -6.024      0.903      1.532
REMARK INTER + INTRA:          -7.352
REMARK INTER:                  -7.038
REMARK INTRA:                  -0.314
REMARK UNBOUND:                -0.271
REMARK SMILES O=c1cc(-c2ccc(O)c(O)c2)oc2cc(O)cc(O)c12
REMARK SMILES IDX 4 1 3 2 2 3 1 4 21 5 19 6 18 7 16 8 15 9 14 10 13 11 5 12
REMARK SMILES IDX 6 13 7 14 8 15 12 16 10 17 9 18 11 20 20 22 17 24
REMARK H PARENT 9 19 11 21 20 23 17 25
REMARK Flexibility Score: inf
ROOT
ATOM      1  C   UNL     1      16.499  -4.165  -1.934  1.00  0.00     0.138 A 
ATOM      2  C   UNL     1      16.227  -3.965  -3.295  1.00  0.00     0.100 A 
ATOM      3  C   UNL     1      14.902  -3.912  -3.733  1.00  0.00     0.197 A 
ATOM      4  O   UNL     1      14.689  -3.670  -4.949  1.00  0.00    -0.289 OA
ATOM      5  C   UNL     1      13.848  -4.092  -2.807  1.00  0.00     0.107 A 
ATOM      6  C   UNL     1      12.462  -4.099  -3.147  1.00  0.00     0.134 A 
ATOM      7  C   UNL     1      11.502  -4.169  -2.129  1.00  0.00     0.093 A 
ATOM      8  C   UNL     1      11.878  -4.294  -0.792  1.00  0.00     0.123 A 
ATOM      9  C   UNL     1      13.231  -4.343  -0.454  1.00  0.00     0.094 A 
ATOM     10  C   UNL     1      14.211  -4.240  -1.443  1.00  0.00     0.146 A 
ATOM     11  O   UNL     1      15.488  -4.276  -1.078  1.00  0.00    -0.456 OA
ENDROOT
BRANCH   1  12
ATOM     12  C   UNL     1      17.887  -4.231  -1.414  1.00  0.00     0.021 A 
ATOM     13  C   UNL     1      18.948  -3.768  -2.212  1.00  0.00     0.016 A 
ATOM     14  C   UNL     1      20.263  -3.811  -1.742  1.00  0.00     0.051 A 
ATOM     15  C   UNL     1      20.540  -4.309  -0.462  1.00  0.00     0.157 A 
ATOM     16  C   UNL     1      18.172  -4.718  -0.121  1.00  0.00     0.062 A 
ATOM     17  C   UNL     1      19.492  -4.760   0.350  1.00  0.00     0.158 A 
BRANCH  15  18
ATOM     18  O   UNL     1      21.850  -4.355   0.009  1.00  0.00    -0.504 OA
ATOM     19  H   UNL     1      22.618  -3.958  -0.519  1.00  0.00     0.293 HD
ENDBRANCH  15  18
BRANCH  17  20
ATOM     20  O   UNL     1      19.770  -5.244   1.627  1.00  0.00    -0.504 OA
ATOM     21  H   UNL     1      19.477  -4.744   2.459  1.00  0.00     0.293 HD
ENDBRANCH  17  20
ENDBRANCH   1  12
BRANCH   6  22
ATOM     22  O   UNL     1      11.978  -4.064  -4.459  1.00  0.00    -0.507 OA
ATOM     23  H   UNL     1      11.484  -4.818  -4.911  1.00  0.00     0.293 HD
ENDBRANCH   6  22
BRANCH   8  24
ATOM     24  O   UNL     1      10.895  -4.376   0.192  1.00  0.00    -0.508 OA
ATOM     25  H   UNL     1      10.610  -3.562   0.725  1.00  0.00     0.293 HD
ENDBRANCH   8  24
TORSDOF 5
ENDMDL
MODEL 3
REMARK VINA RESULT:    -5.860      1.412      6.920
REMARK INTER + INTRA:          -7.160
REMARK INTER:                  -6.874
REMARK INTRA:                  -0.286
REMARK UNBOUND:                -0.271
REMARK SMILES O=c1cc(-c2ccc(O)c(O)c2)oc2cc(O)cc(O)c12
REMARK SMILES IDX 4 1 3 2 2 3 1 4 21 5 19 6 18 7 16 8 15 9 14 10 13 11 5 12
REMARK SMILES IDX 6 13 7 14 8 15 12 16 10 17 9 18 11 20 20 22 17 24
REMARK H PARENT 9 19 11 21 20 23 17 25
REMARK Flexibility Score: inf
ROOT
ATOM      1  C   UNL     1      15.964  -3.990  -2.176  1.00  0.00     0.138 A 
ATOM      2  C   UNL     1      16.707  -3.364  -3.186  1.00  0.00     0.100 A 
ATOM      3  C   UNL     1      18.098  -3.291  -3.076  1.00  0.00     0.197 A 
ATOM      4  O   UNL     1      18.742  -2.779  -4.028  1.00  0.00    -0.289 OA
ATOM      5  C   UNL     1      18.741  -3.822  -1.933  1.00  0.00     0.107 A 
ATOM      6  C   UNL     1      20.147  -3.769  -1.695  1.00  0.00     0.134 A 
ATOM      7  C   UNL     1      20.683  -4.431  -0.584  1.00  0.00     0.093 A 
ATOM      8  C   UNL     1      19.862  -5.091   0.329  1.00  0.00     0.123 A 
ATOM      9  C   UNL     1      18.480  -5.104   0.134  1.00  0.00     0.094 A 
ATOM     10  C   UNL     1      17.917  -4.482  -0.983  1.00  0.00     0.146 A 
ATOM     11  O   UNL     1      16.599  -4.529  -1.140  1.00  0.00    -0.456 OA
ENDROOT
BRANCH   1  12
ATOM     12  C   UNL     1      14.485  -4.094  -2.241  1.00  0.00     0.021 A 
ATOM     13  C   UNL     1      13.737  -4.082  -1.050  1.00  0.00     0.016 A 
ATOM     14  C   UNL     1      12.343  -4.171  -1.086  1.00  0.00     0.051 A 
ATOM     15  C   UNL     1      11.672  -4.264  -2.312  1.00  0.00     0.157 A 
ATOM     16  C   UNL     1      13.802  -4.175  -3.472  1.00  0.00     0.062 A 
ATOM     17  C   UNL     1      12.402  -4.263  -3.506  1.00  0.00     0.158 A 
BRANCH  15  18
ATOM     18  O   UNL     1      10.283  -4.355  -2.351  1.00  0.00    -0.504 OA
ATOM     19  H   UNL     1       9.794  -4.663  -3.183  1.00  0.00     0.293 HD
ENDBRANCH  15  18
BRANCH  17  20
ATOM     20  O   UNL     1      11.731  -4.344  -4.724  1.00  0.00    -0.504 OA
ATOM     21  H   UNL     1      11.778  -5.176  -5.302  1.00  0.00     0.293 HD
ENDBRANCH  17  20
ENDBRANCH   1  12
BRANCH   6  22
ATOM     22  O   UNL     1      21.050  -3.064  -2.498  1.00  0.00    -0.507 OA
ATOM     23  H   UNL     1      20.795  -2.506  -3.297  1.00  0.00     0.293 HD
ENDBRANCH   6  22
BRANCH   8  24
ATOM     24  O   UNL     1      20.430  -5.726   1.430  1.00  0.00    -0.508 OA
ATOM     25  H   UNL     1      21.202  -6.375   1.328  1.00  0.00     0.293 HD
ENDBRANCH   8  24
TORSDOF 5
ENDMDL
MODEL 4
REMARK VINA RESULT:    -5.725     12.706     14.767
REMARK INTER + INTRA:          -7.001
REMARK INTER:                  -6.724
REMARK INTRA:                  -0.276
REMARK UNBOUND:                -0.271
REMARK SMILES O=c1cc(-c2ccc(O)c(O)c2)oc2cc(O)cc(O)c12
REMARK SMILES IDX 4 1 3 2 2 3 1 4 21 5 19 6 18 7 16 8 15 9 14 10 13 11 5 12
REMARK SMILES IDX 6 13 7 14 8 15 12 16 10 17 9 18 11 20 20 22 17 24
REMARK H PARENT 9 19 11 21 20 23 17 25
REMARK Flexibility Score: inf
ROOT
ATOM      1  C   UNL     1      16.774  -3.895 -15.489  1.00  0.00     0.138 A 
ATOM      2  C   UNL     1      16.416  -4.065 -14.145  1.00  0.00     0.100 A 
ATOM      3  C   UNL     1      15.141  -3.688 -13.717  1.00  0.00     0.197 A 
ATOM      4  O   UNL     1      14.827  -3.910 -12.519  1.00  0.00    -0.289 OA
ATOM      5  C   UNL     1      14.235  -3.109 -14.637  1.00  0.00     0.107 A 
ATOM      6  C   UNL     1      12.925  -2.649 -14.304  1.00  0.00     0.134 A 
ATOM      7  C   UNL     1      12.073  -2.200 -15.322  1.00  0.00     0.093 A 
ATOM      8  C   UNL     1      12.503  -2.137 -16.646  1.00  0.00     0.123 A 
ATOM      9  C   UNL     1      13.800  -2.534 -16.974  1.00  0.00     0.094 A 
ATOM     10  C   UNL     1      14.662  -3.019 -15.988  1.00  0.00     0.146 A 
ATOM     11  O   UNL     1      15.884  -3.400 -16.343  1.00  0.00    -0.456 OA
ENDROOT
BRANCH   1  12
ATOM     12  C   UNL     1      18.115  -4.279 -15.997  1.00  0.00     0.021 A 
ATOM     13  C   UNL     1      18.820  -3.390 -16.829  1.00  0.00     0.016 A 
ATOM     14  C   UNL     1      20.087  -3.724 -17.314  1.00  0.00     0.051 A 
ATOM     15  C   UNL     1      20.676  -4.947 -16.968  1.00  0.00     0.157 A 
ATOM     16  C   UNL     1      18.720  -5.502 -15.643  1.00  0.00     0.062 A 
ATOM     17  C   UNL     1      19.992  -5.835 -16.130  1.00  0.00     0.158 A 
BRANCH  15  18
ATOM     18  O   UNL     1      21.938  -5.284 -17.451  1.00  0.00    -0.504 OA
ATOM     19  H   UNL     1      22.548  -4.592 -17.870  1.00  0.00     0.293 HD
ENDBRANCH  15  18
BRANCH  17  20
ATOM     20  O   UNL     1      20.586  -7.047 -15.779  1.00  0.00    -0.504 OA
ATOM     21  H   UNL     1      20.053  -7.908 -15.742  1.00  0.00     0.293 HD
ENDBRANCH  17  20
ENDBRANCH   1  12
BRANCH   6  22
ATOM     22  O   UNL     1      12.425  -2.589 -13.000  1.00  0.00    -0.507 OA
ATOM     23  H   UNL     1      12.533  -1.804 -12.377  1.00  0.00     0.293 HD
ENDBRANCH   6  22
BRANCH   8  24
ATOM     24  O   UNL     1      11.633  -1.672 -17.629  1.00  0.00    -0.508 OA
ATOM     25  H   UNL     1      10.695  -1.360 -17.402  1.00  0.00     0.293 HD
ENDBRANCH   8  24
TORSDOF 5
ENDMDL
MODEL 5
REMARK VINA RESULT:    -5.695      2.362      7.252
REMARK INTER + INTRA:          -6.966
REMARK INTER:                  -6.690
REMARK INTRA:                  -0.276
REMARK UNBOUND:                -0.271
REMARK SMILES O=c1cc(-c2ccc(O)c(O)c2)oc2cc(O)cc(O)c12
REMARK SMILES IDX 4 1 3 2 2 3 1 4 21 5 19 6 18 7 16 8 15 9 14 10 13 11 5 12
REMARK SMILES IDX 6 13 7 14 8 15 12 16 10 17 9 18 11 20 20 22 17 24
REMARK H PARENT 9 19 11 21 20 23 17 25
REMARK Flexibility Score: inf
ROOT
ATOM      1  C   UNL     1      15.521  -3.815  -2.623  1.00  0.00     0.138 A 
ATOM      2  C   UNL     1      16.337  -4.466  -1.687  1.00  0.00     0.100 A 
ATOM      3  C   UNL     1      17.718  -4.257  -1.712  1.00  0.00     0.197 A 
ATOM      4  O   UNL     1      18.417  -4.805  -0.822  1.00  0.00    -0.289 OA
ATOM      5  C   UNL     1      18.283  -3.416  -2.700  1.00  0.00     0.107 A 
ATOM      6  C   UNL     1      19.680  -3.162  -2.847  1.00  0.00     0.134 A 
ATOM      7  C   UNL     1      20.115  -2.220  -3.788  1.00  0.00     0.093 A 
ATOM      8  C   UNL     1      19.211  -1.569  -4.627  1.00  0.00     0.123 A 
ATOM      9  C   UNL     1      17.848  -1.850  -4.528  1.00  0.00     0.094 A 
ATOM     10  C   UNL     1      17.380  -2.759  -3.577  1.00  0.00     0.146 A 
ATOM     11  O   UNL     1      16.073  -2.987  -3.504  1.00  0.00    -0.456 OA
ENDROOT
BRANCH   1  12
ATOM     12  C   UNL     1      14.049  -4.002  -2.642  1.00  0.00     0.021 A 
ATOM     13  C   UNL     1      13.399  -4.253  -3.864  1.00  0.00     0.016 A 
ATOM     14  C   UNL     1      12.015  -4.440  -3.907  1.00  0.00     0.051 A 
ATOM     15  C   UNL     1      11.258  -4.389  -2.730  1.00  0.00     0.157 A 
ATOM     16  C   UNL     1      13.282  -3.964  -1.460  1.00  0.00     0.062 A 
ATOM     17  C   UNL     1      11.893  -4.153  -1.505  1.00  0.00     0.158 A 
BRANCH  15  18
ATOM     18  O   UNL     1       9.878  -4.573  -2.770  1.00  0.00    -0.504 OA
ATOM     19  H   UNL     1       9.458  -5.329  -3.298  1.00  0.00     0.293 HD
ENDBRANCH  15  18
BRANCH  17  20
ATOM     20  O   UNL     1      11.138  -4.113  -0.334  1.00  0.00    -0.504 OA
ATOM     21  H   UNL     1      11.533  -3.791   0.542  1.00  0.00     0.293 HD
ENDBRANCH  17  20
ENDBRANCH   1  12
BRANCH   6  22
ATOM     22  O   UNL     1      20.676  -3.820  -2.117  1.00  0.00    -0.507 OA
ATOM     23  H   UNL     1      21.543  -3.401  -1.818  1.00  0.00     0.293 HD
ENDBRANCH   6  22
BRANCH   8  24
ATOM     24  O   UNL     1      19.682  -0.649  -5.561  1.00  0.00    -0.508 OA
ATOM     25  H   UNL     1      20.541  -0.132  -5.409  1.00  0.00     0.293 HD
ENDBRANCH   8  24
TORSDOF 5
ENDMDL
MODEL 6
REMARK VINA RESULT:    -5.666      1.493      7.307
REMARK INTER + INTRA:          -6.931
REMARK INTER:                  -6.619
REMARK INTRA:                  -0.312
REMARK UNBOUND:                -0.271
REMARK SMILES O=c1cc(-c2ccc(O)c(O)c2)oc2cc(O)cc(O)c12
REMARK SMILES IDX 4 1 3 2 2 3 1 4 21 5 19 6 18 7 16 8 15 9 14 10 13 11 5 12
REMARK SMILES IDX 6 13 7 14 8 15 12 16 10 17 9 18 11 20 20 22 17 24
REMARK H PARENT 9 19 11 21 20 23 17 25
REMARK Flexibility Score: inf
ROOT
ATOM      1  C   UNL     1      16.110  -4.523  -0.899  1.00  0.00     0.138 A 
ATOM      2  C   UNL     1      16.390  -5.087   0.353  1.00  0.00     0.100 A 
ATOM      3  C   UNL     1      17.717  -5.253   0.754  1.00  0.00     0.197 A 
ATOM      4  O   UNL     1      17.937  -5.704   1.908  1.00  0.00    -0.289 OA
ATOM      5  C   UNL     1      18.767  -4.879  -0.119  1.00  0.00     0.107 A 
ATOM      6  C   UNL     1      20.156  -5.040   0.167  1.00  0.00     0.134 A 
ATOM      7  C   UNL     1      21.107  -4.527  -0.724  1.00  0.00     0.093 A 
ATOM      8  C   UNL     1      20.722  -3.914  -1.915  1.00  0.00     0.123 A 
ATOM      9  C   UNL     1      19.368  -3.800  -2.230  1.00  0.00     0.094 A 
ATOM     10  C   UNL     1      18.394  -4.271  -1.347  1.00  0.00     0.146 A 
ATOM     11  O   UNL     1      17.115  -4.130  -1.676  1.00  0.00    -0.456 OA
ENDROOT
BRANCH   1  12
ATOM     12  C   UNL     1      14.718  -4.324  -1.376  1.00  0.00     0.021 A 
ATOM     13  C   UNL     1      13.665  -4.294  -0.444  1.00  0.00     0.016 A 
ATOM     14  C   UNL     1      12.348  -4.100  -0.867  1.00  0.00     0.051 A 
ATOM     15  C   UNL     1      12.061  -3.925  -2.226  1.00  0.00     0.157 A 
ATOM     16  C   UNL     1      14.423  -4.134  -2.741  1.00  0.00     0.062 A 
ATOM     17  C   UNL     1      13.100  -3.939  -3.164  1.00  0.00     0.158 A 
BRANCH  15  18
ATOM     18  O   UNL     1      10.748  -3.734  -2.652  1.00  0.00    -0.504 OA
ATOM     19  H   UNL     1      10.055  -4.469  -2.580  1.00  0.00     0.293 HD
ENDBRANCH  15  18
BRANCH  17  20
ATOM     20  O   UNL     1      12.812  -3.753  -4.515  1.00  0.00    -0.504 OA
ATOM     21  H   UNL     1      13.458  -3.278  -5.135  1.00  0.00     0.293 HD
ENDBRANCH  17  20
ENDBRANCH   1  12
BRANCH   6  22
ATOM     22  O   UNL     1      20.651  -5.712   1.289  1.00  0.00    -0.507 OA
ATOM     23  H   UNL     1      20.309  -6.599   1.626  1.00  0.00     0.293 HD
ENDBRANCH   6  22
BRANCH   8  24
ATOM     24  O   UNL     1      21.697  -3.428  -2.784  1.00  0.00    -0.508 OA
ATOM     25  H   UNL     1      22.602  -3.878  -2.870  1.00  0.00     0.293 HD
ENDBRANCH   8  24
TORSDOF 5
ENDMDL
MODEL 7
REMARK VINA RESULT:    -5.609      2.092      7.232
REMARK INTER + INTRA:          -6.864
REMARK INTER:                  -6.551
REMARK INTRA:                  -0.312
REMARK UNBOUND:                -0.271
REMARK SMILES O=c1cc(-c2ccc(O)c(O)c2)oc2cc(O)cc(O)c12
REMARK SMILES IDX 4 1 3 2 2 3 1 4 21 5 19 6 18 7 16 8 15 9 14 10 13 11 5 12
REMARK SMILES IDX 6 13 7 14 8 15 12 16 10 17 9 18 11 20 20 22 17 24
REMARK H PARENT 9 19 11 21 20 23 17 25
REMARK Flexibility Score: inf
ROOT
ATOM      1  C   UNL     1      17.342  -3.758  -2.816  1.00  0.00     0.138 A 
ATOM      2  C   UNL     1      18.175  -2.855  -3.491  1.00  0.00     0.100 A 
ATOM      3  C   UNL     1      19.501  -2.700  -3.080  1.00  0.00     0.197 A 
ATOM      4  O   UNL     1      20.242  -1.929  -3.744  1.00  0.00    -0.289 OA
ATOM      5  C   UNL     1      19.982  -3.431  -1.968  1.00  0.00     0.107 A 
ATOM      6  C   UNL     1      21.302  -3.324  -1.436  1.00  0.00     0.134 A 
ATOM      7  C   UNL     1      21.701  -4.183  -0.404  1.00  0.00     0.093 A 
ATOM      8  C   UNL     1      20.813  -5.102   0.153  1.00  0.00     0.123 A 
ATOM      9  C   UNL     1      19.504  -5.178  -0.324  1.00  0.00     0.094 A 
ATOM     10  C   UNL     1      19.086  -4.359  -1.374  1.00  0.00     0.146 A 
ATOM     11  O   UNL     1      17.835  -4.472  -1.810  1.00  0.00    -0.456 OA
ENDROOT
BRANCH   1  12
ATOM     12  C   UNL     1      15.925  -3.961  -3.210  1.00  0.00     0.021 A 
ATOM     13  C   UNL     1      15.273  -2.981  -3.979  1.00  0.00     0.016 A 
ATOM     14  C   UNL     1      13.943  -3.153  -4.369  1.00  0.00     0.051 A 
ATOM     15  C   UNL     1      13.244  -4.311  -4.006  1.00  0.00     0.157 A 
ATOM     16  C   UNL     1      15.219  -5.130  -2.859  1.00  0.00     0.062 A 
ATOM     17  C   UNL     1      13.884  -5.301  -3.252  1.00  0.00     0.158 A 
BRANCH  15  18
ATOM     18  O   UNL     1      11.916  -4.484  -4.391  1.00  0.00    -0.504 OA
ATOM     19  H   UNL     1      11.164  -3.968  -3.951  1.00  0.00     0.293 HD
ENDBRANCH  15  18
BRANCH  17  20
ATOM     20  O   UNL     1      13.189  -6.457  -2.901  1.00  0.00    -0.504 OA
ATOM     21  H   UNL     1      12.703  -6.536  -2.015  1.00  0.00     0.293 HD
ENDBRANCH  17  20
ENDBRANCH   1  12
BRANCH   6  22
ATOM     22  O   UNL     1      22.243  -2.381  -1.863  1.00  0.00    -0.507 OA
ATOM     23  H   UNL     1      22.184  -1.857  -2.722  1.00  0.00     0.293 HD
ENDBRANCH   6  22
BRANCH   8  24
ATOM     24  O   UNL     1      21.242  -5.930   1.188  1.00  0.00    -0.508 OA
ATOM     25  H   UNL     1      20.590  -6.497   1.718  1.00  0.00     0.293 HD
ENDBRANCH   8  24
TORSDOF 5
ENDMDL
MODEL 8
REMARK VINA RESULT:    -5.504     12.925     16.851
REMARK INTER + INTRA:          -6.741
REMARK INTER:                  -6.425
REMARK INTRA:                  -0.316
REMARK UNBOUND:                -0.271
REMARK SMILES O=c1cc(-c2ccc(O)c(O)c2)oc2cc(O)cc(O)c12
REMARK SMILES IDX 4 1 3 2 2 3 1 4 21 5 19 6 18 7 16 8 15 9 14 10 13 11 5 12
REMARK SMILES IDX 6 13 7 14 8 15 12 16 10 17 9 18 11 20 20 22 17 24
REMARK H PARENT 9 19 11 21 20 23 17 25
REMARK Flexibility Score: inf
ROOT
ATOM      1  C   UNL     1      11.779  -0.994 -16.282  1.00  0.00     0.138 A 
ATOM      2  C   UNL     1      12.728  -0.854 -17.304  1.00  0.00     0.100 A 
ATOM      3  C   UNL     1      13.986  -1.445 -17.165  1.00  0.00     0.197 A 
ATOM      4  O   UNL     1      14.794  -1.355 -18.124  1.00  0.00    -0.289 OA
ATOM      5  C   UNL     1      14.301  -2.154 -15.981  1.00  0.00     0.107 A 
ATOM      6  C   UNL     1      15.564  -2.763 -15.712  1.00  0.00     0.134 A 
ATOM      7  C   UNL     1      15.723  -3.538 -14.557  1.00  0.00     0.093 A 
ATOM      8  C   UNL     1      14.688  -3.676 -13.633  1.00  0.00     0.123 A 
ATOM      9  C   UNL     1      13.467  -3.041 -13.860  1.00  0.00     0.094 A 
ATOM     10  C   UNL     1      13.265  -2.289 -15.019  1.00  0.00     0.146 A 
ATOM     11  O   UNL     1      12.083  -1.712 -15.206  1.00  0.00    -0.456 OA
ENDROOT
BRANCH   1  12
ATOM     12  C   UNL     1      10.429  -0.386 -16.378  1.00  0.00     0.021 A 
ATOM     13  C   UNL     1      10.171   0.573 -17.374  1.00  0.00     0.016 A 
ATOM     14  C   UNL     1       8.905   1.154 -17.490  1.00  0.00     0.051 A 
ATOM     15  C   UNL     1       7.874   0.781 -16.619  1.00  0.00     0.157 A 
ATOM     16  C   UNL     1       9.382  -0.765 -15.513  1.00  0.00     0.062 A 
ATOM     17  C   UNL     1       8.113  -0.181 -15.631  1.00  0.00     0.158 A 
BRANCH  15  18
ATOM     18  O   UNL     1       6.612   1.360 -16.730  1.00  0.00    -0.504 OA
ATOM     19  H   UNL     1       6.364   1.944 -17.521  1.00  0.00     0.293 HD
ENDBRANCH  15  18
BRANCH  17  20
ATOM     20  O   UNL     1       7.081  -0.558 -14.773  1.00  0.00    -0.504 OA
ATOM     21  H   UNL     1       6.142  -0.727 -15.113  1.00  0.00     0.293 HD
ENDBRANCH  17  20
ENDBRANCH   1  12
BRANCH   6  22
ATOM     22  O   UNL     1      16.691  -2.619 -16.527  1.00  0.00    -0.507 OA
ATOM     23  H   UNL     1      17.181  -3.379 -16.973  1.00  0.00     0.293 HD
ENDBRANCH   6  22
BRANCH   8  24
ATOM     24  O   UNL     1      14.888  -4.443 -12.487  1.00  0.00    -0.508 OA
ATOM     25  H   UNL     1      14.481  -4.181 -11.596  1.00  0.00     0.293 HD
ENDBRANCH   8  24
TORSDOF 5
ENDMDL
MODEL 9
REMARK VINA RESULT:    -5.153      2.157      7.687
REMARK INTER + INTRA:          -6.329
REMARK INTER:                  -6.012
REMARK INTRA:                  -0.316
REMARK UNBOUND:                -0.271
REMARK SMILES O=c1cc(-c2ccc(O)c(O)c2)oc2cc(O)cc(O)c12
REMARK SMILES IDX 4 1 3 2 2 3 1 4 21 5 19 6 18 7 16 8 15 9 14 10 13 11 5 12
REMARK SMILES IDX 6 13 7 14 8 15 12 16 10 17 9 18 11 20 20 22 17 24
REMARK H PARENT 9 19 11 21 20 23 17 25
REMARK Flexibility Score: inf
ROOT
ATOM      1  C   UNL     1      17.795  -3.952  -2.156  1.00  0.00     0.138 A 
ATOM      2  C   UNL     1      18.096  -4.675  -0.994  1.00  0.00     0.100 A 
ATOM      3  C   UNL     1      19.392  -4.638  -0.474  1.00  0.00     0.197 A 
ATOM      4  O   UNL     1      19.617  -5.246   0.604  1.00  0.00    -0.289 OA
ATOM      5  C   UNL     1      20.396  -3.897  -1.142  1.00  0.00     0.107 A 
ATOM      6  C   UNL     1      21.759  -3.820  -0.727  1.00  0.00     0.134 A 
ATOM      7  C   UNL     1      22.638  -2.962  -1.400  1.00  0.00     0.093 A 
ATOM      8  C   UNL     1      22.219  -2.226  -2.507  1.00  0.00     0.123 A 
ATOM      9  C   UNL     1      20.902  -2.334  -2.954  1.00  0.00     0.094 A 
ATOM     10  C   UNL     1      19.993  -3.155  -2.284  1.00  0.00     0.146 A 
ATOM     11  O   UNL     1      18.743  -3.220  -2.732  1.00  0.00    -0.456 OA
ENDROOT
BRANCH   1  12
ATOM     12  C   UNL     1      16.436  -3.957  -2.752  1.00  0.00     0.021 A 
ATOM     13  C   UNL     1      15.366  -4.515  -2.030  1.00  0.00     0.016 A 
ATOM     14  C   UNL     1      14.075  -4.524  -2.565  1.00  0.00     0.051 A 
ATOM     15  C   UNL     1      13.830  -3.968  -3.827  1.00  0.00     0.157 A 
ATOM     16  C   UNL     1      16.179  -3.387  -4.016  1.00  0.00     0.062 A 
ATOM     17  C   UNL     1      14.882  -3.396  -4.551  1.00  0.00     0.158 A 
BRANCH  15  18
ATOM     18  O   UNL     1      12.545  -3.977  -4.365  1.00  0.00    -0.504 OA
ATOM     19  H   UNL     1      11.926  -3.180  -4.274  1.00  0.00     0.293 HD
ENDBRANCH  15  18
BRANCH  17  20
ATOM     20  O   UNL     1      14.633  -2.833  -5.802  1.00  0.00    -0.504 OA
ATOM     21  H   UNL     1      14.313  -1.876  -5.899  1.00  0.00     0.293 HD
ENDBRANCH  17  20
ENDBRANCH   1  12
BRANCH   6  22
ATOM     22  O   UNL     1      22.303  -4.578   0.315  1.00  0.00    -0.507 OA
ATOM     23  H   UNL     1      22.191  -5.574   0.422  1.00  0.00     0.293 HD
ENDBRANCH   6  22
BRANCH   8  24
ATOM     24  O   UNL     1      23.125  -1.393  -3.161  1.00  0.00    -0.508 OA
ATOM     25  H   UNL     1      22.813  -0.627  -3.747  1.00  0.00     0.293 HD
ENDBRANCH   8  24
TORSDOF 5
ENDMDL
