MODEL 1
REMARK VINA RESULT:    -4.634      0.000      0.000
REMARK INTER + INTRA:          -7.777
REMARK INTER:                  -7.071
REMARK INTRA:                  -0.706
REMARK UNBOUND:                -0.706
REMARK SMILES O=C([O-])CCCCCCCCC(=O)[O-]
REMARK SMILES IDX 7 1 6 2 5 3 4 4 2 5 1 6 3 7 8 8 9 9 10 10 11 11 12 12 13 13
REMARK SMILES IDX 14 14
REMARK H PARENT
REMARK Flexibility Score: inf
ROOT
ATOM      1  C   UNL     1      52.671  59.197  93.059  1.00  0.00     0.000 C 
ENDROOT
BRANCH   1   2
ATOM      2  C   UNL     1      52.504  60.669  92.659  1.00  0.00     0.000 C 
BRANCH   2   3
ATOM      3  C   UNL     1      51.258  61.281  93.316  1.00  0.00     0.006 C 
BRANCH   3   4
ATOM      4  C   UNL     1      50.113  60.267  93.444  1.00  0.00     0.053 C 
BRANCH   4   5
ATOM      5  C   UNL     1      49.640  60.136  94.859  1.00  0.00     0.041 C 
ATOM      6  O   UNL     1      49.463  61.163  95.566  1.00  0.00    -0.550 OA
ATOM      7  O   UNL     1      49.429  58.878  95.410  1.00  0.00    -0.550 OA
ENDBRANCH   4   5
ENDBRANCH   3   4
ENDBRANCH   2   3
ENDBRANCH   1   2
BRANCH   1   8
ATOM      8  C   UNL     1      53.038  58.292  91.871  1.00  0.00     0.000 C 
BRANCH   8   9
ATOM      9  C   UNL     1      51.907  57.325  91.458  1.00  0.00     0.000 C 
BRANCH   9  10
ATOM     10  C   UNL     1      51.337  56.551  92.660  1.00  0.00     0.006 C 
BRANCH  10  11
ATOM     11  C   UNL     1      52.010  55.185  92.843  1.00  0.00     0.053 C 
BRANCH  11  12
ATOM     12  C   UNL     1      52.842  55.135  94.088  1.00  0.00     0.041 C 
ATOM     13  O   UNL     1      53.733  54.255  94.220  1.00  0.00    -0.550 OA
ATOM     14  O   UNL     1      52.609  56.039  95.116  1.00  0.00    -0.550 OA
ENDBRANCH  11  12
ENDBRANCH  10  11
ENDBRANCH   9  10
ENDBRANCH   8   9
ENDBRANCH   1   8
TORSDOF 9
ENDMDL
MODEL 2
REMARK VINA RESULT:    -4.629      1.893      2.743
REMARK INTER + INTRA:          -7.771
REMARK INTER:                  -6.939
REMARK INTRA:                  -0.831
REMARK UNBOUND:                -0.706
REMARK SMILES O=C([O-])CCCCCCCCC(=O)[O-]
REMARK SMILES IDX 7 1 6 2 5 3 4 4 2 5 1 6 3 7 8 8 9 9 10 10 11 11 12 12 13 13
REMARK SMILES IDX 14 14
REMARK H PARENT
REMARK Flexibility Score: inf
ROOT
ATOM      1  C   UNL     1      53.407  57.654  94.042  1.00  0.00     0.000 C 
ENDROOT
BRANCH   1   2
ATOM      2  C   UNL     1      52.741  58.608  93.041  1.00  0.00     0.000 C 
BRANCH   2   3
ATOM      3  C   UNL     1      51.210  58.536  93.148  1.00  0.00     0.006 C 
BRANCH   3   4
ATOM      4  C   UNL     1      50.579  59.916  93.375  1.00  0.00     0.053 C 
BRANCH   4   5
ATOM      5  C   UNL     1      49.832  59.980  94.672  1.00  0.00     0.041 C 
ATOM      6  O   UNL     1      49.484  58.920  95.256  1.00  0.00    -0.550 OA
ATOM      7  O   UNL     1      49.487  61.210  95.217  1.00  0.00    -0.550 OA
ENDBRANCH   4   5
ENDBRANCH   3   4
ENDBRANCH   2   3
ENDBRANCH   1   2
BRANCH   1   8
ATOM      8  C   UNL     1      52.396  56.947  94.960  1.00  0.00     0.000 C 
BRANCH   8   9
ATOM      9  C   UNL     1      52.632  55.426  95.084  1.00  0.00     0.000 C 
BRANCH   9  10
ATOM     10  C   UNL     1      52.931  54.773  93.723  1.00  0.00     0.006 C 
BRANCH  10  11
ATOM     11  C   UNL     1      51.690  54.710  92.823  1.00  0.00     0.053 C 
BRANCH  11  12
ATOM     12  C   UNL     1      52.053  54.734  91.370  1.00  0.00     0.041 C 
ATOM     13  O   UNL     1      52.410  53.676  90.789  1.00  0.00    -0.550 OA
ATOM     14  O   UNL     1      52.032  55.932  90.667  1.00  0.00    -0.550 OA
ENDBRANCH  11  12
ENDBRANCH  10  11
ENDBRANCH   9  10
ENDBRANCH   8   9
ENDBRANCH   1   8
TORSDOF 9
ENDMDL
MODEL 3
REMARK VINA RESULT:    -4.600      1.636      5.603
REMARK INTER + INTRA:          -7.727
REMARK INTER:                  -7.072
REMARK INTRA:                  -0.655
REMARK UNBOUND:                -0.706
REMARK SMILES O=C([O-])CCCCCCCCC(=O)[O-]
REMARK SMILES IDX 7 1 6 2 5 3 4 4 2 5 1 6 3 7 8 8 9 9 10 10 11 11 12 12 13 13
REMARK SMILES IDX 14 14
REMARK H PARENT
REMARK Flexibility Score: inf
ROOT
ATOM      1  C   UNL     1      53.404  58.132  93.725  1.00  0.00     0.000 C 
ENDROOT
BRANCH   1   2
ATOM      2  C   UNL     1      52.681  56.925  94.339  1.00  0.00     0.000 C 
BRANCH   2   3
ATOM      3  C   UNL     1      51.994  56.084  93.253  1.00  0.00     0.006 C 
BRANCH   3   4
ATOM      4  C   UNL     1      52.492  54.633  93.242  1.00  0.00     0.053 C 
BRANCH   4   5
ATOM      5  C   UNL     1      51.927  53.858  92.091  1.00  0.00     0.041 C 
ATOM      6  O   UNL     1      51.003  53.025  92.281  1.00  0.00    -0.550 OA
ATOM      7  O   UNL     1      52.447  54.030  90.814  1.00  0.00    -0.550 OA
ENDBRANCH   4   5
ENDBRANCH   3   4
ENDBRANCH   2   3
ENDBRANCH   1   2
BRANCH   1   8
ATOM      8  C   UNL     1      52.789  58.583  92.389  1.00  0.00     0.000 C 
BRANCH   8   9
ATOM      9  C   UNL     1      52.735  60.116  92.219  1.00  0.00     0.000 C 
BRANCH   9  10
ATOM     10  C   UNL     1      51.786  60.779  93.234  1.00  0.00     0.006 C 
BRANCH  10  11
ATOM     11  C   UNL     1      50.395  60.131  93.237  1.00  0.00     0.053 C 
BRANCH  11  12
ATOM     12  C   UNL     1      49.830  60.032  94.621  1.00  0.00     0.041 C 
ATOM     13  O   UNL     1      49.445  61.068  95.224  1.00  0.00    -0.550 OA
ATOM     14  O   UNL     1      49.762  58.800  95.258  1.00  0.00    -0.550 OA
ENDBRANCH  11  12
ENDBRANCH  10  11
ENDBRANCH   9  10
ENDBRANCH   8   9
ENDBRANCH   1   8
TORSDOF 9
ENDMDL
MODEL 4
REMARK VINA RESULT:    -4.594      2.394      5.574
REMARK INTER + INTRA:          -7.717
REMARK INTER:                  -7.062
REMARK INTRA:                  -0.655
REMARK UNBOUND:                -0.706
REMARK SMILES O=C([O-])CCCCCCCCC(=O)[O-]
REMARK SMILES IDX 7 1 6 2 5 3 4 4 2 5 1 6 3 7 8 8 9 9 10 10 11 11 12 12 13 13
REMARK SMILES IDX 14 14
REMARK H PARENT
REMARK Flexibility Score: inf
ROOT
ATOM      1  C   UNL     1      50.399  57.883  94.360  1.00  0.00     0.000 C 
ENDROOT
BRANCH   1   2
ATOM      2  C   UNL     1      51.699  57.416  95.030  1.00  0.00     0.000 C 
BRANCH   2   3
ATOM      3  C   UNL     1      52.697  56.890  93.989  1.00  0.00     0.006 C 
BRANCH   3   4
ATOM      4  C   UNL     1      52.015  56.041  92.908  1.00  0.00     0.053 C 
BRANCH   4   5
ATOM      5  C   UNL     1      52.376  54.592  93.029  1.00  0.00     0.041 C 
ATOM      6  O   UNL     1      53.322  54.234  93.778  1.00  0.00    -0.550 OA
ATOM      7  O   UNL     1      51.691  53.640  92.284  1.00  0.00    -0.550 OA
ENDBRANCH   4   5
ENDBRANCH   3   4
ENDBRANCH   2   3
ENDBRANCH   1   2
BRANCH   1   8
ATOM      8  C   UNL     1      49.608  58.883  95.219  1.00  0.00     0.000 C 
BRANCH   8   9
ATOM      9  C   UNL     1      49.716  60.343  94.727  1.00  0.00     0.000 C 
BRANCH   9  10
ATOM     10  C   UNL     1      50.357  60.438  93.331  1.00  0.00     0.006 C 
BRANCH  10  11
ATOM     11  C   UNL     1      51.662  61.245  93.344  1.00  0.00     0.053 C 
BRANCH  11  12
ATOM     12  C   UNL     1      52.611  60.787  92.279  1.00  0.00     0.041 C 
ATOM     13  O   UNL     1      52.815  59.558  92.098  1.00  0.00    -0.550 OA
ATOM     14  O   UNL     1      53.297  61.719  91.511  1.00  0.00    -0.550 OA
ENDBRANCH  11  12
ENDBRANCH  10  11
ENDBRANCH   9  10
ENDBRANCH   8   9
ENDBRANCH   1   8
TORSDOF 9
ENDMDL
MODEL 5
REMARK VINA RESULT:    -4.588      0.170      5.120
REMARK INTER + INTRA:          -7.709
REMARK INTER:                  -6.963
REMARK INTRA:                  -0.745
REMARK UNBOUND:                -0.706
REMARK SMILES O=C([O-])CCCCCCCCC(=O)[O-]
REMARK SMILES IDX 7 1 6 2 5 3 4 4 2 5 1 6 3 7 8 8 9 9 10 10 11 11 12 12 13 13
REMARK SMILES IDX 14 14
REMARK H PARENT
REMARK Flexibility Score: inf
ROOT
ATOM      1  C   UNL     1      52.904  58.095  91.815  1.00  0.00     0.000 C 
ENDROOT
BRANCH   1   2
ATOM      2  C   UNL     1      51.634  57.294  91.495  1.00  0.00     0.000 C 
BRANCH   2   3
ATOM      3  C   UNL     1      51.203  56.441  92.699  1.00  0.00     0.006 C 
BRANCH   3   4
ATOM      4  C   UNL     1      52.002  55.135  92.799  1.00  0.00     0.053 C 
BRANCH   4   5
ATOM      5  C   UNL     1      52.816  55.075  94.055  1.00  0.00     0.041 C 
ATOM      6  O   UNL     1      52.554  55.843  95.018  1.00  0.00    -0.550 OA
ATOM      7  O   UNL     1      53.888  54.196  94.148  1.00  0.00    -0.550 OA
ENDBRANCH   4   5
ENDBRANCH   3   4
ENDBRANCH   2   3
ENDBRANCH   1   2
BRANCH   1   8
ATOM      8  C   UNL     1      52.723  59.057  93.000  1.00  0.00     0.000 C 
BRANCH   8   9
ATOM      9  C   UNL     1      52.551  60.532  92.580  1.00  0.00     0.000 C 
BRANCH   9  10
ATOM     10  C   UNL     1      51.359  61.202  93.286  1.00  0.00     0.006 C 
BRANCH  10  11
ATOM     11  C   UNL     1      50.141  60.273  93.379  1.00  0.00     0.053 C 
BRANCH  11  12
ATOM     12  C   UNL     1      49.682  60.095  94.794  1.00  0.00     0.041 C 
ATOM     13  O   UNL     1      49.581  58.942  95.287  1.00  0.00    -0.550 OA
ATOM     14  O   UNL     1      49.333  61.203  95.556  1.00  0.00    -0.550 OA
ENDBRANCH  11  12
ENDBRANCH  10  11
ENDBRANCH   9  10
ENDBRANCH   8   9
ENDBRANCH   1   8
TORSDOF 9
ENDMDL
MODEL 6
REMARK VINA RESULT:    -4.580      1.653      2.547
REMARK INTER + INTRA:          -7.695
REMARK INTER:                  -6.812
REMARK INTRA:                  -0.883
REMARK UNBOUND:                -0.706
REMARK SMILES O=C([O-])CCCCCCCCC(=O)[O-]
REMARK SMILES IDX 7 1 6 2 5 3 4 4 2 5 1 6 3 7 8 8 9 9 10 10 11 11 12 12 13 13
REMARK SMILES IDX 14 14
REMARK H PARENT
REMARK Flexibility Score: inf
ROOT
ATOM      1  C   UNL     1      53.498  59.356  91.132  1.00  0.00     0.000 C 
ENDROOT
BRANCH   1   2
ATOM      2  C   UNL     1      52.973  60.710  91.631  1.00  0.00     0.000 C 
BRANCH   2   3
ATOM      3  C   UNL     1      52.336  60.574  93.022  1.00  0.00     0.006 C 
BRANCH   3   4
ATOM      4  C   UNL     1      51.436  61.768  93.366  1.00  0.00     0.053 C 
BRANCH   4   5
ATOM      5  C   UNL     1      50.044  61.335  93.711  1.00  0.00     0.041 C 
ATOM      6  O   UNL     1      49.239  61.006  92.801  1.00  0.00    -0.550 OA
ATOM      7  O   UNL     1      49.623  61.332  95.035  1.00  0.00    -0.550 OA
ENDBRANCH   4   5
ENDBRANCH   3   4
ENDBRANCH   2   3
ENDBRANCH   1   2
BRANCH   1   8
ATOM      8  C   UNL     1      53.089  58.184  92.039  1.00  0.00     0.000 C 
BRANCH   8   9
ATOM      9  C   UNL     1      52.048  57.240  91.399  1.00  0.00     0.000 C 
BRANCH   9  10
ATOM     10  C   UNL     1      51.121  56.602  92.450  1.00  0.00     0.006 C 
BRANCH  10  11
ATOM     11  C   UNL     1      50.118  57.608  93.028  1.00  0.00     0.053 C 
BRANCH  11  12
ATOM     12  C   UNL     1      50.304  57.795  94.503  1.00  0.00     0.041 C 
ATOM     13  O   UNL     1      49.349  58.199  95.216  1.00  0.00    -0.550 OA
ATOM     14  O   UNL     1      51.544  57.558  95.083  1.00  0.00    -0.550 OA
ENDBRANCH  11  12
ENDBRANCH  10  11
ENDBRANCH   9  10
ENDBRANCH   8   9
ENDBRANCH   1   8
TORSDOF 9
ENDMDL
MODEL 7
REMARK VINA RESULT:    -4.559      2.367      3.250
REMARK INTER + INTRA:          -7.664
REMARK INTER:                  -7.049
REMARK INTRA:                  -0.615
REMARK UNBOUND:                -0.706
REMARK SMILES O=C([O-])CCCCCCCCC(=O)[O-]
REMARK SMILES IDX 7 1 6 2 5 3 4 4 2 5 1 6 3 7 8 8 9 9 10 10 11 11 12 12 13 13
REMARK SMILES IDX 14 14
REMARK H PARENT
REMARK Flexibility Score: inf
ROOT
ATOM      1  C   UNL     1      49.586  58.981  95.197  1.00  0.00     0.000 C 
ENDROOT
BRANCH   1   2
ATOM      2  C   UNL     1      49.796  60.438  94.760  1.00  0.00     0.000 C 
BRANCH   2   3
ATOM      3  C   UNL     1      50.429  60.507  93.362  1.00  0.00     0.006 C 
BRANCH   3   4
ATOM      4  C   UNL     1      51.757  61.276  93.364  1.00  0.00     0.053 C 
BRANCH   4   5
ATOM      5  C   UNL     1      52.675  60.806  92.278  1.00  0.00     0.041 C 
ATOM      6  O   UNL     1      53.244  61.638  91.524  1.00  0.00    -0.550 OA
ATOM      7  O   UNL     1      52.873  59.446  92.074  1.00  0.00    -0.550 OA
ENDBRANCH   4   5
ENDBRANCH   3   4
ENDBRANCH   2   3
ENDBRANCH   1   2
BRANCH   1   8
ATOM      8  C   UNL     1      50.369  57.978  94.334  1.00  0.00     0.000 C 
BRANCH   8   9
ATOM      9  C   UNL     1      51.603  57.381  95.046  1.00  0.00     0.000 C 
BRANCH   9  10
ATOM     10  C   UNL     1      52.648  56.851  94.048  1.00  0.00     0.006 C 
BRANCH  10  11
ATOM     11  C   UNL     1      52.008  56.050  92.907  1.00  0.00     0.053 C 
BRANCH  11  12
ATOM     12  C   UNL     1      52.336  54.591  92.999  1.00  0.00     0.041 C 
ATOM     13  O   UNL     1      51.625  53.743  92.399  1.00  0.00    -0.550 OA
ATOM     14  O   UNL     1      53.406  54.166  93.776  1.00  0.00    -0.550 OA
ENDBRANCH  11  12
ENDBRANCH  10  11
ENDBRANCH   9  10
ENDBRANCH   8   9
ENDBRANCH   1   8
TORSDOF 9
ENDMDL
MODEL 8
REMARK VINA RESULT:    -4.526      1.730      5.373
REMARK INTER + INTRA:          -7.613
REMARK INTER:                  -7.036
REMARK INTRA:                  -0.577
REMARK UNBOUND:                -0.706
REMARK SMILES O=C([O-])CCCCCCCCC(=O)[O-]
REMARK SMILES IDX 7 1 6 2 5 3 4 4 2 5 1 6 3 7 8 8 9 9 10 10 11 11 12 12 13 13
REMARK SMILES IDX 14 14
REMARK H PARENT
REMARK Flexibility Score: inf
ROOT
ATOM      1  C   UNL     1      52.585  58.647  92.780  1.00  0.00     0.000 C 
ENDROOT
BRANCH   1   2
ATOM      2  C   UNL     1      52.771  57.759  91.541  1.00  0.00     0.000 C 
BRANCH   2   3
ATOM      3  C   UNL     1      51.618  56.754  91.406  1.00  0.00     0.006 C 
BRANCH   3   4
ATOM      4  C   UNL     1      52.113  55.351  91.032  1.00  0.00     0.053 C 
BRANCH   4   5
ATOM      5  C   UNL     1      52.039  54.406  92.192  1.00  0.00     0.041 C 
ATOM      6  O   UNL     1      52.700  54.635  93.239  1.00  0.00    -0.550 OA
ATOM      7  O   UNL     1      51.271  53.252  92.103  1.00  0.00    -0.550 OA
ENDBRANCH   4   5
ENDBRANCH   3   4
ENDBRANCH   2   3
ENDBRANCH   1   2
BRANCH   1   8
ATOM      8  C   UNL     1      52.998  57.947  94.086  1.00  0.00     0.000 C 
BRANCH   8   9
ATOM      9  C   UNL     1      51.802  57.492  94.949  1.00  0.00     0.000 C 
BRANCH   9  10
ATOM     10  C   UNL     1      50.454  57.935  94.352  1.00  0.00     0.006 C 
BRANCH  10  11
ATOM     11  C   UNL     1      49.731  58.954  95.243  1.00  0.00     0.053 C 
BRANCH  11  12
ATOM     12  C   UNL     1      49.650  60.302  94.594  1.00  0.00     0.041 C 
ATOM     13  O   UNL     1      49.482  61.334  95.295  1.00  0.00    -0.550 OA
ATOM     14  O   UNL     1      49.725  60.414  93.212  1.00  0.00    -0.550 OA
ENDBRANCH  11  12
ENDBRANCH  10  11
ENDBRANCH   9  10
ENDBRANCH   8   9
ENDBRANCH   1   8
TORSDOF 9
ENDMDL
MODEL 9
REMARK VINA RESULT:    -4.516      1.671      2.054
REMARK INTER + INTRA:          -7.598
REMARK INTER:                  -6.941
REMARK INTRA:                  -0.657
REMARK UNBOUND:                -0.706
REMARK SMILES O=C([O-])CCCCCCCCC(=O)[O-]
REMARK SMILES IDX 7 1 6 2 5 3 4 4 2 5 1 6 3 7 8 8 9 9 10 10 11 11 12 12 13 13
REMARK SMILES IDX 14 14
REMARK H PARENT
REMARK Flexibility Score: inf
ROOT
ATOM      1  C   UNL     1      53.078  58.495  92.280  1.00  0.00     0.000 C 
ENDROOT
BRANCH   1   2
ATOM      2  C   UNL     1      52.757  59.983  92.082  1.00  0.00     0.000 C 
BRANCH   2   3
ATOM      3  C   UNL     1      52.080  60.571  93.329  1.00  0.00     0.006 C 
BRANCH   3   4
ATOM      4  C   UNL     1      50.550  60.560  93.218  1.00  0.00     0.053 C 
BRANCH   4   5
ATOM      5  C   UNL     1      49.897  60.312  94.543  1.00  0.00     0.041 C 
ATOM      6  O   UNL     1      49.421  61.271  95.205  1.00  0.00    -0.550 OA
ATOM      7  O   UNL     1      49.848  59.025  95.064  1.00  0.00    -0.550 OA
ENDBRANCH   4   5
ENDBRANCH   3   4
ENDBRANCH   2   3
ENDBRANCH   1   2
BRANCH   1   8
ATOM      8  C   UNL     1      53.466  58.154  93.729  1.00  0.00     0.000 C 
BRANCH   8   9
ATOM      9  C   UNL     1      52.649  56.990  94.330  1.00  0.00     0.000 C 
BRANCH   9  10
ATOM     10  C   UNL     1      51.958  56.145  93.245  1.00  0.00     0.006 C 
BRANCH  10  11
ATOM     11  C   UNL     1      52.423  54.684  93.262  1.00  0.00     0.053 C 
BRANCH  11  12
ATOM     12  C   UNL     1      51.904  53.920  92.082  1.00  0.00     0.041 C 
ATOM     13  O   UNL     1      51.110  52.957  92.250  1.00  0.00    -0.550 OA
ATOM     14  O   UNL     1      52.325  54.249  90.800  1.00  0.00    -0.550 OA
ENDBRANCH  11  12
ENDBRANCH  10  11
ENDBRANCH   9  10
ENDBRANCH   8   9
ENDBRANCH   1   8
TORSDOF 9
ENDMDL
