MODEL 1
REMARK VINA RESULT:    -2.719      0.000      0.000
REMARK INTER + INTRA:          -5.474
REMARK INTER:                  -4.150
REMARK INTRA:                  -1.325
REMARK UNBOUND:                -1.325
REMARK SMILES CCCCCCCCCCC(=O)[O-]
REMARK SMILES IDX 7 1 8 2 9 3 10 4 11 5 12 6 13 7 6 8 5 9 4 10 3 11 2 12 1 13
REMARK H PARENT
REMARK Flexibility Score: inf
ROOT
ATOM      1  C   UNL     1      19.210  67.702  18.235  1.00  0.00     0.000 C 
ENDROOT
BRANCH   1   2
ATOM      2  C   UNL     1      20.521  67.520  19.021  1.00  0.00     0.000 C 
BRANCH   2   3
ATOM      3  C   UNL     1      21.371  66.351  18.502  1.00  0.00     0.006 C 
BRANCH   3   4
ATOM      4  C   UNL     1      22.823  66.786  18.282  1.00  0.00     0.053 C 
BRANCH   4   5
ATOM      5  C   UNL     1      23.276  66.422  16.903  1.00  0.00     0.041 C 
ATOM      6  O   UNL     1      22.779  66.998  15.900  1.00  0.00    -0.550 OA
ATOM      7  O   UNL     1      24.282  65.479  16.728  1.00  0.00    -0.550 OA
ENDBRANCH   4   5
ENDBRANCH   3   4
ENDBRANCH   2   3
ENDBRANCH   1   2
BRANCH   1   8
ATOM      8  C   UNL     1      19.325  67.474  16.714  1.00  0.00     0.000 C 
BRANCH   8   9
ATOM      9  C   UNL     1      19.705  68.723  15.894  1.00  0.00    -0.000 C 
BRANCH   9  10
ATOM     10  C   UNL     1      19.334  70.068  16.549  1.00  0.00    -0.000 C 
BRANCH  10  11
ATOM     11  C   UNL     1      20.532  70.941  16.973  1.00  0.00    -0.000 C 
BRANCH  11  12
ATOM     12  C   UNL     1      21.901  70.242  16.896  1.00  0.00    -0.003 C 
ATOM     13  C   UNL     1      22.722  70.397  18.175  1.00  0.00     0.004 C 
ENDBRANCH  11  12
ENDBRANCH  10  11
ENDBRANCH   9  10
ENDBRANCH   8   9
ENDBRANCH   1   8
TORSDOF 9
ENDMDL
MODEL 2
REMARK VINA RESULT:    -2.694      2.389      3.928
REMARK INTER + INTRA:          -5.435
REMARK INTER:                  -4.150
REMARK INTRA:                  -1.285
REMARK UNBOUND:                -1.325
REMARK SMILES CCCCCCCCCCC(=O)[O-]
REMARK SMILES IDX 7 1 8 2 9 3 10 4 11 5 12 6 13 7 6 8 5 9 4 10 3 11 2 12 1 13
REMARK H PARENT
REMARK Flexibility Score: inf
ROOT
ATOM      1  C   UNL     1      22.458  65.883  16.037  1.00  0.00     0.000 C 
ENDROOT
BRANCH   1   2
ATOM      2  C   UNL     1      21.094  66.260  15.429  1.00  0.00     0.000 C 
BRANCH   2   3
ATOM      3  C   UNL     1      19.909  65.774  16.275  1.00  0.00     0.006 C 
BRANCH   3   4
ATOM      4  C   UNL     1      19.279  66.934  17.052  1.00  0.00     0.053 C 
BRANCH   4   5
ATOM      5  C   UNL     1      18.952  66.512  18.450  1.00  0.00     0.041 C 
ATOM      6  O   UNL     1      17.980  67.033  19.057  1.00  0.00    -0.550 OA
ATOM      7  O   UNL     1      19.690  65.508  19.064  1.00  0.00    -0.550 OA
ENDBRANCH   4   5
ENDBRANCH   3   4
ENDBRANCH   2   3
ENDBRANCH   1   2
BRANCH   1   8
ATOM      8  C   UNL     1      23.166  67.019  16.802  1.00  0.00     0.000 C 
BRANCH   8   9
ATOM      9  C   UNL     1      22.875  67.067  18.315  1.00  0.00    -0.000 C 
BRANCH   9  10
ATOM     10  C   UNL     1      22.207  68.366  18.807  1.00  0.00    -0.000 C 
BRANCH  10  11
ATOM     11  C   UNL     1      22.625  69.643  18.051  1.00  0.00    -0.000 C 
BRANCH  11  12
ATOM     12  C   UNL     1      21.466  70.417  17.399  1.00  0.00    -0.003 C 
ATOM     13  C   UNL     1      21.216  70.006  15.948  1.00  0.00     0.004 C 
ENDBRANCH  11  12
ENDBRANCH  10  11
ENDBRANCH   9  10
ENDBRANCH   8   9
ENDBRANCH   1   8
TORSDOF 9
ENDMDL
MODEL 3
REMARK VINA RESULT:    -2.671      2.392      4.463
REMARK INTER + INTRA:          -5.400
REMARK INTER:                  -4.191
REMARK INTRA:                  -1.209
REMARK UNBOUND:                -1.325
REMARK SMILES CCCCCCCCCCC(=O)[O-]
REMARK SMILES IDX 7 1 8 2 9 3 10 4 11 5 12 6 13 7 6 8 5 9 4 10 3 11 2 12 1 13
REMARK H PARENT
REMARK Flexibility Score: inf
ROOT
ATOM      1  C   UNL     1      23.118  66.101  18.060  1.00  0.00     0.000 C 
ENDROOT
BRANCH   1   2
ATOM      2  C   UNL     1      22.702  67.480  18.606  1.00  0.00     0.000 C 
BRANCH   2   3
ATOM      3  C   UNL     1      22.521  68.530  17.501  1.00  0.00     0.006 C 
BRANCH   3   4
ATOM      4  C   UNL     1      22.141  69.890  18.096  1.00  0.00     0.053 C 
BRANCH   4   5
ATOM      5  C   UNL     1      21.591  70.790  17.035  1.00  0.00     0.041 C 
ATOM      6  O   UNL     1      22.320  71.160  16.077  1.00  0.00    -0.550 OA
ATOM      7  O   UNL     1      20.258  71.181  17.077  1.00  0.00    -0.550 OA
ENDBRANCH   4   5
ENDBRANCH   3   4
ENDBRANCH   2   3
ENDBRANCH   1   2
BRANCH   1   8
ATOM      8  C   UNL     1      22.009  65.030  18.082  1.00  0.00     0.000 C 
BRANCH   8   9
ATOM      9  C   UNL     1      20.932  65.228  19.166  1.00  0.00    -0.000 C 
BRANCH   9  10
ATOM     10  C   UNL     1      19.509  65.480  18.630  1.00  0.00    -0.000 C 
BRANCH  10  11
ATOM     11  C   UNL     1      19.417  65.723  17.110  1.00  0.00    -0.000 C 
BRANCH  11  12
ATOM     12  C   UNL     1      19.212  67.192  16.702  1.00  0.00    -0.003 C 
ATOM     13  C   UNL     1      18.813  68.087  17.875  1.00  0.00     0.004 C 
ENDBRANCH  11  12
ENDBRANCH  10  11
ENDBRANCH   9  10
ENDBRANCH   8   9
ENDBRANCH   1   8
TORSDOF 9
ENDMDL
MODEL 4
REMARK VINA RESULT:    -2.668      2.592      3.861
REMARK INTER + INTRA:          -5.397
REMARK INTER:                  -4.306
REMARK INTRA:                  -1.091
REMARK UNBOUND:                -1.325
REMARK SMILES CCCCCCCCCCC(=O)[O-]
REMARK SMILES IDX 7 1 8 2 9 3 10 4 11 5 12 6 13 7 6 8 5 9 4 10 3 11 2 12 1 13
REMARK H PARENT
REMARK Flexibility Score: inf
ROOT
ATOM      1  C   UNL     1      22.792  67.518  17.775  1.00  0.00     0.000 C 
ENDROOT
BRANCH   1   2
ATOM      2  C   UNL     1      22.543  66.113  18.354  1.00  0.00     0.000 C 
BRANCH   2   3
ATOM      3  C   UNL     1      21.211  66.006  19.110  1.00  0.00     0.006 C 
BRANCH   3   4
ATOM      4  C   UNL     1      20.036  65.886  18.134  1.00  0.00     0.053 C 
BRANCH   4   5
ATOM      5  C   UNL     1      18.751  66.231  18.818  1.00  0.00     0.041 C 
ATOM      6  O   UNL     1      17.907  65.332  19.071  1.00  0.00    -0.550 OA
ATOM      7  O   UNL     1      18.506  67.539  19.218  1.00  0.00    -0.550 OA
ENDBRANCH   4   5
ENDBRANCH   3   4
ENDBRANCH   2   3
ENDBRANCH   1   2
BRANCH   1   8
ATOM      8  C   UNL     1      22.308  68.683  18.661  1.00  0.00     0.000 C 
BRANCH   8   9
ATOM      9  C   UNL     1      22.474  70.085  18.044  1.00  0.00    -0.000 C 
BRANCH   9  10
ATOM     10  C   UNL     1      21.549  70.381  16.847  1.00  0.00    -0.000 C 
BRANCH  10  11
ATOM     11  C   UNL     1      20.100  69.878  17.000  1.00  0.00    -0.000 C 
BRANCH  11  12
ATOM     12  C   UNL     1      19.645  68.880  15.920  1.00  0.00    -0.003 C 
ATOM     13  C   UNL     1      20.748  68.543  14.918  1.00  0.00     0.004 C 
ENDBRANCH  11  12
ENDBRANCH  10  11
ENDBRANCH   9  10
ENDBRANCH   8   9
ENDBRANCH   1   8
TORSDOF 9
ENDMDL
MODEL 5
REMARK VINA RESULT:    -2.664      2.739      3.729
REMARK INTER + INTRA:          -5.391
REMARK INTER:                  -4.411
REMARK INTRA:                  -0.980
REMARK UNBOUND:                -1.325
REMARK SMILES CCCCCCCCCCC(=O)[O-]
REMARK SMILES IDX 7 1 8 2 9 3 10 4 11 5 12 6 13 7 6 8 5 9 4 10 3 11 2 12 1 13
REMARK H PARENT
REMARK Flexibility Score: inf
ROOT
ATOM      1  C   UNL     1      22.488  68.398  18.143  1.00  0.00     0.000 C 
ENDROOT
BRANCH   1   2
ATOM      2  C   UNL     1      21.661  67.776  19.284  1.00  0.00     0.000 C 
BRANCH   2   3
ATOM      3  C   UNL     1      20.780  66.609  18.816  1.00  0.00     0.006 C 
BRANCH   3   4
ATOM      4  C   UNL     1      19.842  67.050  17.688  1.00  0.00     0.053 C 
BRANCH   4   5
ATOM      5  C   UNL     1      18.657  67.775  18.246  1.00  0.00     0.041 C 
ATOM      6  O   UNL     1      18.128  68.716  17.598  1.00  0.00    -0.550 OA
ATOM      7  O   UNL     1      18.108  67.378  19.459  1.00  0.00    -0.550 OA
ENDBRANCH   4   5
ENDBRANCH   3   4
ENDBRANCH   2   3
ENDBRANCH   1   2
BRANCH   1   8
ATOM      8  C   UNL     1      22.505  69.939  18.116  1.00  0.00     0.000 C 
BRANCH   8   9
ATOM      9  C   UNL     1      21.254  70.595  17.500  1.00  0.00    -0.000 C 
BRANCH   9  10
ATOM     10  C   UNL     1      20.982  70.223  16.030  1.00  0.00    -0.000 C 
BRANCH  10  11
ATOM     11  C   UNL     1      21.969  70.825  15.010  1.00  0.00    -0.000 C 
BRANCH  11  12
ATOM     12  C   UNL     1      22.184  72.343  15.137  1.00  0.00    -0.003 C 
ATOM     13  C   UNL     1      23.627  72.715  15.477  1.00  0.00     0.004 C 
ENDBRANCH  11  12
ENDBRANCH  10  11
ENDBRANCH   9  10
ENDBRANCH   8   9
ENDBRANCH   1   8
TORSDOF 9
ENDMDL
MODEL 6
REMARK VINA RESULT:    -2.656      1.972      4.125
REMARK INTER + INTRA:          -5.378
REMARK INTER:                  -4.389
REMARK INTRA:                  -0.989
REMARK UNBOUND:                -1.325
REMARK SMILES CCCCCCCCCCC(=O)[O-]
REMARK SMILES IDX 7 1 8 2 9 3 10 4 11 5 12 6 13 7 6 8 5 9 4 10 3 11 2 12 1 13
REMARK H PARENT
REMARK Flexibility Score: inf
ROOT
ATOM      1  C   UNL     1      18.986  67.967  17.779  1.00  0.00     0.000 C 
ENDROOT
BRANCH   1   2
ATOM      2  C   UNL     1      19.834  67.596  16.549  1.00  0.00     0.000 C 
BRANCH   2   3
ATOM      3  C   UNL     1      20.966  68.598  16.280  1.00  0.00     0.006 C 
BRANCH   3   4
ATOM      4  C   UNL     1      20.913  69.763  17.273  1.00  0.00     0.053 C 
BRANCH   4   5
ATOM      5  C   UNL     1      22.079  69.708  18.208  1.00  0.00     0.041 C 
ATOM      6  O   UNL     1      22.125  68.834  19.113  1.00  0.00    -0.550 OA
ATOM      7  O   UNL     1      23.140  70.592  18.050  1.00  0.00    -0.550 OA
ENDBRANCH   4   5
ENDBRANCH   3   4
ENDBRANCH   2   3
ENDBRANCH   1   2
BRANCH   1   8
ATOM      8  C   UNL     1      18.913  66.881  18.871  1.00  0.00     0.000 C 
BRANCH   8   9
ATOM      9  C   UNL     1      19.661  65.575  18.543  1.00  0.00    -0.000 C 
BRANCH   9  10
ATOM     10  C   UNL     1      21.068  65.459  19.161  1.00  0.00    -0.000 C 
BRANCH  10  11
ATOM     11  C   UNL     1      22.186  65.071  18.172  1.00  0.00    -0.000 C 
BRANCH  11  12
ATOM     12  C   UNL     1      23.250  66.158  17.940  1.00  0.00    -0.003 C 
ATOM     13  C   UNL     1      23.806  66.154  16.516  1.00  0.00     0.004 C 
ENDBRANCH  11  12
ENDBRANCH  10  11
ENDBRANCH   9  10
ENDBRANCH   8   9
ENDBRANCH   1   8
TORSDOF 9
ENDMDL
MODEL 7
REMARK VINA RESULT:    -2.648      2.232      3.103
REMARK INTER + INTRA:          -5.366
REMARK INTER:                  -4.014
REMARK INTRA:                  -1.353
REMARK UNBOUND:                -1.325
REMARK SMILES CCCCCCCCCCC(=O)[O-]
REMARK SMILES IDX 7 1 8 2 9 3 10 4 11 5 12 6 13 7 6 8 5 9 4 10 3 11 2 12 1 13
REMARK H PARENT
REMARK Flexibility Score: inf
ROOT
ATOM      1  C   UNL     1      23.056  66.793  16.476  1.00  0.00     0.000 C 
ENDROOT
BRANCH   1   2
ATOM      2  C   UNL     1      23.063  66.028  17.813  1.00  0.00     0.000 C 
BRANCH   2   3
ATOM      3  C   UNL     1      22.025  66.562  18.811  1.00  0.00     0.006 C 
BRANCH   3   4
ATOM      4  C   UNL     1      21.020  65.470  19.191  1.00  0.00     0.053 C 
BRANCH   4   5
ATOM      5  C   UNL     1      19.652  65.824  18.700  1.00  0.00     0.041 C 
ATOM      6  O   UNL     1      19.079  65.100  17.844  1.00  0.00    -0.550 OA
ATOM      7  O   UNL     1      18.989  66.927  19.224  1.00  0.00    -0.550 OA
ENDBRANCH   4   5
ENDBRANCH   3   4
ENDBRANCH   2   3
ENDBRANCH   1   2
BRANCH   1   8
ATOM      8  C   UNL     1      21.750  66.676  15.665  1.00  0.00     0.000 C 
BRANCH   8   9
ATOM      9  C   UNL     1      21.138  68.017  15.217  1.00  0.00    -0.000 C 
BRANCH   9  10
ATOM     10  C   UNL     1      20.008  68.549  16.120  1.00  0.00    -0.000 C 
BRANCH  10  11
ATOM     11  C   UNL     1      20.467  69.480  17.260  1.00  0.00    -0.000 C 
BRANCH  11  12
ATOM     12  C   UNL     1      21.756  70.269  16.971  1.00  0.00    -0.003 C 
ATOM     13  C   UNL     1      22.706  70.318  18.167  1.00  0.00     0.004 C 
ENDBRANCH  11  12
ENDBRANCH  10  11
ENDBRANCH   9  10
ENDBRANCH   8   9
ENDBRANCH   1   8
TORSDOF 9
ENDMDL
MODEL 8
REMARK VINA RESULT:    -2.639      8.781     10.289
REMARK INTER + INTRA:          -5.352
REMARK INTER:                  -4.048
REMARK INTRA:                  -1.304
REMARK UNBOUND:                -1.325
REMARK SMILES CCCCCCCCCCC(=O)[O-]
REMARK SMILES IDX 7 1 8 2 9 3 10 4 11 5 12 6 13 7 6 8 5 9 4 10 3 11 2 12 1 13
REMARK H PARENT
REMARK Flexibility Score: inf
ROOT
ATOM      1  C   UNL     1      27.667  71.418   8.388  1.00  0.00     0.000 C 
ENDROOT
BRANCH   1   2
ATOM      2  C   UNL     1      28.641  71.149   9.551  1.00  0.00     0.000 C 
BRANCH   2   3
ATOM      3  C   UNL     1      27.941  71.102  10.917  1.00  0.00     0.006 C 
BRANCH   3   4
ATOM      4  C   UNL     1      28.628  72.038  11.916  1.00  0.00     0.053 C 
BRANCH   4   5
ATOM      5  C   UNL     1      27.870  72.075  13.206  1.00  0.00     0.041 C 
ATOM      6  O   UNL     1      28.463  72.349  14.282  1.00  0.00    -0.550 OA
ATOM      7  O   UNL     1      26.498  71.854  13.213  1.00  0.00    -0.550 OA
ENDBRANCH   4   5
ENDBRANCH   3   4
ENDBRANCH   2   3
ENDBRANCH   1   2
BRANCH   1   8
ATOM      8  C   UNL     1      27.652  72.872   7.875  1.00  0.00     0.000 C 
BRANCH   8   9
ATOM      9  C   UNL     1      26.382  73.673   8.222  1.00  0.00    -0.000 C 
BRANCH   9  10
ATOM     10  C   UNL     1      26.298  74.157   9.682  1.00  0.00    -0.000 C 
BRANCH  10  11
ATOM     11  C   UNL     1      25.126  73.575  10.497  1.00  0.00    -0.000 C 
BRANCH  11  12
ATOM     12  C   UNL     1      24.289  72.515   9.760  1.00  0.00    -0.003 C 
ATOM     13  C   UNL     1      24.350  71.140  10.425  1.00  0.00     0.004 C 
ENDBRANCH  11  12
ENDBRANCH  10  11
ENDBRANCH   9  10
ENDBRANCH   8   9
ENDBRANCH   1   8
TORSDOF 9
ENDMDL
MODEL 9
REMARK VINA RESULT:    -2.614      1.229      3.216
REMARK INTER + INTRA:          -5.314
REMARK INTER:                  -4.118
REMARK INTRA:                  -1.195
REMARK UNBOUND:                -1.325
REMARK SMILES CCCCCCCCCCC(=O)[O-]
REMARK SMILES IDX 7 1 8 2 9 3 10 4 11 5 12 6 13 7 6 8 5 9 4 10 3 11 2 12 1 13
REMARK H PARENT
REMARK Flexibility Score: inf
ROOT
ATOM      1  C   UNL     1      21.715  70.030  16.904  1.00  0.00     0.000 C 
ENDROOT
BRANCH   1   2
ATOM      2  C   UNL     1      22.449  69.684  18.212  1.00  0.00     0.000 C 
BRANCH   2   3
ATOM      3  C   UNL     1      22.588  68.171  18.436  1.00  0.00     0.006 C 
BRANCH   3   4
ATOM      4  C   UNL     1      22.892  67.449  17.120  1.00  0.00     0.053 C 
BRANCH   4   5
ATOM      5  C   UNL     1      23.329  66.042  17.383  1.00  0.00     0.041 C 
ATOM      6  O   UNL     1      24.168  65.488  16.626  1.00  0.00    -0.550 OA
ATOM      7  O   UNL     1      22.847  65.361  18.494  1.00  0.00    -0.550 OA
ENDBRANCH   4   5
ENDBRANCH   3   4
ENDBRANCH   2   3
ENDBRANCH   1   2
BRANCH   1   8
ATOM      8  C   UNL     1      20.176  69.978  16.987  1.00  0.00     0.000 C 
BRANCH   8   9
ATOM      9  C   UNL     1      19.501  69.018  15.989  1.00  0.00    -0.000 C 
BRANCH   9  10
ATOM     10  C   UNL     1      19.168  67.623  16.553  1.00  0.00    -0.000 C 
BRANCH  10  11
ATOM     11  C   UNL     1      18.918  67.575  18.073  1.00  0.00    -0.000 C 
BRANCH  11  12
ATOM     12  C   UNL     1      19.264  66.234  18.744  1.00  0.00    -0.003 C 
ATOM     13  C   UNL     1      19.308  65.068  17.757  1.00  0.00     0.004 C 
ENDBRANCH  11  12
ENDBRANCH  10  11
ENDBRANCH   9  10
ENDBRANCH   8   9
ENDBRANCH   1   8
TORSDOF 9
ENDMDL
