MODEL 1
REMARK VINA RESULT:    -5.116      0.000      0.000
REMARK INTER + INTRA:          -6.016
REMARK INTER:                  -5.864
REMARK INTRA:                  -0.152
REMARK UNBOUND:                -0.152
REMARK SMILES O=C([O-])C=Cc1ccc(O)cc1
REMARK SMILES IDX 6 1 7 2 12 3 8 4 11 5 9 6 5 7 4 8 2 9 1 10 3 11 10 12
REMARK H PARENT 10 13
REMARK Flexibility Score: inf
ROOT
ATOM      1  C   UNL     1       3.037  28.099  57.412  1.00  0.00    -0.025 A 
ATOM      2  C   UNL     1       4.338  28.128  56.871  1.00  0.00     0.012 A 
ATOM      3  C   UNL     1       2.781  27.265  58.515  1.00  0.00     0.012 A 
ATOM      4  C   UNL     1       5.359  27.359  57.439  1.00  0.00     0.047 A 
ATOM      5  C   UNL     1       3.804  26.498  59.079  1.00  0.00     0.047 A 
ATOM      6  C   UNL     1       5.097  26.544  58.544  1.00  0.00     0.115 A 
ENDROOT
BRANCH   1   7
ATOM      7  C   UNL     1       1.916  28.886  56.842  1.00  0.00     0.010 C 
ATOM      8  C   UNL     1       0.642  28.768  57.245  1.00  0.00     0.025 C 
BRANCH   8   9
ATOM      9  C   UNL     1      -0.446  29.559  56.648  1.00  0.00     0.064 C 
ATOM     10  O   UNL     1      -0.622  29.590  55.400  1.00  0.00    -0.545 OA
ATOM     11  O   UNL     1      -1.296  30.284  57.474  1.00  0.00    -0.545 OA
ENDBRANCH   8   9
ENDBRANCH   1   7
BRANCH   6  12
ATOM     12  O   UNL     1       6.124  25.785  59.097  1.00  0.00    -0.508 OA
ATOM     13  H   UNL     1       7.094  26.068  59.017  1.00  0.00     0.293 HD
ENDBRANCH   6  12
TORSDOF 3
ENDMDL
MODEL 2
REMARK VINA RESULT:    -4.592      1.350      5.858
REMARK INTER + INTRA:          -5.416
REMARK INTER:                  -5.266
REMARK INTRA:                  -0.150
REMARK UNBOUND:                -0.152
REMARK SMILES O=C([O-])C=Cc1ccc(O)cc1
REMARK SMILES IDX 6 1 7 2 12 3 8 4 11 5 9 6 5 7 4 8 2 9 1 10 3 11 10 12
REMARK H PARENT 10 13
REMARK Flexibility Score: inf
ROOT
ATOM      1  C   UNL     1       2.251  28.463  56.887  1.00  0.00    -0.025 A 
ATOM      2  C   UNL     1       0.924  28.654  57.325  1.00  0.00     0.012 A 
ATOM      3  C   UNL     1       2.547  28.646  55.526  1.00  0.00     0.012 A 
ATOM      4  C   UNL     1      -0.070  29.043  56.422  1.00  0.00     0.047 A 
ATOM      5  C   UNL     1       1.551  29.035  54.626  1.00  0.00     0.047 A 
ATOM      6  C   UNL     1       0.239  29.237  55.073  1.00  0.00     0.115 A 
ENDROOT
BRANCH   1   7
ATOM      7  C   UNL     1       3.341  28.039  57.801  1.00  0.00     0.010 C 
ATOM      8  C   UNL     1       4.459  27.422  57.391  1.00  0.00     0.025 C 
BRANCH   8   9
ATOM      9  C   UNL     1       5.515  27.007  58.329  1.00  0.00     0.064 C 
ATOM     10  O   UNL     1       5.876  25.802  58.414  1.00  0.00    -0.545 OA
ATOM     11  O   UNL     1       6.125  27.959  59.135  1.00  0.00    -0.545 OA
ENDBRANCH   8   9
ENDBRANCH   1   7
BRANCH   6  12
ATOM     12  O   UNL     1      -0.762  29.625  54.186  1.00  0.00    -0.508 OA
ATOM     13  H   UNL     1      -1.416  30.364  54.418  1.00  0.00     0.293 HD
ENDBRANCH   6  12
TORSDOF 3
ENDMDL
MODEL 3
REMARK VINA RESULT:    -4.461      3.423      5.824
REMARK INTER + INTRA:          -5.265
REMARK INTER:                  -5.119
REMARK INTRA:                  -0.146
REMARK UNBOUND:                -0.152
REMARK SMILES O=C([O-])C=Cc1ccc(O)cc1
REMARK SMILES IDX 6 1 7 2 12 3 8 4 11 5 9 6 5 7 4 8 2 9 1 10 3 11 10 12
REMARK H PARENT 10 13
REMARK Flexibility Score: inf
ROOT
ATOM      1  C   UNL     1       1.947  28.841  55.354  1.00  0.00    -0.025 A 
ATOM      2  C   UNL     1       1.863  28.507  56.721  1.00  0.00     0.012 A 
ATOM      3  C   UNL     1       0.858  29.491  54.747  1.00  0.00     0.012 A 
ATOM      4  C   UNL     1       0.724  28.841  57.462  1.00  0.00     0.047 A 
ATOM      5  C   UNL     1      -0.278  29.822  55.491  1.00  0.00     0.047 A 
ATOM      6  C   UNL     1      -0.347  29.499  56.852  1.00  0.00     0.115 A 
ENDROOT
BRANCH   1   7
ATOM      7  C   UNL     1       3.126  28.501  54.519  1.00  0.00     0.010 C 
ATOM      8  C   UNL     1       3.566  29.262  53.506  1.00  0.00     0.025 C 
BRANCH   8   9
ATOM      9  C   UNL     1       4.733  28.886  52.692  1.00  0.00     0.064 C 
ATOM     10  O   UNL     1       4.688  27.908  51.898  1.00  0.00    -0.545 OA
ATOM     11  O   UNL     1       5.906  29.622  52.800  1.00  0.00    -0.545 OA
ENDBRANCH   8   9
ENDBRANCH   1   7
BRANCH   6  12
ATOM     12  O   UNL     1      -1.473  29.825  57.604  1.00  0.00    -0.508 OA
ATOM     13  H   UNL     1      -1.667  29.371  58.489  1.00  0.00     0.293 HD
ENDBRANCH   6  12
TORSDOF 3
ENDMDL
MODEL 4
REMARK VINA RESULT:    -4.199      8.639     11.418
REMARK INTER + INTRA:          -4.965
REMARK INTER:                  -4.830
REMARK INTRA:                  -0.135
REMARK UNBOUND:                -0.152
REMARK SMILES O=C([O-])C=Cc1ccc(O)cc1
REMARK SMILES IDX 6 1 7 2 12 3 8 4 11 5 9 6 5 7 4 8 2 9 1 10 3 11 10 12
REMARK H PARENT 10 13
REMARK Flexibility Score: inf
ROOT
ATOM      1  C   UNL     1      -7.770  31.464  58.457  1.00  0.00    -0.025 A 
ATOM      2  C   UNL     1      -6.659  31.671  59.301  1.00  0.00     0.012 A 
ATOM      3  C   UNL     1      -7.756  30.368  57.578  1.00  0.00     0.012 A 
ATOM      4  C   UNL     1      -5.577  30.785  59.277  1.00  0.00     0.047 A 
ATOM      5  C   UNL     1      -6.674  29.484  57.557  1.00  0.00     0.047 A 
ATOM      6  C   UNL     1      -5.581  29.690  58.409  1.00  0.00     0.115 A 
ENDROOT
BRANCH   1   7
ATOM      7  C   UNL     1      -8.937  32.379  58.434  1.00  0.00     0.010 C 
ATOM      8  C   UNL     1      -9.976  32.284  59.277  1.00  0.00     0.025 C 
BRANCH   8   9
ATOM      9  C   UNL     1     -11.123  33.204  59.216  1.00  0.00     0.064 C 
ATOM     10  O   UNL     1     -12.245  32.881  59.691  1.00  0.00    -0.545 OA
ATOM     11  O   UNL     1     -10.967  34.451  58.625  1.00  0.00    -0.545 OA
ENDBRANCH   8   9
ENDBRANCH   1   7
BRANCH   6  12
ATOM     12  O   UNL     1      -4.497  28.816  58.398  1.00  0.00    -0.508 OA
ATOM     13  H   UNL     1      -3.733  28.929  57.742  1.00  0.00     0.293 HD
ENDBRANCH   6  12
TORSDOF 3
ENDMDL
MODEL 5
REMARK VINA RESULT:    -4.107      8.656     12.907
REMARK INTER + INTRA:          -4.860
REMARK INTER:                  -4.724
REMARK INTRA:                  -0.135
REMARK UNBOUND:                -0.152
REMARK SMILES O=C([O-])C=Cc1ccc(O)cc1
REMARK SMILES IDX 6 1 7 2 12 3 8 4 11 5 9 6 5 7 4 8 2 9 1 10 3 11 10 12
REMARK H PARENT 10 13
REMARK Flexibility Score: inf
ROOT
ATOM      1  C   UNL     1      -8.271  32.546  58.244  1.00  0.00    -0.025 A 
ATOM      2  C   UNL     1      -9.309  32.124  59.100  1.00  0.00     0.012 A 
ATOM      3  C   UNL     1      -8.550  33.523  57.273  1.00  0.00     0.012 A 
ATOM      4  C   UNL     1     -10.585  32.689  58.997  1.00  0.00     0.047 A 
ATOM      5  C   UNL     1      -9.825  34.085  57.174  1.00  0.00     0.047 A 
ATOM      6  C   UNL     1     -10.846  33.670  58.037  1.00  0.00     0.115 A 
ENDROOT
BRANCH   1   7
ATOM      7  C   UNL     1      -6.904  31.973  58.303  1.00  0.00     0.010 C 
ATOM      8  C   UNL     1      -6.319  31.554  59.435  1.00  0.00     0.025 C 
BRANCH   8   9
ATOM      9  C   UNL     1      -4.955  31.000  59.456  1.00  0.00     0.064 C 
ATOM     10  O   UNL     1      -4.038  31.548  60.125  1.00  0.00    -0.545 OA
ATOM     11  O   UNL     1      -4.673  29.853  58.724  1.00  0.00    -0.545 OA
ENDBRANCH   8   9
ENDBRANCH   1   7
BRANCH   6  12
ATOM     12  O   UNL     1     -12.122  34.223  57.949  1.00  0.00    -0.508 OA
ATOM     13  H   UNL     1     -12.833  33.818  57.351  1.00  0.00     0.293 HD
ENDBRANCH   6  12
TORSDOF 3
ENDMDL
MODEL 6
REMARK VINA RESULT:    -4.098      6.873      8.234
REMARK INTER + INTRA:          -4.849
REMARK INTER:                  -4.713
REMARK INTRA:                  -0.136
REMARK UNBOUND:                -0.152
REMARK SMILES O=C([O-])C=Cc1ccc(O)cc1
REMARK SMILES IDX 6 1 7 2 12 3 8 4 11 5 9 6 5 7 4 8 2 9 1 10 3 11 10 12
REMARK H PARENT 10 13
REMARK Flexibility Score: inf
ROOT
ATOM      1  C   UNL     1       4.619  28.126  50.562  1.00  0.00    -0.025 A 
ATOM      2  C   UNL     1       3.983  29.007  49.664  1.00  0.00     0.012 A 
ATOM      3  C   UNL     1       4.849  26.799  50.160  1.00  0.00     0.012 A 
ATOM      4  C   UNL     1       3.612  28.571  48.388  1.00  0.00     0.047 A 
ATOM      5  C   UNL     1       4.477  26.367  48.884  1.00  0.00     0.047 A 
ATOM      6  C   UNL     1       3.859  27.253  47.993  1.00  0.00     0.115 A 
ENDROOT
BRANCH   1   7
ATOM      7  C   UNL     1       5.023  28.533  51.931  1.00  0.00     0.010 C 
ATOM      8  C   UNL     1       4.187  28.554  52.979  1.00  0.00     0.025 C 
BRANCH   8   9
ATOM      9  C   UNL     1       4.622  28.976  54.321  1.00  0.00     0.064 C 
ATOM     10  O   UNL     1       5.372  29.975  54.481  1.00  0.00    -0.545 OA
ATOM     11  O   UNL     1       4.197  28.258  55.432  1.00  0.00    -0.545 OA
ENDBRANCH   8   9
ENDBRANCH   1   7
BRANCH   6  12
ATOM     12  O   UNL     1       3.484  26.835  46.719  1.00  0.00    -0.508 OA
ATOM     13  H   UNL     1       3.540  27.457  45.920  1.00  0.00     0.293 HD
ENDBRANCH   6  12
TORSDOF 3
ENDMDL
MODEL 7
REMARK VINA RESULT:    -4.098      8.386     10.419
REMARK INTER + INTRA:          -4.849
REMARK INTER:                  -4.708
REMARK INTRA:                  -0.141
REMARK UNBOUND:                -0.152
REMARK SMILES O=C([O-])C=Cc1ccc(O)cc1
REMARK SMILES IDX 6 1 7 2 12 3 8 4 11 5 9 6 5 7 4 8 2 9 1 10 3 11 10 12
REMARK H PARENT 10 13
REMARK Flexibility Score: inf
ROOT
ATOM      1  C   UNL     1      -7.137  29.991  57.670  1.00  0.00    -0.025 A 
ATOM      2  C   UNL     1      -5.990  29.218  57.946  1.00  0.00     0.012 A 
ATOM      3  C   UNL     1      -7.247  31.269  58.248  1.00  0.00     0.012 A 
ATOM      4  C   UNL     1      -4.973  29.727  58.760  1.00  0.00     0.047 A 
ATOM      5  C   UNL     1      -6.228  31.773  59.060  1.00  0.00     0.047 A 
ATOM      6  C   UNL     1      -5.087  31.004  59.317  1.00  0.00     0.115 A 
ENDROOT
BRANCH   1   7
ATOM      7  C   UNL     1      -8.250  29.497  56.823  1.00  0.00     0.010 C 
ATOM      8  C   UNL     1      -8.492  28.197  56.595  1.00  0.00     0.025 C 
BRANCH   8   9
ATOM      9  C   UNL     1      -9.600  27.744  55.739  1.00  0.00     0.064 C 
ATOM     10  O   UNL     1     -10.801  27.964  56.054  1.00  0.00    -0.545 OA
ATOM     11  O   UNL     1      -9.318  27.061  54.562  1.00  0.00    -0.545 OA
ENDBRANCH   8   9
ENDBRANCH   1   7
BRANCH   6  12
ATOM     12  O   UNL     1      -4.064  31.495  60.125  1.00  0.00    -0.508 OA
ATOM     13  H   UNL     1      -3.732  30.979  60.931  1.00  0.00     0.293 HD
ENDBRANCH   6  12
TORSDOF 3
ENDMDL
MODEL 8
REMARK VINA RESULT:    -4.072      9.326     10.756
REMARK INTER + INTRA:          -4.819
REMARK INTER:                  -4.683
REMARK INTRA:                  -0.136
REMARK UNBOUND:                -0.152
REMARK SMILES O=C([O-])C=Cc1ccc(O)cc1
REMARK SMILES IDX 6 1 7 2 12 3 8 4 11 5 9 6 5 7 4 8 2 9 1 10 3 11 10 12
REMARK H PARENT 10 13
REMARK Flexibility Score: inf
ROOT
ATOM      1  C   UNL     1      -7.217  28.192  57.167  1.00  0.00    -0.025 A 
ATOM      2  C   UNL     1      -8.048  29.254  56.753  1.00  0.00     0.012 A 
ATOM      3  C   UNL     1      -6.087  28.483  57.950  1.00  0.00     0.012 A 
ATOM      4  C   UNL     1      -7.761  30.568  57.138  1.00  0.00     0.047 A 
ATOM      5  C   UNL     1      -5.804  29.797  58.333  1.00  0.00     0.047 A 
ATOM      6  C   UNL     1      -6.642  30.844  57.928  1.00  0.00     0.115 A 
ENDROOT
BRANCH   1   7
ATOM      7  C   UNL     1      -7.469  26.783  56.779  1.00  0.00     0.010 C 
ATOM      8  C   UNL     1      -7.458  26.345  55.511  1.00  0.00     0.025 C 
BRANCH   8   9
ATOM      9  C   UNL     1      -7.723  24.940  55.163  1.00  0.00     0.064 C 
ATOM     10  O   UNL     1      -8.288  24.631  54.080  1.00  0.00    -0.545 OA
ATOM     11  O   UNL     1      -7.343  23.936  56.045  1.00  0.00    -0.545 OA
ENDBRANCH   8   9
ENDBRANCH   1   7
BRANCH   6  12
ATOM     12  O   UNL     1      -6.372  32.157  58.303  1.00  0.00    -0.508 OA
ATOM     13  H   UNL     1      -6.569  32.492  59.239  1.00  0.00     0.293 HD
ENDBRANCH   6  12
TORSDOF 3
ENDMDL
MODEL 9
REMARK VINA RESULT:    -4.040      8.758     10.905
REMARK INTER + INTRA:          -4.782
REMARK INTER:                  -4.648
REMARK INTRA:                  -0.134
REMARK UNBOUND:                -0.152
REMARK SMILES O=C([O-])C=Cc1ccc(O)cc1
REMARK SMILES IDX 6 1 7 2 12 3 8 4 11 5 9 6 5 7 4 8 2 9 1 10 3 11 10 12
REMARK H PARENT 10 13
REMARK Flexibility Score: inf
ROOT
ATOM      1  C   UNL     1      -7.457  31.745  58.056  1.00  0.00    -0.025 A 
ATOM      2  C   UNL     1      -6.393  31.836  58.977  1.00  0.00     0.012 A 
ATOM      3  C   UNL     1      -7.604  30.564  57.307  1.00  0.00     0.012 A 
ATOM      4  C   UNL     1      -5.518  30.760  59.156  1.00  0.00     0.047 A 
ATOM      5  C   UNL     1      -6.727  29.491  57.489  1.00  0.00     0.047 A 
ATOM      6  C   UNL     1      -5.682  29.586  58.417  1.00  0.00     0.115 A 
ENDROOT
BRANCH   1   7
ATOM      7  C   UNL     1      -8.407  32.859  57.818  1.00  0.00     0.010 C 
ATOM      8  C   UNL     1      -8.107  33.956  57.107  1.00  0.00     0.025 C 
BRANCH   8   9
ATOM      9  C   UNL     1      -9.073  35.047  56.902  1.00  0.00     0.064 C 
ATOM     10  O   UNL     1      -9.840  35.061  55.901  1.00  0.00    -0.545 OA
ATOM     11  O   UNL     1      -9.142  36.081  57.828  1.00  0.00    -0.545 OA
ENDBRANCH   8   9
ENDBRANCH   1   7
BRANCH   6  12
ATOM     12  O   UNL     1      -4.802  28.524  58.608  1.00  0.00    -0.508 OA
ATOM     13  H   UNL     1      -3.838  28.574  58.300  1.00  0.00     0.293 HD
ENDBRANCH   6  12
TORSDOF 3
ENDMDL
