MODEL 1
REMARK VINA RESULT:    -7.184      0.000      0.000
REMARK INTER + INTRA:         -14.212
REMARK INTER:                 -12.434
REMARK INTRA:                  -1.778
REMARK UNBOUND:                -1.778
REMARK SMILES OC[C@@H]1O[C@H](O[C@H]2[C@@H](O)[C@H](O)[C@H](O[C@@H]3[C@H](O)[C@@H](O)[C@H](O)O[C@@H]3CO)O[C@@H]2CO)[C@@H](O)[C@H](O)[C@H]1O
REMARK SMILES IDX 7 1 26 2 25 3 12 4 10 5 8 6 6 7 5 8 3 9 33 10 4 11 31 12
REMARK SMILES IDX 29 13 2 14 1 15 34 17 32 19 30 21 27 23 28 24 9 26 11 28
REMARK SMILES IDX 13 30 14 31 22 32 15 33 21 34 17 35 19 36 23 37 24 38 16 40
REMARK SMILES IDX 18 42 20 44
REMARK H PARENT 1 16 34 18 32 20 30 22 28 25 9 27 11 29 24 39 16 41 18 43
REMARK H PARENT 20 45
REMARK Flexibility Score: inf
ROOT
ATOM      1  C   UNL     1      20.609  13.159  35.129  1.00  0.00     0.184 C 
ATOM      2  C   UNL     1      19.748  13.507  33.871  1.00  0.00     0.178 C 
ATOM      3  O   UNL     1      18.678  14.428  34.105  1.00  0.00    -0.341 OA
ATOM      4  C   UNL     1      17.874  14.116  35.235  1.00  0.00     0.282 C 
ATOM      5  C   UNL     1      18.757  14.102  36.499  1.00  0.00     0.202 C 
ATOM      6  C   UNL     1      19.741  12.936  36.374  1.00  0.00     0.180 C 
ENDROOT
BRANCH   1   7
ATOM      7  O   UNL     1      21.513  14.228  35.396  1.00  0.00    -0.341 OA
BRANCH   7   8
ATOM      8  C   UNL     1      22.868  13.856  35.186  1.00  0.00     0.282 C 
ATOM      9  C   UNL     1      23.381  15.435  33.453  1.00  0.00     0.178 C 
ATOM     10  C   UNL     1      24.389  16.198  34.333  1.00  0.00     0.177 C 
ATOM     11  O   UNL     1      23.229  14.065  33.827  1.00  0.00    -0.341 OA
ATOM     12  C   UNL     1      24.048  16.041  35.823  1.00  0.00     0.179 C 
ATOM     13  C   UNL     1      23.831  14.567  36.180  1.00  0.00     0.202 C 
BRANCH   9  14
ATOM     14  C   UNL     1      22.030  16.164  33.284  1.00  0.00     0.191 C 
BRANCH  14  15
ATOM     15  O   UNL     1      22.243  17.550  33.210  1.00  0.00    -0.394 OA
ATOM     16  H   UNL     1      21.363  17.979  33.389  1.00  0.00     0.210 HD
ENDBRANCH  14  15
ENDBRANCH   9  14
BRANCH  10  17
ATOM     17  O   UNL     1      25.681  15.692  34.086  1.00  0.00    -0.387 OA
ATOM     18  H   UNL     1      26.243  15.961  34.862  1.00  0.00     0.211 HD
ENDBRANCH  10  17
BRANCH  12  19
ATOM     19  O   UNL     1      22.906  16.791  36.143  1.00  0.00    -0.387 OA
ATOM     20  H   UNL     1      22.829  17.515  35.467  1.00  0.00     0.211 HD
ENDBRANCH  12  19
BRANCH  13  21
ATOM     21  O   UNL     1      25.071  13.899  36.201  1.00  0.00    -0.385 OA
ATOM     22  H   UNL     1      24.914  13.013  36.649  1.00  0.00     0.211 HD
ENDBRANCH  13  21
ENDBRANCH   7   8
ENDBRANCH   1   7
BRANCH   2  23
ATOM     23  C   UNL     1      19.255  12.254  33.116  1.00  0.00     0.191 C 
BRANCH  23  24
ATOM     24  O   UNL     1      19.509  12.381  31.747  1.00  0.00    -0.394 OA
ATOM     25  H   UNL     1      20.493  12.294  31.631  1.00  0.00     0.210 HD
ENDBRANCH  23  24
ENDBRANCH   2  23
BRANCH   6  26
ATOM     26  O   UNL     1      20.544  12.854  37.527  1.00  0.00    -0.387 OA
ATOM     27  H   UNL     1      19.930  12.679  38.293  1.00  0.00     0.211 HD
ENDBRANCH   6  26
BRANCH   5  28
ATOM     28  O   UNL     1      17.983  13.968  37.665  1.00  0.00    -0.385 OA
ATOM     29  H   UNL     1      17.806  14.882  38.019  1.00  0.00     0.211 HD
ENDBRANCH   5  28
BRANCH   4  30
ATOM     30  O   UNL     1      17.205  12.871  35.022  1.00  0.00    -0.341 OA
BRANCH  30  31
ATOM     31  C   UNL     1      15.808  12.916  35.280  1.00  0.00     0.184 C 
ATOM     32  C   UNL     1      15.009  12.464  34.021  1.00  0.00     0.178 C 
ATOM     33  C   UNL     1      15.482  12.034  36.501  1.00  0.00     0.180 C 
ATOM     34  O   UNL     1      13.610  12.319  34.281  1.00  0.00    -0.342 OA
ATOM     35  C   UNL     1      13.961  11.937  36.681  1.00  0.00     0.201 C 
ATOM     36  C   UNL     1      13.303  11.458  35.371  1.00  0.00     0.279 C 
BRANCH  32  37
ATOM     37  C   UNL     1      15.611  11.247  33.272  1.00  0.00     0.191 C 
BRANCH  37  38
ATOM     38  O   UNL     1      14.721  10.737  32.310  1.00  0.00    -0.394 OA
ATOM     39  H   UNL     1      15.239  10.527  31.493  1.00  0.00     0.210 HD
ENDBRANCH  37  38
ENDBRANCH  32  37
BRANCH  33  40
ATOM     40  O   UNL     1      16.061  10.758  36.372  1.00  0.00    -0.387 OA
ATOM     41  H   UNL     1      16.543  10.752  35.504  1.00  0.00     0.211 HD
ENDBRANCH  33  40
BRANCH  35  42
ATOM     42  O   UNL     1      13.466  13.213  37.028  1.00  0.00    -0.385 OA
ATOM     43  H   UNL     1      12.476  13.168  36.974  1.00  0.00     0.211 HD
ENDBRANCH  35  42
BRANCH  36  44
ATOM     44  O   UNL     1      13.647  10.132  35.069  1.00  0.00    -0.366 OA
ATOM     45  H   UNL     1      12.795   9.625  34.992  1.00  0.00     0.213 HD
ENDBRANCH  36  44
ENDBRANCH  30  31
ENDBRANCH   4  30
TORSDOF 18
ENDMDL
MODEL 2
REMARK VINA RESULT:    -7.183      1.091      2.520
REMARK INTER + INTRA:         -14.210
REMARK INTER:                 -12.297
REMARK INTRA:                  -1.913
REMARK UNBOUND:                -1.778
REMARK SMILES OC[C@@H]1O[C@H](O[C@H]2[C@@H](O)[C@H](O)[C@H](O[C@@H]3[C@H](O)[C@@H](O)[C@H](O)O[C@@H]3CO)O[C@@H]2CO)[C@@H](O)[C@H](O)[C@H]1O
REMARK SMILES IDX 7 1 26 2 25 3 12 4 10 5 8 6 6 7 5 8 3 9 33 10 4 11 31 12
REMARK SMILES IDX 29 13 2 14 1 15 34 17 32 19 30 21 27 23 28 24 9 26 11 28
REMARK SMILES IDX 13 30 14 31 22 32 15 33 21 34 17 35 19 36 23 37 24 38 16 40
REMARK SMILES IDX 18 42 20 44
REMARK H PARENT 1 16 34 18 32 20 30 22 28 25 9 27 11 29 24 39 16 41 18 43
REMARK H PARENT 20 45
REMARK Flexibility Score: inf
ROOT
ATOM      1  C   UNL     1      20.293  14.466  34.391  1.00  0.00     0.184 C 
ATOM      2  C   UNL     1      19.005  15.172  34.924  1.00  0.00     0.178 C 
ATOM      3  O   UNL     1      18.377  14.529  36.038  1.00  0.00    -0.341 OA
ATOM      4  C   UNL     1      18.194  13.128  35.879  1.00  0.00     0.282 C 
ATOM      5  C   UNL     1      19.566  12.457  35.669  1.00  0.00     0.202 C 
ATOM      6  C   UNL     1      20.128  12.942  34.330  1.00  0.00     0.180 C 
ENDROOT
BRANCH   1   7
ATOM      7  O   UNL     1      21.389  14.765  35.252  1.00  0.00    -0.341 OA
BRANCH   7   8
ATOM      8  C   UNL     1      21.896  16.077  35.046  1.00  0.00     0.282 C 
ATOM      9  C   UNL     1      24.106  15.717  35.907  1.00  0.00     0.178 C 
ATOM     10  C   UNL     1      24.767  15.930  34.531  1.00  0.00     0.177 C 
ATOM     11  O   UNL     1      22.856  16.394  36.044  1.00  0.00    -0.341 OA
ATOM     12  C   UNL     1      23.794  15.580  33.394  1.00  0.00     0.179 C 
ATOM     13  C   UNL     1      22.443  16.272  33.602  1.00  0.00     0.202 C 
BRANCH   9  14
ATOM     14  C   UNL     1      24.038  14.236  36.339  1.00  0.00     0.191 C 
BRANCH  14  15
ATOM     15  O   UNL     1      25.334  13.698  36.403  1.00  0.00    -0.394 OA
ATOM     16  H   UNL     1      25.841  14.098  35.648  1.00  0.00     0.210 HD
ENDBRANCH  14  15
ENDBRANCH   9  14
BRANCH  10  17
ATOM     17  O   UNL     1      25.161  17.278  34.421  1.00  0.00    -0.387 OA
ATOM     18  H   UNL     1      26.088  17.272  34.056  1.00  0.00     0.211 HD
ENDBRANCH  10  17
BRANCH  12  19
ATOM     19  O   UNL     1      23.620  14.190  33.312  1.00  0.00    -0.387 OA
ATOM     20  H   UNL     1      24.208  13.862  32.583  1.00  0.00     0.211 HD
ENDBRANCH  12  19
BRANCH  13  21
ATOM     21  O   UNL     1      22.568  17.647  33.323  1.00  0.00    -0.385 OA
ATOM     22  H   UNL     1      21.662  18.055  33.467  1.00  0.00     0.211 HD
ENDBRANCH  13  21
ENDBRANCH   7   8
ENDBRANCH   1   7
BRANCH   2  23
ATOM     23  C   UNL     1      17.983  15.480  33.807  1.00  0.00     0.191 C 
BRANCH  23  24
ATOM     24  O   UNL     1      18.623  16.075  32.716  1.00  0.00    -0.394 OA
ATOM     25  H   UNL     1      19.206  15.377  32.313  1.00  0.00     0.210 HD
ENDBRANCH  23  24
ENDBRANCH   2  23
BRANCH   6  26
ATOM     26  O   UNL     1      21.365  12.321  34.071  1.00  0.00    -0.387 OA
ATOM     27  H   UNL     1      21.528  12.405  33.091  1.00  0.00     0.211 HD
ENDBRANCH   6  26
BRANCH   5  28
ATOM     28  O   UNL     1      19.459  11.055  35.677  1.00  0.00    -0.385 OA
ATOM     29  H   UNL     1      18.943  10.794  36.488  1.00  0.00     0.211 HD
ENDBRANCH   5  28
BRANCH   4  30
ATOM     30  O   UNL     1      17.293  12.881  34.798  1.00  0.00    -0.341 OA
BRANCH  30  31
ATOM     31  C   UNL     1      15.922  12.922  35.171  1.00  0.00     0.184 C 
ATOM     32  C   UNL     1      15.023  12.455  33.986  1.00  0.00     0.178 C 
ATOM     33  C   UNL     1      15.702  12.049  36.421  1.00  0.00     0.180 C 
ATOM     34  O   UNL     1      13.652  12.306  34.361  1.00  0.00    -0.342 OA
ATOM     35  C   UNL     1      14.201  11.946  36.727  1.00  0.00     0.201 C 
ATOM     36  C   UNL     1      13.440  11.454  35.480  1.00  0.00     0.279 C 
BRANCH  32  37
ATOM     37  C   UNL     1      15.568  11.235  33.199  1.00  0.00     0.191 C 
BRANCH  37  38
ATOM     38  O   UNL     1      14.613  10.731  32.298  1.00  0.00    -0.394 OA
ATOM     39  H   UNL     1      13.718  10.832  32.710  1.00  0.00     0.210 HD
ENDBRANCH  37  38
ENDBRANCH  32  37
BRANCH  33  40
ATOM     40  O   UNL     1      16.275  10.774  36.255  1.00  0.00    -0.387 OA
ATOM     41  H   UNL     1      17.233  10.860  36.499  1.00  0.00     0.211 HD
ENDBRANCH  33  40
BRANCH  35  42
ATOM     42  O   UNL     1      13.731  13.223  37.104  1.00  0.00    -0.385 OA
ATOM     43  H   UNL     1      12.762  13.253  36.890  1.00  0.00     0.211 HD
ENDBRANCH  35  42
BRANCH  36  44
ATOM     44  O   UNL     1      13.764  10.126  35.161  1.00  0.00    -0.366 OA
ATOM     45  H   UNL     1      13.371   9.942  34.266  1.00  0.00     0.213 HD
ENDBRANCH  36  44
ENDBRANCH  30  31
ENDBRANCH   4  30
TORSDOF 18
ENDMDL
MODEL 3
REMARK VINA RESULT:    -7.159      1.710      8.452
REMARK INTER + INTRA:         -14.169
REMARK INTER:                 -11.528
REMARK INTRA:                  -2.640
REMARK UNBOUND:                -1.778
REMARK SMILES OC[C@@H]1O[C@H](O[C@H]2[C@@H](O)[C@H](O)[C@H](O[C@@H]3[C@H](O)[C@@H](O)[C@H](O)O[C@@H]3CO)O[C@@H]2CO)[C@@H](O)[C@H](O)[C@H]1O
REMARK SMILES IDX 7 1 26 2 25 3 12 4 10 5 8 6 6 7 5 8 3 9 33 10 4 11 31 12
REMARK SMILES IDX 29 13 2 14 1 15 34 17 32 19 30 21 27 23 28 24 9 26 11 28
REMARK SMILES IDX 13 30 14 31 22 32 15 33 21 34 17 35 19 36 23 37 24 38 16 40
REMARK SMILES IDX 18 42 20 44
REMARK H PARENT 1 16 34 18 32 20 30 22 28 25 9 27 11 29 24 39 16 41 18 43
REMARK H PARENT 20 45
REMARK Flexibility Score: inf
ROOT
ATOM      1  C   UNL     1      17.088  12.337  35.619  1.00  0.00     0.184 C 
ATOM      2  C   UNL     1      18.071  12.718  36.773  1.00  0.00     0.178 C 
ATOM      3  O   UNL     1      18.377  14.112  36.874  1.00  0.00    -0.341 OA
ATOM      4  C   UNL     1      18.734  14.724  35.641  1.00  0.00     0.282 C 
ATOM      5  C   UNL     1      17.567  14.576  34.643  1.00  0.00     0.202 C 
ATOM      6  C   UNL     1      17.409  13.089  34.321  1.00  0.00     0.180 C 
ENDROOT
BRANCH   1   7
ATOM      7  O   UNL     1      15.755  12.657  36.006  1.00  0.00    -0.341 OA
BRANCH   7   8
ATOM      8  C   UNL     1      15.077  11.548  36.581  1.00  0.00     0.282 C 
ATOM      9  C   UNL     1      12.865  12.478  36.588  1.00  0.00     0.178 C 
ATOM     10  C   UNL     1      12.343  11.455  35.562  1.00  0.00     0.177 C 
ATOM     11  O   UNL     1      13.971  11.995  37.353  1.00  0.00    -0.341 OA
ATOM     12  C   UNL     1      13.482  10.943  34.667  1.00  0.00     0.179 C 
ATOM     13  C   UNL     1      14.677  10.490  35.513  1.00  0.00     0.202 C 
BRANCH   9  14
ATOM     14  C   UNL     1      13.113  13.881  35.994  1.00  0.00     0.191 C 
BRANCH  14  15
ATOM     15  O   UNL     1      12.215  14.118  34.940  1.00  0.00    -0.394 OA
ATOM     16  H   UNL     1      12.006  13.230  34.545  1.00  0.00     0.210 HD
ENDBRANCH  14  15
ENDBRANCH   9  14
BRANCH  10  17
ATOM     17  O   UNL     1      11.759  10.375  36.253  1.00  0.00    -0.387 OA
ATOM     18  H   UNL     1      12.352  10.183  37.030  1.00  0.00     0.211 HD
ENDBRANCH  10  17
BRANCH  12  19
ATOM     19  O   UNL     1      13.879  11.939  33.762  1.00  0.00    -0.387 OA
ATOM     20  H   UNL     1      14.727  12.326  34.103  1.00  0.00     0.211 HD
ENDBRANCH  12  19
BRANCH  13  21
ATOM     21  O   UNL     1      14.372   9.268  36.145  1.00  0.00    -0.385 OA
ATOM     22  H   UNL     1      14.458   8.551  35.447  1.00  0.00     0.211 HD
ENDBRANCH  13  21
ENDBRANCH   7   8
ENDBRANCH   1   7
BRANCH   2  23
ATOM     23  C   UNL     1      19.357  11.861  36.774  1.00  0.00     0.191 C 
BRANCH  23  24
ATOM     24  O   UNL     1      19.450  11.124  35.590  1.00  0.00    -0.394 OA
ATOM     25  H   UNL     1      18.865  10.328  35.703  1.00  0.00     0.210 HD
ENDBRANCH  23  24
ENDBRANCH   2  23
BRANCH   6  26
ATOM     26  O   UNL     1      16.381  12.904  33.376  1.00  0.00    -0.387 OA
ATOM     27  H   UNL     1      16.132  11.939  33.408  1.00  0.00     0.211 HD
ENDBRANCH   6  26
BRANCH   5  28
ATOM     28  O   UNL     1      17.801  15.312  33.468  1.00  0.00    -0.385 OA
ATOM     29  H   UNL     1      17.384  14.816  32.711  1.00  0.00     0.211 HD
ENDBRANCH   5  28
BRANCH   4  30
ATOM     30  O   UNL     1      19.948  14.150  35.153  1.00  0.00    -0.341 OA
BRANCH  30  31
ATOM     31  C   UNL     1      21.095  14.962  35.365  1.00  0.00     0.184 C 
ATOM     32  C   UNL     1      22.382  14.211  34.909  1.00  0.00     0.178 C 
ATOM     33  C   UNL     1      20.926  16.297  34.613  1.00  0.00     0.180 C 
ATOM     34  O   UNL     1      23.543  15.046  34.932  1.00  0.00    -0.342 OA
ATOM     35  C   UNL     1      22.228  17.106  34.691  1.00  0.00     0.201 C 
ATOM     36  C   UNL     1      23.412  16.253  34.192  1.00  0.00     0.279 C 
BRANCH  32  37
ATOM     37  C   UNL     1      22.238  13.419  33.584  1.00  0.00     0.191 C 
BRANCH  37  38
ATOM     38  O   UNL     1      21.345  12.341  33.719  1.00  0.00    -0.394 OA
ATOM     39  H   UNL     1      21.261  11.900  32.836  1.00  0.00     0.210 HD
ENDBRANCH  37  38
ENDBRANCH  32  37
BRANCH  33  40
ATOM     40  O   UNL     1      20.542  16.080  33.277  1.00  0.00    -0.387 OA
ATOM     41  H   UNL     1      21.282  16.422  32.710  1.00  0.00     0.211 HD
ENDBRANCH  33  40
BRANCH  35  42
ATOM     42  O   UNL     1      22.443  17.484  36.035  1.00  0.00    -0.385 OA
ATOM     43  H   UNL     1      21.550  17.590  36.455  1.00  0.00     0.211 HD
ENDBRANCH  35  42
BRANCH  36  44
ATOM     44  O   UNL     1      23.317  15.984  32.817  1.00  0.00    -0.366 OA
ATOM     45  H   UNL     1      22.470  15.481  32.681  1.00  0.00     0.213 HD
ENDBRANCH  36  44
ENDBRANCH  30  31
ENDBRANCH   4  30
TORSDOF 18
ENDMDL
MODEL 4
REMARK VINA RESULT:    -7.127      1.403      8.278
REMARK INTER + INTRA:         -14.113
REMARK INTER:                 -12.197
REMARK INTRA:                  -1.917
REMARK UNBOUND:                -1.778
REMARK SMILES OC[C@@H]1O[C@H](O[C@H]2[C@@H](O)[C@H](O)[C@H](O[C@@H]3[C@H](O)[C@@H](O)[C@H](O)O[C@@H]3CO)O[C@@H]2CO)[C@@H](O)[C@H](O)[C@H]1O
REMARK SMILES IDX 7 1 26 2 25 3 12 4 10 5 8 6 6 7 5 8 3 9 33 10 4 11 31 12
REMARK SMILES IDX 29 13 2 14 1 15 34 17 32 19 30 21 27 23 28 24 9 26 11 28
REMARK SMILES IDX 13 30 14 31 22 32 15 33 21 34 17 35 19 36 23 37 24 38 16 40
REMARK SMILES IDX 18 42 20 44
REMARK H PARENT 1 16 34 18 32 20 30 22 28 25 9 27 11 29 24 39 16 41 18 43
REMARK H PARENT 20 45
REMARK Flexibility Score: inf
ROOT
ATOM      1  C   UNL     1      18.166  12.259  35.851  1.00  0.00     0.184 C 
ATOM      2  C   UNL     1      18.079  13.741  36.339  1.00  0.00     0.178 C 
ATOM      3  O   UNL     1      18.033  14.721  35.298  1.00  0.00    -0.341 OA
ATOM      4  C   UNL     1      19.017  14.547  34.286  1.00  0.00     0.282 C 
ATOM      5  C   UNL     1      18.832  13.163  33.630  1.00  0.00     0.202 C 
ATOM      6  C   UNL     1      19.146  12.097  34.682  1.00  0.00     0.180 C 
ENDROOT
BRANCH   1   7
ATOM      7  O   UNL     1      16.879  11.823  35.423  1.00  0.00    -0.341 OA
BRANCH   7   8
ATOM      8  C   UNL     1      15.871  12.796  35.665  1.00  0.00     0.282 C 
ATOM      9  C   UNL     1      14.552  12.402  33.700  1.00  0.00     0.178 C 
ATOM     10  C   UNL     1      13.351  11.879  34.510  1.00  0.00     0.177 C 
ATOM     11  O   UNL     1      15.377  13.307  34.435  1.00  0.00    -0.341 OA
ATOM     12  C   UNL     1      13.810  11.282  35.850  1.00  0.00     0.179 C 
ATOM     13  C   UNL     1      14.742  12.250  36.586  1.00  0.00     0.202 C 
BRANCH   9  14
ATOM     14  C   UNL     1      15.359  11.288  32.998  1.00  0.00     0.191 C 
BRANCH  14  15
ATOM     15  O   UNL     1      14.482  10.374  32.392  1.00  0.00    -0.394 OA
ATOM     16  H   UNL     1      13.620  10.445  32.883  1.00  0.00     0.210 HD
ENDBRANCH  14  15
ENDBRANCH   9  14
BRANCH  10  17
ATOM     17  O   UNL     1      12.462  12.946  34.745  1.00  0.00    -0.387 OA
ATOM     18  H   UNL     1      11.759  12.598  35.358  1.00  0.00     0.211 HD
ENDBRANCH  10  17
BRANCH  12  19
ATOM     19  O   UNL     1      14.453  10.053  35.642  1.00  0.00    -0.387 OA
ATOM     20  H   UNL     1      14.074   9.658  34.813  1.00  0.00     0.211 HD
ENDBRANCH  12  19
BRANCH  13  21
ATOM     21  O   UNL     1      13.992  13.324  37.106  1.00  0.00    -0.385 OA
ATOM     22  H   UNL     1      14.269  13.431  38.066  1.00  0.00     0.211 HD
ENDBRANCH  13  21
ENDBRANCH   7   8
ENDBRANCH   1   7
BRANCH   2  23
ATOM     23  C   UNL     1      19.154  14.092  37.391  1.00  0.00     0.191 C 
BRANCH  23  24
ATOM     24  O   UNL     1      20.179  13.141  37.373  1.00  0.00    -0.394 OA
ATOM     25  H   UNL     1      19.944  12.456  38.055  1.00  0.00     0.210 HD
ENDBRANCH  23  24
ENDBRANCH   2  23
BRANCH   6  26
ATOM     26  O   UNL     1      19.034  10.812  34.118  1.00  0.00    -0.387 OA
ATOM     27  H   UNL     1      19.073  10.929  33.128  1.00  0.00     0.211 HD
ENDBRANCH   6  26
BRANCH   5  28
ATOM     28  O   UNL     1      19.669  13.010  32.511  1.00  0.00    -0.385 OA
ATOM     29  H   UNL     1      20.603  13.194  32.801  1.00  0.00     0.211 HD
ENDBRANCH   5  28
BRANCH   4  30
ATOM     30  O   UNL     1      20.320  14.716  34.848  1.00  0.00    -0.341 OA
BRANCH  30  31
ATOM     31  C   UNL     1      20.809  16.048  34.777  1.00  0.00     0.184 C 
ATOM     32  C   UNL     1      22.186  16.160  35.498  1.00  0.00     0.178 C 
ATOM     33  C   UNL     1      20.910  16.481  33.301  1.00  0.00     0.180 C 
ATOM     34  O   UNL     1      22.807  17.433  35.303  1.00  0.00    -0.342 OA
ATOM     35  C   UNL     1      21.600  17.849  33.206  1.00  0.00     0.201 C 
ATOM     36  C   UNL     1      22.955  17.811  33.940  1.00  0.00     0.279 C 
BRANCH  32  37
ATOM     37  C   UNL     1      23.152  14.974  35.242  1.00  0.00     0.191 C 
BRANCH  37  38
ATOM     38  O   UNL     1      22.699  13.794  35.859  1.00  0.00    -0.394 OA
ATOM     39  H   UNL     1      23.111  13.025  35.390  1.00  0.00     0.210 HD
ENDBRANCH  37  38
ENDBRANCH  32  37
BRANCH  33  40
ATOM     40  O   UNL     1      21.590  15.515  32.536  1.00  0.00    -0.387 OA
ATOM     41  H   UNL     1      21.175  14.639  32.752  1.00  0.00     0.211 HD
ENDBRANCH  33  40
BRANCH  35  42
ATOM     42  O   UNL     1      20.761  18.818  33.800  1.00  0.00    -0.385 OA
ATOM     43  H   UNL     1      20.365  18.405  34.610  1.00  0.00     0.211 HD
ENDBRANCH  35  42
BRANCH  36  44
ATOM     44  O   UNL     1      23.876  16.973  33.290  1.00  0.00    -0.366 OA
ATOM     45  H   UNL     1      24.746  17.454  33.284  1.00  0.00     0.213 HD
ENDBRANCH  36  44
ENDBRANCH  30  31
ENDBRANCH   4  30
TORSDOF 18
ENDMDL
MODEL 5
REMARK VINA RESULT:    -6.933      1.512      8.582
REMARK INTER + INTRA:         -13.778
REMARK INTER:                 -11.398
REMARK INTRA:                  -2.380
REMARK UNBOUND:                -1.778
REMARK SMILES OC[C@@H]1O[C@H](O[C@H]2[C@@H](O)[C@H](O)[C@H](O[C@@H]3[C@H](O)[C@@H](O)[C@H](O)O[C@@H]3CO)O[C@@H]2CO)[C@@H](O)[C@H](O)[C@H]1O
REMARK SMILES IDX 7 1 26 2 25 3 12 4 10 5 8 6 6 7 5 8 3 9 33 10 4 11 31 12
REMARK SMILES IDX 29 13 2 14 1 15 34 17 32 19 30 21 27 23 28 24 9 26 11 28
REMARK SMILES IDX 13 30 14 31 22 32 15 33 21 34 17 35 19 36 23 37 24 38 16 40
REMARK SMILES IDX 18 42 20 44
REMARK H PARENT 1 16 34 18 32 20 30 22 28 25 9 27 11 29 24 39 16 41 18 43
REMARK H PARENT 20 45
REMARK Flexibility Score: inf
ROOT
ATOM      1  C   UNL     1      17.685  12.094  35.404  1.00  0.00     0.184 C 
ATOM      2  C   UNL     1      18.115  12.740  36.761  1.00  0.00     0.178 C 
ATOM      3  O   UNL     1      18.302  14.158  36.726  1.00  0.00    -0.341 OA
ATOM      4  C   UNL     1      19.094  14.617  35.638  1.00  0.00     0.282 C 
ATOM      5  C   UNL     1      18.424  14.205  34.312  1.00  0.00     0.202 C 
ATOM      6  C   UNL     1      18.464  12.678  34.219  1.00  0.00     0.180 C 
ENDROOT
BRANCH   1   7
ATOM      7  O   UNL     1      16.296  12.327  35.187  1.00  0.00    -0.341 OA
BRANCH   7   8
ATOM      8  C   UNL     1      15.511  12.018  36.331  1.00  0.00     0.282 C 
ATOM      9  C   UNL     1      13.403  12.820  35.513  1.00  0.00     0.178 C 
ATOM     10  C   UNL     1      12.781  11.411  35.492  1.00  0.00     0.177 C 
ATOM     11  O   UNL     1      14.455  12.958  36.469  1.00  0.00    -0.341 OA
ATOM     12  C   UNL     1      13.864  10.335  35.317  1.00  0.00     0.179 C 
ATOM     13  C   UNL     1      15.007  10.546  36.315  1.00  0.00     0.202 C 
BRANCH   9  14
ATOM     14  C   UNL     1      13.789  13.349  34.115  1.00  0.00     0.191 C 
BRANCH  14  15
ATOM     15  O   UNL     1      12.847  12.919  33.166  1.00  0.00    -0.394 OA
ATOM     16  H   UNL     1      11.952  13.119  33.550  1.00  0.00     0.210 HD
ENDBRANCH  14  15
ENDBRANCH   9  14
BRANCH  10  17
ATOM     17  O   UNL     1      12.092  11.200  36.702  1.00  0.00    -0.387 OA
ATOM     18  H   UNL     1      12.493  11.823  37.368  1.00  0.00     0.211 HD
ENDBRANCH  10  17
BRANCH  12  19
ATOM     19  O   UNL     1      14.358  10.348  34.004  1.00  0.00    -0.387 OA
ATOM     20  H   UNL     1      13.860  11.051  33.509  1.00  0.00     0.211 HD
ENDBRANCH  12  19
BRANCH  13  21
ATOM     21  O   UNL     1      14.581  10.175  37.606  1.00  0.00    -0.385 OA
ATOM     22  H   UNL     1      15.232  10.584  38.253  1.00  0.00     0.211 HD
ENDBRANCH  13  21
ENDBRANCH   7   8
ENDBRANCH   1   7
BRANCH   2  23
ATOM     23  C   UNL     1      19.327  12.031  37.405  1.00  0.00     0.191 C 
BRANCH  23  24
ATOM     24  O   UNL     1      19.821  12.787  38.473  1.00  0.00    -0.394 OA
ATOM     25  H   UNL     1      20.568  13.335  38.111  1.00  0.00     0.210 HD
ENDBRANCH  23  24
ENDBRANCH   2  23
BRANCH   6  26
ATOM     26  O   UNL     1      17.902  12.252  33.000  1.00  0.00    -0.387 OA
ATOM     27  H   UNL     1      17.756  13.070  32.449  1.00  0.00     0.211 HD
ENDBRANCH   6  26
BRANCH   5  28
ATOM     28  O   UNL     1      19.075  14.781  33.207  1.00  0.00    -0.385 OA
ATOM     29  H   UNL     1      19.627  15.540  33.540  1.00  0.00     0.211 HD
ENDBRANCH   5  28
BRANCH   4  30
ATOM     30  O   UNL     1      20.423  14.108  35.762  1.00  0.00    -0.341 OA
BRANCH  30  31
ATOM     31  C   UNL     1      21.384  15.088  36.130  1.00  0.00     0.184 C 
ATOM     32  C   UNL     1      22.659  14.407  36.711  1.00  0.00     0.178 C 
ATOM     33  C   UNL     1      21.721  15.963  34.907  1.00  0.00     0.180 C 
ATOM     34  O   UNL     1      23.726  15.333  36.931  1.00  0.00    -0.342 OA
ATOM     35  C   UNL     1      22.882  16.908  35.247  1.00  0.00     0.201 C 
ATOM     36  C   UNL     1      24.079  16.102  35.788  1.00  0.00     0.279 C 
BRANCH  32  37
ATOM     37  C   UNL     1      23.115  13.132  35.956  1.00  0.00     0.191 C 
BRANCH  37  38
ATOM     38  O   UNL     1      24.398  12.721  36.361  1.00  0.00    -0.394 OA
ATOM     39  H   UNL     1      24.368  12.536  37.333  1.00  0.00     0.210 HD
ENDBRANCH  37  38
ENDBRANCH  32  37
BRANCH  33  40
ATOM     40  O   UNL     1      22.025  15.169  33.785  1.00  0.00    -0.387 OA
ATOM     41  H   UNL     1      21.566  14.299  33.921  1.00  0.00     0.211 HD
ENDBRANCH  33  40
BRANCH  35  42
ATOM     42  O   UNL     1      22.441  17.827  36.225  1.00  0.00    -0.385 OA
ATOM     43  H   UNL     1      21.960  17.306  36.919  1.00  0.00     0.211 HD
ENDBRANCH  35  42
BRANCH  36  44
ATOM     44  O   UNL     1      24.648  15.286  34.798  1.00  0.00    -0.366 OA
ATOM     45  H   UNL     1      24.252  14.380  34.910  1.00  0.00     0.213 HD
ENDBRANCH  36  44
ENDBRANCH  30  31
ENDBRANCH   4  30
TORSDOF 18
ENDMDL
MODEL 6
REMARK VINA RESULT:    -6.876      1.162      8.622
REMARK INTER + INTRA:         -13.680
REMARK INTER:                 -11.715
REMARK INTRA:                  -1.965
REMARK UNBOUND:                -1.778
REMARK SMILES OC[C@@H]1O[C@H](O[C@H]2[C@@H](O)[C@H](O)[C@H](O[C@@H]3[C@H](O)[C@@H](O)[C@H](O)O[C@@H]3CO)O[C@@H]2CO)[C@@H](O)[C@H](O)[C@H]1O
REMARK SMILES IDX 7 1 26 2 25 3 12 4 10 5 8 6 6 7 5 8 3 9 33 10 4 11 31 12
REMARK SMILES IDX 29 13 2 14 1 15 34 17 32 19 30 21 27 23 28 24 9 26 11 28
REMARK SMILES IDX 13 30 14 31 22 32 15 33 21 34 17 35 19 36 23 37 24 38 16 40
REMARK SMILES IDX 18 42 20 44
REMARK H PARENT 1 16 34 18 32 20 30 22 28 25 9 27 11 29 24 39 16 41 18 43
REMARK H PARENT 20 45
REMARK Flexibility Score: inf
ROOT
ATOM      1  C   UNL     1      18.283  12.596  34.749  1.00  0.00     0.184 C 
ATOM      2  C   UNL     1      18.544  13.560  35.951  1.00  0.00     0.178 C 
ATOM      3  O   UNL     1      18.747  14.931  35.597  1.00  0.00    -0.341 OA
ATOM      4  C   UNL     1      19.675  15.131  34.538  1.00  0.00     0.282 C 
ATOM      5  C   UNL     1      19.174  14.395  33.278  1.00  0.00     0.202 C 
ATOM      6  C   UNL     1      19.211  12.892  33.565  1.00  0.00     0.180 C 
ENDROOT
BRANCH   1   7
ATOM      7  O   UNL     1      16.935  12.739  34.310  1.00  0.00    -0.341 OA
BRANCH   7   8
ATOM      8  C   UNL     1      16.335  11.491  33.989  1.00  0.00     0.282 C 
ATOM      9  C   UNL     1      14.830  11.356  35.853  1.00  0.00     0.178 C 
ATOM     10  C   UNL     1      13.581  11.467  34.959  1.00  0.00     0.177 C 
ATOM     11  O   UNL     1      15.962  10.806  35.177  1.00  0.00    -0.341 OA
ATOM     12  C   UNL     1      13.900  12.224  33.660  1.00  0.00     0.179 C 
ATOM     13  C   UNL     1      15.153  11.651  32.990  1.00  0.00     0.202 C 
BRANCH   9  14
ATOM     14  C   UNL     1      15.162  12.656  36.619  1.00  0.00     0.191 C 
BRANCH  14  15
ATOM     15  O   UNL     1      13.976  13.336  36.938  1.00  0.00    -0.394 OA
ATOM     16  H   UNL     1      13.323  13.113  36.222  1.00  0.00     0.210 HD
ENDBRANCH  14  15
ENDBRANCH   9  14
BRANCH  10  17
ATOM     17  O   UNL     1      13.125  10.170  34.653  1.00  0.00    -0.387 OA
ATOM     18  H   UNL     1      12.610  10.244  33.804  1.00  0.00     0.211 HD
ENDBRANCH  10  17
BRANCH  12  19
ATOM     19  O   UNL     1      14.073  13.592  33.922  1.00  0.00    -0.387 OA
ATOM     20  H   UNL     1      13.814  14.084  33.100  1.00  0.00     0.211 HD
ENDBRANCH  12  19
BRANCH  13  21
ATOM     21  O   UNL     1      14.849  10.403  32.410  1.00  0.00    -0.385 OA
ATOM     22  H   UNL     1      15.541  10.238  31.700  1.00  0.00     0.211 HD
ENDBRANCH  13  21
ENDBRANCH   7   8
ENDBRANCH   1   7
BRANCH   2  23
ATOM     23  C   UNL     1      19.658  13.055  36.895  1.00  0.00     0.191 C 
BRANCH  23  24
ATOM     24  O   UNL     1      20.056  14.074  37.766  1.00  0.00    -0.394 OA
ATOM     25  H   UNL     1      20.848  14.510  37.349  1.00  0.00     0.210 HD
ENDBRANCH  23  24
ENDBRANCH   2  23
BRANCH   6  26
ATOM     26  O   UNL     1      18.804  12.172  32.426  1.00  0.00    -0.387 OA
ATOM     27  H   UNL     1      18.047  11.588  32.711  1.00  0.00     0.211 HD
ENDBRANCH   6  26
BRANCH   5  28
ATOM     28  O   UNL     1      19.965  14.700  32.157  1.00  0.00    -0.385 OA
ATOM     29  H   UNL     1      19.862  15.673  31.968  1.00  0.00     0.211 HD
ENDBRANCH   5  28
BRANCH   4  30
ATOM     30  O   UNL     1      20.973  14.695  34.947  1.00  0.00    -0.341 OA
BRANCH  30  31
ATOM     31  C   UNL     1      21.906  15.752  35.122  1.00  0.00     0.184 C 
ATOM     32  C   UNL     1      23.091  15.286  36.021  1.00  0.00     0.178 C 
ATOM     33  C   UNL     1      22.401  16.235  33.745  1.00  0.00     0.180 C 
ATOM     34  O   UNL     1      24.146  16.250  36.084  1.00  0.00    -0.342 OA
ATOM     35  C   UNL     1      23.535  17.253  33.927  1.00  0.00     0.201 C 
ATOM     36  C   UNL     1      24.645  16.655  34.815  1.00  0.00     0.279 C 
BRANCH  32  37
ATOM     37  C   UNL     1      23.603  13.852  35.729  1.00  0.00     0.191 C 
BRANCH  37  38
ATOM     38  O   UNL     1      24.803  13.581  36.410  1.00  0.00    -0.394 OA
ATOM     39  H   UNL     1      24.578  13.340  37.344  1.00  0.00     0.210 HD
ENDBRANCH  37  38
ENDBRANCH  32  37
BRANCH  33  40
ATOM     40  O   UNL     1      22.814  15.152  32.947  1.00  0.00    -0.387 OA
ATOM     41  H   UNL     1      23.399  14.588  33.517  1.00  0.00     0.211 HD
ENDBRANCH  33  40
BRANCH  35  42
ATOM     42  O   UNL     1      23.006  18.412  34.536  1.00  0.00    -0.385 OA
ATOM     43  H   UNL     1      23.769  19.018  34.726  1.00  0.00     0.211 HD
ENDBRANCH  35  42
BRANCH  36  44
ATOM     44  O   UNL     1      25.305  15.592  34.179  1.00  0.00    -0.366 OA
ATOM     45  H   UNL     1      26.177  15.947  33.857  1.00  0.00     0.213 HD
ENDBRANCH  36  44
ENDBRANCH  30  31
ENDBRANCH   4  30
TORSDOF 18
ENDMDL
MODEL 7
REMARK VINA RESULT:    -6.748      1.660      2.739
REMARK INTER + INTRA:         -13.457
REMARK INTER:                 -11.324
REMARK INTRA:                  -2.133
REMARK UNBOUND:                -1.778
REMARK SMILES OC[C@@H]1O[C@H](O[C@H]2[C@@H](O)[C@H](O)[C@H](O[C@@H]3[C@H](O)[C@@H](O)[C@H](O)O[C@@H]3CO)O[C@@H]2CO)[C@@H](O)[C@H](O)[C@H]1O
REMARK SMILES IDX 7 1 26 2 25 3 12 4 10 5 8 6 6 7 5 8 3 9 33 10 4 11 31 12
REMARK SMILES IDX 29 13 2 14 1 15 34 17 32 19 30 21 27 23 28 24 9 26 11 28
REMARK SMILES IDX 13 30 14 31 22 32 15 33 21 34 17 35 19 36 23 37 24 38 16 40
REMARK SMILES IDX 18 42 20 44
REMARK H PARENT 1 16 34 18 32 20 30 22 28 25 9 27 11 29 24 39 16 41 18 43
REMARK H PARENT 20 45
REMARK Flexibility Score: inf
ROOT
ATOM      1  C   UNL     1      19.492  13.175  35.355  1.00  0.00     0.184 C 
ATOM      2  C   UNL     1      19.056  11.691  35.124  1.00  0.00     0.178 C 
ATOM      3  O   UNL     1      18.156  11.487  34.031  1.00  0.00    -0.341 OA
ATOM      4  C   UNL     1      17.050  12.381  34.008  1.00  0.00     0.282 C 
ATOM      5  C   UNL     1      17.569  13.830  33.917  1.00  0.00     0.202 C 
ATOM      6  C   UNL     1      18.314  14.147  35.216  1.00  0.00     0.180 C 
ENDROOT
BRANCH   1   7
ATOM      7  O   UNL     1      20.486  13.532  34.398  1.00  0.00    -0.341 OA
BRANCH   7   8
ATOM      8  C   UNL     1      21.805  13.349  34.893  1.00  0.00     0.282 C 
ATOM      9  C   UNL     1      22.979  14.491  33.141  1.00  0.00     0.178 C 
ATOM     10  C   UNL     1      23.463  15.611  34.082  1.00  0.00     0.177 C 
ATOM     11  O   UNL     1      22.726  13.258  33.815  1.00  0.00    -0.341 OA
ATOM     12  C   UNL     1      22.498  15.789  35.265  1.00  0.00     0.179 C 
ATOM     13  C   UNL     1      22.197  14.442  35.929  1.00  0.00     0.202 C 
BRANCH   9  14
ATOM     14  C   UNL     1      21.821  14.918  32.213  1.00  0.00     0.191 C 
BRANCH  14  15
ATOM     15  O   UNL     1      21.373  13.813  31.471  1.00  0.00    -0.394 OA
ATOM     16  H   UNL     1      20.880  14.181  30.690  1.00  0.00     0.210 HD
ENDBRANCH  14  15
ENDBRANCH   9  14
BRANCH  10  17
ATOM     17  O   UNL     1      24.746  15.281  34.560  1.00  0.00    -0.387 OA
ATOM     18  H   UNL     1      24.611  14.641  35.311  1.00  0.00     0.211 HD
ENDBRANCH  10  17
BRANCH  12  19
ATOM     19  O   UNL     1      21.307  16.396  34.838  1.00  0.00    -0.387 OA
ATOM     20  H   UNL     1      20.593  15.707  34.881  1.00  0.00     0.211 HD
ENDBRANCH  12  19
BRANCH  13  21
ATOM     21  O   UNL     1      23.321  14.017  36.665  1.00  0.00    -0.385 OA
ATOM     22  H   UNL     1      23.672  14.824  37.149  1.00  0.00     0.211 HD
ENDBRANCH  13  21
ENDBRANCH   7   8
ENDBRANCH   1   7
BRANCH   2  23
ATOM     23  C   UNL     1      18.540  11.010  36.410  1.00  0.00     0.191 C 
BRANCH  23  24
ATOM     24  O   UNL     1      18.374  11.955  37.427  1.00  0.00    -0.394 OA
ATOM     25  H   UNL     1      19.126  11.822  38.065  1.00  0.00     0.210 HD
ENDBRANCH  23  24
ENDBRANCH   2  23
BRANCH   6  26
ATOM     26  O   UNL     1      18.771  15.478  35.199  1.00  0.00    -0.387 OA
ATOM     27  H   UNL     1      18.764  15.796  36.145  1.00  0.00     0.211 HD
ENDBRANCH   6  26
BRANCH   5  28
ATOM     28  O   UNL     1      16.517  14.741  33.719  1.00  0.00    -0.385 OA
ATOM     29  H   UNL     1      16.381  15.239  34.571  1.00  0.00     0.211 HD
ENDBRANCH   5  28
BRANCH   4  30
ATOM     30  O   UNL     1      16.233  12.164  35.160  1.00  0.00    -0.341 OA
BRANCH  30  31
ATOM     31  C   UNL     1      14.847  12.045  34.870  1.00  0.00     0.184 C 
ATOM     32  C   UNL     1      14.284  10.710  35.445  1.00  0.00     0.178 C 
ATOM     33  C   UNL     1      14.095  13.264  35.438  1.00  0.00     0.180 C 
ATOM     34  O   UNL     1      12.862  10.622  35.338  1.00  0.00    -0.342 OA
ATOM     35  C   UNL     1      12.581  13.061  35.284  1.00  0.00     0.201 C 
ATOM     36  C   UNL     1      12.161  11.718  35.914  1.00  0.00     0.279 C 
BRANCH  32  37
ATOM     37  C   UNL     1      14.806  10.342  36.858  1.00  0.00     0.191 C 
BRANCH  37  38
ATOM     38  O   UNL     1      14.085   9.270  37.414  1.00  0.00    -0.394 OA
ATOM     39  H   UNL     1      13.934   8.599  36.701  1.00  0.00     0.210 HD
ENDBRANCH  37  38
ENDBRANCH  32  37
BRANCH  33  40
ATOM     40  O   UNL     1      14.442  13.490  36.783  1.00  0.00    -0.387 OA
ATOM     41  H   UNL     1      13.592  13.631  37.276  1.00  0.00     0.211 HD
ENDBRANCH  33  40
BRANCH  35  42
ATOM     42  O   UNL     1      12.266  13.064  33.907  1.00  0.00    -0.385 OA
ATOM     43  H   UNL     1      11.375  12.636  33.810  1.00  0.00     0.211 HD
ENDBRANCH  35  42
BRANCH  36  44
ATOM     44  O   UNL     1      12.314  11.726  37.309  1.00  0.00    -0.366 OA
ATOM     45  H   UNL     1      12.500  12.667  37.572  1.00  0.00     0.213 HD
ENDBRANCH  36  44
ENDBRANCH  30  31
ENDBRANCH   4  30
TORSDOF 18
ENDMDL
MODEL 8
REMARK VINA RESULT:    -6.713      1.601      8.398
REMARK INTER + INTRA:         -13.397
REMARK INTER:                 -11.299
REMARK INTRA:                  -2.098
REMARK UNBOUND:                -1.778
REMARK SMILES OC[C@@H]1O[C@H](O[C@H]2[C@@H](O)[C@H](O)[C@H](O[C@@H]3[C@H](O)[C@@H](O)[C@H](O)O[C@@H]3CO)O[C@@H]2CO)[C@@H](O)[C@H](O)[C@H]1O
REMARK SMILES IDX 7 1 26 2 25 3 12 4 10 5 8 6 6 7 5 8 3 9 33 10 4 11 31 12
REMARK SMILES IDX 29 13 2 14 1 15 34 17 32 19 30 21 27 23 28 24 9 26 11 28
REMARK SMILES IDX 13 30 14 31 22 32 15 33 21 34 17 35 19 36 23 37 24 38 16 40
REMARK SMILES IDX 18 42 20 44
REMARK H PARENT 1 16 34 18 32 20 30 22 28 25 9 27 11 29 24 39 16 41 18 43
REMARK H PARENT 20 45
REMARK Flexibility Score: inf
ROOT
ATOM      1  C   UNL     1      18.855  14.683  35.528  1.00  0.00     0.184 C 
ATOM      2  C   UNL     1      19.222  15.261  34.122  1.00  0.00     0.178 C 
ATOM      3  O   UNL     1      20.342  14.639  33.484  1.00  0.00    -0.341 OA
ATOM      4  C   UNL     1      21.484  14.494  34.318  1.00  0.00     0.282 C 
ATOM      5  C   UNL     1      21.112  13.633  35.543  1.00  0.00     0.202 C 
ATOM      6  C   UNL     1      20.102  14.419  36.382  1.00  0.00     0.180 C 
ENDROOT
BRANCH   1   7
ATOM      7  O   UNL     1      18.153  13.454  35.367  1.00  0.00    -0.341 OA
BRANCH   7   8
ATOM      8  C   UNL     1      16.767  13.652  35.117  1.00  0.00     0.282 C 
ATOM      9  C   UNL     1      16.491  11.968  33.430  1.00  0.00     0.178 C 
ATOM     10  C   UNL     1      15.561  11.116  34.315  1.00  0.00     0.177 C 
ATOM     11  O   UNL     1      16.467  13.357  33.760  1.00  0.00    -0.341 OA
ATOM     12  C   UNL     1      15.846  11.360  35.806  1.00  0.00     0.179 C 
ATOM     13  C   UNL     1      15.874  12.860  36.116  1.00  0.00     0.202 C 
BRANCH   9  14
ATOM     14  C   UNL     1      17.924  11.403  33.313  1.00  0.00     0.191 C 
BRANCH  14  15
ATOM     15  O   UNL     1      18.737  12.308  32.612  1.00  0.00    -0.394 OA
ATOM     16  H   UNL     1      18.370  12.360  31.690  1.00  0.00     0.210 HD
ENDBRANCH  14  15
ENDBRANCH   9  14
BRANCH  10  17
ATOM     17  O   UNL     1      14.224  11.453  34.025  1.00  0.00    -0.387 OA
ATOM     18  H   UNL     1      14.031  12.294  34.521  1.00  0.00     0.211 HD
ENDBRANCH  10  17
BRANCH  12  19
ATOM     19  O   UNL     1      17.062  10.765  36.174  1.00  0.00    -0.387 OA
ATOM     20  H   UNL     1      17.309  11.127  37.066  1.00  0.00     0.211 HD
ENDBRANCH  12  19
BRANCH  13  21
ATOM     21  O   UNL     1      14.562  13.373  36.089  1.00  0.00    -0.385 OA
ATOM     22  H   UNL     1      13.952  12.596  35.907  1.00  0.00     0.211 HD
ENDBRANCH  13  21
ENDBRANCH   7   8
ENDBRANCH   1   7
BRANCH   2  23
ATOM     23  C   UNL     1      19.359  16.799  34.123  1.00  0.00     0.191 C 
BRANCH  23  24
ATOM     24  O   UNL     1      19.129  17.308  32.841  1.00  0.00    -0.394 OA
ATOM     25  H   UNL     1      19.949  17.809  32.583  1.00  0.00     0.210 HD
ENDBRANCH  23  24
ENDBRANCH   2  23
BRANCH   6  26
ATOM     26  O   UNL     1      19.764  13.692  37.539  1.00  0.00    -0.387 OA
ATOM     27  H   UNL     1      18.841  13.971  37.793  1.00  0.00     0.211 HD
ENDBRANCH   6  26
BRANCH   5  28
ATOM     28  O   UNL     1      22.247  13.316  36.310  1.00  0.00    -0.385 OA
ATOM     29  H   UNL     1      22.637  14.169  36.644  1.00  0.00     0.211 HD
ENDBRANCH   5  28
BRANCH   4  30
ATOM     30  O   UNL     1      21.980  15.782  34.684  1.00  0.00    -0.341 OA
BRANCH  30  31
ATOM     31  C   UNL     1      23.397  15.883  34.658  1.00  0.00     0.184 C 
ATOM     32  C   UNL     1      23.843  17.012  33.680  1.00  0.00     0.178 C 
ATOM     33  C   UNL     1      23.922  16.134  36.085  1.00  0.00     0.180 C 
ATOM     34  O   UNL     1      25.246  17.277  33.749  1.00  0.00    -0.342 OA
ATOM     35  C   UNL     1      25.430  16.418  36.042  1.00  0.00     0.201 C 
ATOM     36  C   UNL     1      25.725  17.567  35.056  1.00  0.00     0.279 C 
BRANCH  32  37
ATOM     37  C   UNL     1      22.983  18.302  33.743  1.00  0.00     0.191 C 
BRANCH  37  38
ATOM     38  O   UNL     1      21.912  18.256  32.833  1.00  0.00    -0.394 OA
ATOM     39  H   UNL     1      22.283  18.322  31.918  1.00  0.00     0.210 HD
ENDBRANCH  37  38
ENDBRANCH  32  37
BRANCH  33  40
ATOM     40  O   UNL     1      23.224  17.189  36.702  1.00  0.00    -0.387 OA
ATOM     41  H   UNL     1      22.332  17.231  36.268  1.00  0.00     0.211 HD
ENDBRANCH  33  40
BRANCH  35  42
ATOM     42  O   UNL     1      26.097  15.245  35.624  1.00  0.00    -0.385 OA
ATOM     43  H   UNL     1      25.525  14.813  34.937  1.00  0.00     0.211 HD
ENDBRANCH  35  42
BRANCH  36  44
ATOM     44  O   UNL     1      25.210  18.790  35.513  1.00  0.00    -0.366 OA
ATOM     45  H   UNL     1      24.439  19.014  34.926  1.00  0.00     0.213 HD
ENDBRANCH  36  44
ENDBRANCH  30  31
ENDBRANCH   4  30
TORSDOF 18
ENDMDL
MODEL 9
REMARK VINA RESULT:    -6.704      1.342      1.982
REMARK INTER + INTRA:         -13.381
REMARK INTER:                 -11.708
REMARK INTRA:                  -1.674
REMARK UNBOUND:                -1.778
REMARK SMILES OC[C@@H]1O[C@H](O[C@H]2[C@@H](O)[C@H](O)[C@H](O[C@@H]3[C@H](O)[C@@H](O)[C@H](O)O[C@@H]3CO)O[C@@H]2CO)[C@@H](O)[C@H](O)[C@H]1O
REMARK SMILES IDX 7 1 26 2 25 3 12 4 10 5 8 6 6 7 5 8 3 9 33 10 4 11 31 12
REMARK SMILES IDX 29 13 2 14 1 15 34 17 32 19 30 21 27 23 28 24 9 26 11 28
REMARK SMILES IDX 13 30 14 31 22 32 15 33 21 34 17 35 19 36 23 37 24 38 16 40
REMARK SMILES IDX 18 42 20 44
REMARK H PARENT 1 16 34 18 32 20 30 22 28 25 9 27 11 29 24 39 16 41 18 43
REMARK H PARENT 20 45
REMARK Flexibility Score: inf
ROOT
ATOM      1  C   UNL     1      19.928  13.111  35.004  1.00  0.00     0.184 C 
ATOM      2  C   UNL     1      19.621  11.643  34.560  1.00  0.00     0.178 C 
ATOM      3  O   UNL     1      18.698  11.518  33.475  1.00  0.00    -0.341 OA
ATOM      4  C   UNL     1      17.514  12.291  33.621  1.00  0.00     0.282 C 
ATOM      5  C   UNL     1      17.892  13.782  33.738  1.00  0.00     0.202 C 
ATOM      6  C   UNL     1      18.659  13.972  35.048  1.00  0.00     0.180 C 
ENDROOT
BRANCH   1   7
ATOM      7  O   UNL     1      20.842  13.703  34.085  1.00  0.00    -0.341 OA
BRANCH   7   8
ATOM      8  C   UNL     1      22.184  13.304  34.324  1.00  0.00     0.282 C 
ATOM      9  C   UNL     1      23.271  15.266  33.472  1.00  0.00     0.178 C 
ATOM     10  C   UNL     1      23.813  15.668  34.857  1.00  0.00     0.177 C 
ATOM     11  O   UNL     1      23.045  13.862  33.341  1.00  0.00    -0.341 OA
ATOM     12  C   UNL     1      22.915  15.121  35.978  1.00  0.00     0.179 C 
ATOM     13  C   UNL     1      22.641  13.628  35.776  1.00  0.00     0.202 C 
BRANCH   9  14
ATOM     14  C   UNL     1      22.068  16.114  33.007  1.00  0.00     0.191 C 
BRANCH  14  15
ATOM     15  O   UNL     1      22.260  17.456  33.373  1.00  0.00    -0.394 OA
ATOM     16  H   UNL     1      21.627  17.990  32.824  1.00  0.00     0.210 HD
ENDBRANCH  14  15
ENDBRANCH   9  14
BRANCH  10  17
ATOM     17  O   UNL     1      25.118  15.156  35.000  1.00  0.00    -0.387 OA
ATOM     18  H   UNL     1      25.689  15.918  35.291  1.00  0.00     0.211 HD
ENDBRANCH  10  17
BRANCH  12  19
ATOM     19  O   UNL     1      21.708  15.834  36.028  1.00  0.00    -0.387 OA
ATOM     20  H   UNL     1      21.773  16.572  35.367  1.00  0.00     0.211 HD
ENDBRANCH  12  19
BRANCH  13  21
ATOM     21  O   UNL     1      23.799  12.888  36.086  1.00  0.00    -0.385 OA
ATOM     22  H   UNL     1      23.542  12.236  36.806  1.00  0.00     0.211 HD
ENDBRANCH  13  21
ENDBRANCH   7   8
ENDBRANCH   1   7
BRANCH   2  23
ATOM     23  C   UNL     1      19.226  10.729  35.741  1.00  0.00     0.191 C 
BRANCH  23  24
ATOM     24  O   UNL     1      18.784  11.497  36.823  1.00  0.00    -0.394 OA
ATOM     25  H   UNL     1      19.082  12.430  36.649  1.00  0.00     0.210 HD
ENDBRANCH  23  24
ENDBRANCH   2  23
BRANCH   6  26
ATOM     26  O   UNL     1      18.990  15.329  35.223  1.00  0.00    -0.387 OA
ATOM     27  H   UNL     1      18.161  15.853  35.042  1.00  0.00     0.211 HD
ENDBRANCH   6  26
BRANCH   5  28
ATOM     28  O   UNL     1      16.753  14.605  33.712  1.00  0.00    -0.385 OA
ATOM     29  H   UNL     1      16.720  15.107  34.571  1.00  0.00     0.211 HD
ENDBRANCH   5  28
BRANCH   4  30
ATOM     30  O   UNL     1      16.771  11.826  34.749  1.00  0.00    -0.341 OA
BRANCH  30  31
ATOM     31  C   UNL     1      15.473  12.396  34.859  1.00  0.00     0.184 C 
ATOM     32  C   UNL     1      14.460  11.614  33.970  1.00  0.00     0.178 C 
ATOM     33  C   UNL     1      15.038  12.401  36.337  1.00  0.00     0.180 C 
ATOM     34  O   UNL     1      13.109  12.032  34.179  1.00  0.00    -0.342 OA
ATOM     35  C   UNL     1      13.574  12.851  36.447  1.00  0.00     0.201 C 
ATOM     36  C   UNL     1      12.684  11.982  35.536  1.00  0.00     0.279 C 
BRANCH  32  37
ATOM     37  C   UNL     1      14.625  10.073  33.998  1.00  0.00     0.191 C 
BRANCH  37  38
ATOM     38  O   UNL     1      13.573   9.426  33.326  1.00  0.00    -0.394 OA
ATOM     39  H   UNL     1      13.877   8.515  33.083  1.00  0.00     0.210 HD
ENDBRANCH  37  38
ENDBRANCH  32  37
BRANCH  33  40
ATOM     40  O   UNL     1      15.225  11.135  36.924  1.00  0.00    -0.387 OA
ATOM     41  H   UNL     1      16.199  11.043  37.093  1.00  0.00     0.211 HD
ENDBRANCH  33  40
BRANCH  35  42
ATOM     42  O   UNL     1      13.489  14.204  36.051  1.00  0.00    -0.385 OA
ATOM     43  H   UNL     1      13.691  14.756  36.851  1.00  0.00     0.211 HD
ENDBRANCH  35  42
BRANCH  36  44
ATOM     44  O   UNL     1      12.616  10.655  35.987  1.00  0.00    -0.366 OA
ATOM     45  H   UNL     1      13.553  10.343  36.104  1.00  0.00     0.213 HD
ENDBRANCH  36  44
ENDBRANCH  30  31
ENDBRANCH   4  30
TORSDOF 18
ENDMDL
