MODEL 1
REMARK VINA RESULT:    -4.851      0.000      0.000
REMARK INTER + INTRA:          -8.261
REMARK INTER:                  -7.404
REMARK INTRA:                  -0.857
REMARK UNBOUND:                -0.857
REMARK SMILES O=C([O-])CCCCCCCCC(=O)[O-]
REMARK SMILES IDX 7 1 6 2 5 3 4 4 2 5 1 6 3 7 8 8 9 9 10 10 11 11 12 12 13 13
REMARK SMILES IDX 14 14
REMARK H PARENT
REMARK Flexibility Score: inf
ROOT
ATOM      1  C   UNL     1       1.434  46.677   8.843  1.00  0.00     0.000 C 
ENDROOT
BRANCH   1   2
ATOM      2  C   UNL     1       2.680  46.869   9.722  1.00  0.00     0.000 C 
BRANCH   2   3
ATOM      3  C   UNL     1       3.966  47.048   8.897  1.00  0.00     0.006 C 
BRANCH   3   4
ATOM      4  C   UNL     1       5.227  46.739   9.717  1.00  0.00     0.053 C 
BRANCH   4   5
ATOM      5  C   UNL     1       6.348  47.678   9.387  1.00  0.00     0.041 C 
ATOM      6  O   UNL     1       7.542  47.333   9.581  1.00  0.00    -0.550 OA
ATOM      7  O   UNL     1       6.071  48.923   8.836  1.00  0.00    -0.550 OA
ENDBRANCH   4   5
ENDBRANCH   3   4
ENDBRANCH   2   3
ENDBRANCH   1   2
BRANCH   1   8
ATOM      8  C   UNL     1       0.775  45.301   9.042  1.00  0.00     0.000 C 
BRANCH   8   9
ATOM      9  C   UNL     1       1.570  44.398   9.998  1.00  0.00     0.000 C 
BRANCH   9  10
ATOM     10  C   UNL     1       2.335  43.285   9.265  1.00  0.00     0.006 C 
BRANCH  10  11
ATOM     11  C   UNL     1       3.814  43.284   9.662  1.00  0.00     0.053 C 
BRANCH  11  12
ATOM     12  C   UNL     1       3.963  43.065  11.134  1.00  0.00     0.041 C 
ATOM     13  O   UNL     1       3.668  41.952  11.642  1.00  0.00    -0.550 OA
ATOM     14  O   UNL     1       4.476  44.074  11.938  1.00  0.00    -0.550 OA
ENDBRANCH  11  12
ENDBRANCH  10  11
ENDBRANCH   9  10
ENDBRANCH   8   9
ENDBRANCH   1   8
TORSDOF 9
ENDMDL
MODEL 2
REMARK VINA RESULT:    -4.812      0.167      4.726
REMARK INTER + INTRA:          -8.201
REMARK INTER:                  -7.387
REMARK INTRA:                  -0.814
REMARK UNBOUND:                -0.857
REMARK SMILES O=C([O-])CCCCCCCCC(=O)[O-]
REMARK SMILES IDX 7 1 6 2 5 3 4 4 2 5 1 6 3 7 8 8 9 9 10 10 11 11 12 12 13 13
REMARK SMILES IDX 14 14
REMARK H PARENT
REMARK Flexibility Score: inf
ROOT
ATOM      1  C   UNL     1       0.699  45.253   9.277  1.00  0.00     0.000 C 
ENDROOT
BRANCH   1   2
ATOM      2  C   UNL     1       1.519  44.275  10.133  1.00  0.00     0.000 C 
BRANCH   2   3
ATOM      3  C   UNL     1       2.291  43.249   9.286  1.00  0.00     0.006 C 
BRANCH   3   4
ATOM      4  C   UNL     1       3.763  43.141   9.708  1.00  0.00     0.053 C 
BRANCH   4   5
ATOM      5  C   UNL     1       3.906  42.958  11.188  1.00  0.00     0.041 C 
ATOM      6  O   UNL     1       3.566  41.875  11.730  1.00  0.00    -0.550 OA
ATOM      7  O   UNL     1       4.444  43.977  11.965  1.00  0.00    -0.550 OA
ENDBRANCH   4   5
ENDBRANCH   3   4
ENDBRANCH   2   3
ENDBRANCH   1   2
BRANCH   1   8
ATOM      8  C   UNL     1       1.454  46.562   8.987  1.00  0.00     0.000 C 
BRANCH   8   9
ATOM      9  C   UNL     1       2.717  46.720   9.848  1.00  0.00     0.000 C 
BRANCH   9  10
ATOM     10  C   UNL     1       4.001  46.809   9.010  1.00  0.00     0.006 C 
BRANCH  10  11
ATOM     11  C   UNL     1       5.243  46.722   9.900  1.00  0.00     0.053 C 
BRANCH  11  12
ATOM     12  C   UNL     1       6.311  47.646   9.405  1.00  0.00     0.041 C 
ATOM     13  O   UNL     1       7.524  47.328   9.512  1.00  0.00    -0.550 OA
ATOM     14  O   UNL     1       5.964  48.836   8.780  1.00  0.00    -0.550 OA
ENDBRANCH  11  12
ENDBRANCH  10  11
ENDBRANCH   9  10
ENDBRANCH   8   9
ENDBRANCH   1   8
TORSDOF 9
ENDMDL
MODEL 3
REMARK VINA RESULT:    -4.784      0.658      5.075
REMARK INTER + INTRA:          -8.159
REMARK INTER:                  -7.392
REMARK INTRA:                  -0.767
REMARK UNBOUND:                -0.857
REMARK SMILES O=C([O-])CCCCCCCCC(=O)[O-]
REMARK SMILES IDX 7 1 6 2 5 3 4 4 2 5 1 6 3 7 8 8 9 9 10 10 11 11 12 12 13 13
REMARK SMILES IDX 14 14
REMARK H PARENT
REMARK Flexibility Score: inf
ROOT
ATOM      1  C   UNL     1       1.190  45.663   9.510  1.00  0.00     0.000 C 
ENDROOT
BRANCH   1   2
ATOM      2  C   UNL     1       1.599  44.375  10.243  1.00  0.00     0.000 C 
BRANCH   2   3
ATOM      3  C   UNL     1       2.203  43.321   9.298  1.00  0.00     0.006 C 
BRANCH   3   4
ATOM      4  C   UNL     1       3.595  42.864   9.755  1.00  0.00     0.053 C 
BRANCH   4   5
ATOM      5  C   UNL     1       3.627  42.562  11.222  1.00  0.00     0.041 C 
ATOM      6  O   UNL     1       3.082  41.519  11.668  1.00  0.00    -0.550 OA
ATOM      7  O   UNL     1       4.286  43.421  12.094  1.00  0.00    -0.550 OA
ENDBRANCH   4   5
ENDBRANCH   3   4
ENDBRANCH   2   3
ENDBRANCH   1   2
BRANCH   1   8
ATOM      8  C   UNL     1       2.284  46.744   9.560  1.00  0.00     0.000 C 
BRANCH   8   9
ATOM      9  C   UNL     1       3.355  46.453  10.624  1.00  0.00     0.000 C 
BRANCH   9  10
ATOM     10  C   UNL     1       4.771  46.372  10.033  1.00  0.00     0.006 C 
BRANCH  10  11
ATOM     11  C   UNL     1       4.981  47.450   8.966  1.00  0.00     0.053 C 
BRANCH  11  12
ATOM     12  C   UNL     1       6.307  48.119   9.149  1.00  0.00     0.041 C 
ATOM     13  O   UNL     1       6.410  49.368   9.024  1.00  0.00    -0.550 OA
ATOM     14  O   UNL     1       7.420  47.369   9.506  1.00  0.00    -0.550 OA
ENDBRANCH  11  12
ENDBRANCH  10  11
ENDBRANCH   9  10
ENDBRANCH   8   9
ENDBRANCH   1   8
TORSDOF 9
ENDMDL
MODEL 4
REMARK VINA RESULT:    -4.760      1.689      5.927
REMARK INTER + INTRA:          -8.122
REMARK INTER:                  -7.662
REMARK INTRA:                  -0.460
REMARK UNBOUND:                -0.857
REMARK SMILES O=C([O-])CCCCCCCCC(=O)[O-]
REMARK SMILES IDX 7 1 6 2 5 3 4 4 2 5 1 6 3 7 8 8 9 9 10 10 11 11 12 12 13 13
REMARK SMILES IDX 14 14
REMARK H PARENT
REMARK Flexibility Score: inf
ROOT
ATOM      1  C   UNL     1       1.678  44.273  10.199  1.00  0.00     0.000 C 
ENDROOT
BRANCH   1   2
ATOM      2  C   UNL     1       1.879  44.016  11.701  1.00  0.00     0.000 C 
BRANCH   2   3
ATOM      3  C   UNL     1       1.967  42.518  12.040  1.00  0.00     0.006 C 
BRANCH   3   4
ATOM      4  C   UNL     1       3.294  41.897  11.579  1.00  0.00     0.053 C 
BRANCH   4   5
ATOM      5  C   UNL     1       3.632  40.664  12.360  1.00  0.00     0.041 C 
ATOM      6  O   UNL     1       4.825  40.421  12.678  1.00  0.00    -0.550 OA
ATOM      7  O   UNL     1       2.622  39.798  12.762  1.00  0.00    -0.550 OA
ENDBRANCH   4   5
ENDBRANCH   3   4
ENDBRANCH   2   3
ENDBRANCH   1   2
BRANCH   1   8
ATOM      8  C   UNL     1       2.533  45.441   9.679  1.00  0.00     0.000 C 
BRANCH   8   9
ATOM      9  C   UNL     1       3.449  46.032  10.763  1.00  0.00     0.000 C 
BRANCH   9  10
ATOM     10  C   UNL     1       4.893  46.230  10.277  1.00  0.00     0.006 C 
BRANCH  10  11
ATOM     11  C   UNL     1       4.964  47.314   9.198  1.00  0.00     0.053 C 
BRANCH  11  12
ATOM     12  C   UNL     1       6.292  48.001   9.229  1.00  0.00     0.041 C 
ATOM     13  O   UNL     1       7.323  47.371   9.582  1.00  0.00    -0.550 OA
ATOM     14  O   UNL     1       6.401  49.323   8.820  1.00  0.00    -0.550 OA
ENDBRANCH  11  12
ENDBRANCH  10  11
ENDBRANCH   9  10
ENDBRANCH   8   9
ENDBRANCH   1   8
TORSDOF 9
ENDMDL
MODEL 5
REMARK VINA RESULT:    -4.660      1.659      2.341
REMARK INTER + INTRA:          -7.969
REMARK INTER:                  -7.460
REMARK INTRA:                  -0.509
REMARK UNBOUND:                -0.857
REMARK SMILES O=C([O-])CCCCCCCCC(=O)[O-]
REMARK SMILES IDX 7 1 6 2 5 3 4 4 2 5 1 6 3 7 8 8 9 9 10 10 11 11 12 12 13 13
REMARK SMILES IDX 14 14
REMARK H PARENT
REMARK Flexibility Score: inf
ROOT
ATOM      1  C   UNL     1       2.767  45.127  10.307  1.00  0.00     0.000 C 
ENDROOT
BRANCH   1   2
ATOM      2  C   UNL     1       2.816  46.631   9.996  1.00  0.00     0.000 C 
BRANCH   2   3
ATOM      3  C   UNL     1       3.995  47.011   9.084  1.00  0.00     0.006 C 
BRANCH   3   4
ATOM      4  C   UNL     1       5.350  46.660   9.714  1.00  0.00     0.053 C 
BRANCH   4   5
ATOM      5  C   UNL     1       6.412  47.647   9.336  1.00  0.00     0.041 C 
ATOM      6  O   UNL     1       7.627  47.375   9.519  1.00  0.00    -0.550 OA
ATOM      7  O   UNL     1       6.058  48.858   8.753  1.00  0.00    -0.550 OA
ENDBRANCH   4   5
ENDBRANCH   3   4
ENDBRANCH   2   3
ENDBRANCH   1   2
BRANCH   1   8
ATOM      8  C   UNL     1       2.970  44.825  11.802  1.00  0.00     0.000 C 
BRANCH   8   9
ATOM      9  C   UNL     1       4.158  43.884  12.059  1.00  0.00     0.000 C 
BRANCH   9  10
ATOM     10  C   UNL     1       4.069  42.581  11.251  1.00  0.00     0.006 C 
BRANCH  10  11
ATOM     11  C   UNL     1       2.932  41.694  11.765  1.00  0.00     0.053 C 
BRANCH  11  12
ATOM     12  C   UNL     1       3.478  40.476  12.439  1.00  0.00     0.041 C 
ATOM     13  O   UNL     1       2.712  39.526  12.751  1.00  0.00    -0.550 OA
ATOM     14  O   UNL     1       4.841  40.366  12.678  1.00  0.00    -0.550 OA
ENDBRANCH  11  12
ENDBRANCH  10  11
ENDBRANCH   9  10
ENDBRANCH   8   9
ENDBRANCH   1   8
TORSDOF 9
ENDMDL
MODEL 6
REMARK VINA RESULT:    -4.417      3.069      3.793
REMARK INTER + INTRA:          -7.597
REMARK INTER:                  -7.022
REMARK INTRA:                  -0.575
REMARK UNBOUND:                -0.857
REMARK SMILES O=C([O-])CCCCCCCCC(=O)[O-]
REMARK SMILES IDX 7 1 6 2 5 3 4 4 2 5 1 6 3 7 8 8 9 9 10 10 11 11 12 12 13 13
REMARK SMILES IDX 14 14
REMARK H PARENT
REMARK Flexibility Score: inf
ROOT
ATOM      1  C   UNL     1       4.546  45.681  10.868  1.00  0.00     0.000 C 
ENDROOT
BRANCH   1   2
ATOM      2  C   UNL     1       3.860  45.577   9.497  1.00  0.00     0.000 C 
BRANCH   2   3
ATOM      3  C   UNL     1       3.467  46.950   8.925  1.00  0.00     0.006 C 
BRANCH   3   4
ATOM      4  C   UNL     1       2.045  47.361   9.332  1.00  0.00     0.053 C 
BRANCH   4   5
ATOM      5  C   UNL     1       1.242  47.825   8.155  1.00  0.00     0.041 C 
ATOM      6  O   UNL     1       0.708  46.988   7.382  1.00  0.00    -0.550 OA
ATOM      7  O   UNL     1       1.059  49.184   7.931  1.00  0.00    -0.550 OA
ENDBRANCH   4   5
ENDBRANCH   3   4
ENDBRANCH   2   3
ENDBRANCH   1   2
BRANCH   1   8
ATOM      8  C   UNL     1       4.027  44.636  11.871  1.00  0.00     0.000 C 
BRANCH   8   9
ATOM      9  C   UNL     1       2.548  44.284  11.646  1.00  0.00     0.000 C 
BRANCH   9  10
ATOM     10  C   UNL     1       2.261  42.785  11.821  1.00  0.00     0.006 C 
BRANCH  10  11
ATOM     11  C   UNL     1       3.501  41.949  11.495  1.00  0.00     0.053 C 
BRANCH  11  12
ATOM     12  C   UNL     1       3.556  40.730  12.362  1.00  0.00     0.041 C 
ATOM     13  O   UNL     1       4.667  40.236  12.690  1.00  0.00    -0.550 OA
ATOM     14  O   UNL     1       2.383  40.170  12.849  1.00  0.00    -0.550 OA
ENDBRANCH  11  12
ENDBRANCH  10  11
ENDBRANCH   9  10
ENDBRANCH   8   9
ENDBRANCH   1   8
TORSDOF 9
ENDMDL
MODEL 7
REMARK VINA RESULT:    -4.385      1.532      2.305
REMARK INTER + INTRA:          -7.549
REMARK INTER:                  -6.919
REMARK INTRA:                  -0.629
REMARK UNBOUND:                -0.857
REMARK SMILES O=C([O-])CCCCCCCCC(=O)[O-]
REMARK SMILES IDX 7 1 6 2 5 3 4 4 2 5 1 6 3 7 8 8 9 9 10 10 11 11 12 12 13 13
REMARK SMILES IDX 14 14
REMARK H PARENT
REMARK Flexibility Score: inf
ROOT
ATOM      1  C   UNL     1       0.198  46.036   8.843  1.00  0.00     0.000 C 
ENDROOT
BRANCH   1   2
ATOM      2  C   UNL     1       1.186  46.983   8.144  1.00  0.00     0.000 C 
BRANCH   2   3
ATOM      3  C   UNL     1       2.271  47.515   9.097  1.00  0.00     0.006 C 
BRANCH   3   4
ATOM      4  C   UNL     1       3.642  47.619   8.412  1.00  0.00     0.053 C 
BRANCH   4   5
ATOM      5  C   UNL     1       4.664  46.750   9.080  1.00  0.00     0.041 C 
ATOM      6  O   UNL     1       5.805  47.205   9.351  1.00  0.00    -0.550 OA
ATOM      7  O   UNL     1       4.342  45.444   9.431  1.00  0.00    -0.550 OA
ENDBRANCH   4   5
ENDBRANCH   3   4
ENDBRANCH   2   3
ENDBRANCH   1   2
BRANCH   1   8
ATOM      8  C   UNL     1       0.891  44.812   9.467  1.00  0.00     0.000 C 
BRANCH   8   9
ATOM      9  C   UNL     1       0.699  44.737  10.990  1.00  0.00     0.000 C 
BRANCH   9  10
ATOM     10  C   UNL     1       1.943  44.209  11.720  1.00  0.00     0.006 C 
BRANCH  10  11
ATOM     11  C   UNL     1       1.756  42.747  12.134  1.00  0.00     0.053 C 
BRANCH  11  12
ATOM     12  C   UNL     1       2.950  41.934  11.748  1.00  0.00     0.041 C 
ATOM     13  O   UNL     1       3.881  42.453  11.077  1.00  0.00    -0.550 OA
ATOM     14  O   UNL     1       3.061  40.616  12.171  1.00  0.00    -0.550 OA
ENDBRANCH  11  12
ENDBRANCH  10  11
ENDBRANCH   9  10
ENDBRANCH   8   9
ENDBRANCH   1   8
TORSDOF 9
ENDMDL
MODEL 8
REMARK VINA RESULT:    -4.378      3.038      4.120
REMARK INTER + INTRA:          -7.539
REMARK INTER:                  -6.904
REMARK INTRA:                  -0.635
REMARK UNBOUND:                -0.857
REMARK SMILES O=C([O-])CCCCCCCCC(=O)[O-]
REMARK SMILES IDX 7 1 6 2 5 3 4 4 2 5 1 6 3 7 8 8 9 9 10 10 11 11 12 12 13 13
REMARK SMILES IDX 14 14
REMARK H PARENT
REMARK Flexibility Score: inf
ROOT
ATOM      1  C   UNL     1       4.314  47.199   8.989  1.00  0.00     0.000 C 
ENDROOT
BRANCH   1   2
ATOM      2  C   UNL     1       3.149  47.628   8.082  1.00  0.00     0.000 C 
BRANCH   2   3
ATOM      3  C   UNL     1       1.806  47.687   8.830  1.00  0.00     0.006 C 
BRANCH   3   4
ATOM      4  C   UNL     1       0.647  47.144   7.982  1.00  0.00     0.053 C 
BRANCH   4   5
ATOM      5  C   UNL     1       0.403  45.688   8.241  1.00  0.00     0.041 C 
ATOM      6  O   UNL     1       0.004  44.937   7.314  1.00  0.00    -0.550 OA
ATOM      7  O   UNL     1       0.647  45.157   9.501  1.00  0.00    -0.550 OA
ENDBRANCH   4   5
ENDBRANCH   3   4
ENDBRANCH   2   3
ENDBRANCH   1   2
BRANCH   1   8
ATOM      8  C   UNL     1       4.170  45.752   9.492  1.00  0.00     0.000 C 
BRANCH   8   9
ATOM      9  C   UNL     1       3.915  45.675  11.006  1.00  0.00     0.000 C 
BRANCH   9  10
ATOM     10  C   UNL     1       4.372  44.343  11.618  1.00  0.00     0.006 C 
BRANCH  10  11
ATOM     11  C   UNL     1       3.928  43.161  10.751  1.00  0.00     0.053 C 
BRANCH  11  12
ATOM     12  C   UNL     1       2.889  42.350  11.460  1.00  0.00     0.041 C 
ATOM     13  O   UNL     1       3.119  41.149  11.761  1.00  0.00    -0.550 OA
ATOM     14  O   UNL     1       1.687  42.935  11.834  1.00  0.00    -0.550 OA
ENDBRANCH  11  12
ENDBRANCH  10  11
ENDBRANCH   9  10
ENDBRANCH   8   9
ENDBRANCH   1   8
TORSDOF 9
ENDMDL
MODEL 9
REMARK VINA RESULT:    -4.328      2.969      5.150
REMARK INTER + INTRA:          -7.463
REMARK INTER:                  -6.553
REMARK INTRA:                  -0.910
REMARK UNBOUND:                -0.857
REMARK SMILES O=C([O-])CCCCCCCCC(=O)[O-]
REMARK SMILES IDX 7 1 6 2 5 3 4 4 2 5 1 6 3 7 8 8 9 9 10 10 11 11 12 12 13 13
REMARK SMILES IDX 14 14
REMARK H PARENT
REMARK Flexibility Score: inf
ROOT
ATOM      1  C   UNL     1       1.963  43.621  11.195  1.00  0.00     0.000 C 
ENDROOT
BRANCH   1   2
ATOM      2  C   UNL     1       0.690  44.471  11.339  1.00  0.00     0.000 C 
BRANCH   2   3
ATOM      3  C   UNL     1       0.452  45.392  10.129  1.00  0.00     0.006 C 
BRANCH   3   4
ATOM      4  C   UNL     1       0.813  44.709   8.803  1.00  0.00     0.053 C 
BRANCH   4   5
ATOM      5  C   UNL     1       0.122  45.354   7.640  1.00  0.00     0.041 C 
ATOM      6  O   UNL     1      -0.255  44.660   6.660  1.00  0.00    -0.550 OA
ATOM      7  O   UNL     1      -0.131  46.721   7.654  1.00  0.00    -0.550 OA
ENDBRANCH   4   5
ENDBRANCH   3   4
ENDBRANCH   2   3
ENDBRANCH   1   2
BRANCH   1   8
ATOM      8  C   UNL     1       3.081  44.062  12.156  1.00  0.00     0.000 C 
BRANCH   8   9
ATOM      9  C   UNL     1       4.423  44.283  11.440  1.00  0.00     0.000 C 
BRANCH   9  10
ATOM     10  C   UNL     1       4.268  45.031  10.107  1.00  0.00     0.006 C 
BRANCH  10  11
ATOM     11  C   UNL     1       4.099  46.535  10.339  1.00  0.00     0.053 C 
BRANCH  11  12
ATOM     12  C   UNL     1       4.205  47.281   9.047  1.00  0.00     0.041 C 
ATOM     13  O   UNL     1       3.220  47.336   8.264  1.00  0.00    -0.550 OA
ATOM     14  O   UNL     1       5.374  47.959   8.730  1.00  0.00    -0.550 OA
ENDBRANCH  11  12
ENDBRANCH  10  11
ENDBRANCH   9  10
ENDBRANCH   8   9
ENDBRANCH   1   8
TORSDOF 9
ENDMDL
