MODEL 1
REMARK VINA RESULT:    -2.801      0.000      0.000
REMARK INTER + INTRA:          -3.479
REMARK INTER:                  -3.292
REMARK INTRA:                  -0.187
REMARK UNBOUND:                -0.187
REMARK SMILES O=c1c(O)c(-c2ccc(O)c(O)c2)oc2cc(O)ccc12
REMARK SMILES IDX 5 1 3 2 2 3 1 4 21 5 15 6 14 7 16 8 17 9 19 10 20 11 6 12
REMARK SMILES IDX 7 13 8 14 9 15 13 16 11 17 10 18 12 20 4 22 18 24
REMARK H PARENT 10 19 12 21 4 23 18 25
REMARK Flexibility Score: inf
ROOT
ATOM      1  C   UNL     1      36.767 -29.967  -5.246  1.00  0.00     0.180 A 
ATOM      2  C   UNL     1      37.742 -30.385  -6.175  1.00  0.00     0.208 A 
ATOM      3  C   UNL     1      37.569 -30.061  -7.530  1.00  0.00     0.235 A 
ATOM      4  O   UNL     1      38.434 -30.414  -8.378  1.00  0.00    -0.285 OA
ATOM      5  C   UNL     1      36.426 -29.351  -7.929  1.00  0.00     0.069 A 
ATOM      6  C   UNL     1      35.484 -28.989  -6.941  1.00  0.00     0.142 A 
ATOM      7  O   UNL     1      35.689 -29.307  -5.669  1.00  0.00    -0.452 OA
ATOM      8  C   UNL     1      34.327 -28.289  -7.301  1.00  0.00     0.094 A 
ATOM      9  C   UNL     1      34.098 -27.942  -8.636  1.00  0.00     0.119 A 
ATOM     10  C   UNL     1      35.032 -28.298  -9.619  1.00  0.00     0.047 A 
ATOM     11  C   UNL     1      36.191 -28.999  -9.271  1.00  0.00     0.020 A 
ENDROOT
BRANCH   1  12
ATOM     12  C   UNL     1      36.886 -30.253  -3.799  1.00  0.00     0.025 A 
ATOM     13  C   UNL     1      37.073 -29.222  -2.861  1.00  0.00     0.016 A 
ATOM     14  C   UNL     1      37.158 -29.514  -1.498  1.00  0.00     0.051 A 
ATOM     15  C   UNL     1      37.045 -30.836  -1.048  1.00  0.00     0.157 A 
ATOM     16  C   UNL     1      36.752 -31.575  -3.342  1.00  0.00     0.062 A 
ATOM     17  C   UNL     1      36.838 -31.871  -1.977  1.00  0.00     0.158 A 
BRANCH  15  18
ATOM     18  O   UNL     1      37.133 -31.124   0.312  1.00  0.00    -0.504 OA
ATOM     19  H   UNL     1      36.580 -31.862   0.734  1.00  0.00     0.293 HD
ENDBRANCH  15  18
BRANCH  17  20
ATOM     20  O   UNL     1      36.715 -33.196  -1.562  1.00  0.00    -0.504 OA
ATOM     21  H   UNL     1      37.458 -33.872  -1.693  1.00  0.00     0.293 HD
ENDBRANCH  17  20
ENDBRANCH   1  12
BRANCH   2  22
ATOM     22  O   UNL     1      38.845 -31.133  -5.756  1.00  0.00    -0.502 OA
ATOM     23  H   UNL     1      39.263 -31.017  -4.841  1.00  0.00     0.293 HD
ENDBRANCH   2  22
BRANCH   9  24
ATOM     24  O   UNL     1      32.942 -27.245  -8.976  1.00  0.00    -0.508 OA
ATOM     25  H   UNL     1      32.873 -26.241  -8.856  1.00  0.00     0.293 HD
ENDBRANCH   9  24
TORSDOF 5
ENDMDL
MODEL 2
REMARK VINA RESULT:    -0.333      2.368      6.411
REMARK INTER + INTRA:          -0.578
REMARK INTER:                  -0.323
REMARK INTRA:                  -0.254
REMARK UNBOUND:                -0.187
REMARK SMILES O=c1c(O)c(-c2ccc(O)c(O)c2)oc2cc(O)ccc12
REMARK SMILES IDX 5 1 3 2 2 3 1 4 21 5 15 6 14 7 16 8 17 9 19 10 20 11 6 12
REMARK SMILES IDX 7 13 8 14 9 15 13 16 11 17 10 18 12 20 4 22 18 24
REMARK H PARENT 10 19 12 21 4 23 18 25
REMARK Flexibility Score: inf
ROOT
ATOM      1  C   UNL     1      37.809 -30.872  -6.215  1.00  0.00     0.180 A 
ATOM      2  C   UNL     1      36.790 -29.953  -6.540  1.00  0.00     0.208 A 
ATOM      3  C   UNL     1      36.035 -29.384  -5.502  1.00  0.00     0.235 A 
ATOM      4  O   UNL     1      35.126 -28.551  -5.768  1.00  0.00    -0.285 OA
ATOM      5  C   UNL     1      36.298 -29.756  -4.174  1.00  0.00     0.069 A 
ATOM      6  C   UNL     1      37.320 -30.700  -3.933  1.00  0.00     0.142 A 
ATOM      7  O   UNL     1      38.016 -31.209  -4.942  1.00  0.00    -0.452 OA
ATOM      8  C   UNL     1      37.604 -31.104  -2.624  1.00  0.00     0.094 A 
ATOM      9  C   UNL     1      36.883 -30.574  -1.549  1.00  0.00     0.119 A 
ATOM     10  C   UNL     1      35.869 -29.635  -1.785  1.00  0.00     0.047 A 
ATOM     11  C   UNL     1      35.575 -29.226  -3.089  1.00  0.00     0.020 A 
ENDROOT
BRANCH   1  12
ATOM     12  C   UNL     1      38.660 -31.502  -7.250  1.00  0.00     0.025 A 
ATOM     13  C   UNL     1      39.652 -30.770  -7.926  1.00  0.00     0.016 A 
ATOM     14  C   UNL     1      40.459 -31.392  -8.882  1.00  0.00     0.051 A 
ATOM     15  C   UNL     1      40.298 -32.754  -9.167  1.00  0.00     0.157 A 
ATOM     16  C   UNL     1      38.516 -32.872  -7.524  1.00  0.00     0.062 A 
ATOM     17  C   UNL     1      39.322 -33.498  -8.481  1.00  0.00     0.158 A 
BRANCH  15  18
ATOM     18  O   UNL     1      41.104 -33.371 -10.123  1.00  0.00    -0.504 OA
ATOM     19  H   UNL     1      41.524 -32.846 -10.881  1.00  0.00     0.293 HD
ENDBRANCH  15  18
BRANCH  17  20
ATOM     20  O   UNL     1      39.140 -34.856  -8.737  1.00  0.00    -0.504 OA
ATOM     21  H   UNL     1      38.473 -35.416  -8.220  1.00  0.00     0.293 HD
ENDBRANCH  17  20
ENDBRANCH   1  12
BRANCH   2  22
ATOM     22  O   UNL     1      36.519 -29.639  -7.874  1.00  0.00    -0.502 OA
ATOM     23  H   UNL     1      37.227 -29.683  -8.596  1.00  0.00     0.293 HD
ENDBRANCH   2  22
BRANCH   9  24
ATOM     24  O   UNL     1      37.180 -30.987  -0.253  1.00  0.00    -0.508 OA
ATOM     25  H   UNL     1      37.786 -31.778  -0.074  1.00  0.00     0.293 HD
ENDBRANCH   9  24
TORSDOF 5
ENDMDL
MODEL 3
REMARK VINA RESULT:    -0.220      3.520      5.145
REMARK INTER + INTRA:          -0.445
REMARK INTER:                  -0.459
REMARK INTRA:                   0.014
REMARK UNBOUND:                -0.187
REMARK SMILES O=c1c(O)c(-c2ccc(O)c(O)c2)oc2cc(O)ccc12
REMARK SMILES IDX 5 1 3 2 2 3 1 4 21 5 15 6 14 7 16 8 17 9 19 10 20 11 6 12
REMARK SMILES IDX 7 13 8 14 9 15 13 16 11 17 10 18 12 20 4 22 18 24
REMARK H PARENT 10 19 12 21 4 23 18 25
REMARK Flexibility Score: inf
ROOT
ATOM      1  C   UNL     1      38.638 -31.748  -6.697  1.00  0.00     0.180 A 
ATOM      2  C   UNL     1      39.611 -31.088  -7.475  1.00  0.00     0.208 A 
ATOM      3  C   UNL     1      40.187 -31.769  -8.559  1.00  0.00     0.235 A 
ATOM      4  O   UNL     1      41.051 -31.195  -9.277  1.00  0.00    -0.285 OA
ATOM      5  C   UNL     1      39.798 -33.090  -8.830  1.00  0.00     0.069 A 
ATOM      6  C   UNL     1      38.834 -33.689  -7.989  1.00  0.00     0.142 A 
ATOM      7  O   UNL     1      38.308 -33.008  -6.979  1.00  0.00    -0.452 OA
ATOM      8  C   UNL     1      38.428 -35.008  -8.220  1.00  0.00     0.094 A 
ATOM      9  C   UNL     1      38.970 -35.738  -9.282  1.00  0.00     0.119 A 
ATOM     10  C   UNL     1      39.924 -35.145 -10.121  1.00  0.00     0.047 A 
ATOM     11  C   UNL     1      40.339 -33.829  -9.898  1.00  0.00     0.020 A 
ENDROOT
BRANCH   1  12
ATOM     12  C   UNL     1      37.972 -31.093  -5.549  1.00  0.00     0.025 A 
ATOM     13  C   UNL     1      37.439 -29.796  -5.654  1.00  0.00     0.016 A 
ATOM     14  C   UNL     1      36.794 -29.207  -4.565  1.00  0.00     0.051 A 
ATOM     15  C   UNL     1      36.658 -29.907  -3.359  1.00  0.00     0.157 A 
ATOM     16  C   UNL     1      37.815 -31.799  -4.345  1.00  0.00     0.062 A 
ATOM     17  C   UNL     1      37.170 -31.212  -3.251  1.00  0.00     0.158 A 
BRANCH  15  18
ATOM     18  O   UNL     1      36.015 -29.316  -2.273  1.00  0.00    -0.504 OA
ATOM     19  H   UNL     1      35.647 -29.871  -1.509  1.00  0.00     0.293 HD
ENDBRANCH  15  18
BRANCH  17  20
ATOM     20  O   UNL     1      37.046 -31.938  -2.068  1.00  0.00    -0.504 OA
ATOM     21  H   UNL     1      37.842 -32.370  -1.615  1.00  0.00     0.293 HD
ENDBRANCH  17  20
ENDBRANCH   1  12
BRANCH   2  22
ATOM     22  O   UNL     1      40.015 -29.790  -7.153  1.00  0.00    -0.502 OA
ATOM     23  H   UNL     1      39.601 -28.971  -7.582  1.00  0.00     0.293 HD
ENDBRANCH   2  22
BRANCH   9  24
ATOM     24  O   UNL     1      38.553 -37.049  -9.498  1.00  0.00    -0.508 OA
ATOM     25  H   UNL     1      37.608 -37.263  -9.794  1.00  0.00     0.293 HD
ENDBRANCH   9  24
TORSDOF 5
ENDMDL
