MODEL 1
REMARK VINA RESULT:    -5.372      0.000      0.000
REMARK INTER + INTRA:          -6.159
REMARK INTER:                  -6.000
REMARK INTRA:                  -0.158
REMARK UNBOUND:                -0.158
REMARK SMILES COc1cc2ccc(=O)oc2cc1OC
REMARK SMILES IDX 3 1 13 2 12 3 11 4 5 5 4 6 6 7 7 8 8 9 9 10 10 11 2 12 1 13
REMARK SMILES IDX 14 14 15 15
REMARK H PARENT
REMARK Flexibility Score: inf
ROOT
ATOM      1  C   UNL     1     178.622 178.988 175.002  1.00  0.00     0.161 A 
ATOM      2  C   UNL     1     177.962 180.224 175.108  1.00  0.00     0.164 A 
ATOM      3  C   UNL     1     178.292 181.106 176.156  1.00  0.00     0.098 A 
ATOM      4  C   UNL     1     179.273 180.760 177.089  1.00  0.00     0.142 A 
ATOM      5  C   UNL     1     179.936 179.521 176.983  1.00  0.00     0.022 A 
ATOM      6  C   UNL     1     179.611 178.640 175.944  1.00  0.00     0.062 A 
ATOM      7  C   UNL     1     180.913 179.204 177.933  1.00  0.00     0.019 A 
ATOM      8  C   UNL     1     181.201 180.113 178.949  1.00  0.00     0.094 A 
ATOM      9  C   UNL     1     180.502 181.324 178.992  1.00  0.00     0.336 A 
ATOM     10  O   UNL     1     180.746 182.159 179.901  1.00  0.00    -0.246 OA
ATOM     11  O   UNL     1     179.577 181.600 178.075  1.00  0.00    -0.423 OA
ENDROOT
BRANCH   1  12
ATOM     12  O   UNL     1     178.268 178.134 173.946  1.00  0.00    -0.493 OA
ATOM     13  C   UNL     1     177.369 177.035 174.060  1.00  0.00     0.278 C 
ENDBRANCH   1  12
BRANCH   2  14
ATOM     14  O   UNL     1     176.982 180.538 174.152  1.00  0.00    -0.493 OA
ATOM     15  C   UNL     1     175.582 180.374 174.348  1.00  0.00     0.278 C 
ENDBRANCH   2  14
TORSDOF 2
ENDMDL
MODEL 2
REMARK VINA RESULT:    -5.366      3.599      4.998
REMARK INTER + INTRA:          -6.152
REMARK INTER:                  -5.993
REMARK INTRA:                  -0.158
REMARK UNBOUND:                -0.158
REMARK SMILES COc1cc2ccc(=O)oc2cc1OC
REMARK SMILES IDX 3 1 13 2 12 3 11 4 5 5 4 6 6 7 7 8 8 9 9 10 10 11 2 12 1 13
REMARK SMILES IDX 14 14 15 15
REMARK H PARENT
REMARK Flexibility Score: inf
ROOT
ATOM      1  C   UNL     1     182.095 181.756 175.002  1.00  0.00     0.161 A 
ATOM      2  C   UNL     1     182.741 180.512 175.098  1.00  0.00     0.164 A 
ATOM      3  C   UNL     1     182.403 179.627 176.141  1.00  0.00     0.098 A 
ATOM      4  C   UNL     1     181.430 179.978 177.079  1.00  0.00     0.142 A 
ATOM      5  C   UNL     1     180.781 181.226 176.983  1.00  0.00     0.022 A 
ATOM      6  C   UNL     1     181.113 182.110 175.949  1.00  0.00     0.062 A 
ATOM      7  C   UNL     1     179.811 181.548 177.938  1.00  0.00     0.019 A 
ATOM      8  C   UNL     1     179.515 180.635 178.949  1.00  0.00     0.094 A 
ATOM      9  C   UNL     1     180.200 179.416 178.981  1.00  0.00     0.336 A 
ATOM     10  O   UNL     1     179.948 178.578 179.885  1.00  0.00    -0.246 OA
ATOM     11  O   UNL     1     181.118 179.135 178.060  1.00  0.00    -0.423 OA
ENDROOT
BRANCH   1  12
ATOM     12  O   UNL     1     182.457 182.613 173.950  1.00  0.00    -0.493 OA
ATOM     13  C   UNL     1     183.351 183.715 174.075  1.00  0.00     0.278 C 
ENDBRANCH   1  12
BRANCH   2  14
ATOM     14  O   UNL     1     183.714 180.192 174.137  1.00  0.00    -0.493 OA
ATOM     15  C   UNL     1     185.116 180.360 174.321  1.00  0.00     0.278 C 
ENDBRANCH   2  14
TORSDOF 2
ENDMDL
MODEL 3
REMARK VINA RESULT:    -5.271      1.434      2.668
REMARK INTER + INTRA:          -6.045
REMARK INTER:                  -5.958
REMARK INTRA:                  -0.087
REMARK UNBOUND:                -0.158
REMARK SMILES COc1cc2ccc(=O)oc2cc1OC
REMARK SMILES IDX 3 1 13 2 12 3 11 4 5 5 4 6 6 7 7 8 8 9 9 10 10 11 2 12 1 13
REMARK SMILES IDX 14 14 15 15
REMARK H PARENT
REMARK Flexibility Score: inf
ROOT
ATOM      1  C   UNL     1     177.829 180.905 175.202  1.00  0.00     0.161 A 
ATOM      2  C   UNL     1     178.370 179.639 174.919  1.00  0.00     0.164 A 
ATOM      3  C   UNL     1     179.293 179.058 175.811  1.00  0.00     0.098 A 
ATOM      4  C   UNL     1     179.674 179.732 176.974  1.00  0.00     0.142 A 
ATOM      5  C   UNL     1     179.131 181.001 177.259  1.00  0.00     0.022 A 
ATOM      6  C   UNL     1     178.213 181.584 176.376  1.00  0.00     0.062 A 
ATOM      7  C   UNL     1     179.533 181.650 178.432  1.00  0.00     0.019 A 
ATOM      8  C   UNL     1     180.449 181.029 179.279  1.00  0.00     0.094 A 
ATOM      9  C   UNL     1     180.945 179.768 178.931  1.00  0.00     0.336 A 
ATOM     10  O   UNL     1     181.773 179.190 179.682  1.00  0.00    -0.246 OA
ATOM     11  O   UNL     1     180.546 179.174 177.809  1.00  0.00    -0.423 OA
ENDROOT
BRANCH   1  12
ATOM     12  O   UNL     1     176.912 181.455 174.292  1.00  0.00    -0.493 OA
ATOM     13  C   UNL     1     177.270 182.214 173.142  1.00  0.00     0.278 C 
ENDBRANCH   1  12
BRANCH   2  14
ATOM     14  O   UNL     1     177.965 178.991 173.741  1.00  0.00    -0.493 OA
ATOM     15  C   UNL     1     177.003 177.943 173.688  1.00  0.00     0.278 C 
ENDBRANCH   2  14
TORSDOF 2
ENDMDL
MODEL 4
REMARK VINA RESULT:    -5.266      1.458      4.993
REMARK INTER + INTRA:          -6.040
REMARK INTER:                  -5.961
REMARK INTRA:                  -0.079
REMARK UNBOUND:                -0.158
REMARK SMILES COc1cc2ccc(=O)oc2cc1OC
REMARK SMILES IDX 3 1 13 2 12 3 11 4 5 5 4 6 6 7 7 8 8 9 9 10 10 11 2 12 1 13
REMARK SMILES IDX 14 14 15 15
REMARK H PARENT
REMARK Flexibility Score: inf
ROOT
ATOM      1  C   UNL     1     180.269 179.951 176.619  1.00  0.00     0.161 A 
ATOM      2  C   UNL     1     179.653 181.102 177.140  1.00  0.00     0.164 A 
ATOM      3  C   UNL     1     178.374 181.479 176.683  1.00  0.00     0.098 A 
ATOM      4  C   UNL     1     177.715 180.715 175.716  1.00  0.00     0.142 A 
ATOM      5  C   UNL     1     178.332 179.561 175.194  1.00  0.00     0.022 A 
ATOM      6  C   UNL     1     179.603 179.182 175.644  1.00  0.00     0.062 A 
ATOM      7  C   UNL     1     177.646 178.818 174.226  1.00  0.00     0.019 A 
ATOM      8  C   UNL     1     176.383 179.236 173.811  1.00  0.00     0.094 A 
ATOM      9  C   UNL     1     175.833 180.392 174.374  1.00  0.00     0.336 A 
ATOM     10  O   UNL     1     174.694 180.786 174.012  1.00  0.00    -0.246 OA
ATOM     11  O   UNL     1     176.507 181.080 175.292  1.00  0.00    -0.423 OA
ENDROOT
BRANCH   1  12
ATOM     12  O   UNL     1     181.543 179.606 177.096  1.00  0.00    -0.493 OA
ATOM     13  C   UNL     1     182.653 179.271 176.269  1.00  0.00     0.278 C 
ENDBRANCH   1  12
BRANCH   2  14
ATOM     14  O   UNL     1     180.344 181.845 178.110  1.00  0.00    -0.493 OA
ATOM     15  C   UNL     1     180.279 181.599 179.511  1.00  0.00     0.278 C 
ENDBRANCH   2  14
TORSDOF 2
ENDMDL
MODEL 5
REMARK VINA RESULT:    -5.253      3.820      5.193
REMARK INTER + INTRA:          -6.026
REMARK INTER:                  -5.939
REMARK INTRA:                  -0.086
REMARK UNBOUND:                -0.158
REMARK SMILES COc1cc2ccc(=O)oc2cc1OC
REMARK SMILES IDX 3 1 13 2 12 3 11 4 5 5 4 6 6 7 7 8 8 9 9 10 10 11 2 12 1 13
REMARK SMILES IDX 14 14 15 15
REMARK H PARENT
REMARK Flexibility Score: inf
ROOT
ATOM      1  C   UNL     1     180.351 180.711 176.618  1.00  0.00     0.161 A 
ATOM      2  C   UNL     1     180.995 179.589 177.168  1.00  0.00     0.164 A 
ATOM      3  C   UNL     1     182.293 179.247 176.738  1.00  0.00     0.098 A 
ATOM      4  C   UNL     1     182.942 180.015 175.770  1.00  0.00     0.142 A 
ATOM      5  C   UNL     1     182.298 181.141 175.218  1.00  0.00     0.022 A 
ATOM      6  C   UNL     1     181.008 181.485 175.641  1.00  0.00     0.062 A 
ATOM      7  C   UNL     1     182.975 181.889 174.249  1.00  0.00     0.019 A 
ATOM      8  C   UNL     1     184.258 181.506 173.861  1.00  0.00     0.094 A 
ATOM      9  C   UNL     1     184.835 180.378 174.452  1.00  0.00     0.336 A 
ATOM     10  O   UNL     1     185.992 180.015 174.115  1.00  0.00    -0.246 OA
ATOM     11  O   UNL     1     184.168 179.683 175.371  1.00  0.00    -0.423 OA
ENDROOT
BRANCH   1  12
ATOM     12  O   UNL     1     179.059 181.023 177.069  1.00  0.00    -0.493 OA
ATOM     13  C   UNL     1     177.994 181.463 176.232  1.00  0.00     0.278 C 
ENDBRANCH   1  12
BRANCH   2  14
ATOM     14  O   UNL     1     180.312 178.841 178.140  1.00  0.00    -0.493 OA
ATOM     15  C   UNL     1     180.373 179.090 179.540  1.00  0.00     0.278 C 
ENDBRANCH   2  14
TORSDOF 2
ENDMDL
MODEL 6
REMARK VINA RESULT:    -5.251      3.459      4.071
REMARK INTER + INTRA:          -6.023
REMARK INTER:                  -5.940
REMARK INTRA:                  -0.083
REMARK UNBOUND:                -0.158
REMARK SMILES COc1cc2ccc(=O)oc2cc1OC
REMARK SMILES IDX 3 1 13 2 12 3 11 4 5 5 4 6 6 7 7 8 8 9 9 10 10 11 2 12 1 13
REMARK SMILES IDX 14 14 15 15
REMARK H PARENT
REMARK Flexibility Score: inf
ROOT
ATOM      1  C   UNL     1     182.849 179.850 175.227  1.00  0.00     0.161 A 
ATOM      2  C   UNL     1     182.319 181.114 174.918  1.00  0.00     0.164 A 
ATOM      3  C   UNL     1     181.386 181.713 175.787  1.00  0.00     0.098 A 
ATOM      4  C   UNL     1     180.985 181.058 176.954  1.00  0.00     0.142 A 
ATOM      5  C   UNL     1     181.516 179.790 177.265  1.00  0.00     0.022 A 
ATOM      6  C   UNL     1     182.444 179.190 176.404  1.00  0.00     0.062 A 
ATOM      7  C   UNL     1     181.094 179.160 178.441  1.00  0.00     0.019 A 
ATOM      8  C   UNL     1     180.169 179.798 179.265  1.00  0.00     0.094 A 
ATOM      9  C   UNL     1     179.684 181.056 178.893  1.00  0.00     0.336 A 
ATOM     10  O   UNL     1     178.848 181.649 179.623  1.00  0.00    -0.246 OA
ATOM     11  O   UNL     1     180.103 181.633 177.769  1.00  0.00    -0.423 OA
ENDROOT
BRANCH   1  12
ATOM     12  O   UNL     1     183.777 179.283 174.338  1.00  0.00    -0.493 OA
ATOM     13  C   UNL     1     183.431 178.514 173.190  1.00  0.00     0.278 C 
ENDBRANCH   1  12
BRANCH   2  14
ATOM     14  O   UNL     1     182.746 181.743 173.737  1.00  0.00    -0.493 OA
ATOM     15  C   UNL     1     183.752 182.748 173.677  1.00  0.00     0.278 C 
ENDBRANCH   2  14
TORSDOF 2
ENDMDL
MODEL 7
REMARK VINA RESULT:    -5.011      5.418      6.229
REMARK INTER + INTRA:          -5.755
REMARK INTER:                  -5.595
REMARK INTRA:                  -0.160
REMARK UNBOUND:                -0.158
REMARK SMILES COc1cc2ccc(=O)oc2cc1OC
REMARK SMILES IDX 3 1 13 2 12 3 11 4 5 5 4 6 6 7 7 8 8 9 9 10 10 11 2 12 1 13
REMARK SMILES IDX 14 14 15 15
REMARK H PARENT
REMARK Flexibility Score: inf
ROOT
ATOM      1  C   UNL     1     183.437 179.459 174.087  1.00  0.00     0.161 A 
ATOM      2  C   UNL     1     184.603 180.101 173.635  1.00  0.00     0.164 A 
ATOM      3  C   UNL     1     184.699 181.505 173.703  1.00  0.00     0.098 A 
ATOM      4  C   UNL     1     183.643 182.262 174.217  1.00  0.00     0.142 A 
ATOM      5  C   UNL     1     182.474 181.619 174.671  1.00  0.00     0.022 A 
ATOM      6  C   UNL     1     182.373 180.223 174.605  1.00  0.00     0.062 A 
ATOM      7  C   UNL     1     181.435 182.405 175.179  1.00  0.00     0.019 A 
ATOM      8  C   UNL     1     181.582 183.790 175.224  1.00  0.00     0.094 A 
ATOM      9  C   UNL     1     182.771 184.359 174.755  1.00  0.00     0.336 A 
ATOM     10  O   UNL     1     182.925 185.608 174.786  1.00  0.00    -0.246 OA
ATOM     11  O   UNL     1     183.744 183.588 174.277  1.00  0.00    -0.423 OA
ENDROOT
BRANCH   1  12
ATOM     12  O   UNL     1     183.376 178.058 174.005  1.00  0.00    -0.493 OA
ATOM     13  C   UNL     1     182.658 177.337 173.008  1.00  0.00     0.278 C 
ENDBRANCH   1  12
BRANCH   2  14
ATOM     14  O   UNL     1     185.644 179.308 173.126  1.00  0.00    -0.493 OA
ATOM     15  C   UNL     1     186.029 179.266 171.756  1.00  0.00     0.278 C 
ENDBRANCH   2  14
TORSDOF 2
ENDMDL
MODEL 8
REMARK VINA RESULT:    -4.950      3.908      5.166
REMARK INTER + INTRA:          -5.686
REMARK INTER:                  -5.581
REMARK INTRA:                  -0.105
REMARK UNBOUND:                -0.158
REMARK SMILES COc1cc2ccc(=O)oc2cc1OC
REMARK SMILES IDX 3 1 13 2 12 3 11 4 5 5 4 6 6 7 7 8 8 9 9 10 10 11 2 12 1 13
REMARK SMILES IDX 14 14 15 15
REMARK H PARENT
REMARK Flexibility Score: inf
ROOT
ATOM      1  C   UNL     1     179.893 176.353 173.995  1.00  0.00     0.161 A 
ATOM      2  C   UNL     1     180.983 175.904 173.228  1.00  0.00     0.164 A 
ATOM      3  C   UNL     1     182.208 176.598 173.282  1.00  0.00     0.098 A 
ATOM      4  C   UNL     1     182.347 177.727 174.093  1.00  0.00     0.142 A 
ATOM      5  C   UNL     1     181.255 178.177 174.862  1.00  0.00     0.022 A 
ATOM      6  C   UNL     1     180.034 177.492 174.812  1.00  0.00     0.062 A 
ATOM      7  C   UNL     1     181.425 179.311 175.663  1.00  0.00     0.019 A 
ATOM      8  C   UNL     1     182.660 179.959 175.680  1.00  0.00     0.094 A 
ATOM      9  C   UNL     1     183.698 179.455 174.890  1.00  0.00     0.336 A 
ATOM     10  O   UNL     1     184.821 180.025 174.890  1.00  0.00    -0.246 OA
ATOM     11  O   UNL     1     183.509 178.374 174.137  1.00  0.00    -0.423 OA
ENDROOT
BRANCH   1  12
ATOM     12  O   UNL     1     178.687 175.638 173.917  1.00  0.00    -0.493 OA
ATOM     13  C   UNL     1     177.737 175.537 174.973  1.00  0.00     0.278 C 
ENDBRANCH   1  12
BRANCH   2  14
ATOM     14  O   UNL     1     180.807 174.766 172.426  1.00  0.00    -0.493 OA
ATOM     15  C   UNL     1     181.566 174.479 171.256  1.00  0.00     0.278 C 
ENDBRANCH   2  14
TORSDOF 2
ENDMDL
MODEL 9
REMARK VINA RESULT:    -4.880      5.297      6.279
REMARK INTER + INTRA:          -5.609
REMARK INTER:                  -5.488
REMARK INTRA:                  -0.122
REMARK UNBOUND:                -0.158
REMARK SMILES COc1cc2ccc(=O)oc2cc1OC
REMARK SMILES IDX 3 1 13 2 12 3 11 4 5 5 4 6 6 7 7 8 8 9 9 10 10 11 2 12 1 13
REMARK SMILES IDX 14 14 15 15
REMARK H PARENT
REMARK Flexibility Score: inf
ROOT
ATOM      1  C   UNL     1     181.441 184.152 173.849  1.00  0.00     0.161 A 
ATOM      2  C   UNL     1     182.838 184.234 173.714  1.00  0.00     0.164 A 
ATOM      3  C   UNL     1     183.644 183.150 174.116  1.00  0.00     0.098 A 
ATOM      4  C   UNL     1     183.063 181.996 174.648  1.00  0.00     0.142 A 
ATOM      5  C   UNL     1     181.663 181.914 174.784  1.00  0.00     0.022 A 
ATOM      6  C   UNL     1     180.857 182.988 174.386  1.00  0.00     0.062 A 
ATOM      7  C   UNL     1     181.113 180.745 175.321  1.00  0.00     0.019 A 
ATOM      8  C   UNL     1     181.956 179.703 175.703  1.00  0.00     0.094 A 
ATOM      9  C   UNL     1     183.337 179.856 175.538  1.00  0.00     0.336 A 
ATOM     10  O   UNL     1     184.116 178.927 175.876  1.00  0.00    -0.246 OA
ATOM     11  O   UNL     1     183.834 180.979 175.025  1.00  0.00    -0.423 OA
ENDROOT
BRANCH   1  12
ATOM     12  O   UNL     1     180.669 185.250 173.439  1.00  0.00    -0.493 OA
ATOM     13  C   UNL     1     179.824 185.261 172.292  1.00  0.00     0.278 C 
ENDBRANCH   1  12
BRANCH   2  14
ATOM     14  O   UNL     1     183.386 185.408 173.174  1.00  0.00    -0.493 OA
ATOM     15  C   UNL     1     184.587 185.462 172.412  1.00  0.00     0.278 C 
ENDBRANCH   2  14
TORSDOF 2
ENDMDL
