MODEL 1
REMARK VINA RESULT:    -4.047      0.000      0.000
REMARK INTER + INTRA:          -6.922
REMARK INTER:                  -6.530
REMARK INTRA:                  -0.391
REMARK UNBOUND:                -0.391
REMARK SMILES CCCCCCCCCCCCO
REMARK SMILES IDX 7 1 6 2 5 3 4 4 3 5 2 6 1 7 8 8 9 9 10 10 11 11 12 12 13 13
REMARK H PARENT 13 14
REMARK Flexibility Score: inf
ROOT
ATOM      1  C   UNL     1     211.068 198.285 210.527  1.00  0.00     0.000 C 
ENDROOT
BRANCH   1   2
ATOM      2  C   UNL     1     211.943 198.779 209.369  1.00  0.00    -0.000 C 
BRANCH   2   3
ATOM      3  C   UNL     1     211.390 200.083 208.777  1.00  0.00    -0.000 C 
BRANCH   3   4
ATOM      4  C   UNL     1     210.059 200.514 209.417  1.00  0.00    -0.000 C 
BRANCH   4   5
ATOM      5  C   UNL     1     209.514 201.851 208.873  1.00  0.00    -0.000 C 
BRANCH   5   6
ATOM      6  C   UNL     1     208.025 202.046 209.194  1.00  0.00    -0.003 C 
ATOM      7  C   UNL     1     207.314 202.805 208.078  1.00  0.00     0.004 C 
ENDBRANCH   5   6
ENDBRANCH   4   5
ENDBRANCH   3   4
ENDBRANCH   2   3
ENDBRANCH   1   2
BRANCH   1   8
ATOM      8  C   UNL     1     211.892 198.117 211.808  1.00  0.00     0.000 C 
BRANCH   8   9
ATOM      9  C   UNL     1     212.380 196.668 211.964  1.00  0.00     0.000 C 
BRANCH   9  10
ATOM     10  C   UNL     1     213.119 196.424 213.292  1.00  0.00     0.002 C 
BRANCH  10  11
ATOM     11  C   UNL     1     213.118 197.618 214.266  1.00  0.00     0.028 C 
BRANCH  11  12
ATOM     12  C   UNL     1     213.078 197.214 215.747  1.00  0.00     0.156 C 
BRANCH  12  13
ATOM     13  O   UNL     1     212.925 195.827 215.888  1.00  0.00    -0.396 OA
ATOM     14  H   UNL     1     213.363 195.412 215.101  1.00  0.00     0.210 HD
ENDBRANCH  12  13
ENDBRANCH  11  12
ENDBRANCH  10  11
ENDBRANCH   9  10
ENDBRANCH   8   9
ENDBRANCH   1   8
TORSDOF 11
ENDMDL
MODEL 2
REMARK VINA RESULT:    -3.954      2.240      4.060
REMARK INTER + INTRA:          -6.773
REMARK INTER:                  -5.959
REMARK INTRA:                  -0.814
REMARK UNBOUND:                -0.391
REMARK SMILES CCCCCCCCCCCCO
REMARK SMILES IDX 7 1 6 2 5 3 4 4 3 5 2 6 1 7 8 8 9 9 10 10 11 11 12 12 13 13
REMARK H PARENT 13 14
REMARK Flexibility Score: inf
ROOT
ATOM      1  C   UNL     1     211.841 197.976 211.659  1.00  0.00     0.000 C 
ENDROOT
BRANCH   1   2
ATOM      2  C   UNL     1     210.724 198.132 210.622  1.00  0.00    -0.000 C 
BRANCH   2   3
ATOM      3  C   UNL     1     211.101 199.171 209.556  1.00  0.00    -0.000 C 
BRANCH   3   4
ATOM      4  C   UNL     1     212.412 198.831 208.827  1.00  0.00    -0.000 C 
BRANCH   4   5
ATOM      5  C   UNL     1     212.420 197.426 208.189  1.00  0.00    -0.000 C 
BRANCH   5   6
ATOM      6  C   UNL     1     213.761 196.704 208.391  1.00  0.00    -0.003 C 
ATOM      7  C   UNL     1     213.553 195.215 208.649  1.00  0.00     0.004 C 
ENDBRANCH   5   6
ENDBRANCH   4   5
ENDBRANCH   3   4
ENDBRANCH   2   3
ENDBRANCH   1   2
BRANCH   1   8
ATOM      8  C   UNL     1     212.239 196.505 211.823  1.00  0.00     0.000 C 
BRANCH   8   9
ATOM      9  C   UNL     1     213.025 196.289 213.125  1.00  0.00     0.000 C 
BRANCH   9  10
ATOM     10  C   UNL     1     212.917 197.479 214.095  1.00  0.00     0.002 C 
BRANCH  10  11
ATOM     11  C   UNL     1     213.535 197.243 215.487  1.00  0.00     0.028 C 
BRANCH  11  12
ATOM     12  C   UNL     1     212.507 197.207 216.627  1.00  0.00     0.156 C 
BRANCH  12  13
ATOM     13  O   UNL     1     211.826 195.982 216.655  1.00  0.00    -0.396 OA
ATOM     14  H   UNL     1     211.540 195.794 215.724  1.00  0.00     0.210 HD
ENDBRANCH  12  13
ENDBRANCH  11  12
ENDBRANCH  10  11
ENDBRANCH   9  10
ENDBRANCH   8   9
ENDBRANCH   1   8
TORSDOF 11
ENDMDL
MODEL 3
REMARK VINA RESULT:    -3.902      2.024      2.582
REMARK INTER + INTRA:          -6.688
REMARK INTER:                  -6.159
REMARK INTRA:                  -0.529
REMARK UNBOUND:                -0.391
REMARK SMILES CCCCCCCCCCCCO
REMARK SMILES IDX 7 1 6 2 5 3 4 4 3 5 2 6 1 7 8 8 9 9 10 10 11 11 12 12 13 13
REMARK H PARENT 13 14
REMARK Flexibility Score: inf
ROOT
ATOM      1  C   UNL     1     211.516 198.371 211.578  1.00  0.00     0.000 C 
ENDROOT
BRANCH   1   2
ATOM      2  C   UNL     1     212.274 197.722 210.415  1.00  0.00    -0.000 C 
BRANCH   2   3
ATOM      3  C   UNL     1     211.951 198.420 209.088  1.00  0.00    -0.000 C 
BRANCH   3   4
ATOM      4  C   UNL     1     211.191 199.744 209.277  1.00  0.00    -0.000 C 
BRANCH   4   5
ATOM      5  C   UNL     1     211.528 200.810 208.213  1.00  0.00    -0.000 C 
BRANCH   5   6
ATOM      6  C   UNL     1     212.589 200.320 207.216  1.00  0.00    -0.003 C 
ATOM      7  C   UNL     1     212.189 200.646 205.780  1.00  0.00     0.004 C 
ENDBRANCH   5   6
ENDBRANCH   4   5
ENDBRANCH   3   4
ENDBRANCH   2   3
ENDBRANCH   1   2
BRANCH   1   8
ATOM      8  C   UNL     1     212.294 198.229 212.891  1.00  0.00     0.000 C 
BRANCH   8   9
ATOM      9  C   UNL     1     212.806 196.793 213.076  1.00  0.00     0.000 C 
BRANCH   9  10
ATOM     10  C   UNL     1     213.669 196.622 214.340  1.00  0.00     0.002 C 
BRANCH  10  11
ATOM     11  C   UNL     1     213.281 197.534 215.520  1.00  0.00     0.028 C 
BRANCH  11  12
ATOM     12  C   UNL     1     212.328 196.875 216.528  1.00  0.00     0.156 C 
BRANCH  12  13
ATOM     13  O   UNL     1     212.998 196.539 217.713  1.00  0.00    -0.396 OA
ATOM     14  H   UNL     1     212.641 197.136 218.420  1.00  0.00     0.210 HD
ENDBRANCH  12  13
ENDBRANCH  11  12
ENDBRANCH  10  11
ENDBRANCH   9  10
ENDBRANCH   8   9
ENDBRANCH   1   8
TORSDOF 11
ENDMDL
MODEL 4
REMARK VINA RESULT:    -3.779      3.490      7.316
REMARK INTER + INTRA:          -6.490
REMARK INTER:                  -6.064
REMARK INTRA:                  -0.426
REMARK UNBOUND:                -0.391
REMARK SMILES CCCCCCCCCCCCO
REMARK SMILES IDX 7 1 6 2 5 3 4 4 3 5 2 6 1 7 8 8 9 9 10 10 11 11 12 12 13 13
REMARK H PARENT 13 14
REMARK Flexibility Score: inf
ROOT
ATOM      1  C   UNL     1     211.550 198.842 210.849  1.00  0.00     0.000 C 
ENDROOT
BRANCH   1   2
ATOM      2  C   UNL     1     211.282 197.334 210.914  1.00  0.00    -0.000 C 
BRANCH   2   3
ATOM      3  C   UNL     1     212.260 196.642 211.874  1.00  0.00    -0.000 C 
BRANCH   3   4
ATOM      4  C   UNL     1     212.575 197.486 213.120  1.00  0.00    -0.000 C 
BRANCH   4   5
ATOM      5  C   UNL     1     213.376 196.726 214.198  1.00  0.00    -0.000 C 
BRANCH   5   6
ATOM      6  C   UNL     1     213.281 197.399 215.575  1.00  0.00    -0.003 C 
ATOM      7  C   UNL     1     212.171 196.777 216.418  1.00  0.00     0.004 C 
ENDBRANCH   5   6
ENDBRANCH   4   5
ENDBRANCH   3   4
ENDBRANCH   2   3
ENDBRANCH   1   2
BRANCH   1   8
ATOM      8  C   UNL     1     211.310 199.383 209.435  1.00  0.00     0.000 C 
BRANCH   8   9
ATOM      9  C   UNL     1     212.495 199.061 208.512  1.00  0.00     0.000 C 
BRANCH   9  10
ATOM     10  C   UNL     1     212.399 199.763 207.146  1.00  0.00     0.002 C 
BRANCH  10  11
ATOM     11  C   UNL     1     212.655 201.282 207.177  1.00  0.00     0.028 C 
BRANCH  11  12
ATOM     12  C   UNL     1     211.379 202.130 207.072  1.00  0.00     0.156 C 
BRANCH  12  13
ATOM     13  O   UNL     1     211.085 202.755 208.292  1.00  0.00    -0.396 OA
ATOM     14  H   UNL     1     211.917 203.209 208.586  1.00  0.00     0.210 HD
ENDBRANCH  12  13
ENDBRANCH  11  12
ENDBRANCH  10  11
ENDBRANCH   9  10
ENDBRANCH   8   9
ENDBRANCH   1   8
TORSDOF 11
ENDMDL
MODEL 5
REMARK VINA RESULT:    -3.759      2.317      3.726
REMARK INTER + INTRA:          -6.458
REMARK INTER:                  -5.706
REMARK INTRA:                  -0.753
REMARK UNBOUND:                -0.391
REMARK SMILES CCCCCCCCCCCCO
REMARK SMILES IDX 7 1 6 2 5 3 4 4 3 5 2 6 1 7 8 8 9 9 10 10 11 11 12 12 13 13
REMARK H PARENT 13 14
REMARK Flexibility Score: inf
ROOT
ATOM      1  C   UNL     1     211.943 200.956 207.775  1.00  0.00     0.000 C 
ENDROOT
BRANCH   1   2
ATOM      2  C   UNL     1     211.815 201.695 206.439  1.00  0.00    -0.000 C 
BRANCH   2   3
ATOM      3  C   UNL     1     210.909 202.927 206.573  1.00  0.00    -0.000 C 
BRANCH   3   4
ATOM      4  C   UNL     1     210.377 203.125 208.003  1.00  0.00    -0.000 C 
BRANCH   4   5
ATOM      5  C   UNL     1     208.853 202.920 208.131  1.00  0.00    -0.000 C 
BRANCH   5   6
ATOM      6  C   UNL     1     208.499 201.799 209.119  1.00  0.00    -0.003 C 
ATOM      7  C   UNL     1     207.189 202.095 209.843  1.00  0.00     0.004 C 
ENDBRANCH   5   6
ENDBRANCH   4   5
ENDBRANCH   3   4
ENDBRANCH   2   3
ENDBRANCH   1   2
BRANCH   1   8
ATOM      8  C   UNL     1     212.693 199.631 207.603  1.00  0.00     0.000 C 
BRANCH   8   9
ATOM      9  C   UNL     1     212.315 198.635 208.710  1.00  0.00     0.000 C 
BRANCH   9  10
ATOM     10  C   UNL     1     211.388 199.248 209.776  1.00  0.00     0.002 C 
BRANCH  10  11
ATOM     11  C   UNL     1     210.788 198.239 210.773  1.00  0.00     0.028 C 
BRANCH  11  12
ATOM     12  C   UNL     1     211.837 197.386 211.502  1.00  0.00     0.156 C 
BRANCH  12  13
ATOM     13  O   UNL     1     211.700 196.029 211.178  1.00  0.00    -0.396 OA
ATOM     14  H   UNL     1     211.205 195.992 210.319  1.00  0.00     0.210 HD
ENDBRANCH  12  13
ENDBRANCH  11  12
ENDBRANCH  10  11
ENDBRANCH   9  10
ENDBRANCH   8   9
ENDBRANCH   1   8
TORSDOF 11
ENDMDL
MODEL 6
REMARK VINA RESULT:    -3.723      1.496      1.769
REMARK INTER + INTRA:          -6.399
REMARK INTER:                  -6.042
REMARK INTRA:                  -0.358
REMARK UNBOUND:                -0.391
REMARK SMILES CCCCCCCCCCCCO
REMARK SMILES IDX 7 1 6 2 5 3 4 4 3 5 2 6 1 7 8 8 9 9 10 10 11 11 12 12 13 13
REMARK H PARENT 13 14
REMARK Flexibility Score: inf
ROOT
ATOM      1  C   UNL     1     210.628 198.753 209.850  1.00  0.00     0.000 C 
ENDROOT
BRANCH   1   2
ATOM      2  C   UNL     1     210.537 200.246 209.518  1.00  0.00    -0.000 C 
BRANCH   2   3
ATOM      3  C   UNL     1     211.523 200.624 208.404  1.00  0.00    -0.000 C 
BRANCH   3   4
ATOM      4  C   UNL     1     211.072 201.855 207.598  1.00  0.00    -0.000 C 
BRANCH   4   5
ATOM      5  C   UNL     1     209.918 202.638 208.257  1.00  0.00    -0.000 C 
BRANCH   5   6
ATOM      6  C   UNL     1     209.503 203.866 207.432  1.00  0.00    -0.003 C 
ATOM      7  C   UNL     1     210.303 205.100 207.839  1.00  0.00     0.004 C 
ENDBRANCH   5   6
ENDBRANCH   4   5
ENDBRANCH   3   4
ENDBRANCH   2   3
ENDBRANCH   1   2
BRANCH   1   8
ATOM      8  C   UNL     1     211.582 198.506 211.025  1.00  0.00     0.000 C 
BRANCH   8   9
ATOM      9  C   UNL     1     211.874 197.007 211.192  1.00  0.00     0.000 C 
BRANCH   9  10
ATOM     10  C   UNL     1     212.669 196.691 212.472  1.00  0.00     0.002 C 
BRANCH  10  11
ATOM     11  C   UNL     1     212.708 197.828 213.511  1.00  0.00     0.028 C 
BRANCH  11  12
ATOM     12  C   UNL     1     213.194 197.386 214.899  1.00  0.00     0.156 C 
BRANCH  12  13
ATOM     13  O   UNL     1     213.077 195.997 215.057  1.00  0.00    -0.396 OA
ATOM     14  H   UNL     1     212.106 195.795 215.078  1.00  0.00     0.210 HD
ENDBRANCH  12  13
ENDBRANCH  11  12
ENDBRANCH  10  11
ENDBRANCH   9  10
ENDBRANCH   8   9
ENDBRANCH   1   8
TORSDOF 11
ENDMDL
MODEL 7
REMARK VINA RESULT:    -3.659     13.396     15.258
REMARK INTER + INTRA:          -6.296
REMARK INTER:                  -4.997
REMARK INTRA:                  -1.300
REMARK UNBOUND:                -0.391
REMARK SMILES CCCCCCCCCCCCO
REMARK SMILES IDX 7 1 6 2 5 3 4 4 3 5 2 6 1 7 8 8 9 9 10 10 11 11 12 12 13 13
REMARK H PARENT 13 14
REMARK Flexibility Score: inf
ROOT
ATOM      1  C   UNL     1     198.619 201.033 206.066  1.00  0.00     0.000 C 
ENDROOT
BRANCH   1   2
ATOM      2  C   UNL     1     199.821 201.893 206.468  1.00  0.00    -0.000 C 
BRANCH   2   3
ATOM      3  C   UNL     1     199.521 202.701 207.739  1.00  0.00    -0.000 C 
BRANCH   3   4
ATOM      4  C   UNL     1     199.296 204.196 207.459  1.00  0.00    -0.000 C 
BRANCH   4   5
ATOM      5  C   UNL     1     197.913 204.711 207.912  1.00  0.00    -0.000 C 
BRANCH   5   6
ATOM      6  C   UNL     1     196.873 204.651 206.783  1.00  0.00    -0.003 C 
ATOM      7  C   UNL     1     197.544 204.675 205.413  1.00  0.00     0.004 C 
ENDBRANCH   5   6
ENDBRANCH   4   5
ENDBRANCH   3   4
ENDBRANCH   2   3
ENDBRANCH   1   2
BRANCH   1   8
ATOM      8  C   UNL     1     197.589 200.959 207.199  1.00  0.00     0.000 C 
BRANCH   8   9
ATOM      9  C   UNL     1     196.159 201.097 206.654  1.00  0.00     0.000 C 
BRANCH   9  10
ATOM     10  C   UNL     1     195.915 200.251 205.391  1.00  0.00     0.002 C 
BRANCH  10  11
ATOM     11  C   UNL     1     195.504 198.790 205.656  1.00  0.00     0.028 C 
BRANCH  11  12
ATOM     12  C   UNL     1     196.654 197.783 205.502  1.00  0.00     0.156 C 
BRANCH  12  13
ATOM     13  O   UNL     1     197.279 197.538 206.733  1.00  0.00    -0.396 OA
ATOM     14  H   UNL     1     197.751 196.670 206.643  1.00  0.00     0.210 HD
ENDBRANCH  12  13
ENDBRANCH  11  12
ENDBRANCH  10  11
ENDBRANCH   9  10
ENDBRANCH   8   9
ENDBRANCH   1   8
TORSDOF 11
ENDMDL
MODEL 8
REMARK VINA RESULT:    -3.652     12.897     14.754
REMARK INTER + INTRA:          -6.285
REMARK INTER:                  -4.795
REMARK INTRA:                  -1.489
REMARK UNBOUND:                -0.391
REMARK SMILES CCCCCCCCCCCCO
REMARK SMILES IDX 7 1 6 2 5 3 4 4 3 5 2 6 1 7 8 8 9 9 10 10 11 11 12 12 13 13
REMARK H PARENT 13 14
REMARK Flexibility Score: inf
ROOT
ATOM      1  C   UNL     1     196.942 203.992 206.575  1.00  0.00     0.000 C 
ENDROOT
BRANCH   1   2
ATOM      2  C   UNL     1     197.589 203.927 207.962  1.00  0.00    -0.000 C 
BRANCH   2   3
ATOM      3  C   UNL     1     198.943 204.650 207.975  1.00  0.00    -0.000 C 
BRANCH   3   4
ATOM      4  C   UNL     1     200.131 203.695 208.183  1.00  0.00    -0.000 C 
BRANCH   4   5
ATOM      5  C   UNL     1     200.698 203.117 206.869  1.00  0.00    -0.000 C 
BRANCH   5   6
ATOM      6  C   UNL     1     200.517 204.078 205.685  1.00  0.00    -0.003 C 
ATOM      7  C   UNL     1     200.094 203.328 204.425  1.00  0.00     0.004 C 
ENDBRANCH   5   6
ENDBRANCH   4   5
ENDBRANCH   3   4
ENDBRANCH   2   3
ENDBRANCH   1   2
BRANCH   1   8
ATOM      8  C   UNL     1     196.804 202.593 205.964  1.00  0.00     0.000 C 
BRANCH   8   9
ATOM      9  C   UNL     1     196.973 201.505 207.035  1.00  0.00     0.000 C 
BRANCH   9  10
ATOM     10  C   UNL     1     198.107 200.515 206.710  1.00  0.00     0.002 C 
BRANCH  10  11
ATOM     11  C   UNL     1     198.004 199.839 205.330  1.00  0.00     0.028 C 
BRANCH  11  12
ATOM     12  C   UNL     1     197.570 198.367 205.389  1.00  0.00     0.156 C 
BRANCH  12  13
ATOM     13  O   UNL     1     197.566 197.893 206.709  1.00  0.00    -0.396 OA
ATOM     14  H   UNL     1     198.515 197.744 206.959  1.00  0.00     0.210 HD
ENDBRANCH  12  13
ENDBRANCH  11  12
ENDBRANCH  10  11
ENDBRANCH   9  10
ENDBRANCH   8   9
ENDBRANCH   1   8
TORSDOF 11
ENDMDL
MODEL 9
REMARK VINA RESULT:    -3.593      6.877      9.300
REMARK INTER + INTRA:          -6.189
REMARK INTER:                  -4.986
REMARK INTRA:                  -1.204
REMARK UNBOUND:                -0.391
REMARK SMILES CCCCCCCCCCCCO
REMARK SMILES IDX 7 1 6 2 5 3 4 4 3 5 2 6 1 7 8 8 9 9 10 10 11 11 12 12 13 13
REMARK H PARENT 13 14
REMARK Flexibility Score: inf
ROOT
ATOM      1  C   UNL     1     207.294 203.627 206.228  1.00  0.00     0.000 C 
ENDROOT
BRANCH   1   2
ATOM      2  C   UNL     1     206.830 202.763 207.406  1.00  0.00    -0.000 C 
BRANCH   2   3
ATOM      3  C   UNL     1     207.700 203.008 208.647  1.00  0.00    -0.000 C 
BRANCH   3   4
ATOM      4  C   UNL     1     208.944 202.106 208.693  1.00  0.00    -0.000 C 
BRANCH   4   5
ATOM      5  C   UNL     1     210.257 202.843 208.358  1.00  0.00    -0.000 C 
BRANCH   5   6
ATOM      6  C   UNL     1     210.783 202.488 206.959  1.00  0.00    -0.003 C 
ATOM      7  C   UNL     1     212.066 201.666 207.044  1.00  0.00     0.004 C 
ENDBRANCH   5   6
ENDBRANCH   4   5
ENDBRANCH   3   4
ENDBRANCH   2   3
ENDBRANCH   1   2
BRANCH   1   8
ATOM      8  C   UNL     1     207.327 205.111 206.612  1.00  0.00     0.000 C 
BRANCH   8   9
ATOM      9  C   UNL     1     208.723 205.709 206.378  1.00  0.00     0.000 C 
BRANCH   9  10
ATOM     10  C   UNL     1     209.370 206.243 207.669  1.00  0.00     0.002 C 
BRANCH  10  11
ATOM     11  C   UNL     1     210.861 206.610 207.545  1.00  0.00     0.028 C 
BRANCH  11  12
ATOM     12  C   UNL     1     211.126 207.858 206.689  1.00  0.00     0.156 C 
BRANCH  12  13
ATOM     13  O   UNL     1     210.325 208.932 207.101  1.00  0.00    -0.396 OA
ATOM     14  H   UNL     1     210.895 209.743 207.058  1.00  0.00     0.210 HD
ENDBRANCH  12  13
ENDBRANCH  11  12
ENDBRANCH  10  11
ENDBRANCH   9  10
ENDBRANCH   8   9
ENDBRANCH   1   8
TORSDOF 11
ENDMDL
