MODEL 1
REMARK VINA RESULT:    -4.451      0.000      0.000
REMARK INTER + INTRA:          -5.697
REMARK INTER:                  -5.492
REMARK INTRA:                  -0.206
REMARK UNBOUND:                -0.206
REMARK SMILES CCCCC=CC(C)=O
REMARK SMILES IDX 4 1 3 2 2 3 1 4 5 5 6 6 7 7 9 8 8 9
REMARK H PARENT
REMARK Flexibility Score: inf
ROOT
ATOM      1  C   UNL     1     -10.927  74.239  32.092  1.00  0.00     0.027 C 
ENDROOT
BRANCH   1   2
ATOM      2  C   UNL     1     -11.631  72.887  32.261  1.00  0.00     0.004 C 
BRANCH   2   3
ATOM      3  C   UNL     1     -10.754  71.905  33.046  1.00  0.00    -0.003 C 
ATOM      4  C   UNL     1     -10.531  72.387  34.476  1.00  0.00     0.004 C 
ENDBRANCH   2   3
ENDBRANCH   1   2
BRANCH   1   5
ATOM      5  C   UNL     1     -10.725  74.571  30.642  1.00  0.00    -0.023 C 
ATOM      6  C   UNL     1     -11.249  73.809  29.673  1.00  0.00     0.042 C 
BRANCH   6   7
ATOM      7  C   UNL     1     -11.066  74.088  28.234  1.00  0.00     0.152 C 
ATOM      8  O   UNL     1     -11.951  73.697  27.426  1.00  0.00    -0.295 OA
ATOM      9  C   UNL     1      -9.870  74.818  27.700  1.00  0.00     0.093 C 
ENDBRANCH   6   7
ENDBRANCH   1   5
TORSDOF 4
ENDMDL
MODEL 2
REMARK VINA RESULT:    -4.408      3.673      6.218
REMARK INTER + INTRA:          -5.645
REMARK INTER:                  -5.381
REMARK INTRA:                  -0.263
REMARK UNBOUND:                -0.206
REMARK SMILES CCCCC=CC(C)=O
REMARK SMILES IDX 4 1 3 2 2 3 1 4 5 5 6 6 7 7 9 8 8 9
REMARK H PARENT
REMARK Flexibility Score: inf
ROOT
ATOM      1  C   UNL     1     -10.691  71.946  32.801  1.00  0.00     0.027 C 
ENDROOT
BRANCH   1   2
ATOM      2  C   UNL     1     -11.660  73.032  32.320  1.00  0.00     0.004 C 
BRANCH   2   3
ATOM      3  C   UNL     1     -10.992  73.949  31.289  1.00  0.00    -0.003 C 
ATOM      4  C   UNL     1     -10.604  75.286  31.910  1.00  0.00     0.004 C 
ENDBRANCH   2   3
ENDBRANCH   1   2
BRANCH   1   5
ATOM      5  C   UNL     1     -10.400  72.087  34.267  1.00  0.00    -0.023 C 
ATOM      6  C   UNL     1     -11.209  72.783  35.075  1.00  0.00     0.042 C 
BRANCH   6   7
ATOM      7  C   UNL     1     -10.957  72.960  36.520  1.00  0.00     0.152 C 
ATOM      8  O   UNL     1     -10.249  73.932  36.895  1.00  0.00    -0.295 OA
ATOM      9  C   UNL     1     -11.513  72.026  37.553  1.00  0.00     0.093 C 
ENDBRANCH   6   7
ENDBRANCH   1   5
TORSDOF 4
ENDMDL
MODEL 3
REMARK VINA RESULT:    -4.391      1.273      1.649
REMARK INTER + INTRA:          -5.623
REMARK INTER:                  -5.373
REMARK INTRA:                  -0.250
REMARK UNBOUND:                -0.206
REMARK SMILES CCCCC=CC(C)=O
REMARK SMILES IDX 4 1 3 2 2 3 1 4 5 5 6 6 7 7 9 8 8 9
REMARK H PARENT
REMARK Flexibility Score: inf
ROOT
ATOM      1  C   UNL     1     -10.382  75.002  31.733  1.00  0.00     0.027 C 
ENDROOT
BRANCH   1   2
ATOM      2  C   UNL     1     -11.246  74.245  32.749  1.00  0.00     0.004 C 
BRANCH   2   3
ATOM      3  C   UNL     1     -11.614  72.852  32.227  1.00  0.00    -0.003 C 
ATOM      4  C   UNL     1     -10.816  71.766  32.941  1.00  0.00     0.004 C 
ENDBRANCH   2   3
ENDBRANCH   1   2
BRANCH   1   5
ATOM      5  C   UNL     1     -10.698  74.579  30.328  1.00  0.00    -0.023 C 
ATOM      6  C   UNL     1      -9.773  74.628  29.360  1.00  0.00     0.042 C 
BRANCH   6   7
ATOM      7  C   UNL     1     -10.040  74.234  27.962  1.00  0.00     0.152 C 
ATOM      8  O   UNL     1      -9.078  74.205  27.149  1.00  0.00    -0.295 OA
ATOM      9  C   UNL     1     -11.411  73.868  27.477  1.00  0.00     0.093 C 
ENDBRANCH   6   7
ENDBRANCH   1   5
TORSDOF 4
ENDMDL
MODEL 4
REMARK VINA RESULT:    -4.376      3.070      5.376
REMARK INTER + INTRA:          -5.605
REMARK INTER:                  -5.419
REMARK INTRA:                  -0.186
REMARK UNBOUND:                -0.206
REMARK SMILES CCCCC=CC(C)=O
REMARK SMILES IDX 4 1 3 2 2 3 1 4 5 5 6 6 7 7 9 8 8 9
REMARK H PARENT
REMARK Flexibility Score: inf
ROOT
ATOM      1  C   UNL     1     -11.599  72.576  31.222  1.00  0.00     0.027 C 
ENDROOT
BRANCH   1   2
ATOM      2  C   UNL     1     -11.284  73.864  30.453  1.00  0.00     0.004 C 
BRANCH   2   3
ATOM      3  C   UNL     1     -10.559  74.875  31.348  1.00  0.00    -0.003 C 
ATOM      4  C   UNL     1      -9.103  75.042  30.926  1.00  0.00     0.004 C 
ENDBRANCH   2   3
ENDBRANCH   1   2
BRANCH   1   5
ATOM      5  C   UNL     1     -11.599  72.813  32.705  1.00  0.00    -0.023 C 
ATOM      6  C   UNL     1     -10.848  72.072  33.530  1.00  0.00     0.042 C 
BRANCH   6   7
ATOM      7  C   UNL     1     -10.825  72.260  34.994  1.00  0.00     0.152 C 
ATOM      8  O   UNL     1     -11.711  72.981  35.525  1.00  0.00    -0.295 OA
ATOM      9  C   UNL     1      -9.787  71.624  35.871  1.00  0.00     0.093 C 
ENDBRANCH   6   7
ENDBRANCH   1   5
TORSDOF 4
ENDMDL
MODEL 5
REMARK VINA RESULT:    -4.362      2.516      5.025
REMARK INTER + INTRA:          -5.587
REMARK INTER:                  -5.351
REMARK INTRA:                  -0.236
REMARK UNBOUND:                -0.206
REMARK SMILES CCCCC=CC(C)=O
REMARK SMILES IDX 4 1 3 2 2 3 1 4 5 5 6 6 7 7 9 8 8 9
REMARK H PARENT
REMARK Flexibility Score: inf
ROOT
ATOM      1  C   UNL     1     -10.923  74.719  30.769  1.00  0.00     0.027 C 
ENDROOT
BRANCH   1   2
ATOM      2  C   UNL     1     -10.529  74.101  29.422  1.00  0.00     0.004 C 
BRANCH   2   3
ATOM      3  C   UNL     1     -11.750  73.503  28.713  1.00  0.00    -0.003 C 
ATOM      4  C   UNL     1     -11.891  72.016  29.020  1.00  0.00     0.004 C 
ENDBRANCH   2   3
ENDBRANCH   1   2
BRANCH   1   5
ATOM      5  C   UNL     1     -10.465  73.864  31.915  1.00  0.00    -0.023 C 
ATOM      6  C   UNL     1     -11.331  73.383  32.816  1.00  0.00     0.042 C 
BRANCH   6   7
ATOM      7  C   UNL     1     -10.926  72.550  33.966  1.00  0.00     0.152 C 
ATOM      8  O   UNL     1     -10.145  71.581  33.765  1.00  0.00    -0.295 OA
ATOM      9  C   UNL     1     -11.408  72.814  35.361  1.00  0.00     0.093 C 
ENDBRANCH   6   7
ENDBRANCH   1   5
TORSDOF 4
ENDMDL
MODEL 6
REMARK VINA RESULT:    -4.345      2.052      5.146
REMARK INTER + INTRA:          -5.566
REMARK INTER:                  -5.343
REMARK INTRA:                  -0.223
REMARK UNBOUND:                -0.206
REMARK SMILES CCCCC=CC(C)=O
REMARK SMILES IDX 4 1 3 2 2 3 1 4 5 5 6 6 7 7 9 8 8 9
REMARK H PARENT
REMARK Flexibility Score: inf
ROOT
ATOM      1  C   UNL     1     -11.427  73.881  27.746  1.00  0.00     0.027 C 
ENDROOT
BRANCH   1   2
ATOM      2  C   UNL     1     -10.218  74.797  27.521  1.00  0.00     0.004 C 
BRANCH   2   3
ATOM      3  C   UNL     1      -8.996  73.993  27.061  1.00  0.00    -0.003 C 
ATOM      4  C   UNL     1      -9.302  73.202  25.794  1.00  0.00     0.004 C 
ENDBRANCH   2   3
ENDBRANCH   1   2
BRANCH   1   5
ATOM      5  C   UNL     1     -11.584  73.534  29.198  1.00  0.00    -0.023 C 
ATOM      6  C   UNL     1     -10.989  74.256  30.156  1.00  0.00     0.042 C 
BRANCH   6   7
ATOM      7  C   UNL     1     -11.104  73.946  31.595  1.00  0.00     0.152 C 
ATOM      8  O   UNL     1     -10.882  74.863  32.430  1.00  0.00    -0.295 OA
ATOM      9  C   UNL     1     -11.476  72.583  32.098  1.00  0.00     0.093 C 
ENDBRANCH   6   7
ENDBRANCH   1   5
TORSDOF 4
ENDMDL
MODEL 7
REMARK VINA RESULT:    -4.342      2.357      5.226
REMARK INTER + INTRA:          -5.562
REMARK INTER:                  -5.427
REMARK INTRA:                  -0.135
REMARK UNBOUND:                -0.206
REMARK SMILES CCCCC=CC(C)=O
REMARK SMILES IDX 4 1 3 2 2 3 1 4 5 5 6 6 7 7 9 8 8 9
REMARK H PARENT
REMARK Flexibility Score: inf
ROOT
ATOM      1  C   UNL     1     -11.223  73.936  29.037  1.00  0.00     0.027 C 
ENDROOT
BRANCH   1   2
ATOM      2  C   UNL     1      -9.955  74.645  28.548  1.00  0.00     0.004 C 
BRANCH   2   3
ATOM      3  C   UNL     1      -9.850  74.592  27.019  1.00  0.00    -0.003 C 
ATOM      4  C   UNL     1      -8.987  73.419  26.567  1.00  0.00     0.004 C 
ENDBRANCH   2   3
ENDBRANCH   1   2
BRANCH   1   5
ATOM      5  C   UNL     1     -11.237  73.815  30.533  1.00  0.00    -0.023 C 
ATOM      6  C   UNL     1     -11.072  72.633  31.140  1.00  0.00     0.042 C 
BRANCH   6   7
ATOM      7  C   UNL     1     -11.091  72.463  32.606  1.00  0.00     0.152 C 
ATOM      8  O   UNL     1     -10.314  71.619  33.127  1.00  0.00    -0.295 OA
ATOM      9  C   UNL     1     -11.999  73.258  33.497  1.00  0.00     0.093 C 
ENDBRANCH   6   7
ENDBRANCH   1   5
TORSDOF 4
ENDMDL
MODEL 8
REMARK VINA RESULT:    -4.301      2.235      3.312
REMARK INTER + INTRA:          -5.512
REMARK INTER:                  -5.259
REMARK INTRA:                  -0.254
REMARK UNBOUND:                -0.206
REMARK SMILES CCCCC=CC(C)=O
REMARK SMILES IDX 4 1 3 2 2 3 1 4 5 5 6 6 7 7 9 8 8 9
REMARK H PARENT
REMARK Flexibility Score: inf
ROOT
ATOM      1  C   UNL     1      -9.840  74.494  29.577  1.00  0.00     0.027 C 
ENDROOT
BRANCH   1   2
ATOM      2  C   UNL     1     -11.275  74.168  30.009  1.00  0.00     0.004 C 
BRANCH   2   3
ATOM      3  C   UNL     1     -11.383  72.722  30.508  1.00  0.00    -0.003 C 
ATOM      4  C   UNL     1     -11.886  71.796  29.405  1.00  0.00     0.004 C 
ENDBRANCH   2   3
ENDBRANCH   1   2
BRANCH   1   5
ATOM      5  C   UNL     1      -9.739  74.631  28.086  1.00  0.00    -0.023 C 
ATOM      6  C   UNL     1      -9.407  73.590  27.311  1.00  0.00     0.042 C 
BRANCH   6   7
ATOM      7  C   UNL     1      -9.283  73.679  25.842  1.00  0.00     0.152 C 
ATOM      8  O   UNL     1      -9.891  74.604  25.239  1.00  0.00    -0.295 OA
ATOM      9  C   UNL     1      -8.460  72.712  25.043  1.00  0.00     0.093 C 
ENDBRANCH   6   7
ENDBRANCH   1   5
TORSDOF 4
ENDMDL
MODEL 9
REMARK VINA RESULT:    -4.267      2.764      4.105
REMARK INTER + INTRA:          -5.471
REMARK INTER:                  -5.294
REMARK INTRA:                  -0.177
REMARK UNBOUND:                -0.206
REMARK SMILES CCCCC=CC(C)=O
REMARK SMILES IDX 4 1 3 2 2 3 1 4 5 5 6 6 7 7 9 8 8 9
REMARK H PARENT
REMARK Flexibility Score: inf
ROOT
ATOM      1  C   UNL     1      -9.788  74.740  28.175  1.00  0.00     0.027 C 
ENDROOT
BRANCH   1   2
ATOM      2  C   UNL     1     -10.897  74.081  29.003  1.00  0.00     0.004 C 
BRANCH   2   3
ATOM      3  C   UNL     1     -10.848  74.553  30.461  1.00  0.00    -0.003 C 
ATOM      4  C   UNL     1      -9.422  74.890  30.883  1.00  0.00     0.004 C 
ENDBRANCH   2   3
ENDBRANCH   1   2
BRANCH   1   5
ATOM      5  C   UNL     1      -9.880  74.343  26.729  1.00  0.00    -0.023 C 
ATOM      6  C   UNL     1      -9.371  73.185  26.290  1.00  0.00     0.042 C 
BRANCH   6   7
ATOM      7  C   UNL     1      -9.426  72.758  24.878  1.00  0.00     0.152 C 
ATOM      8  O   UNL     1      -8.492  72.042  24.426  1.00  0.00    -0.295 OA
ATOM      9  C   UNL     1     -10.550  73.144  23.963  1.00  0.00     0.093 C 
ENDBRANCH   6   7
ENDBRANCH   1   5
TORSDOF 4
ENDMDL
