MODEL 1
REMARK VINA RESULT:    -7.412      0.000      0.000
REMARK INTER + INTRA:         -14.529
REMARK INTER:                 -12.178
REMARK INTRA:                  -2.351
REMARK UNBOUND:                -2.351
REMARK SMILES C[C@@H]1O[C@H](OC[C@@H]2O[C@@H](Oc3c(-c4ccc(O)c(O)c4)oc4cc(O)cc(O)c4c3=O)[C@H](O)[C@@H](O)[C@@H]2O)[C@@H](O)[C@H](O)[C@@H]1O
REMARK SMILES IDX 7 1 36 2 34 3 32 4 9 5 8 6 6 7 5 8 4 9 1 10 2 11 42 12 3 13
REMARK SMILES IDX 40 14 38 15 43 16 41 18 39 20 37 22 35 24 10 26 11 27 12 28
REMARK SMILES IDX 30 29 21 30 29 31 31 32 22 33 27 34 23 35 26 36 24 37 13 38
REMARK SMILES IDX 20 39 14 40 18 41 15 42 16 43 19 44 17 46 28 48 25 50 33 52
REMARK H PARENT 43 17 41 19 39 21 37 23 35 25 19 45 17 47 28 49 25 51 33 53
REMARK Flexibility Score: inf
ROOT
ATOM      1  C   UNL     1      17.089  21.855  43.936  1.00  0.00     0.180 C 
ATOM      2  C   UNL     1      16.361  20.495  43.846  1.00  0.00     0.177 C 
ATOM      3  C   UNL     1      15.151  20.487  44.823  1.00  0.00     0.180 C 
ATOM      4  C   UNL     1      15.541  21.075  46.210  1.00  0.00     0.214 C 
ATOM      5  C   UNL     1      16.392  22.377  46.114  1.00  0.00     0.339 C 
ATOM      6  O   UNL     1      17.504  22.159  45.254  1.00  0.00    -0.332 OA
ENDROOT
BRANCH   1   7
ATOM      7  C   UNL     1      18.235  22.132  42.919  1.00  0.00     0.198 C 
BRANCH   7   8
ATOM      8  O   UNL     1      18.207  23.368  42.234  1.00  0.00    -0.347 OA
BRANCH   8   9
ATOM      9  C   UNL     1      18.259  23.371  40.824  1.00  0.00     0.281 C 
ATOM     10  C   UNL     1      16.259  25.146  38.246  1.00  0.00     0.041 C 
ATOM     11  C   UNL     1      17.215  24.069  38.814  1.00  0.00     0.150 C 
ATOM     12  C   UNL     1      18.630  23.984  38.140  1.00  0.00     0.174 C 
ATOM     13  O   UNL     1      17.294  24.237  40.239  1.00  0.00    -0.344 OA
ATOM     14  C   UNL     1      19.683  24.606  39.064  1.00  0.00     0.179 C 
ATOM     15  C   UNL     1      19.674  23.894  40.455  1.00  0.00     0.202 C 
BRANCH  12  16
ATOM     16  O   UNL     1      18.656  24.608  36.879  1.00  0.00    -0.388 OA
ATOM     17  H   UNL     1      18.329  25.552  37.002  1.00  0.00     0.211 HD
ENDBRANCH  12  16
BRANCH  14  18
ATOM     18  O   UNL     1      19.423  25.990  39.220  1.00  0.00    -0.387 OA
ATOM     19  H   UNL     1      18.987  26.087  40.109  1.00  0.00     0.211 HD
ENDBRANCH  14  18
BRANCH  15  20
ATOM     20  O   UNL     1      20.575  22.815  40.477  1.00  0.00    -0.385 OA
ATOM     21  H   UNL     1      21.473  23.192  40.269  1.00  0.00     0.211 HD
ENDBRANCH  15  20
ENDBRANCH   8   9
ENDBRANCH   7   8
ENDBRANCH   1   7
BRANCH   2  22
ATOM     22  O   UNL     1      17.239  19.446  44.166  1.00  0.00    -0.387 OA
ATOM     23  H   UNL     1      18.070  19.838  44.552  1.00  0.00     0.211 HD
ENDBRANCH   2  22
BRANCH   3  24
ATOM     24  O   UNL     1      14.046  21.201  44.316  1.00  0.00    -0.387 OA
ATOM     25  H   UNL     1      14.059  21.098  43.315  1.00  0.00     0.211 HD
ENDBRANCH   3  24
BRANCH   5  26
ATOM     26  O   UNL     1      15.658  23.557  45.686  1.00  0.00    -0.454 OA
BRANCH  26  27
ATOM     27  C   UNL     1      15.513  24.723  46.499  1.00  0.00     0.214 A 
ATOM     28  C   UNL     1      16.227  25.902  46.159  1.00  0.00     0.180 A 
ATOM     29  C   UNL     1      14.767  24.734  47.692  1.00  0.00     0.239 A 
ATOM     30  O   UNL     1      16.275  26.927  47.023  1.00  0.00    -0.452 OA
ATOM     31  C   UNL     1      14.941  25.796  48.626  1.00  0.00     0.111 A 
ATOM     32  O   UNL     1      13.974  23.795  47.972  1.00  0.00    -0.285 OA
ATOM     33  C   UNL     1      15.742  26.893  48.230  1.00  0.00     0.146 A 
ATOM     34  C   UNL     1      14.403  25.804  49.943  1.00  0.00     0.134 A 
ATOM     35  C   UNL     1      16.099  27.870  49.130  1.00  0.00     0.094 A 
ATOM     36  C   UNL     1      14.876  26.727  50.866  1.00  0.00     0.093 A 
ATOM     37  C   UNL     1      15.732  27.761  50.475  1.00  0.00     0.123 A 
BRANCH  28  38
ATOM     38  C   UNL     1      17.014  26.060  44.928  1.00  0.00     0.025 A 
ATOM     39  C   UNL     1      18.388  26.362  44.967  1.00  0.00     0.062 A 
ATOM     40  C   UNL     1      16.360  26.128  43.689  1.00  0.00     0.016 A 
ATOM     41  C   UNL     1      19.077  26.783  43.810  1.00  0.00     0.158 A 
ATOM     42  C   UNL     1      17.036  26.549  42.536  1.00  0.00     0.051 A 
ATOM     43  C   UNL     1      18.388  26.909  42.582  1.00  0.00     0.157 A 
BRANCH  41  44
ATOM     44  O   UNL     1      20.435  27.102  43.961  1.00  0.00    -0.504 OA
ATOM     45  H   UNL     1      20.758  27.899  44.527  1.00  0.00     0.293 HD
ENDBRANCH  41  44
BRANCH  43  46
ATOM     46  O   UNL     1      18.979  27.454  41.446  1.00  0.00    -0.504 OA
ATOM     47  H   UNL     1      18.718  28.342  41.039  1.00  0.00     0.293 HD
ENDBRANCH  43  46
ENDBRANCH  28  38
BRANCH  34  48
ATOM     48  O   UNL     1      13.491  24.817  50.344  1.00  0.00    -0.507 OA
ATOM     49  H   UNL     1      12.521  24.785  50.060  1.00  0.00     0.293 HD
ENDBRANCH  34  48
BRANCH  37  50
ATOM     50  O   UNL     1      16.348  28.550  51.429  1.00  0.00    -0.508 OA
ATOM     51  H   UNL     1      16.375  29.557  51.342  1.00  0.00     0.293 HD
ENDBRANCH  37  50
ENDBRANCH  26  27
ENDBRANCH   5  26
BRANCH   4  52
ATOM     52  O   UNL     1      16.348  20.115  46.826  1.00  0.00    -0.384 OA
ATOM     53  H   UNL     1      17.119  19.942  46.216  1.00  0.00     0.211 HD
ENDBRANCH   4  52
TORSDOF 16
ENDMDL
MODEL 2
REMARK VINA RESULT:    -7.136      2.310      5.994
REMARK INTER + INTRA:         -14.075
REMARK INTER:                 -11.775
REMARK INTRA:                  -2.300
REMARK UNBOUND:                -2.351
REMARK SMILES C[C@@H]1O[C@H](OC[C@@H]2O[C@@H](Oc3c(-c4ccc(O)c(O)c4)oc4cc(O)cc(O)c4c3=O)[C@H](O)[C@@H](O)[C@@H]2O)[C@@H](O)[C@H](O)[C@@H]1O
REMARK SMILES IDX 7 1 36 2 34 3 32 4 9 5 8 6 6 7 5 8 4 9 1 10 2 11 42 12 3 13
REMARK SMILES IDX 40 14 38 15 43 16 41 18 39 20 37 22 35 24 10 26 11 27 12 28
REMARK SMILES IDX 30 29 21 30 29 31 31 32 22 33 27 34 23 35 26 36 24 37 13 38
REMARK SMILES IDX 20 39 14 40 18 41 15 42 16 43 19 44 17 46 28 48 25 50 33 52
REMARK H PARENT 43 17 41 19 39 21 37 23 35 25 19 45 17 47 28 49 25 51 33 53
REMARK Flexibility Score: inf
ROOT
ATOM      1  C   UNL     1      14.181  21.075  45.300  1.00  0.00     0.180 C 
ATOM      2  C   UNL     1      14.764  20.186  44.178  1.00  0.00     0.177 C 
ATOM      3  C   UNL     1      15.953  20.923  43.499  1.00  0.00     0.180 C 
ATOM      4  C   UNL     1      15.609  22.413  43.217  1.00  0.00     0.214 C 
ATOM      5  C   UNL     1      14.900  23.121  44.410  1.00  0.00     0.339 C 
ATOM      6  O   UNL     1      13.783  22.348  44.830  1.00  0.00    -0.332 OA
ENDROOT
BRANCH   1   7
ATOM      7  C   UNL     1      13.084  20.456  46.216  1.00  0.00     0.198 C 
BRANCH   7   8
ATOM      8  O   UNL     1      13.519  19.765  47.370  1.00  0.00    -0.347 OA
BRANCH   8   9
ATOM      9  C   UNL     1      14.803  20.037  47.888  1.00  0.00     0.281 C 
ATOM     10  C   UNL     1      15.947  21.557  51.079  1.00  0.00     0.041 C 
ATOM     11  C   UNL     1      16.054  21.083  49.609  1.00  0.00     0.150 C 
ATOM     12  C   UNL     1      17.194  20.049  49.302  1.00  0.00     0.174 C 
ATOM     13  O   UNL     1      14.761  20.617  49.187  1.00  0.00    -0.344 OA
ATOM     14  C   UNL     1      16.591  18.651  49.123  1.00  0.00     0.179 C 
ATOM     15  C   UNL     1      15.517  18.662  47.988  1.00  0.00     0.202 C 
BRANCH  12  16
ATOM     16  O   UNL     1      18.179  20.032  50.307  1.00  0.00    -0.388 OA
ATOM     17  H   UNL     1      18.274  19.082  50.622  1.00  0.00     0.211 HD
ENDBRANCH  12  16
BRANCH  14  18
ATOM     18  O   UNL     1      16.012  18.221  50.343  1.00  0.00    -0.387 OA
ATOM     19  H   UNL     1      15.824  19.049  50.861  1.00  0.00     0.211 HD
ENDBRANCH  14  18
BRANCH  15  20
ATOM     20  O   UNL     1      16.095  18.361  46.742  1.00  0.00    -0.385 OA
ATOM     21  H   UNL     1      15.342  18.279  46.095  1.00  0.00     0.211 HD
ENDBRANCH  15  20
ENDBRANCH   8   9
ENDBRANCH   7   8
ENDBRANCH   1   7
BRANCH   2  22
ATOM     22  O   UNL     1      13.777  19.892  43.223  1.00  0.00    -0.387 OA
ATOM     23  H   UNL     1      14.209  19.415  42.461  1.00  0.00     0.211 HD
ENDBRANCH   2  22
BRANCH   3  24
ATOM     24  O   UNL     1      17.133  20.861  44.267  1.00  0.00    -0.387 OA
ATOM     25  H   UNL     1      17.185  21.711  44.802  1.00  0.00     0.211 HD
ENDBRANCH   3  24
BRANCH   5  26
ATOM     26  O   UNL     1      15.759  23.410  45.547  1.00  0.00    -0.454 OA
BRANCH  26  27
ATOM     27  C   UNL     1      15.584  24.553  46.387  1.00  0.00     0.214 A 
ATOM     28  C   UNL     1      16.263  25.759  46.071  1.00  0.00     0.180 A 
ATOM     29  C   UNL     1      14.842  24.516  47.582  1.00  0.00     0.239 A 
ATOM     30  O   UNL     1      16.285  26.765  46.959  1.00  0.00    -0.452 OA
ATOM     31  C   UNL     1      14.990  25.561  48.540  1.00  0.00     0.111 A 
ATOM     32  O   UNL     1      14.077  23.549  47.843  1.00  0.00    -0.285 OA
ATOM     33  C   UNL     1      15.758  26.689  48.167  1.00  0.00     0.146 A 
ATOM     34  C   UNL     1      14.458  25.523  49.858  1.00  0.00     0.134 A 
ATOM     35  C   UNL     1      16.091  27.654  49.087  1.00  0.00     0.094 A 
ATOM     36  C   UNL     1      14.908  26.438  50.801  1.00  0.00     0.093 A 
ATOM     37  C   UNL     1      15.732  27.505  50.430  1.00  0.00     0.123 A 
BRANCH  28  38
ATOM     38  C   UNL     1      17.041  25.968  44.842  1.00  0.00     0.025 A 
ATOM     39  C   UNL     1      18.395  26.348  44.884  1.00  0.00     0.062 A 
ATOM     40  C   UNL     1      16.385  26.003  43.603  1.00  0.00     0.016 A 
ATOM     41  C   UNL     1      19.059  26.812  43.730  1.00  0.00     0.158 A 
ATOM     42  C   UNL     1      17.037  26.467  42.452  1.00  0.00     0.051 A 
ATOM     43  C   UNL     1      18.365  26.904  42.501  1.00  0.00     0.157 A 
BRANCH  41  44
ATOM     44  O   UNL     1      20.397  27.209  43.883  1.00  0.00    -0.504 OA
ATOM     45  H   UNL     1      21.186  26.560  43.756  1.00  0.00     0.293 HD
ENDBRANCH  41  44
BRANCH  43  46
ATOM     46  O   UNL     1      18.925  27.488  41.369  1.00  0.00    -0.504 OA
ATOM     47  H   UNL     1      18.411  27.700  40.524  1.00  0.00     0.293 HD
ENDBRANCH  43  46
ENDBRANCH  28  38
BRANCH  34  48
ATOM     48  O   UNL     1      13.576  24.501  50.240  1.00  0.00    -0.507 OA
ATOM     49  H   UNL     1      13.704  23.523  50.018  1.00  0.00     0.293 HD
ENDBRANCH  34  48
BRANCH  37  50
ATOM     50  O   UNL     1      16.329  28.288  51.400  1.00  0.00    -0.508 OA
ATOM     51  H   UNL     1      16.754  29.178  51.172  1.00  0.00     0.293 HD
ENDBRANCH  37  50
ENDBRANCH  26  27
ENDBRANCH   5  26
BRANCH   4  52
ATOM     52  O   UNL     1      14.698  22.409  42.157  1.00  0.00    -0.384 OA
ATOM     53  H   UNL     1      13.825  22.730  42.518  1.00  0.00     0.211 HD
ENDBRANCH   4  52
TORSDOF 16
ENDMDL
MODEL 3
REMARK VINA RESULT:    -7.097      1.804      5.585
REMARK INTER + INTRA:         -14.011
REMARK INTER:                 -12.232
REMARK INTRA:                  -1.779
REMARK UNBOUND:                -2.351
REMARK SMILES C[C@@H]1O[C@H](OC[C@@H]2O[C@@H](Oc3c(-c4ccc(O)c(O)c4)oc4cc(O)cc(O)c4c3=O)[C@H](O)[C@@H](O)[C@@H]2O)[C@@H](O)[C@H](O)[C@@H]1O
REMARK SMILES IDX 7 1 36 2 34 3 32 4 9 5 8 6 6 7 5 8 4 9 1 10 2 11 42 12 3 13
REMARK SMILES IDX 40 14 38 15 43 16 41 18 39 20 37 22 35 24 10 26 11 27 12 28
REMARK SMILES IDX 30 29 21 30 29 31 31 32 22 33 27 34 23 35 26 36 24 37 13 38
REMARK SMILES IDX 20 39 14 40 18 41 15 42 16 43 19 44 17 46 28 48 25 50 33 52
REMARK H PARENT 43 17 41 19 39 21 37 23 35 25 19 45 17 47 28 49 25 51 33 53
REMARK Flexibility Score: inf
ROOT
ATOM      1  C   UNL     1      18.602  24.389  41.769  1.00  0.00     0.180 C 
ATOM      2  C   UNL     1      18.605  25.895  41.420  1.00  0.00     0.177 C 
ATOM      3  C   UNL     1      17.721  26.665  42.441  1.00  0.00     0.180 C 
ATOM      4  C   UNL     1      16.376  25.924  42.697  1.00  0.00     0.214 C 
ATOM      5  C   UNL     1      16.544  24.388  42.892  1.00  0.00     0.339 C 
ATOM      6  O   UNL     1      17.296  23.847  41.812  1.00  0.00    -0.332 OA
ENDROOT
BRANCH   1   7
ATOM      7  C   UNL     1      19.559  23.459  40.966  1.00  0.00     0.198 C 
BRANCH   7   8
ATOM      8  O   UNL     1      19.747  23.752  39.597  1.00  0.00    -0.347 OA
BRANCH   8   9
ATOM      9  C   UNL     1      18.895  23.151  38.645  1.00  0.00     0.281 C 
ATOM     10  C   UNL     1      15.785  24.313  36.980  1.00  0.00     0.041 C 
ATOM     11  C   UNL     1      16.843  23.293  37.468  1.00  0.00     0.150 C 
ATOM     12  C   UNL     1      17.508  22.408  36.356  1.00  0.00     0.174 C 
ATOM     13  O   UNL     1      17.812  23.992  38.267  1.00  0.00    -0.344 OA
ATOM     14  C   UNL     1      18.931  22.906  36.079  1.00  0.00     0.179 C 
ATOM     15  C   UNL     1      19.777  22.895  37.392  1.00  0.00     0.202 C 
BRANCH  12  16
ATOM     16  O   UNL     1      16.754  22.394  35.168  1.00  0.00    -0.388 OA
ATOM     17  H   UNL     1      16.462  21.446  35.006  1.00  0.00     0.211 HD
ENDBRANCH  12  16
BRANCH  14  18
ATOM     18  O   UNL     1      18.881  24.215  35.538  1.00  0.00    -0.387 OA
ATOM     19  H   UNL     1      18.821  24.829  36.318  1.00  0.00     0.211 HD
ENDBRANCH  14  18
BRANCH  15  20
ATOM     20  O   UNL     1      20.446  21.670  37.553  1.00  0.00    -0.385 OA
ATOM     21  H   UNL     1      21.009  21.760  38.370  1.00  0.00     0.211 HD
ENDBRANCH  15  20
ENDBRANCH   8   9
ENDBRANCH   7   8
ENDBRANCH   1   7
BRANCH   2  22
ATOM     22  O   UNL     1      18.119  26.099  40.118  1.00  0.00    -0.387 OA
ATOM     23  H   UNL     1      18.484  26.962  39.778  1.00  0.00     0.211 HD
ENDBRANCH   2  22
BRANCH   3  24
ATOM     24  O   UNL     1      18.374  26.869  43.673  1.00  0.00    -0.387 OA
ATOM     25  H   UNL     1      17.718  27.321  44.287  1.00  0.00     0.211 HD
ENDBRANCH   3  24
BRANCH   5  26
ATOM     26  O   UNL     1      17.140  23.993  44.158  1.00  0.00    -0.454 OA
BRANCH  26  27
ATOM     27  C   UNL     1      16.617  22.943  44.974  1.00  0.00     0.214 A 
ATOM     28  C   UNL     1      16.015  23.262  46.219  1.00  0.00     0.180 A 
ATOM     29  C   UNL     1      16.758  21.581  44.648  1.00  0.00     0.239 A 
ATOM     30  O   UNL     1      15.720  22.284  47.088  1.00  0.00    -0.452 OA
ATOM     31  C   UNL     1      16.537  20.588  45.645  1.00  0.00     0.111 A 
ATOM     32  O   UNL     1      17.120  21.222  43.495  1.00  0.00    -0.285 OA
ATOM     33  C   UNL     1      16.014  21.013  46.889  1.00  0.00     0.146 A 
ATOM     34  C   UNL     1      16.850  19.210  45.490  1.00  0.00     0.134 A 
ATOM     35  C   UNL     1      15.935  20.149  47.956  1.00  0.00     0.094 A 
ATOM     36  C   UNL     1      16.883  18.388  46.609  1.00  0.00     0.093 A 
ATOM     37  C   UNL     1      16.436  18.848  47.851  1.00  0.00     0.123 A 
BRANCH  28  38
ATOM     38  C   UNL     1      15.760  24.633  46.681  1.00  0.00     0.025 A 
ATOM     39  C   UNL     1      16.579  25.707  46.287  1.00  0.00     0.062 A 
ATOM     40  C   UNL     1      14.822  24.860  47.699  1.00  0.00     0.016 A 
ATOM     41  C   UNL     1      16.508  26.957  46.937  1.00  0.00     0.158 A 
ATOM     42  C   UNL     1      14.748  26.097  48.352  1.00  0.00     0.051 A 
ATOM     43  C   UNL     1      15.602  27.150  48.006  1.00  0.00     0.157 A 
BRANCH  41  44
ATOM     44  O   UNL     1      17.397  27.952  46.500  1.00  0.00    -0.504 OA
ATOM     45  H   UNL     1      17.169  28.955  46.537  1.00  0.00     0.293 HD
ENDBRANCH  41  44
BRANCH  43  46
ATOM     46  O   UNL     1      15.589  28.310  48.774  1.00  0.00    -0.504 OA
ATOM     47  H   UNL     1      16.304  29.025  48.738  1.00  0.00     0.293 HD
ENDBRANCH  43  46
ENDBRANCH  28  38
BRANCH  34  48
ATOM     48  O   UNL     1      17.238  18.705  44.240  1.00  0.00    -0.507 OA
ATOM     49  H   UNL     1      17.021  19.144  43.354  1.00  0.00     0.293 HD
ENDBRANCH  34  48
BRANCH  37  50
ATOM     50  O   UNL     1      16.654  18.094  48.989  1.00  0.00    -0.508 OA
ATOM     51  H   UNL     1      16.078  18.203  49.813  1.00  0.00     0.293 HD
ENDBRANCH  37  50
ENDBRANCH  26  27
ENDBRANCH   5  26
BRANCH   4  52
ATOM     52  O   UNL     1      15.610  26.099  41.542  1.00  0.00    -0.384 OA
ATOM     53  H   UNL     1      15.679  25.255  41.012  1.00  0.00     0.211 HD
ENDBRANCH   4  52
TORSDOF 16
ENDMDL
MODEL 4
REMARK VINA RESULT:    -7.075      2.736      6.920
REMARK INTER + INTRA:         -13.975
REMARK INTER:                 -11.778
REMARK INTRA:                  -2.197
REMARK UNBOUND:                -2.351
REMARK SMILES C[C@@H]1O[C@H](OC[C@@H]2O[C@@H](Oc3c(-c4ccc(O)c(O)c4)oc4cc(O)cc(O)c4c3=O)[C@H](O)[C@@H](O)[C@@H]2O)[C@@H](O)[C@H](O)[C@@H]1O
REMARK SMILES IDX 7 1 36 2 34 3 32 4 9 5 8 6 6 7 5 8 4 9 1 10 2 11 42 12 3 13
REMARK SMILES IDX 40 14 38 15 43 16 41 18 39 20 37 22 35 24 10 26 11 27 12 28
REMARK SMILES IDX 30 29 21 30 29 31 31 32 22 33 27 34 23 35 26 36 24 37 13 38
REMARK SMILES IDX 20 39 14 40 18 41 15 42 16 43 19 44 17 46 28 48 25 50 33 52
REMARK H PARENT 43 17 41 19 39 21 37 23 35 25 19 45 17 47 28 49 25 51 33 53
REMARK Flexibility Score: inf
ROOT
ATOM      1  C   UNL     1      16.393  20.279  45.936  1.00  0.00     0.180 C 
ATOM      2  C   UNL     1      16.736  19.760  44.521  1.00  0.00     0.177 C 
ATOM      3  C   UNL     1      16.806  20.958  43.532  1.00  0.00     0.180 C 
ATOM      4  C   UNL     1      15.610  21.932  43.739  1.00  0.00     0.214 C 
ATOM      5  C   UNL     1      15.316  22.241  45.237  1.00  0.00     0.339 C 
ATOM      6  O   UNL     1      15.190  21.023  45.961  1.00  0.00    -0.332 OA
ENDROOT
BRANCH   1   7
ATOM      7  C   UNL     1      16.436  19.258  47.111  1.00  0.00     0.198 C 
BRANCH   7   8
ATOM      8  O   UNL     1      16.662  19.773  48.407  1.00  0.00    -0.347 OA
BRANCH   8   9
ATOM      9  C   UNL     1      15.715  19.515  49.422  1.00  0.00     0.281 C 
ATOM     10  C   UNL     1      14.776  16.417  51.244  1.00  0.00     0.041 C 
ATOM     11  C   UNL     1      14.612  17.863  50.715  1.00  0.00     0.150 C 
ATOM     12  C   UNL     1      14.397  18.972  51.805  1.00  0.00     0.174 C 
ATOM     13  O   UNL     1      15.718  18.156  49.844  1.00  0.00    -0.344 OA
ATOM     14  C   UNL     1      15.687  19.780  51.986  1.00  0.00     0.179 C 
ATOM     15  C   UNL     1      16.133  20.403  50.624  1.00  0.00     0.202 C 
BRANCH  12  16
ATOM     16  O   UNL     1      13.981  18.431  53.036  1.00  0.00    -0.388 OA
ATOM     17  H   UNL     1      14.314  17.483  53.078  1.00  0.00     0.211 HD
ENDBRANCH  12  16
BRANCH  14  18
ATOM     18  O   UNL     1      16.707  18.941  52.499  1.00  0.00    -0.387 OA
ATOM     19  H   UNL     1      16.941  19.312  53.391  1.00  0.00     0.211 HD
ENDBRANCH  14  18
BRANCH  15  20
ATOM     20  O   UNL     1      15.584  21.685  50.451  1.00  0.00    -0.385 OA
ATOM     21  H   UNL     1      14.731  21.699  50.966  1.00  0.00     0.211 HD
ENDBRANCH  15  20
ENDBRANCH   8   9
ENDBRANCH   7   8
ENDBRANCH   1   7
BRANCH   2  22
ATOM     22  O   UNL     1      15.768  18.838  44.088  1.00  0.00    -0.387 OA
ATOM     23  H   UNL     1      15.733  18.865  43.092  1.00  0.00     0.211 HD
ENDBRANCH   2  22
BRANCH   3  24
ATOM     24  O   UNL     1      18.011  21.679  43.644  1.00  0.00    -0.387 OA
ATOM     25  H   UNL     1      18.615  21.156  44.255  1.00  0.00     0.211 HD
ENDBRANCH   3  24
BRANCH   5  26
ATOM     26  O   UNL     1      16.288  23.106  45.886  1.00  0.00    -0.454 OA
BRANCH  26  27
ATOM     27  C   UNL     1      15.923  24.265  46.638  1.00  0.00     0.214 A 
ATOM     28  C   UNL     1      16.376  25.541  46.213  1.00  0.00     0.180 A 
ATOM     29  C   UNL     1      15.209  24.196  47.849  1.00  0.00     0.239 A 
ATOM     30  O   UNL     1      16.230  26.604  47.019  1.00  0.00    -0.452 OA
ATOM     31  C   UNL     1      15.180  25.324  48.718  1.00  0.00     0.111 A 
ATOM     32  O   UNL     1      14.628  23.135  48.201  1.00  0.00    -0.285 OA
ATOM     33  C   UNL     1      15.735  26.535  48.240  1.00  0.00     0.146 A 
ATOM     34  C   UNL     1      14.674  25.302  50.047  1.00  0.00     0.134 A 
ATOM     35  C   UNL     1      15.901  27.615  49.075  1.00  0.00     0.094 A 
ATOM     36  C   UNL     1      14.965  26.354  50.905  1.00  0.00     0.093 A 
ATOM     37  C   UNL     1      15.586  27.515  50.433  1.00  0.00     0.123 A 
BRANCH  28  38
ATOM     38  C   UNL     1      17.095  25.782  44.954  1.00  0.00     0.025 A 
ATOM     39  C   UNL     1      18.361  26.395  44.935  1.00  0.00     0.062 A 
ATOM     40  C   UNL     1      16.433  25.601  43.731  1.00  0.00     0.016 A 
ATOM     41  C   UNL     1      18.924  26.873  43.733  1.00  0.00     0.158 A 
ATOM     42  C   UNL     1      16.983  26.076  42.533  1.00  0.00     0.051 A 
ATOM     43  C   UNL     1      18.214  26.741  42.517  1.00  0.00     0.157 A 
BRANCH  41  44
ATOM     44  O   UNL     1      20.172  27.508  43.825  1.00  0.00    -0.504 OA
ATOM     45  H   UNL     1      20.325  28.352  44.394  1.00  0.00     0.293 HD
ENDBRANCH  41  44
BRANCH  43  46
ATOM     46  O   UNL     1      18.653  27.320  41.330  1.00  0.00    -0.504 OA
ATOM     47  H   UNL     1      19.074  26.805  40.568  1.00  0.00     0.293 HD
ENDBRANCH  43  46
ENDBRANCH  28  38
BRANCH  34  48
ATOM     48  O   UNL     1      13.988  24.176  50.527  1.00  0.00    -0.507 OA
ATOM     49  H   UNL     1      13.474  23.528  49.944  1.00  0.00     0.293 HD
ENDBRANCH  34  48
BRANCH  37  50
ATOM     50  O   UNL     1      16.045  28.466  51.325  1.00  0.00    -0.508 OA
ATOM     51  H   UNL     1      15.419  28.927  51.973  1.00  0.00     0.293 HD
ENDBRANCH  37  50
ENDBRANCH  26  27
ENDBRANCH   5  26
BRANCH   4  52
ATOM     52  O   UNL     1      14.482  21.277  43.237  1.00  0.00    -0.384 OA
ATOM     53  H   UNL     1      14.787  20.394  42.885  1.00  0.00     0.211 HD
ENDBRANCH   4  52
TORSDOF 16
ENDMDL
MODEL 5
REMARK VINA RESULT:    -7.042      2.262      9.110
REMARK INTER + INTRA:         -13.920
REMARK INTER:                 -11.664
REMARK INTRA:                  -2.256
REMARK UNBOUND:                -2.351
REMARK SMILES C[C@@H]1O[C@H](OC[C@@H]2O[C@@H](Oc3c(-c4ccc(O)c(O)c4)oc4cc(O)cc(O)c4c3=O)[C@H](O)[C@@H](O)[C@@H]2O)[C@@H](O)[C@H](O)[C@@H]1O
REMARK SMILES IDX 7 1 36 2 34 3 32 4 9 5 8 6 6 7 5 8 4 9 1 10 2 11 42 12 3 13
REMARK SMILES IDX 40 14 38 15 43 16 41 18 39 20 37 22 35 24 10 26 11 27 12 28
REMARK SMILES IDX 30 29 21 30 29 31 31 32 22 33 27 34 23 35 26 36 24 37 13 38
REMARK SMILES IDX 20 39 14 40 18 41 15 42 16 43 19 44 17 46 28 48 25 50 33 52
REMARK H PARENT 43 17 41 19 39 21 37 23 35 25 19 45 17 47 28 49 25 51 33 53
REMARK Flexibility Score: inf
ROOT
ATOM      1  C   UNL     1      15.363  25.736  48.000  1.00  0.00     0.180 C 
ATOM      2  C   UNL     1      14.717  24.759  49.008  1.00  0.00     0.177 C 
ATOM      3  C   UNL     1      14.647  23.338  48.379  1.00  0.00     0.180 C 
ATOM      4  C   UNL     1      14.140  23.394  46.909  1.00  0.00     0.214 C 
ATOM      5  C   UNL     1      14.799  24.529  46.070  1.00  0.00     0.339 C 
ATOM      6  O   UNL     1      14.679  25.766  46.762  1.00  0.00    -0.332 OA
ENDROOT
BRANCH   1   7
ATOM      7  C   UNL     1      15.678  27.180  48.492  1.00  0.00     0.198 C 
BRANCH   7   8
ATOM      8  O   UNL     1      14.579  27.998  48.838  1.00  0.00    -0.347 OA
BRANCH   8   9
ATOM      9  C   UNL     1      14.471  28.476  50.162  1.00  0.00     0.281 C 
ATOM     10  C   UNL     1      12.796  27.119  53.187  1.00  0.00     0.041 C 
ATOM     11  C   UNL     1      13.456  28.190  52.285  1.00  0.00     0.150 C 
ATOM     12  C   UNL     1      14.701  28.928  52.893  1.00  0.00     0.174 C 
ATOM     13  O   UNL     1      13.740  27.596  51.007  1.00  0.00    -0.344 OA
ATOM     14  C   UNL     1      15.985  28.397  52.248  1.00  0.00     0.179 C 
ATOM     15  C   UNL     1      15.926  28.571  50.696  1.00  0.00     0.202 C 
BRANCH  12  16
ATOM     16  O   UNL     1      14.764  28.794  54.293  1.00  0.00    -0.388 OA
ATOM     17  H   UNL     1      14.120  28.068  54.557  1.00  0.00     0.211 HD
ENDBRANCH  12  16
BRANCH  14  18
ATOM     18  O   UNL     1      16.157  27.031  52.582  1.00  0.00    -0.387 OA
ATOM     19  H   UNL     1      15.590  26.873  53.383  1.00  0.00     0.211 HD
ENDBRANCH  14  18
BRANCH  15  20
ATOM     20  O   UNL     1      16.471  29.807  50.305  1.00  0.00    -0.385 OA
ATOM     21  H   UNL     1      15.762  30.490  50.460  1.00  0.00     0.211 HD
ENDBRANCH  15  20
ENDBRANCH   8   9
ENDBRANCH   7   8
ENDBRANCH   1   7
BRANCH   2  22
ATOM     22  O   UNL     1      13.426  25.192  49.353  1.00  0.00    -0.387 OA
ATOM     23  H   UNL     1      12.950  25.458  48.519  1.00  0.00     0.211 HD
ENDBRANCH   2  22
BRANCH   3  24
ATOM     24  O   UNL     1      15.889  22.673  48.412  1.00  0.00    -0.387 OA
ATOM     25  H   UNL     1      15.698  21.686  48.452  1.00  0.00     0.211 HD
ENDBRANCH   3  24
BRANCH   5  26
ATOM     26  O   UNL     1      16.188  24.295  45.709  1.00  0.00    -0.454 OA
BRANCH  26  27
ATOM     27  C   UNL     1      16.806  24.883  44.563  1.00  0.00     0.214 A 
ATOM     28  C   UNL     1      16.589  24.309  43.283  1.00  0.00     0.180 A 
ATOM     29  C   UNL     1      17.711  25.957  44.650  1.00  0.00     0.239 A 
ATOM     30  O   UNL     1      17.327  24.709  42.237  1.00  0.00    -0.452 OA
ATOM     31  C   UNL     1      18.550  26.268  43.541  1.00  0.00     0.111 A 
ATOM     32  O   UNL     1      17.824  26.628  45.711  1.00  0.00    -0.285 OA
ATOM     33  C   UNL     1      18.314  25.581  42.327  1.00  0.00     0.146 A 
ATOM     34  C   UNL     1      19.635  27.185  43.588  1.00  0.00     0.134 A 
ATOM     35  C   UNL     1      19.184  25.695  41.269  1.00  0.00     0.094 A 
ATOM     36  C   UNL     1      20.568  27.190  42.559  1.00  0.00     0.093 A 
ATOM     37  C   UNL     1      20.359  26.442  41.396  1.00  0.00     0.123 A 
BRANCH  28  38
ATOM     38  C   UNL     1      15.644  23.213  43.023  1.00  0.00     0.025 A 
ATOM     39  C   UNL     1      14.342  23.461  42.552  1.00  0.00     0.062 A 
ATOM     40  C   UNL     1      15.955  21.914  43.449  1.00  0.00     0.016 A 
ATOM     41  C   UNL     1      13.356  22.451  42.565  1.00  0.00     0.158 A 
ATOM     42  C   UNL     1      14.980  20.906  43.468  1.00  0.00     0.051 A 
ATOM     43  C   UNL     1      13.667  21.163  43.058  1.00  0.00     0.157 A 
BRANCH  41  44
ATOM     44  O   UNL     1      12.076  22.809  42.115  1.00  0.00    -0.504 OA
ATOM     45  H   UNL     1      11.923  23.374  41.268  1.00  0.00     0.293 HD
ENDBRANCH  41  44
BRANCH  43  46
ATOM     46  O   UNL     1      12.702  20.175  43.228  1.00  0.00    -0.504 OA
ATOM     47  H   UNL     1      11.831  20.137  42.716  1.00  0.00     0.293 HD
ENDBRANCH  43  46
ENDBRANCH  28  38
BRANCH  34  48
ATOM     48  O   UNL     1      19.833  27.997  44.715  1.00  0.00    -0.507 OA
ATOM     49  H   UNL     1      19.371  27.861  45.605  1.00  0.00     0.293 HD
ENDBRANCH  34  48
BRANCH  37  50
ATOM     50  O   UNL     1      21.376  26.301  40.471  1.00  0.00    -0.508 OA
ATOM     51  H   UNL     1      22.346  26.433  40.729  1.00  0.00     0.293 HD
ENDBRANCH  37  50
ENDBRANCH  26  27
ENDBRANCH   5  26
BRANCH   4  52
ATOM     52  O   UNL     1      12.776  23.689  46.978  1.00  0.00    -0.384 OA
ATOM     53  H   UNL     1      12.297  22.830  47.148  1.00  0.00     0.211 HD
ENDBRANCH   4  52
TORSDOF 16
ENDMDL
MODEL 6
REMARK VINA RESULT:    -6.988      1.944      9.429
REMARK INTER + INTRA:         -13.832
REMARK INTER:                 -11.634
REMARK INTRA:                  -2.198
REMARK UNBOUND:                -2.351
REMARK SMILES C[C@@H]1O[C@H](OC[C@@H]2O[C@@H](Oc3c(-c4ccc(O)c(O)c4)oc4cc(O)cc(O)c4c3=O)[C@H](O)[C@@H](O)[C@@H]2O)[C@@H](O)[C@H](O)[C@@H]1O
REMARK SMILES IDX 7 1 36 2 34 3 32 4 9 5 8 6 6 7 5 8 4 9 1 10 2 11 42 12 3 13
REMARK SMILES IDX 40 14 38 15 43 16 41 18 39 20 37 22 35 24 10 26 11 27 12 28
REMARK SMILES IDX 30 29 21 30 29 31 31 32 22 33 27 34 23 35 26 36 24 37 13 38
REMARK SMILES IDX 20 39 14 40 18 41 15 42 16 43 19 44 17 46 28 48 25 50 33 52
REMARK H PARENT 43 17 41 19 39 21 37 23 35 25 19 45 17 47 28 49 25 51 33 53
REMARK Flexibility Score: inf
ROOT
ATOM      1  C   UNL     1      15.261  25.751  47.998  1.00  0.00     0.180 C 
ATOM      2  C   UNL     1      14.524  24.814  48.982  1.00  0.00     0.177 C 
ATOM      3  C   UNL     1      14.404  23.396  48.355  1.00  0.00     0.180 C 
ATOM      4  C   UNL     1      13.960  23.472  46.865  1.00  0.00     0.214 C 
ATOM      5  C   UNL     1      14.712  24.567  46.051  1.00  0.00     0.339 C 
ATOM      6  O   UNL     1      14.630  25.812  46.734  1.00  0.00    -0.332 OA
ENDROOT
BRANCH   1   7
ATOM      7  C   UNL     1      15.632  27.178  48.500  1.00  0.00     0.198 C 
BRANCH   7   8
ATOM      8  O   UNL     1      14.566  28.037  48.850  1.00  0.00    -0.347 OA
BRANCH   8   9
ATOM      9  C   UNL     1      14.467  28.497  50.182  1.00  0.00     0.281 C 
ATOM     10  C   UNL     1      12.841  27.081  53.206  1.00  0.00     0.041 C 
ATOM     11  C   UNL     1      13.478  28.172  52.311  1.00  0.00     0.150 C 
ATOM     12  C   UNL     1      14.719  28.917  52.915  1.00  0.00     0.174 C 
ATOM     13  O   UNL     1      13.755  27.597  51.023  1.00  0.00    -0.344 OA
ATOM     14  C   UNL     1      16.003  28.411  52.250  1.00  0.00     0.179 C 
ATOM     15  C   UNL     1      15.926  28.604  50.701  1.00  0.00     0.202 C 
BRANCH  12  16
ATOM     16  O   UNL     1      14.800  28.766  54.312  1.00  0.00    -0.388 OA
ATOM     17  H   UNL     1      15.609  28.203  54.510  1.00  0.00     0.211 HD
ENDBRANCH  12  16
BRANCH  14  18
ATOM     18  O   UNL     1      16.196  27.043  52.564  1.00  0.00    -0.387 OA
ATOM     19  H   UNL     1      15.878  26.534  51.772  1.00  0.00     0.211 HD
ENDBRANCH  14  18
BRANCH  15  20
ATOM     20  O   UNL     1      16.451  29.851  50.320  1.00  0.00    -0.385 OA
ATOM     21  H   UNL     1      15.673  30.417  50.060  1.00  0.00     0.211 HD
ENDBRANCH  15  20
ENDBRANCH   8   9
ENDBRANCH   7   8
ENDBRANCH   1   7
BRANCH   2  22
ATOM     22  O   UNL     1      13.245  25.317  49.274  1.00  0.00    -0.387 OA
ATOM     23  H   UNL     1      13.177  25.449  50.259  1.00  0.00     0.211 HD
ENDBRANCH   2  22
BRANCH   3  24
ATOM     24  O   UNL     1      15.607  22.666  48.439  1.00  0.00    -0.387 OA
ATOM     25  H   UNL     1      16.240  23.058  47.763  1.00  0.00     0.211 HD
ENDBRANCH   3  24
BRANCH   5  26
ATOM     26  O   UNL     1      16.100  24.258  45.746  1.00  0.00    -0.454 OA
BRANCH  26  27
ATOM     27  C   UNL     1      16.600  24.143  44.413  1.00  0.00     0.214 A 
ATOM     28  C   UNL     1      16.682  22.862  43.808  1.00  0.00     0.180 A 
ATOM     29  C   UNL     1      17.115  25.238  43.694  1.00  0.00     0.239 A 
ATOM     30  O   UNL     1      17.346  22.710  42.652  1.00  0.00    -0.452 OA
ATOM     31  C   UNL     1      17.907  25.011  42.531  1.00  0.00     0.111 A 
ATOM     32  O   UNL     1      16.923  26.421  44.084  1.00  0.00    -0.285 OA
ATOM     33  C   UNL     1      18.001  23.685  42.049  1.00  0.00     0.146 A 
ATOM     34  C   UNL     1      18.645  26.021  41.854  1.00  0.00     0.134 A 
ATOM     35  C   UNL     1      18.879  23.358  41.044  1.00  0.00     0.094 A 
ATOM     36  C   UNL     1      19.614  25.651  40.930  1.00  0.00     0.093 A 
ATOM     37  C   UNL     1      19.748  24.321  40.522  1.00  0.00     0.123 A 
BRANCH  28  38
ATOM     38  C   UNL     1      16.151  21.632  44.412  1.00  0.00     0.025 A 
ATOM     39  C   UNL     1      16.725  21.074  45.569  1.00  0.00     0.062 A 
ATOM     40  C   UNL     1      15.198  20.873  43.718  1.00  0.00     0.016 A 
ATOM     41  C   UNL     1      16.402  19.766  45.987  1.00  0.00     0.158 A 
ATOM     42  C   UNL     1      14.875  19.571  44.124  1.00  0.00     0.051 A 
ATOM     43  C   UNL     1      15.488  18.988  45.239  1.00  0.00     0.157 A 
BRANCH  41  44
ATOM     44  O   UNL     1      17.059  19.283  47.130  1.00  0.00    -0.504 OA
ATOM     45  H   UNL     1      17.103  18.282  47.363  1.00  0.00     0.293 HD
ENDBRANCH  41  44
BRANCH  43  46
ATOM     46  O   UNL     1      15.242  17.648  45.521  1.00  0.00    -0.504 OA
ATOM     47  H   UNL     1      15.057  16.943  44.819  1.00  0.00     0.293 HD
ENDBRANCH  43  46
ENDBRANCH  28  38
BRANCH  34  48
ATOM     48  O   UNL     1      18.484  27.371  42.196  1.00  0.00    -0.507 OA
ATOM     49  H   UNL     1      17.637  27.903  42.041  1.00  0.00     0.293 HD
ENDBRANCH  34  48
BRANCH  37  50
ATOM     50  O   UNL     1      20.834  23.936  39.758  1.00  0.00    -0.508 OA
ATOM     51  H   UNL     1      20.842  24.058  38.754  1.00  0.00     0.293 HD
ENDBRANCH  37  50
ENDBRANCH  26  27
ENDBRANCH   5  26
BRANCH   4  52
ATOM     52  O   UNL     1      12.612  23.839  46.878  1.00  0.00    -0.384 OA
ATOM     53  H   UNL     1      12.176  23.385  46.104  1.00  0.00     0.211 HD
ENDBRANCH   4  52
TORSDOF 16
ENDMDL
MODEL 7
REMARK VINA RESULT:    -6.960      1.744      5.842
REMARK INTER + INTRA:         -13.786
REMARK INTER:                 -11.652
REMARK INTRA:                  -2.134
REMARK UNBOUND:                -2.351
REMARK SMILES C[C@@H]1O[C@H](OC[C@@H]2O[C@@H](Oc3c(-c4ccc(O)c(O)c4)oc4cc(O)cc(O)c4c3=O)[C@H](O)[C@@H](O)[C@@H]2O)[C@@H](O)[C@H](O)[C@@H]1O
REMARK SMILES IDX 7 1 36 2 34 3 32 4 9 5 8 6 6 7 5 8 4 9 1 10 2 11 42 12 3 13
REMARK SMILES IDX 40 14 38 15 43 16 41 18 39 20 37 22 35 24 10 26 11 27 12 28
REMARK SMILES IDX 30 29 21 30 29 31 31 32 22 33 27 34 23 35 26 36 24 37 13 38
REMARK SMILES IDX 20 39 14 40 18 41 15 42 16 43 19 44 17 46 28 48 25 50 33 52
REMARK H PARENT 43 17 41 19 39 21 37 23 35 25 19 45 17 47 28 49 25 51 33 53
REMARK Flexibility Score: inf
ROOT
ATOM      1  C   UNL     1      18.621  25.062  42.526  1.00  0.00     0.180 C 
ATOM      2  C   UNL     1      19.301  26.449  42.554  1.00  0.00     0.177 C 
ATOM      3  C   UNL     1      18.868  27.213  43.837  1.00  0.00     0.180 C 
ATOM      4  C   UNL     1      17.336  27.089  44.079  1.00  0.00     0.214 C 
ATOM      5  C   UNL     1      16.793  25.643  43.875  1.00  0.00     0.339 C 
ATOM      6  O   UNL     1      17.211  25.149  42.608  1.00  0.00    -0.332 OA
ENDROOT
BRANCH   1   7
ATOM      7  C   UNL     1      19.048  24.069  41.405  1.00  0.00     0.198 C 
BRANCH   7   8
ATOM      8  O   UNL     1      19.972  24.537  40.444  1.00  0.00    -0.347 OA
BRANCH   8   9
ATOM      9  C   UNL     1      19.708  24.315  39.075  1.00  0.00     0.281 C 
ATOM     10  C   UNL     1      19.083  21.223  37.114  1.00  0.00     0.041 C 
ATOM     11  C   UNL     1      19.453  22.707  37.353  1.00  0.00     0.150 C 
ATOM     12  C   UNL     1      18.568  23.765  36.604  1.00  0.00     0.174 C 
ATOM     13  O   UNL     1      19.506  22.940  38.770  1.00  0.00    -0.344 OA
ATOM     14  C   UNL     1      17.603  24.427  37.593  1.00  0.00     0.179 C 
ATOM     15  C   UNL     1      18.395  25.084  38.769  1.00  0.00     0.202 C 
BRANCH  12  16
ATOM     16  O   UNL     1      17.856  23.195  35.531  1.00  0.00    -0.388 OA
ATOM     17  H   UNL     1      17.884  23.849  34.768  1.00  0.00     0.211 HD
ENDBRANCH  12  16
BRANCH  14  18
ATOM     18  O   UNL     1      16.694  23.461  38.092  1.00  0.00    -0.387 OA
ATOM     19  H   UNL     1      16.230  23.087  37.295  1.00  0.00     0.211 HD
ENDBRANCH  14  18
BRANCH  15  20
ATOM     20  O   UNL     1      18.711  26.422  38.480  1.00  0.00    -0.385 OA
ATOM     21  H   UNL     1      18.737  26.499  37.487  1.00  0.00     0.211 HD
ENDBRANCH  15  20
ENDBRANCH   8   9
ENDBRANCH   7   8
ENDBRANCH   1   7
BRANCH   2  22
ATOM     22  O   UNL     1      18.950  27.192  41.415  1.00  0.00    -0.387 OA
ATOM     23  H   UNL     1      19.402  28.078  41.466  1.00  0.00     0.211 HD
ENDBRANCH   2  22
BRANCH   3  24
ATOM     24  O   UNL     1      19.552  26.768  44.986  1.00  0.00    -0.387 OA
ATOM     25  H   UNL     1      20.231  26.090  44.684  1.00  0.00     0.211 HD
ENDBRANCH   3  24
BRANCH   5  26
ATOM     26  O   UNL     1      17.155  24.699  44.919  1.00  0.00    -0.454 OA
BRANCH  26  27
ATOM     27  C   UNL     1      16.357  23.564  45.258  1.00  0.00     0.214 A 
ATOM     28  C   UNL     1      15.256  23.725  46.138  1.00  0.00     0.180 A 
ATOM     29  C   UNL     1      16.669  22.258  44.835  1.00  0.00     0.239 A 
ATOM     30  O   UNL     1      14.635  22.644  46.636  1.00  0.00    -0.452 OA
ATOM     31  C   UNL     1      16.058  21.142  45.476  1.00  0.00     0.111 A 
ATOM     32  O   UNL     1      17.515  22.054  43.924  1.00  0.00    -0.285 OA
ATOM     33  C   UNL     1      15.025  21.404  46.407  1.00  0.00     0.146 A 
ATOM     34  C   UNL     1      16.449  19.789  45.279  1.00  0.00     0.134 A 
ATOM     35  C   UNL     1      14.507  20.401  47.191  1.00  0.00     0.094 A 
ATOM     36  C   UNL     1      16.006  18.815  46.165  1.00  0.00     0.093 A 
ATOM     37  C   UNL     1      15.041  19.110  47.132  1.00  0.00     0.123 A 
BRANCH  28  38
ATOM     38  C   UNL     1      14.781  25.025  46.632  1.00  0.00     0.025 A 
ATOM     39  C   UNL     1      15.629  25.899  47.335  1.00  0.00     0.062 A 
ATOM     40  C   UNL     1      13.411  25.321  46.600  1.00  0.00     0.016 A 
ATOM     41  C   UNL     1      15.114  27.007  48.041  1.00  0.00     0.158 A 
ATOM     42  C   UNL     1      12.890  26.416  47.302  1.00  0.00     0.051 A 
ATOM     43  C   UNL     1      13.722  27.254  48.053  1.00  0.00     0.157 A 
BRANCH  41  44
ATOM     44  O   UNL     1      16.036  27.795  48.747  1.00  0.00    -0.504 OA
ATOM     45  H   UNL     1      17.041  27.574  48.785  1.00  0.00     0.293 HD
ENDBRANCH  41  44
BRANCH  43  46
ATOM     46  O   UNL     1      13.145  28.242  48.846  1.00  0.00    -0.504 OA
ATOM     47  H   UNL     1      12.487  28.932  48.507  1.00  0.00     0.293 HD
ENDBRANCH  43  46
ENDBRANCH  28  38
BRANCH  34  48
ATOM     48  O   UNL     1      17.367  19.454  44.272  1.00  0.00    -0.507 OA
ATOM     49  H   UNL     1      18.194  19.993  44.050  1.00  0.00     0.293 HD
ENDBRANCH  34  48
BRANCH  37  50
ATOM     50  O   UNL     1      14.755  18.193  48.127  1.00  0.00    -0.508 OA
ATOM     51  H   UNL     1      15.368  18.069  48.922  1.00  0.00     0.293 HD
ENDBRANCH  37  50
ENDBRANCH  26  27
ENDBRANCH   5  26
BRANCH   4  52
ATOM     52  O   UNL     1      16.722  27.887  43.111  1.00  0.00    -0.384 OA
ATOM     53  H   UNL     1      15.743  27.881  43.302  1.00  0.00     0.211 HD
ENDBRANCH   4  52
TORSDOF 16
ENDMDL
MODEL 8
REMARK VINA RESULT:    -6.833      2.361      3.663
REMARK INTER + INTRA:         -13.578
REMARK INTER:                 -11.080
REMARK INTRA:                  -2.498
REMARK UNBOUND:                -2.351
REMARK SMILES C[C@@H]1O[C@H](OC[C@@H]2O[C@@H](Oc3c(-c4ccc(O)c(O)c4)oc4cc(O)cc(O)c4c3=O)[C@H](O)[C@@H](O)[C@@H]2O)[C@@H](O)[C@H](O)[C@@H]1O
REMARK SMILES IDX 7 1 36 2 34 3 32 4 9 5 8 6 6 7 5 8 4 9 1 10 2 11 42 12 3 13
REMARK SMILES IDX 40 14 38 15 43 16 41 18 39 20 37 22 35 24 10 26 11 27 12 28
REMARK SMILES IDX 30 29 21 30 29 31 31 32 22 33 27 34 23 35 26 36 24 37 13 38
REMARK SMILES IDX 20 39 14 40 18 41 15 42 16 43 19 44 17 46 28 48 25 50 33 52
REMARK H PARENT 43 17 41 19 39 21 37 23 35 25 19 45 17 47 28 49 25 51 33 53
REMARK Flexibility Score: inf
ROOT
ATOM      1  C   UNL     1      16.106  21.122  45.505  1.00  0.00     0.180 C 
ATOM      2  C   UNL     1      15.828  20.004  46.535  1.00  0.00     0.177 C 
ATOM      3  C   UNL     1      15.504  20.640  47.916  1.00  0.00     0.180 C 
ATOM      4  C   UNL     1      16.497  21.788  48.257  1.00  0.00     0.214 C 
ATOM      5  C   UNL     1      16.768  22.747  47.060  1.00  0.00     0.339 C 
ATOM      6  O   UNL     1      17.145  21.990  45.916  1.00  0.00    -0.332 OA
ENDROOT
BRANCH   1   7
ATOM      7  C   UNL     1      16.292  20.705  44.016  1.00  0.00     0.198 C 
BRANCH   7   8
ATOM      8  O   UNL     1      15.202  20.920  43.143  1.00  0.00    -0.347 OA
BRANCH   8   9
ATOM      9  C   UNL     1      14.503  22.144  43.209  1.00  0.00     0.281 C 
ATOM     10  C   UNL     1      14.286  25.034  40.885  1.00  0.00     0.041 C 
ATOM     11  C   UNL     1      14.163  24.276  42.229  1.00  0.00     0.150 C 
ATOM     12  C   UNL     1      12.735  24.261  42.881  1.00  0.00     0.174 C 
ATOM     13  O   UNL     1      14.701  22.954  42.056  1.00  0.00    -0.344 OA
ATOM     14  C   UNL     1      12.090  22.885  42.686  1.00  0.00     0.179 C 
ATOM     15  C   UNL     1      12.999  21.767  43.290  1.00  0.00     0.202 C 
BRANCH  12  16
ATOM     16  O   UNL     1      11.904  25.270  42.359  1.00  0.00    -0.388 OA
ATOM     17  H   UNL     1      11.762  25.070  41.384  1.00  0.00     0.211 HD
ENDBRANCH  12  16
BRANCH  14  18
ATOM     18  O   UNL     1      11.875  22.650  41.305  1.00  0.00    -0.387 OA
ATOM     19  H   UNL     1      12.327  21.787  41.103  1.00  0.00     0.211 HD
ENDBRANCH  14  18
BRANCH  15  20
ATOM     20  O   UNL     1      12.668  21.517  44.633  1.00  0.00    -0.385 OA
ATOM     21  H   UNL     1      12.740  22.390  45.109  1.00  0.00     0.211 HD
ENDBRANCH  15  20
ENDBRANCH   8   9
ENDBRANCH   7   8
ENDBRANCH   1   7
BRANCH   2  22
ATOM     22  O   UNL     1      16.942  19.155  46.650  1.00  0.00    -0.387 OA
ATOM     23  H   UNL     1      17.461  19.426  47.456  1.00  0.00     0.211 HD
ENDBRANCH   2  22
BRANCH   3  24
ATOM     24  O   UNL     1      14.186  21.136  47.984  1.00  0.00    -0.387 OA
ATOM     25  H   UNL     1      14.039  21.463  48.924  1.00  0.00     0.211 HD
ENDBRANCH   3  24
BRANCH   5  26
ATOM     26  O   UNL     1      15.668  23.637  46.726  1.00  0.00    -0.454 OA
BRANCH  26  27
ATOM     27  C   UNL     1      15.435  24.877  47.396  1.00  0.00     0.214 A 
ATOM     28  C   UNL     1      16.097  26.048  46.943  1.00  0.00     0.180 A 
ATOM     29  C   UNL     1      14.649  24.981  48.559  1.00  0.00     0.239 A 
ATOM     30  O   UNL     1      16.062  27.164  47.686  1.00  0.00    -0.452 OA
ATOM     31  C   UNL     1      14.737  26.149  49.370  1.00  0.00     0.111 A 
ATOM     32  O   UNL     1      13.898  24.037  48.922  1.00  0.00    -0.285 OA
ATOM     33  C   UNL     1      15.492  27.237  48.874  1.00  0.00     0.146 A 
ATOM     34  C   UNL     1      14.155  26.274  50.662  1.00  0.00     0.134 A 
ATOM     35  C   UNL     1      15.767  28.327  49.665  1.00  0.00     0.094 A 
ATOM     36  C   UNL     1      14.548  27.321  51.487  1.00  0.00     0.093 A 
ATOM     37  C   UNL     1      15.362  28.350  51.003  1.00  0.00     0.123 A 
BRANCH  28  38
ATOM     38  C   UNL     1      16.916  26.110  45.724  1.00  0.00     0.025 A 
ATOM     39  C   UNL     1      18.184  26.720  45.721  1.00  0.00     0.062 A 
ATOM     40  C   UNL     1      16.353  25.755  44.490  1.00  0.00     0.016 A 
ATOM     41  C   UNL     1      18.844  27.025  44.512  1.00  0.00     0.158 A 
ATOM     42  C   UNL     1      17.000  26.058  43.285  1.00  0.00     0.051 A 
ATOM     43  C   UNL     1      18.233  26.719  43.274  1.00  0.00     0.157 A 
BRANCH  41  44
ATOM     44  O   UNL     1      20.086  27.672  44.612  1.00  0.00    -0.504 OA
ATOM     45  H   UNL     1      20.969  27.225  44.329  1.00  0.00     0.293 HD
ENDBRANCH  41  44
BRANCH  43  46
ATOM     46  O   UNL     1      18.770  27.125  42.056  1.00  0.00    -0.504 OA
ATOM     47  H   UNL     1      19.675  26.837  41.709  1.00  0.00     0.293 HD
ENDBRANCH  43  46
ENDBRANCH  28  38
BRANCH  34  48
ATOM     48  O   UNL     1      13.283  25.290  51.149  1.00  0.00    -0.507 OA
ATOM     49  H   UNL     1      12.846  24.580  50.575  1.00  0.00     0.293 HD
ENDBRANCH  34  48
BRANCH  37  50
ATOM     50  O   UNL     1      15.903  29.274  51.878  1.00  0.00    -0.508 OA
ATOM     51  H   UNL     1      15.422  30.137  52.098  1.00  0.00     0.293 HD
ENDBRANCH  37  50
ENDBRANCH  26  27
ENDBRANCH   5  26
BRANCH   4  52
ATOM     52  O   UNL     1      17.714  21.174  48.561  1.00  0.00    -0.384 OA
ATOM     53  H   UNL     1      17.713  20.987  49.541  1.00  0.00     0.211 HD
ENDBRANCH   4  52
TORSDOF 16
ENDMDL
MODEL 9
REMARK VINA RESULT:    -6.794      2.612      4.489
REMARK INTER + INTRA:         -13.513
REMARK INTER:                 -11.084
REMARK INTRA:                  -2.429
REMARK UNBOUND:                -2.351
REMARK SMILES C[C@@H]1O[C@H](OC[C@@H]2O[C@@H](Oc3c(-c4ccc(O)c(O)c4)oc4cc(O)cc(O)c4c3=O)[C@H](O)[C@@H](O)[C@@H]2O)[C@@H](O)[C@H](O)[C@@H]1O
REMARK SMILES IDX 7 1 36 2 34 3 32 4 9 5 8 6 6 7 5 8 4 9 1 10 2 11 42 12 3 13
REMARK SMILES IDX 40 14 38 15 43 16 41 18 39 20 37 22 35 24 10 26 11 27 12 28
REMARK SMILES IDX 30 29 21 30 29 31 31 32 22 33 27 34 23 35 26 36 24 37 13 38
REMARK SMILES IDX 20 39 14 40 18 41 15 42 16 43 19 44 17 46 28 48 25 50 33 52
REMARK H PARENT 43 17 41 19 39 21 37 23 35 25 19 45 17 47 28 49 25 51 33 53
REMARK Flexibility Score: inf
ROOT
ATOM      1  C   UNL     1      14.925  24.736  41.634  1.00  0.00     0.180 C 
ATOM      2  C   UNL     1      13.664  24.855  40.748  1.00  0.00     0.177 C 
ATOM      3  C   UNL     1      12.449  24.228  41.489  1.00  0.00     0.180 C 
ATOM      4  C   UNL     1      12.823  22.864  42.136  1.00  0.00     0.214 C 
ATOM      5  C   UNL     1      14.195  22.886  42.876  1.00  0.00     0.339 C 
ATOM      6  O   UNL     1      15.198  23.399  42.008  1.00  0.00    -0.332 OA
ENDROOT
BRANCH   1   7
ATOM      7  C   UNL     1      16.221  25.449  41.147  1.00  0.00     0.198 C 
BRANCH   7   8
ATOM      8  O   UNL     1      17.442  24.759  41.318  1.00  0.00    -0.347 OA
BRANCH   8   9
ATOM      9  C   UNL     1      18.249  24.504  40.188  1.00  0.00     0.281 C 
ATOM     10  C   UNL     1      17.536  22.915  36.908  1.00  0.00     0.041 C 
ATOM     11  C   UNL     1      18.405  23.437  38.077  1.00  0.00     0.150 C 
ATOM     12  C   UNL     1      19.488  24.510  37.703  1.00  0.00     0.174 C 
ATOM     13  O   UNL     1      17.531  23.882  39.129  1.00  0.00    -0.344 OA
ATOM     14  C   UNL     1      19.025  25.896  38.163  1.00  0.00     0.179 C 
ATOM     15  C   UNL     1      18.741  25.893  39.699  1.00  0.00     0.202 C 
BRANCH  12  16
ATOM     16  O   UNL     1      19.768  24.520  36.323  1.00  0.00    -0.388 OA
ATOM     17  H   UNL     1      20.174  25.414  36.104  1.00  0.00     0.211 HD
ENDBRANCH  12  16
BRANCH  14  18
ATOM     18  O   UNL     1      17.861  26.272  37.449  1.00  0.00    -0.387 OA
ATOM     19  H   UNL     1      18.103  26.219  36.486  1.00  0.00     0.211 HD
ENDBRANCH  14  18
BRANCH  15  20
ATOM     20  O   UNL     1      19.889  26.248  40.428  1.00  0.00    -0.385 OA
ATOM     21  H   UNL     1      20.655  25.780  39.993  1.00  0.00     0.211 HD
ENDBRANCH  15  20
ENDBRANCH   8   9
ENDBRANCH   7   8
ENDBRANCH   1   7
BRANCH   2  22
ATOM     22  O   UNL     1      13.864  24.201  39.520  1.00  0.00    -0.387 OA
ATOM     23  H   UNL     1      14.050  24.890  38.824  1.00  0.00     0.211 HD
ENDBRANCH   2  22
BRANCH   3  24
ATOM     24  O   UNL     1      11.926  25.080  42.482  1.00  0.00    -0.387 OA
ATOM     25  H   UNL     1      12.017  26.023  42.143  1.00  0.00     0.211 HD
ENDBRANCH   3  24
BRANCH   5  26
ATOM     26  O   UNL     1      14.201  23.620  44.131  1.00  0.00    -0.454 OA
BRANCH  26  27
ATOM     27  C   UNL     1      14.642  23.051  45.366  1.00  0.00     0.214 A 
ATOM     28  C   UNL     1      15.681  23.689  46.093  1.00  0.00     0.180 A 
ATOM     29  C   UNL     1      14.162  21.823  45.856  1.00  0.00     0.239 A 
ATOM     30  O   UNL     1      16.254  23.059  47.130  1.00  0.00    -0.452 OA
ATOM     31  C   UNL     1      14.875  21.144  46.886  1.00  0.00     0.111 A 
ATOM     32  O   UNL     1      13.131  21.286  45.368  1.00  0.00    -0.285 OA
ATOM     33  C   UNL     1      15.954  21.827  47.496  1.00  0.00     0.146 A 
ATOM     34  C   UNL     1      14.604  19.814  47.307  1.00  0.00     0.134 A 
ATOM     35  C   UNL     1      16.795  21.182  48.371  1.00  0.00     0.094 A 
ATOM     36  C   UNL     1      15.535  19.145  48.092  1.00  0.00     0.093 A 
ATOM     37  C   UNL     1      16.641  19.815  48.624  1.00  0.00     0.123 A 
BRANCH  28  38
ATOM     38  C   UNL     1      16.256  24.992  45.734  1.00  0.00     0.025 A 
ATOM     39  C   UNL     1      17.153  25.130  44.658  1.00  0.00     0.062 A 
ATOM     40  C   UNL     1      16.090  26.086  46.596  1.00  0.00     0.016 A 
ATOM     41  C   UNL     1      17.911  26.307  44.485  1.00  0.00     0.158 A 
ATOM     42  C   UNL     1      16.842  27.257  46.434  1.00  0.00     0.051 A 
ATOM     43  C   UNL     1      17.779  27.376  45.401  1.00  0.00     0.157 A 
BRANCH  41  44
ATOM     44  O   UNL     1      18.809  26.331  43.406  1.00  0.00    -0.504 OA
ATOM     45  H   UNL     1      18.600  25.887  42.501  1.00  0.00     0.293 HD
ENDBRANCH  41  44
BRANCH  43  46
ATOM     46  O   UNL     1      18.602  28.498  45.363  1.00  0.00    -0.504 OA
ATOM     47  H   UNL     1      19.566  28.487  45.057  1.00  0.00     0.293 HD
ENDBRANCH  43  46
ENDBRANCH  28  38
BRANCH  34  48
ATOM     48  O   UNL     1      13.467  19.138  46.842  1.00  0.00    -0.507 OA
ATOM     49  H   UNL     1      13.452  18.536  46.029  1.00  0.00     0.293 HD
ENDBRANCH  34  48
BRANCH  37  50
ATOM     50  O   UNL     1      17.656  19.102  49.233  1.00  0.00    -0.508 OA
ATOM     51  H   UNL     1      18.051  18.275  48.804  1.00  0.00     0.293 HD
ENDBRANCH  37  50
ENDBRANCH  26  27
ENDBRANCH   5  26
BRANCH   4  52
ATOM     52  O   UNL     1      12.952  21.955  41.084  1.00  0.00    -0.384 OA
ATOM     53  H   UNL     1      12.184  21.321  41.146  1.00  0.00     0.211 HD
ENDBRANCH   4  52
TORSDOF 16
ENDMDL
