MODEL 1
REMARK VINA RESULT:    -4.469      0.000      0.000
REMARK INTER + INTRA:          -5.706
REMARK INTER:                  -5.384
REMARK INTRA:                  -0.322
REMARK UNBOUND:                -0.322
REMARK SMILES O=c1c(O)c(-c2ccc(O)c(O)c2)oc2cc(O)cc(O)c12
REMARK SMILES IDX 5 1 3 2 2 3 1 4 22 5 20 6 19 7 17 8 16 9 15 10 14 11 6 12
REMARK SMILES IDX 7 13 8 14 9 15 13 16 11 17 10 18 12 20 4 22 21 24 18 26
REMARK H PARENT 10 19 12 21 4 23 21 25 18 27
REMARK Flexibility Score: inf
ROOT
ATOM      1  C   UNL     1     -17.489  24.841 -17.190  1.00  0.00     0.180 A 
ATOM      2  C   UNL     1     -18.412  24.102 -17.949  1.00  0.00     0.208 A 
ATOM      3  C   UNL     1     -19.649  23.766 -17.378  1.00  0.00     0.238 A 
ATOM      4  O   UNL     1     -20.493  23.151 -18.082  1.00  0.00    -0.285 OA
ATOM      5  C   UNL     1     -19.942  24.158 -16.050  1.00  0.00     0.111 A 
ATOM      6  C   UNL     1     -21.148  23.839 -15.357  1.00  0.00     0.134 A 
ATOM      7  C   UNL     1     -21.386  24.391 -14.092  1.00  0.00     0.093 A 
ATOM      8  C   UNL     1     -20.432  25.197 -13.468  1.00  0.00     0.123 A 
ATOM      9  C   UNL     1     -19.226  25.468 -14.112  1.00  0.00     0.094 A 
ATOM     10  C   UNL     1     -18.976  24.961 -15.390  1.00  0.00     0.146 A 
ATOM     11  O   UNL     1     -17.819  25.251 -15.972  1.00  0.00    -0.452 OA
ENDROOT
BRANCH   1  12
ATOM     12  C   UNL     1     -16.154  25.212 -17.715  1.00  0.00     0.025 A 
ATOM     13  C   UNL     1     -15.962  26.389 -18.459  1.00  0.00     0.016 A 
ATOM     14  C   UNL     1     -14.698  26.707 -18.965  1.00  0.00     0.051 A 
ATOM     15  C   UNL     1     -13.614  25.847 -18.747  1.00  0.00     0.157 A 
ATOM     16  C   UNL     1     -15.068  24.344 -17.516  1.00  0.00     0.062 A 
ATOM     17  C   UNL     1     -13.799  24.662 -18.024  1.00  0.00     0.158 A 
BRANCH  15  18
ATOM     18  O   UNL     1     -12.353  26.160 -19.249  1.00  0.00    -0.504 OA
ATOM     19  H   UNL     1     -12.239  26.723 -20.084  1.00  0.00     0.293 HD
ENDBRANCH  15  18
BRANCH  17  20
ATOM     20  O   UNL     1     -12.721  23.805 -17.814  1.00  0.00    -0.504 OA
ATOM     21  H   UNL     1     -12.475  23.087 -18.487  1.00  0.00     0.293 HD
ENDBRANCH  17  20
ENDBRANCH   1  12
BRANCH   2  22
ATOM     22  O   UNL     1     -18.111  23.743 -19.267  1.00  0.00    -0.502 OA
ATOM     23  H   UNL     1     -17.273  24.059 -19.739  1.00  0.00     0.293 HD
ENDBRANCH   2  22
BRANCH   6  24
ATOM     24  O   UNL     1     -22.125  22.969 -15.852  1.00  0.00    -0.507 OA
ATOM     25  H   UNL     1     -22.304  22.042 -15.494  1.00  0.00     0.293 HD
ENDBRANCH   6  24
BRANCH   8  26
ATOM     26  O   UNL     1     -20.670  25.730 -12.203  1.00  0.00    -0.508 OA
ATOM     27  H   UNL     1     -21.298  26.513 -12.067  1.00  0.00     0.293 HD
ENDBRANCH   8  26
TORSDOF 6
ENDMDL
MODEL 2
REMARK VINA RESULT:    -4.276     15.090     17.002
REMARK INTER + INTRA:          -5.472
REMARK INTER:                  -5.186
REMARK INTRA:                  -0.286
REMARK UNBOUND:                -0.322
REMARK SMILES O=c1c(O)c(-c2ccc(O)c(O)c2)oc2cc(O)cc(O)c12
REMARK SMILES IDX 5 1 3 2 2 3 1 4 22 5 20 6 19 7 17 8 16 9 15 10 14 11 6 12
REMARK SMILES IDX 7 13 8 14 9 15 13 16 11 17 10 18 12 20 4 22 21 24 18 26
REMARK H PARENT 10 19 12 21 4 23 21 25 18 27
REMARK Flexibility Score: inf
ROOT
ATOM      1  C   UNL     1     -16.535   9.317 -16.983  1.00  0.00     0.180 A 
ATOM      2  C   UNL     1     -16.887  10.501 -17.655  1.00  0.00     0.208 A 
ATOM      3  C   UNL     1     -16.299  10.779 -18.898  1.00  0.00     0.238 A 
ATOM      4  O   UNL     1     -16.659  11.813 -19.520  1.00  0.00    -0.285 OA
ATOM      5  C   UNL     1     -15.353   9.880 -19.447  1.00  0.00     0.111 A 
ATOM      6  C   UNL     1     -14.665  10.080 -20.681  1.00  0.00     0.134 A 
ATOM      7  C   UNL     1     -13.849   9.062 -21.191  1.00  0.00     0.093 A 
ATOM      8  C   UNL     1     -13.646   7.878 -20.479  1.00  0.00     0.123 A 
ATOM      9  C   UNL     1     -14.267   7.697 -19.245  1.00  0.00     0.094 A 
ATOM     10  C   UNL     1     -15.115   8.679 -18.728  1.00  0.00     0.146 A 
ATOM     11  O   UNL     1     -15.696   8.462 -17.553  1.00  0.00    -0.452 OA
ENDROOT
BRANCH   1  12
ATOM     12  C   UNL     1     -17.095   8.968 -15.656  1.00  0.00     0.025 A 
ATOM     13  C   UNL     1     -18.390   8.437 -15.526  1.00  0.00     0.016 A 
ATOM     14  C   UNL     1     -18.907   8.137 -14.262  1.00  0.00     0.051 A 
ATOM     15  C   UNL     1     -18.143   8.376 -13.112  1.00  0.00     0.157 A 
ATOM     16  C   UNL     1     -16.341   9.223 -14.499  1.00  0.00     0.062 A 
ATOM     17  C   UNL     1     -16.858   8.922 -13.230  1.00  0.00     0.158 A 
BRANCH  15  18
ATOM     18  O   UNL     1     -18.653   8.076 -11.851  1.00  0.00    -0.504 OA
ATOM     19  H   UNL     1     -18.063   7.709 -11.114  1.00  0.00     0.293 HD
ENDBRANCH  15  18
BRANCH  17  20
ATOM     20  O   UNL     1     -16.104   9.164 -12.085  1.00  0.00    -0.504 OA
ATOM     21  H   UNL     1     -15.108   8.972 -12.054  1.00  0.00     0.293 HD
ENDBRANCH  17  20
ENDBRANCH   1  12
BRANCH   2  22
ATOM     22  O   UNL     1     -17.839  11.365 -17.105  1.00  0.00    -0.502 OA
ATOM     23  H   UNL     1     -18.352  11.142 -16.260  1.00  0.00     0.293 HD
ENDBRANCH   2  22
BRANCH   6  24
ATOM     24  O   UNL     1     -14.726  11.262 -21.425  1.00  0.00    -0.507 OA
ATOM     25  H   UNL     1     -13.927  11.823 -21.680  1.00  0.00     0.293 HD
ENDBRANCH   6  24
BRANCH   8  26
ATOM     26  O   UNL     1     -12.820   6.876 -20.986  1.00  0.00    -0.508 OA
ATOM     27  H   UNL     1     -13.185   6.135 -21.572  1.00  0.00     0.293 HD
ENDBRANCH   8  26
TORSDOF 6
ENDMDL
MODEL 3
REMARK VINA RESULT:    -4.238      9.084     10.050
REMARK INTER + INTRA:          -5.426
REMARK INTER:                  -5.214
REMARK INTRA:                  -0.213
REMARK UNBOUND:                -0.322
REMARK SMILES O=c1c(O)c(-c2ccc(O)c(O)c2)oc2cc(O)cc(O)c12
REMARK SMILES IDX 5 1 3 2 2 3 1 4 22 5 20 6 19 7 17 8 16 9 15 10 14 11 6 12
REMARK SMILES IDX 7 13 8 14 9 15 13 16 11 17 10 18 12 20 4 22 21 24 18 26
REMARK H PARENT 10 19 12 21 4 23 21 25 18 27
REMARK Flexibility Score: inf
ROOT
ATOM      1  C   UNL     1     -17.085  14.833 -18.404  1.00  0.00     0.180 A 
ATOM      2  C   UNL     1     -17.493  13.569 -17.944  1.00  0.00     0.208 A 
ATOM      3  C   UNL     1     -18.777  13.427 -17.393  1.00  0.00     0.238 A 
ATOM      4  O   UNL     1     -19.157  12.282 -17.033  1.00  0.00    -0.285 OA
ATOM      5  C   UNL     1     -19.629  14.553 -17.294  1.00  0.00     0.111 A 
ATOM      6  C   UNL     1     -20.935  14.533 -16.717  1.00  0.00     0.134 A 
ATOM      7  C   UNL     1     -21.740  15.676 -16.791  1.00  0.00     0.093 A 
ATOM      8  C   UNL     1     -21.262  16.858 -17.361  1.00  0.00     0.123 A 
ATOM      9  C   UNL     1     -19.968  16.905 -17.875  1.00  0.00     0.094 A 
ATOM     10  C   UNL     1     -19.154  15.770 -17.848  1.00  0.00     0.146 A 
ATOM     11  O   UNL     1     -17.930  15.854 -18.357  1.00  0.00    -0.452 OA
ENDROOT
BRANCH   1  12
ATOM     12  C   UNL     1     -15.737  15.066 -18.974  1.00  0.00     0.025 A 
ATOM     13  C   UNL     1     -14.580  14.962 -18.182  1.00  0.00     0.016 A 
ATOM     14  C   UNL     1     -13.321  15.210 -18.736  1.00  0.00     0.051 A 
ATOM     15  C   UNL     1     -13.202  15.579 -20.082  1.00  0.00     0.157 A 
ATOM     16  C   UNL     1     -15.613  15.455 -20.317  1.00  0.00     0.062 A 
ATOM     17  C   UNL     1     -14.350  15.705 -20.874  1.00  0.00     0.158 A 
BRANCH  15  18
ATOM     18  O   UNL     1     -11.948  15.825 -20.638  1.00  0.00    -0.504 OA
ATOM     19  H   UNL     1     -11.389  16.621 -20.353  1.00  0.00     0.293 HD
ENDBRANCH  15  18
BRANCH  17  20
ATOM     20  O   UNL     1     -14.229  16.078 -22.210  1.00  0.00    -0.504 OA
ATOM     21  H   UNL     1     -13.682  16.885 -22.489  1.00  0.00     0.293 HD
ENDBRANCH  17  20
ENDBRANCH   1  12
BRANCH   2  22
ATOM     22  O   UNL     1     -16.644  12.466 -18.071  1.00  0.00    -0.502 OA
ATOM     23  H   UNL     1     -15.827  12.474 -18.670  1.00  0.00     0.293 HD
ENDBRANCH   2  22
BRANCH   6  24
ATOM     24  O   UNL     1     -21.473  13.433 -16.042  1.00  0.00    -0.507 OA
ATOM     25  H   UNL     1     -21.727  13.426 -15.065  1.00  0.00     0.293 HD
ENDBRANCH   6  24
BRANCH   8  26
ATOM     26  O   UNL     1     -22.065  17.996 -17.417  1.00  0.00    -0.508 OA
ATOM     27  H   UNL     1     -21.780  18.821 -17.931  1.00  0.00     0.293 HD
ENDBRANCH   8  26
TORSDOF 6
ENDMDL
MODEL 4
REMARK VINA RESULT:    -4.205     13.670     15.396
REMARK INTER + INTRA:          -5.387
REMARK INTER:                  -5.062
REMARK INTRA:                  -0.325
REMARK UNBOUND:                -0.322
REMARK SMILES O=c1c(O)c(-c2ccc(O)c(O)c2)oc2cc(O)cc(O)c12
REMARK SMILES IDX 5 1 3 2 2 3 1 4 22 5 20 6 19 7 17 8 16 9 15 10 14 11 6 12
REMARK SMILES IDX 7 13 8 14 9 15 13 16 11 17 10 18 12 20 4 22 21 24 18 26
REMARK H PARENT 10 19 12 21 4 23 21 25 18 27
REMARK Flexibility Score: inf
ROOT
ATOM      1  C   UNL     1     -16.910  10.207 -17.044  1.00  0.00     0.180 A 
ATOM      2  C   UNL     1     -16.111   9.584 -18.018  1.00  0.00     0.208 A 
ATOM      3  C   UNL     1     -15.725  10.315 -19.152  1.00  0.00     0.238 A 
ATOM      4  O   UNL     1     -14.965   9.768 -19.994  1.00  0.00    -0.285 OA
ATOM      5  C   UNL     1     -16.157  11.653 -19.308  1.00  0.00     0.111 A 
ATOM      6  C   UNL     1     -15.860  12.476 -20.436  1.00  0.00     0.134 A 
ATOM      7  C   UNL     1     -16.228  13.827 -20.423  1.00  0.00     0.093 A 
ATOM      8  C   UNL     1     -16.941  14.368 -19.352  1.00  0.00     0.123 A 
ATOM      9  C   UNL     1     -17.288  13.559 -18.271  1.00  0.00     0.094 A 
ATOM     10  C   UNL     1     -16.902  12.217 -18.239  1.00  0.00     0.146 A 
ATOM     11  O   UNL     1     -17.244  11.484 -17.186  1.00  0.00    -0.452 OA
ENDROOT
BRANCH   1  12
ATOM     12  C   UNL     1     -17.377   9.494 -15.833  1.00  0.00     0.025 A 
ATOM     13  C   UNL     1     -18.626   8.849 -15.799  1.00  0.00     0.016 A 
ATOM     14  C   UNL     1     -19.057   8.202 -14.637  1.00  0.00     0.051 A 
ATOM     15  C   UNL     1     -18.253   8.203 -13.490  1.00  0.00     0.157 A 
ATOM     16  C   UNL     1     -16.584   9.507 -14.674  1.00  0.00     0.062 A 
ATOM     17  C   UNL     1     -17.016   8.859 -13.507  1.00  0.00     0.158 A 
BRANCH  15  18
ATOM     18  O   UNL     1     -18.678   7.558 -12.330  1.00  0.00    -0.504 OA
ATOM     19  H   UNL     1     -18.971   6.588 -12.340  1.00  0.00     0.293 HD
ENDBRANCH  15  18
BRANCH  17  20
ATOM     20  O   UNL     1     -16.221   8.863 -12.363  1.00  0.00    -0.504 OA
ATOM     21  H   UNL     1     -15.529   8.141 -12.194  1.00  0.00     0.293 HD
ENDBRANCH  17  20
ENDBRANCH   1  12
BRANCH   2  22
ATOM     22  O   UNL     1     -15.678   8.267 -17.834  1.00  0.00    -0.502 OA
ATOM     23  H   UNL     1     -16.268   7.468 -18.032  1.00  0.00     0.293 HD
ENDBRANCH   2  22
BRANCH   6  24
ATOM     24  O   UNL     1     -15.234  12.011 -21.597  1.00  0.00    -0.507 OA
ATOM     25  H   UNL     1     -15.656  11.386 -22.267  1.00  0.00     0.293 HD
ENDBRANCH   6  24
BRANCH   8  26
ATOM     26  O   UNL     1     -17.318  15.710 -19.354  1.00  0.00    -0.508 OA
ATOM     27  H   UNL     1     -16.969  16.358 -20.050  1.00  0.00     0.293 HD
ENDBRANCH   8  26
TORSDOF 6
ENDMDL
MODEL 5
REMARK VINA RESULT:    -4.168     15.110     17.121
REMARK INTER + INTRA:          -5.342
REMARK INTER:                  -5.540
REMARK INTRA:                   0.198
REMARK UNBOUND:                -0.322
REMARK SMILES O=c1c(O)c(-c2ccc(O)c(O)c2)oc2cc(O)cc(O)c12
REMARK SMILES IDX 5 1 3 2 2 3 1 4 22 5 20 6 19 7 17 8 16 9 15 10 14 11 6 12
REMARK SMILES IDX 7 13 8 14 9 15 13 16 11 17 10 18 12 20 4 22 21 24 18 26
REMARK H PARENT 10 19 12 21 4 23 21 25 18 27
REMARK Flexibility Score: inf
ROOT
ATOM      1  C   UNL     1     -18.027   8.894 -14.556  1.00  0.00     0.180 A 
ATOM      2  C   UNL     1     -17.103   7.850 -14.738  1.00  0.00     0.208 A 
ATOM      3  C   UNL     1     -16.325   7.826 -15.905  1.00  0.00     0.238 A 
ATOM      4  O   UNL     1     -15.461   6.919 -16.037  1.00  0.00    -0.285 OA
ATOM      5  C   UNL     1     -16.491   8.835 -16.884  1.00  0.00     0.111 A 
ATOM      6  C   UNL     1     -15.784   8.887 -18.123  1.00  0.00     0.134 A 
ATOM      7  C   UNL     1     -15.932  10.002 -18.957  1.00  0.00     0.093 A 
ATOM      8  C   UNL     1     -16.812  11.035 -18.627  1.00  0.00     0.123 A 
ATOM      9  C   UNL     1     -17.551  10.966 -17.448  1.00  0.00     0.094 A 
ATOM     10  C   UNL     1     -17.397   9.883 -16.579  1.00  0.00     0.146 A 
ATOM     11  O   UNL     1     -18.112   9.861 -15.460  1.00  0.00    -0.452 OA
ENDROOT
BRANCH   1  12
ATOM     12  C   UNL     1     -18.901   8.974 -13.362  1.00  0.00     0.025 A 
ATOM     13  C   UNL     1     -20.233   9.414 -13.459  1.00  0.00     0.016 A 
ATOM     14  C   UNL     1     -21.032   9.504 -12.316  1.00  0.00     0.051 A 
ATOM     15  C   UNL     1     -20.508   9.170 -11.060  1.00  0.00     0.157 A 
ATOM     16  C   UNL     1     -18.375   8.659 -12.099  1.00  0.00     0.062 A 
ATOM     17  C   UNL     1     -19.176   8.750 -10.950  1.00  0.00     0.158 A 
BRANCH  15  18
ATOM     18  O   UNL     1     -21.301   9.258  -9.918  1.00  0.00    -0.504 OA
ATOM     19  H   UNL     1     -21.362   8.494  -9.255  1.00  0.00     0.293 HD
ENDBRANCH  15  18
BRANCH  17  20
ATOM     20  O   UNL     1     -18.656   8.425  -9.700  1.00  0.00    -0.504 OA
ATOM     21  H   UNL     1     -17.788   8.829  -9.364  1.00  0.00     0.293 HD
ENDBRANCH  17  20
ENDBRANCH   1  12
BRANCH   2  22
ATOM     22  O   UNL     1     -16.940   6.875 -13.749  1.00  0.00    -0.502 OA
ATOM     23  H   UNL     1     -16.688   7.105 -12.795  1.00  0.00     0.293 HD
ENDBRANCH   2  22
BRANCH   6  24
ATOM     24  O   UNL     1     -14.951   7.865 -18.590  1.00  0.00    -0.507 OA
ATOM     25  H   UNL     1     -14.001   7.996 -18.902  1.00  0.00     0.293 HD
ENDBRANCH   6  24
BRANCH   8  26
ATOM     26  O   UNL     1     -16.966  12.134 -19.471  1.00  0.00    -0.508 OA
ATOM     27  H   UNL     1     -17.169  13.058 -19.106  1.00  0.00     0.293 HD
ENDBRANCH   8  26
TORSDOF 6
ENDMDL
MODEL 6
REMARK VINA RESULT:    -4.150      8.145      9.476
REMARK INTER + INTRA:          -5.321
REMARK INTER:                  -5.003
REMARK INTRA:                  -0.317
REMARK UNBOUND:                -0.322
REMARK SMILES O=c1c(O)c(-c2ccc(O)c(O)c2)oc2cc(O)cc(O)c12
REMARK SMILES IDX 5 1 3 2 2 3 1 4 22 5 20 6 19 7 17 8 16 9 15 10 14 11 6 12
REMARK SMILES IDX 7 13 8 14 9 15 13 16 11 17 10 18 12 20 4 22 21 24 18 26
REMARK H PARENT 10 19 12 21 4 23 21 25 18 27
REMARK Flexibility Score: inf
ROOT
ATOM      1  C   UNL     1     -17.608  15.906 -19.050  1.00  0.00     0.180 A 
ATOM      2  C   UNL     1     -18.649  15.557 -18.173  1.00  0.00     0.208 A 
ATOM      3  C   UNL     1     -19.618  16.519 -17.849  1.00  0.00     0.238 A 
ATOM      4  O   UNL     1     -20.578  16.184 -17.105  1.00  0.00    -0.285 OA
ATOM      5  C   UNL     1     -19.526  17.822 -18.392  1.00  0.00     0.111 A 
ATOM      6  C   UNL     1     -20.430  18.888 -18.101  1.00  0.00     0.134 A 
ATOM      7  C   UNL     1     -20.320  20.098 -18.798  1.00  0.00     0.093 A 
ATOM      8  C   UNL     1     -19.297  20.303 -19.726  1.00  0.00     0.123 A 
ATOM      9  C   UNL     1     -18.374  19.289 -19.975  1.00  0.00     0.094 A 
ATOM     10  C   UNL     1     -18.480  18.059 -19.322  1.00  0.00     0.146 A 
ATOM     11  O   UNL     1     -17.586  17.116 -19.595  1.00  0.00    -0.452 OA
ENDROOT
BRANCH   1  12
ATOM     12  C   UNL     1     -16.535  14.954 -19.420  1.00  0.00     0.025 A 
ATOM     13  C   UNL     1     -16.701  14.039 -20.475  1.00  0.00     0.016 A 
ATOM     14  C   UNL     1     -15.684  13.133 -20.790  1.00  0.00     0.051 A 
ATOM     15  C   UNL     1     -14.496  13.119 -20.048  1.00  0.00     0.157 A 
ATOM     16  C   UNL     1     -15.350  14.921 -18.667  1.00  0.00     0.062 A 
ATOM     17  C   UNL     1     -14.330  14.012 -18.982  1.00  0.00     0.158 A 
BRANCH  15  18
ATOM     18  O   UNL     1     -13.480  12.218 -20.360  1.00  0.00    -0.504 OA
ATOM     19  H   UNL     1     -13.393  11.817 -21.286  1.00  0.00     0.293 HD
ENDBRANCH  15  18
BRANCH  17  20
ATOM     20  O   UNL     1     -13.150  13.991 -18.242  1.00  0.00    -0.504 OA
ATOM     21  H   UNL     1     -13.018  14.592 -17.435  1.00  0.00     0.293 HD
ENDBRANCH  17  20
ENDBRANCH   1  12
BRANCH   2  22
ATOM     22  O   UNL     1     -18.733  14.257 -17.664  1.00  0.00    -0.502 OA
ATOM     23  H   UNL     1     -19.520  13.939 -17.111  1.00  0.00     0.293 HD
ENDBRANCH   2  22
BRANCH   6  24
ATOM     24  O   UNL     1     -21.429  18.819 -17.125  1.00  0.00    -0.507 OA
ATOM     25  H   UNL     1     -21.610  19.534 -16.436  1.00  0.00     0.293 HD
ENDBRANCH   6  24
BRANCH   8  26
ATOM     26  O   UNL     1     -19.184  21.516 -20.404  1.00  0.00    -0.508 OA
ATOM     27  H   UNL     1     -19.104  22.395 -19.907  1.00  0.00     0.293 HD
ENDBRANCH   8  26
TORSDOF 6
ENDMDL
MODEL 7
REMARK VINA RESULT:    -4.080      8.117      9.417
REMARK INTER + INTRA:          -5.237
REMARK INTER:                  -4.913
REMARK INTRA:                  -0.324
REMARK UNBOUND:                -0.322
REMARK SMILES O=c1c(O)c(-c2ccc(O)c(O)c2)oc2cc(O)cc(O)c12
REMARK SMILES IDX 5 1 3 2 2 3 1 4 22 5 20 6 19 7 17 8 16 9 15 10 14 11 6 12
REMARK SMILES IDX 7 13 8 14 9 15 13 16 11 17 10 18 12 20 4 22 21 24 18 26
REMARK H PARENT 10 19 12 21 4 23 21 25 18 27
REMARK Flexibility Score: inf
ROOT
ATOM      1  C   UNL     1     -16.993  16.316 -19.957  1.00  0.00     0.180 A 
ATOM      2  C   UNL     1     -16.889  17.278 -20.978  1.00  0.00     0.208 A 
ATOM      3  C   UNL     1     -17.778  18.364 -20.984  1.00  0.00     0.238 A 
ATOM      4  O   UNL     1     -17.645  19.249 -21.869  1.00  0.00    -0.285 OA
ATOM      5  C   UNL     1     -18.771  18.467 -19.981  1.00  0.00     0.111 A 
ATOM      6  C   UNL     1     -19.750  19.503 -19.912  1.00  0.00     0.134 A 
ATOM      7  C   UNL     1     -20.600  19.579 -18.802  1.00  0.00     0.093 A 
ATOM      8  C   UNL     1     -20.551  18.616 -17.791  1.00  0.00     0.123 A 
ATOM      9  C   UNL     1     -19.638  17.567 -17.877  1.00  0.00     0.094 A 
ATOM     10  C   UNL     1     -18.752  17.486 -18.955  1.00  0.00     0.146 A 
ATOM     11  O   UNL     1     -17.892  16.476 -18.994  1.00  0.00    -0.452 OA
ENDROOT
BRANCH   1  12
ATOM     12  C   UNL     1     -16.108  15.131 -19.898  1.00  0.00     0.025 A 
ATOM     13  C   UNL     1     -16.384  13.973 -20.647  1.00  0.00     0.016 A 
ATOM     14  C   UNL     1     -15.547  12.857 -20.557  1.00  0.00     0.051 A 
ATOM     15  C   UNL     1     -14.433  12.877 -19.708  1.00  0.00     0.157 A 
ATOM     16  C   UNL     1     -15.000  15.138 -19.035  1.00  0.00     0.062 A 
ATOM     17  C   UNL     1     -14.160  14.018 -18.943  1.00  0.00     0.158 A 
BRANCH  15  18
ATOM     18  O   UNL     1     -13.596  11.767 -19.617  1.00  0.00    -0.504 OA
ATOM     19  H   UNL     1     -13.956  10.823 -19.693  1.00  0.00     0.293 HD
ENDBRANCH  15  18
BRANCH  17  20
ATOM     20  O   UNL     1     -13.055  14.032 -18.095  1.00  0.00    -0.504 OA
ATOM     21  H   UNL     1     -12.451  13.224 -17.996  1.00  0.00     0.293 HD
ENDBRANCH  17  20
ENDBRANCH   1  12
BRANCH   2  22
ATOM     22  O   UNL     1     -15.887  17.168 -21.947  1.00  0.00    -0.502 OA
ATOM     23  H   UNL     1     -14.906  17.300 -21.733  1.00  0.00     0.293 HD
ENDBRANCH   2  22
BRANCH   6  24
ATOM     24  O   UNL     1     -19.945  20.460 -20.913  1.00  0.00    -0.507 OA
ATOM     25  H   UNL     1     -19.819  21.454 -20.791  1.00  0.00     0.293 HD
ENDBRANCH   6  24
BRANCH   8  26
ATOM     26  O   UNL     1     -21.411  18.689 -16.697  1.00  0.00    -0.508 OA
ATOM     27  H   UNL     1     -22.265  18.145 -16.656  1.00  0.00     0.293 HD
ENDBRANCH   8  26
TORSDOF 6
ENDMDL
MODEL 8
REMARK VINA RESULT:    -4.050      1.845      6.808
REMARK INTER + INTRA:          -5.200
REMARK INTER:                  -4.965
REMARK INTRA:                  -0.235
REMARK UNBOUND:                -0.322
REMARK SMILES O=c1c(O)c(-c2ccc(O)c(O)c2)oc2cc(O)cc(O)c12
REMARK SMILES IDX 5 1 3 2 2 3 1 4 22 5 20 6 19 7 17 8 16 9 15 10 14 11 6 12
REMARK SMILES IDX 7 13 8 14 9 15 13 16 11 17 10 18 12 20 4 22 21 24 18 26
REMARK H PARENT 10 19 12 21 4 23 21 25 18 27
REMARK Flexibility Score: inf
ROOT
ATOM      1  C   UNL     1     -18.225  25.928 -16.275  1.00  0.00     0.180 A 
ATOM      2  C   UNL     1     -18.735  26.540 -17.434  1.00  0.00     0.208 A 
ATOM      3  C   UNL     1     -17.968  26.519 -18.609  1.00  0.00     0.238 A 
ATOM      4  O   UNL     1     -18.453  27.020 -19.657  1.00  0.00    -0.285 OA
ATOM      5  C   UNL     1     -16.694  25.902 -18.607  1.00  0.00     0.111 A 
ATOM      6  C   UNL     1     -15.813  25.856 -19.730  1.00  0.00     0.134 A 
ATOM      7  C   UNL     1     -14.634  25.105 -19.654  1.00  0.00     0.093 A 
ATOM      8  C   UNL     1     -14.271  24.453 -18.473  1.00  0.00     0.123 A 
ATOM      9  C   UNL     1     -15.095  24.540 -17.353  1.00  0.00     0.094 A 
ATOM     10  C   UNL     1     -16.296  25.251 -17.411  1.00  0.00     0.146 A 
ATOM     11  O   UNL     1     -17.057  25.300 -16.323  1.00  0.00    -0.452 OA
ENDROOT
BRANCH   1  12
ATOM     12  C   UNL     1     -18.965  25.931 -14.992  1.00  0.00     0.025 A 
ATOM     13  C   UNL     1     -18.533  26.704 -13.900  1.00  0.00     0.016 A 
ATOM     14  C   UNL     1     -19.233  26.673 -12.691  1.00  0.00     0.051 A 
ATOM     15  C   UNL     1     -20.364  25.858 -12.551  1.00  0.00     0.157 A 
ATOM     16  C   UNL     1     -20.088  25.101 -14.840  1.00  0.00     0.062 A 
ATOM     17  C   UNL     1     -20.791  25.069 -13.626  1.00  0.00     0.158 A 
BRANCH  15  18
ATOM     18  O   UNL     1     -21.066  25.825 -11.348  1.00  0.00    -0.504 OA
ATOM     19  H   UNL     1     -21.709  26.564 -11.089  1.00  0.00     0.293 HD
ENDBRANCH  15  18
BRANCH  17  20
ATOM     20  O   UNL     1     -21.912  24.255 -13.482  1.00  0.00    -0.504 OA
ATOM     21  H   UNL     1     -22.261  23.690 -14.249  1.00  0.00     0.293 HD
ENDBRANCH  17  20
ENDBRANCH   1  12
BRANCH   2  22
ATOM     22  O   UNL     1     -20.005  27.125 -17.419  1.00  0.00    -0.502 OA
ATOM     23  H   UNL     1     -20.257  27.862 -16.770  1.00  0.00     0.293 HD
ENDBRANCH   2  22
BRANCH   6  24
ATOM     24  O   UNL     1     -16.036  26.548 -20.925  1.00  0.00    -0.507 OA
ATOM     25  H   UNL     1     -16.789  27.202 -21.078  1.00  0.00     0.293 HD
ENDBRANCH   6  24
BRANCH   8  26
ATOM     26  O   UNL     1     -13.088  23.721 -18.401  1.00  0.00    -0.508 OA
ATOM     27  H   UNL     1     -12.218  24.079 -18.778  1.00  0.00     0.293 HD
ENDBRANCH   8  26
TORSDOF 6
ENDMDL
MODEL 9
REMARK VINA RESULT:    -4.029     14.492     15.299
REMARK INTER + INTRA:          -5.175
REMARK INTER:                  -4.844
REMARK INTRA:                  -0.331
REMARK UNBOUND:                -0.322
REMARK SMILES O=c1c(O)c(-c2ccc(O)c(O)c2)oc2cc(O)cc(O)c12
REMARK SMILES IDX 5 1 3 2 2 3 1 4 22 5 20 6 19 7 17 8 16 9 15 10 14 11 6 12
REMARK SMILES IDX 7 13 8 14 9 15 13 16 11 17 10 18 12 20 4 22 21 24 18 26
REMARK H PARENT 10 19 12 21 4 23 21 25 18 27
REMARK Flexibility Score: inf
ROOT
ATOM      1  C   UNL     1     -16.398   9.684 -18.270  1.00  0.00     0.180 A 
ATOM      2  C   UNL     1     -17.717   9.398 -18.661  1.00  0.00     0.208 A 
ATOM      3  C   UNL     1     -18.639   8.977 -17.690  1.00  0.00     0.238 A 
ATOM      4  O   UNL     1     -19.833   8.775 -18.037  1.00  0.00    -0.285 OA
ATOM      5  C   UNL     1     -18.227   8.831 -16.344  1.00  0.00     0.111 A 
ATOM      6  C   UNL     1     -19.066   8.374 -15.284  1.00  0.00     0.134 A 
ATOM      7  C   UNL     1     -18.590   8.393 -13.967  1.00  0.00     0.093 A 
ATOM      8  C   UNL     1     -17.282   8.792 -13.681  1.00  0.00     0.123 A 
ATOM      9  C   UNL     1     -16.436   9.185 -14.716  1.00  0.00     0.094 A 
ATOM     10  C   UNL     1     -16.895   9.210 -16.035  1.00  0.00     0.146 A 
ATOM     11  O   UNL     1     -16.059   9.601 -16.990  1.00  0.00    -0.452 OA
ENDROOT
BRANCH   1  12
ATOM     12  C   UNL     1     -15.363  10.109 -19.241  1.00  0.00     0.025 A 
ATOM     13  C   UNL     1     -14.546   9.171 -19.896  1.00  0.00     0.016 A 
ATOM     14  C   UNL     1     -13.559   9.596 -20.791  1.00  0.00     0.051 A 
ATOM     15  C   UNL     1     -13.365  10.963 -21.031  1.00  0.00     0.157 A 
ATOM     16  C   UNL     1     -15.151  11.478 -19.471  1.00  0.00     0.062 A 
ATOM     17  C   UNL     1     -14.161  11.906 -20.368  1.00  0.00     0.158 A 
BRANCH  15  18
ATOM     18  O   UNL     1     -12.384  11.391 -21.923  1.00  0.00    -0.504 OA
ATOM     19  H   UNL     1     -12.041  12.344 -21.916  1.00  0.00     0.293 HD
ENDBRANCH  15  18
BRANCH  17  20
ATOM     20  O   UNL     1     -13.962  13.264 -20.604  1.00  0.00    -0.504 OA
ATOM     21  H   UNL     1     -14.740  13.895 -20.767  1.00  0.00     0.293 HD
ENDBRANCH  17  20
ENDBRANCH   1  12
BRANCH   2  22
ATOM     22  O   UNL     1     -18.109   9.569 -19.993  1.00  0.00    -0.502 OA
ATOM     23  H   UNL     1     -18.106   8.809 -20.662  1.00  0.00     0.293 HD
ENDBRANCH   2  22
BRANCH   6  24
ATOM     24  O   UNL     1     -20.356   7.868 -15.473  1.00  0.00    -0.507 OA
ATOM     25  H   UNL     1     -20.661   7.361 -16.291  1.00  0.00     0.293 HD
ENDBRANCH   6  24
BRANCH   8  26
ATOM     26  O   UNL     1     -16.811   8.793 -12.370  1.00  0.00    -0.508 OA
ATOM     27  H   UNL     1     -15.890   9.146 -12.138  1.00  0.00     0.293 HD
ENDBRANCH   8  26
TORSDOF 6
ENDMDL
