MODEL 1
REMARK VINA RESULT:    28.485      0.000      0.000
REMARK INTER + INTRA:          34.397
REMARK INTER:                  34.313
REMARK INTRA:                   0.084
REMARK UNBOUND:                 0.084
REMARK SMILES O=c1c(O)c(-c2ccc(O)c(O)c2)oc2cc(O)cc(O)c12
REMARK SMILES IDX 5 1 3 2 2 3 1 4 22 5 20 6 19 7 17 8 16 9 15 10 14 11 6 12
REMARK SMILES IDX 7 13 8 14 9 15 13 16 11 17 10 18 12 20 4 22 21 24 18 26
REMARK H PARENT 10 19 12 21 4 23 21 25 18 27
REMARK Flexibility Score: inf
ROOT
ATOM      1  C   UNL     1     114.030 110.505 107.279  1.00  0.00     0.180 A 
ATOM      2  C   UNL     1     114.123 110.541 105.874  1.00  0.00     0.208 A 
ATOM      3  C   UNL     1     113.174 111.279 105.150  1.00  0.00     0.238 A 
ATOM      4  O   UNL     1     113.254 111.327 103.893  1.00  0.00    -0.285 OA
ATOM      5  C   UNL     1     112.140 111.948 105.836  1.00  0.00     0.111 A 
ATOM      6  C   UNL     1     111.142 112.710 105.181  1.00  0.00     0.134 A 
ATOM      7  C   UNL     1     110.141 113.339 105.935  1.00  0.00     0.093 A 
ATOM      8  C   UNL     1     110.119 113.221 107.329  1.00  0.00     0.123 A 
ATOM      9  C   UNL     1     111.101 112.472 107.980  1.00  0.00     0.094 A 
ATOM     10  C   UNL     1     112.108 111.839 107.247  1.00  0.00     0.146 A 
ATOM     11  O   UNL     1     113.032 111.136 107.892  1.00  0.00    -0.452 OA
ENDROOT
BRANCH   1  12
ATOM     12  C   UNL     1     115.004 109.764 108.113  1.00  0.00     0.025 A 
ATOM     13  C   UNL     1     115.345 108.447 107.770  1.00  0.00     0.016 A 
ATOM     14  C   UNL     1     116.245 107.721 108.554  1.00  0.00     0.051 A 
ATOM     15  C   UNL     1     116.805 108.297 109.702  1.00  0.00     0.157 A 
ATOM     16  C   UNL     1     115.552 110.331 109.279  1.00  0.00     0.062 A 
ATOM     17  C   UNL     1     116.454 109.603 110.067  1.00  0.00     0.158 A 
BRANCH  15  18
ATOM     18  O   UNL     1     117.705 107.578 110.486  1.00  0.00    -0.504 OA
ATOM     19  H   UNL     1     118.703 107.612 110.313  1.00  0.00     0.293 HD
ENDBRANCH  15  18
BRANCH  17  20
ATOM     20  O   UNL     1     117.001 110.169 111.217  1.00  0.00    -0.504 OA
ATOM     21  H   UNL     1     116.418 110.593 111.929  1.00  0.00     0.293 HD
ENDBRANCH  17  20
ENDBRANCH   1  12
BRANCH   2  22
ATOM     22  O   UNL     1     115.128 109.828 105.215  1.00  0.00    -0.502 OA
ATOM     23  H   UNL     1     115.070 109.591 104.232  1.00  0.00     0.293 HD
ENDBRANCH   2  22
BRANCH   6  24
ATOM     24  O   UNL     1     111.139 112.845 103.792  1.00  0.00    -0.507 OA
ATOM     25  H   UNL     1     111.945 112.594 103.231  1.00  0.00     0.293 HD
ENDBRANCH   6  24
BRANCH   8  26
ATOM     26  O   UNL     1     109.124 113.846 108.079  1.00  0.00    -0.508 OA
ATOM     27  H   UNL     1     108.196 113.446 108.166  1.00  0.00     0.293 HD
ENDBRANCH   8  26
TORSDOF 6
ENDMDL
MODEL 2
REMARK VINA RESULT:    28.499      2.390      7.294
REMARK INTER + INTRA:          34.415
REMARK INTER:                  34.349
REMARK INTRA:                   0.066
REMARK UNBOUND:                 0.084
REMARK SMILES O=c1c(O)c(-c2ccc(O)c(O)c2)oc2cc(O)cc(O)c12
REMARK SMILES IDX 5 1 3 2 2 3 1 4 22 5 20 6 19 7 17 8 16 9 15 10 14 11 6 12
REMARK SMILES IDX 7 13 8 14 9 15 13 16 11 17 10 18 12 20 4 22 21 24 18 26
REMARK H PARENT 10 19 12 21 4 23 21 25 18 27
REMARK Flexibility Score: inf
ROOT
ATOM      1  C   UNL     1     109.952 113.515 107.274  1.00  0.00     0.180 A 
ATOM      2  C   UNL     1     109.851 113.466 105.869  1.00  0.00     0.208 A 
ATOM      3  C   UNL     1     110.802 112.730 105.145  1.00  0.00     0.238 A 
ATOM      4  O   UNL     1     110.713 112.671 103.889  1.00  0.00    -0.285 OA
ATOM      5  C   UNL     1     111.846 112.076 105.830  1.00  0.00     0.111 A 
ATOM      6  C   UNL     1     112.846 111.318 105.175  1.00  0.00     0.134 A 
ATOM      7  C   UNL     1     113.858 110.704 105.929  1.00  0.00     0.093 A 
ATOM      8  C   UNL     1     113.888 110.835 107.321  1.00  0.00     0.123 A 
ATOM      9  C   UNL     1     112.904 111.580 107.972  1.00  0.00     0.094 A 
ATOM     10  C   UNL     1     111.886 112.199 107.240  1.00  0.00     0.146 A 
ATOM     11  O   UNL     1     110.960 112.898 107.884  1.00  0.00    -0.452 OA
ENDROOT
BRANCH   1  12
ATOM     12  C   UNL     1     108.977 114.254 108.107  1.00  0.00     0.025 A 
ATOM     13  C   UNL     1     108.639 115.574 107.768  1.00  0.00     0.016 A 
ATOM     14  C   UNL     1     107.738 116.298 108.552  1.00  0.00     0.051 A 
ATOM     15  C   UNL     1     107.174 115.719 109.697  1.00  0.00     0.157 A 
ATOM     16  C   UNL     1     108.425 113.684 109.269  1.00  0.00     0.062 A 
ATOM     17  C   UNL     1     107.522 114.410 110.058  1.00  0.00     0.158 A 
BRANCH  15  18
ATOM     18  O   UNL     1     106.273 116.436 110.480  1.00  0.00    -0.504 OA
ATOM     19  H   UNL     1     105.965 116.094 111.383  1.00  0.00     0.293 HD
ENDBRANCH  15  18
BRANCH  17  20
ATOM     20  O   UNL     1     106.970 113.842 111.204  1.00  0.00    -0.504 OA
ATOM     21  H   UNL     1     107.541 113.344 111.876  1.00  0.00     0.293 HD
ENDBRANCH  17  20
ENDBRANCH   1  12
BRANCH   2  22
ATOM     22  O   UNL     1     108.835 114.164 105.210  1.00  0.00    -0.502 OA
ATOM     23  H   UNL     1     107.955 114.393 105.658  1.00  0.00     0.293 HD
ENDBRANCH   2  22
BRANCH   6  24
ATOM     24  O   UNL     1     112.842 111.171 103.788  1.00  0.00    -0.507 OA
ATOM     25  H   UNL     1     112.381 110.389 103.336  1.00  0.00     0.293 HD
ENDBRANCH   6  24
BRANCH   8  26
ATOM     26  O   UNL     1     114.894 110.226 108.069  1.00  0.00    -0.508 OA
ATOM     27  H   UNL     1     115.715 109.826 107.628  1.00  0.00     0.293 HD
ENDBRANCH   8  26
TORSDOF 6
ENDMDL
MODEL 3
REMARK VINA RESULT:    28.997      1.444      6.751
REMARK INTER + INTRA:          35.015
REMARK INTER:                  34.883
REMARK INTRA:                   0.132
REMARK UNBOUND:                 0.084
REMARK SMILES O=c1c(O)c(-c2ccc(O)c(O)c2)oc2cc(O)cc(O)c12
REMARK SMILES IDX 5 1 3 2 2 3 1 4 22 5 20 6 19 7 17 8 16 9 15 10 14 11 6 12
REMARK SMILES IDX 7 13 8 14 9 15 13 16 11 17 10 18 12 20 4 22 21 24 18 26
REMARK H PARENT 10 19 12 21 4 23 21 25 18 27
REMARK Flexibility Score: inf
ROOT
ATOM      1  C   UNL     1     113.502 111.057 107.300  1.00  0.00     0.180 A 
ATOM      2  C   UNL     1     113.858 110.174 106.262  1.00  0.00     0.208 A 
ATOM      3  C   UNL     1     114.785 109.154 106.528  1.00  0.00     0.238 A 
ATOM      4  O   UNL     1     115.103 108.351 105.609  1.00  0.00    -0.285 OA
ATOM      5  C   UNL     1     115.356 109.048 107.813  1.00  0.00     0.111 A 
ATOM      6  C   UNL     1     116.300 108.052 108.160  1.00  0.00     0.134 A 
ATOM      7  C   UNL     1     116.828 108.019 109.460  1.00  0.00     0.093 A 
ATOM      8  C   UNL     1     116.430 108.960 110.415  1.00  0.00     0.123 A 
ATOM      9  C   UNL     1     115.498 109.943 110.077  1.00  0.00     0.094 A 
ATOM     10  C   UNL     1     114.960 109.993 108.788  1.00  0.00     0.146 A 
ATOM     11  O   UNL     1     114.071 110.936 108.495  1.00  0.00    -0.452 OA
ENDROOT
BRANCH   1  12
ATOM     12  C   UNL     1     112.517 112.145 107.103  1.00  0.00     0.025 A 
ATOM     13  C   UNL     1     112.703 113.371 107.760  1.00  0.00     0.016 A 
ATOM     14  C   UNL     1     111.775 114.405 107.606  1.00  0.00     0.051 A 
ATOM     15  C   UNL     1     110.640 114.221 106.806  1.00  0.00     0.157 A 
ATOM     16  C   UNL     1     111.365 111.957 106.317  1.00  0.00     0.062 A 
ATOM     17  C   UNL     1     110.432 112.994 106.164  1.00  0.00     0.158 A 
BRANCH  15  18
ATOM     18  O   UNL     1     109.714 115.250 106.648  1.00  0.00    -0.504 OA
ATOM     19  H   UNL     1     108.834 115.255 107.152  1.00  0.00     0.293 HD
ENDBRANCH  15  18
BRANCH  17  20
ATOM     20  O   UNL     1     109.295 112.809 105.380  1.00  0.00    -0.504 OA
ATOM     21  H   UNL     1     109.316 112.943 104.376  1.00  0.00     0.293 HD
ENDBRANCH  17  20
ENDBRANCH   1  12
BRANCH   2  22
ATOM     22  O   UNL     1     113.316 110.331 104.984  1.00  0.00    -0.502 OA
ATOM     23  H   UNL     1     112.948 109.552 104.450  1.00  0.00     0.293 HD
ENDBRANCH   2  22
BRANCH   6  24
ATOM     24  O   UNL     1     116.716 107.101 107.229  1.00  0.00    -0.507 OA
ATOM     25  H   UNL     1     116.093 106.375 106.894  1.00  0.00     0.293 HD
ENDBRANCH   6  24
BRANCH   8  26
ATOM     26  O   UNL     1     116.955 108.928 111.705  1.00  0.00    -0.508 OA
ATOM     27  H   UNL     1     116.362 108.792 112.516  1.00  0.00     0.293 HD
ENDBRANCH   8  26
TORSDOF 6
ENDMDL
MODEL 4
REMARK VINA RESULT:    29.035      2.739      5.013
REMARK INTER + INTRA:          35.060
REMARK INTER:                  34.929
REMARK INTRA:                   0.131
REMARK UNBOUND:                 0.084
REMARK SMILES O=c1c(O)c(-c2ccc(O)c(O)c2)oc2cc(O)cc(O)c12
REMARK SMILES IDX 5 1 3 2 2 3 1 4 22 5 20 6 19 7 17 8 16 9 15 10 14 11 6 12
REMARK SMILES IDX 7 13 8 14 9 15 13 16 11 17 10 18 12 20 4 22 21 24 18 26
REMARK H PARENT 10 19 12 21 4 23 21 25 18 27
REMARK Flexibility Score: inf
ROOT
ATOM      1  C   UNL     1     110.513 112.938 107.300  1.00  0.00     0.180 A 
ATOM      2  C   UNL     1     110.158 113.818 106.259  1.00  0.00     0.208 A 
ATOM      3  C   UNL     1     109.229 114.838 106.520  1.00  0.00     0.238 A 
ATOM      4  O   UNL     1     108.912 115.638 105.599  1.00  0.00    -0.285 OA
ATOM      5  C   UNL     1     108.657 114.948 107.804  1.00  0.00     0.111 A 
ATOM      6  C   UNL     1     107.712 115.944 108.148  1.00  0.00     0.134 A 
ATOM      7  C   UNL     1     107.182 115.981 109.446  1.00  0.00     0.093 A 
ATOM      8  C   UNL     1     107.579 115.043 110.405  1.00  0.00     0.123 A 
ATOM      9  C   UNL     1     108.512 114.060 110.071  1.00  0.00     0.094 A 
ATOM     10  C   UNL     1     109.053 114.006 108.783  1.00  0.00     0.146 A 
ATOM     11  O   UNL     1     109.942 113.063 108.494  1.00  0.00    -0.452 OA
ENDROOT
BRANCH   1  12
ATOM     12  C   UNL     1     111.499 111.850 107.108  1.00  0.00     0.025 A 
ATOM     13  C   UNL     1     111.314 110.627 107.770  1.00  0.00     0.016 A 
ATOM     14  C   UNL     1     112.243 109.594 107.621  1.00  0.00     0.051 A 
ATOM     15  C   UNL     1     113.378 109.775 106.820  1.00  0.00     0.157 A 
ATOM     16  C   UNL     1     112.651 112.036 106.321  1.00  0.00     0.062 A 
ATOM     17  C   UNL     1     113.584 111.000 106.172  1.00  0.00     0.158 A 
BRANCH  15  18
ATOM     18  O   UNL     1     114.305 108.746 106.666  1.00  0.00    -0.504 OA
ATOM     19  H   UNL     1     115.067 108.617 107.321  1.00  0.00     0.293 HD
ENDBRANCH  15  18
BRANCH  17  20
ATOM     20  O   UNL     1     114.721 111.182 105.387  1.00  0.00    -0.504 OA
ATOM     21  H   UNL     1     114.707 111.770 104.562  1.00  0.00     0.293 HD
ENDBRANCH  17  20
ENDBRANCH   1  12
BRANCH   2  22
ATOM     22  O   UNL     1     110.702 113.657 104.982  1.00  0.00    -0.502 OA
ATOM     23  H   UNL     1     110.805 114.430 104.335  1.00  0.00     0.293 HD
ENDBRANCH   2  22
BRANCH   6  24
ATOM     24  O   UNL     1     107.296 116.892 107.212  1.00  0.00    -0.507 OA
ATOM     25  H   UNL     1     107.957 117.495 106.735  1.00  0.00     0.293 HD
ENDBRANCH   6  24
BRANCH   8  26
ATOM     26  O   UNL     1     107.053 115.079 111.694  1.00  0.00    -0.508 OA
ATOM     27  H   UNL     1     106.621 115.918 112.067  1.00  0.00     0.293 HD
ENDBRANCH   8  26
TORSDOF 6
ENDMDL
MODEL 5
REMARK VINA RESULT:    31.248     11.625     14.447
REMARK INTER + INTRA:          37.725
REMARK INTER:                  37.408
REMARK INTRA:                   0.318
REMARK UNBOUND:                 0.084
REMARK SMILES O=c1c(O)c(-c2ccc(O)c(O)c2)oc2cc(O)cc(O)c12
REMARK SMILES IDX 5 1 3 2 2 3 1 4 22 5 20 6 19 7 17 8 16 9 15 10 14 11 6 12
REMARK SMILES IDX 7 13 8 14 9 15 13 16 11 17 10 18 12 20 4 22 21 24 18 26
REMARK H PARENT 10 19 12 21 4 23 21 25 18 27
REMARK Flexibility Score: inf
ROOT
ATOM      1  C   UNL     1     120.585 105.627 118.218  1.00  0.00     0.180 A 
ATOM      2  C   UNL     1     120.767 104.236 118.088  1.00  0.00     0.208 A 
ATOM      3  C   UNL     1     121.209 103.722 116.859  1.00  0.00     0.238 A 
ATOM      4  O   UNL     1     121.386 102.480 116.735  1.00  0.00    -0.285 OA
ATOM      5  C   UNL     1     121.440 104.599 115.779  1.00  0.00     0.111 A 
ATOM      6  C   UNL     1     121.881 104.161 114.507  1.00  0.00     0.134 A 
ATOM      7  C   UNL     1     122.079 105.096 113.480  1.00  0.00     0.093 A 
ATOM      8  C   UNL     1     121.845 106.457 113.701  1.00  0.00     0.123 A 
ATOM      9  C   UNL     1     121.410 106.894 114.953  1.00  0.00     0.094 A 
ATOM     10  C   UNL     1     121.208 105.978 115.990  1.00  0.00     0.146 A 
ATOM     11  O   UNL     1     120.799 106.422 117.173  1.00  0.00    -0.452 OA
ENDROOT
BRANCH   1  12
ATOM     12  C   UNL     1     120.141 106.247 119.487  1.00  0.00     0.025 A 
ATOM     13  C   UNL     1     120.461 105.628 120.706  1.00  0.00     0.016 A 
ATOM     14  C   UNL     1     120.034 106.183 121.915  1.00  0.00     0.051 A 
ATOM     15  C   UNL     1     119.266 107.356 121.922  1.00  0.00     0.157 A 
ATOM     16  C   UNL     1     119.353 107.413 119.497  1.00  0.00     0.062 A 
ATOM     17  C   UNL     1     118.922 107.969 120.710  1.00  0.00     0.158 A 
BRANCH  15  18
ATOM     18  O   UNL     1     118.841 107.914 123.125  1.00  0.00    -0.504 OA
ATOM     19  H   UNL     1     118.635 107.339 123.933  1.00  0.00     0.293 HD
ENDBRANCH  15  18
BRANCH  17  20
ATOM     20  O   UNL     1     118.148 109.127 120.719  1.00  0.00    -0.504 OA
ATOM     21  H   UNL     1     117.166 109.108 120.969  1.00  0.00     0.293 HD
ENDBRANCH  17  20
ENDBRANCH   1  12
BRANCH   2  22
ATOM     22  O   UNL     1     120.484 103.384 119.159  1.00  0.00    -0.502 OA
ATOM     23  H   UNL     1     119.600 103.408 119.651  1.00  0.00     0.293 HD
ENDBRANCH   2  22
BRANCH   6  24
ATOM     24  O   UNL     1     122.123 102.809 114.257  1.00  0.00    -0.507 OA
ATOM     25  H   UNL     1     122.748 102.508 113.518  1.00  0.00     0.293 HD
ENDBRANCH   6  24
BRANCH   8  26
ATOM     26  O   UNL     1     122.041 107.385 112.681  1.00  0.00    -0.508 OA
ATOM     27  H   UNL     1     121.366 108.119 112.494  1.00  0.00     0.293 HD
ENDBRANCH   8  26
TORSDOF 6
ENDMDL
