MODEL 1
REMARK VINA RESULT:    -5.188      0.000      0.000
REMARK INTER + INTRA:         -10.277
REMARK INTER:                  -7.918
REMARK INTRA:                  -2.358
REMARK UNBOUND:                -2.358
REMARK SMILES CC(=O)CCC=C(C)CCC=C(C)CCC=C(C)C
REMARK SMILES IDX 10 1 11 2 12 3 13 4 14 5 15 6 16 7 18 8 17 9 19 10 9 11 7 12
REMARK SMILES IDX 6 13 8 14 5 15 4 16 2 17 3 18 1 19
REMARK H PARENT
REMARK Flexibility Score: inf
ROOT
ATOM      1  C   UNL     1      23.502  29.741  36.507  1.00  0.00     0.032 C 
ENDROOT
BRANCH   1   2
ATOM      2  C   UNL     1      22.231  28.986  36.199  1.00  0.00    -0.028 C 
ATOM      3  C   UNL     1      21.540  28.242  37.093  1.00  0.00    -0.077 C 
ATOM      4  C   UNL     1      22.038  28.013  38.501  1.00  0.00     0.039 C 
BRANCH   3   5
ATOM      5  C   UNL     1      20.251  27.575  36.662  1.00  0.00     0.034 C 
BRANCH   5   6
ATOM      6  C   UNL     1      19.320  28.555  35.934  1.00  0.00     0.032 C 
BRANCH   6   7
ATOM      7  C   UNL     1      18.656  29.520  36.887  1.00  0.00    -0.028 C 
ATOM      8  C   UNL     1      17.986  31.698  37.802  1.00  0.00     0.039 C 
ATOM      9  C   UNL     1      18.748  30.865  36.804  1.00  0.00    -0.080 C 
ATOM     10  C   UNL     1      19.599  31.548  35.761  1.00  0.00     0.039 C 
ENDBRANCH   6   7
ENDBRANCH   5   6
ENDBRANCH   3   5
ENDBRANCH   1   2
BRANCH   1  11
ATOM     11  C   UNL     1      23.218  31.222  36.801  1.00  0.00     0.034 C 
BRANCH  11  12
ATOM     12  C   UNL     1      23.036  31.489  38.284  1.00  0.00    -0.077 C 
ATOM     13  C   UNL     1      24.063  31.468  39.162  1.00  0.00    -0.028 C 
ATOM     14  C   UNL     1      21.651  31.763  38.812  1.00  0.00     0.039 C 
BRANCH  13  15
ATOM     15  C   UNL     1      25.504  31.239  38.768  1.00  0.00     0.035 C 
BRANCH  15  16
ATOM     16  C   UNL     1      26.204  30.244  39.702  1.00  0.00     0.079 C 
BRANCH  16  17
ATOM     17  C   UNL     1      25.651  28.851  39.550  1.00  0.00     0.130 C 
ATOM     18  O   UNL     1      25.813  28.245  38.500  1.00  0.00    -0.300 OA
ATOM     19  C   UNL     1      24.921  28.192  40.681  1.00  0.00     0.087 C 
ENDBRANCH  16  17
ENDBRANCH  15  16
ENDBRANCH  13  15
ENDBRANCH  11  12
ENDBRANCH   1  11
TORSDOF 9
ENDMDL
MODEL 2
REMARK VINA RESULT:    -5.006      2.335      5.739
REMARK INTER + INTRA:          -9.998
REMARK INTER:                  -8.040
REMARK INTRA:                  -1.958
REMARK UNBOUND:                -2.358
REMARK SMILES CC(=O)CCC=C(C)CCC=C(C)CCC=C(C)C
REMARK SMILES IDX 10 1 11 2 12 3 13 4 14 5 15 6 16 7 18 8 17 9 19 10 9 11 7 12
REMARK SMILES IDX 6 13 8 14 5 15 4 16 2 17 3 18 1 19
REMARK H PARENT
REMARK Flexibility Score: inf
ROOT
ATOM      1  C   UNL     1      23.253  28.260  38.906  1.00  0.00     0.032 C 
ENDROOT
BRANCH   1   2
ATOM      2  C   UNL     1      24.054  29.432  39.419  1.00  0.00    -0.028 C 
ATOM      3  C   UNL     1      24.771  30.276  38.641  1.00  0.00    -0.077 C 
ATOM      4  C   UNL     1      24.918  30.065  37.153  1.00  0.00     0.039 C 
BRANCH   3   5
ATOM      5  C   UNL     1      25.489  31.443  39.283  1.00  0.00     0.034 C 
BRANCH   5   6
ATOM      6  C   UNL     1      24.949  32.790  38.781  1.00  0.00     0.032 C 
BRANCH   6   7
ATOM      7  C   UNL     1      23.456  32.910  38.978  1.00  0.00    -0.028 C 
ATOM      8  C   UNL     1      21.350  33.870  39.799  1.00  0.00     0.039 C 
ATOM      9  C   UNL     1      22.856  33.849  39.741  1.00  0.00    -0.080 C 
ATOM     10  C   UNL     1      23.646  34.856  40.543  1.00  0.00     0.039 C 
ENDBRANCH   6   7
ENDBRANCH   5   6
ENDBRANCH   3   5
ENDBRANCH   1   2
BRANCH   1  11
ATOM     11  C   UNL     1      21.764  28.612  38.770  1.00  0.00     0.034 C 
BRANCH  11  12
ATOM     12  C   UNL     1      21.228  28.318  37.380  1.00  0.00    -0.077 C 
ATOM     13  C   UNL     1      20.987  29.288  36.470  1.00  0.00    -0.028 C 
ATOM     14  C   UNL     1      20.923  26.891  37.002  1.00  0.00     0.039 C 
BRANCH  13  15
ATOM     15  C   UNL     1      21.274  30.753  36.704  1.00  0.00     0.035 C 
BRANCH  15  16
ATOM     16  C   UNL     1      19.995  31.600  36.687  1.00  0.00     0.079 C 
BRANCH  16  17
ATOM     17  C   UNL     1      18.996  31.121  37.708  1.00  0.00     0.130 C 
ATOM     18  O   UNL     1      19.218  31.287  38.898  1.00  0.00    -0.300 OA
ATOM     19  C   UNL     1      17.722  30.460  37.275  1.00  0.00     0.087 C 
ENDBRANCH  16  17
ENDBRANCH  15  16
ENDBRANCH  13  15
ENDBRANCH  11  12
ENDBRANCH   1  11
TORSDOF 9
ENDMDL
MODEL 3
REMARK VINA RESULT:    -4.899      2.687      5.741
REMARK INTER + INTRA:          -9.836
REMARK INTER:                  -7.534
REMARK INTRA:                  -2.301
REMARK UNBOUND:                -2.358
REMARK SMILES CC(=O)CCC=C(C)CCC=C(C)CCC=C(C)C
REMARK SMILES IDX 10 1 11 2 12 3 13 4 14 5 15 6 16 7 18 8 17 9 19 10 9 11 7 12
REMARK SMILES IDX 6 13 8 14 5 15 4 16 2 17 3 18 1 19
REMARK H PARENT
REMARK Flexibility Score: inf
ROOT
ATOM      1  C   UNL     1      23.675  28.595  38.946  1.00  0.00     0.032 C 
ENDROOT
BRANCH   1   2
ATOM      2  C   UNL     1      24.132  30.034  38.947  1.00  0.00    -0.028 C 
ATOM      3  C   UNL     1      24.321  30.784  37.837  1.00  0.00    -0.077 C 
ATOM      4  C   UNL     1      24.177  30.210  36.447  1.00  0.00     0.039 C 
BRANCH   3   5
ATOM      5  C   UNL     1      24.735  32.232  37.983  1.00  0.00     0.034 C 
BRANCH   5   6
ATOM      6  C   UNL     1      24.332  32.804  39.350  1.00  0.00     0.032 C 
BRANCH   6   7
ATOM      7  C   UNL     1      22.929  33.363  39.339  1.00  0.00    -0.028 C 
ATOM      8  C   UNL     1      21.083  34.862  39.955  1.00  0.00     0.039 C 
ATOM      9  C   UNL     1      22.504  34.384  40.115  1.00  0.00    -0.080 C 
ATOM     10  C   UNL     1      23.398  35.038  41.140  1.00  0.00     0.039 C 
ENDBRANCH   6   7
ENDBRANCH   5   6
ENDBRANCH   3   5
ENDBRANCH   1   2
BRANCH   1  11
ATOM     11  C   UNL     1      22.168  28.484  39.219  1.00  0.00     0.034 C 
BRANCH  11  12
ATOM     12  C   UNL     1      21.354  28.423  37.939  1.00  0.00    -0.077 C 
ATOM     13  C   UNL     1      20.626  29.468  37.486  1.00  0.00    -0.028 C 
ATOM     14  C   UNL     1      21.329  27.140  37.150  1.00  0.00     0.039 C 
BRANCH  13  15
ATOM     15  C   UNL     1      20.583  30.821  38.158  1.00  0.00     0.035 C 
BRANCH  15  16
ATOM     16  C   UNL     1      19.596  31.773  37.472  1.00  0.00     0.079 C 
BRANCH  16  17
ATOM     17  C   UNL     1      20.050  32.144  36.085  1.00  0.00     0.130 C 
ATOM     18  O   UNL     1      19.300  31.973  35.135  1.00  0.00    -0.300 OA
ATOM     19  C   UNL     1      21.407  32.741  35.861  1.00  0.00     0.087 C 
ENDBRANCH  16  17
ENDBRANCH  15  16
ENDBRANCH  13  15
ENDBRANCH  11  12
ENDBRANCH   1  11
TORSDOF 9
ENDMDL
MODEL 4
REMARK VINA RESULT:    -4.888      1.755      4.448
REMARK INTER + INTRA:          -9.818
REMARK INTER:                  -7.364
REMARK INTRA:                  -2.454
REMARK UNBOUND:                -2.358
REMARK SMILES CC(=O)CCC=C(C)CCC=C(C)CCC=C(C)C
REMARK SMILES IDX 10 1 11 2 12 3 13 4 14 5 15 6 16 7 18 8 17 9 19 10 9 11 7 12
REMARK SMILES IDX 6 13 8 14 5 15 4 16 2 17 3 18 1 19
REMARK H PARENT
REMARK Flexibility Score: inf
ROOT
ATOM      1  C   UNL     1      25.558  30.940  39.283  1.00  0.00     0.032 C 
ENDROOT
BRANCH   1   2
ATOM      2  C   UNL     1      24.363  31.846  39.459  1.00  0.00    -0.028 C 
ATOM      3  C   UNL     1      23.794  32.573  38.470  1.00  0.00    -0.077 C 
ATOM      4  C   UNL     1      24.373  32.623  37.076  1.00  0.00     0.039 C 
BRANCH   3   5
ATOM      5  C   UNL     1      22.565  33.403  38.775  1.00  0.00     0.034 C 
BRANCH   5   6
ATOM      6  C   UNL     1      21.482  33.232  37.701  1.00  0.00     0.032 C 
BRANCH   6   7
ATOM      7  C   UNL     1      20.477  32.168  38.074  1.00  0.00    -0.028 C 
ATOM      8  C   UNL     1      18.790  30.420  37.712  1.00  0.00     0.039 C 
ATOM      9  C   UNL     1      19.714  31.490  37.189  1.00  0.00    -0.080 C 
ATOM     10  C   UNL     1      19.748  31.785  35.709  1.00  0.00     0.039 C 
ENDBRANCH   6   7
ENDBRANCH   5   6
ENDBRANCH   3   5
ENDBRANCH   1   2
BRANCH   1  11
ATOM     11  C   UNL     1      25.143  29.556  38.763  1.00  0.00     0.034 C 
BRANCH  11  12
ATOM     12  C   UNL     1      24.582  28.673  39.863  1.00  0.00    -0.077 C 
ATOM     13  C   UNL     1      23.262  28.410  39.986  1.00  0.00    -0.028 C 
ATOM     14  C   UNL     1      25.526  28.085  40.880  1.00  0.00     0.039 C 
BRANCH  13  15
ATOM     15  C   UNL     1      22.210  28.907  39.022  1.00  0.00     0.035 C 
BRANCH  15  16
ATOM     16  C   UNL     1      21.775  27.817  38.033  1.00  0.00     0.079 C 
BRANCH  16  17
ATOM     17  C   UNL     1      21.664  28.350  36.628  1.00  0.00     0.130 C 
ATOM     18  O   UNL     1      20.761  27.961  35.902  1.00  0.00    -0.300 OA
ATOM     19  C   UNL     1      22.640  29.367  36.119  1.00  0.00     0.087 C 
ENDBRANCH  16  17
ENDBRANCH  15  16
ENDBRANCH  13  15
ENDBRANCH  11  12
ENDBRANCH   1  11
TORSDOF 9
ENDMDL
MODEL 5
REMARK VINA RESULT:    -4.862      2.034      5.356
REMARK INTER + INTRA:          -9.778
REMARK INTER:                  -7.663
REMARK INTRA:                  -2.115
REMARK UNBOUND:                -2.358
REMARK SMILES CC(=O)CCC=C(C)CCC=C(C)CCC=C(C)C
REMARK SMILES IDX 10 1 11 2 12 3 13 4 14 5 15 6 16 7 18 8 17 9 19 10 9 11 7 12
REMARK SMILES IDX 6 13 8 14 5 15 4 16 2 17 3 18 1 19
REMARK H PARENT
REMARK Flexibility Score: inf
ROOT
ATOM      1  C   UNL     1      25.992  29.859  39.763  1.00  0.00     0.032 C 
ENDROOT
BRANCH   1   2
ATOM      2  C   UNL     1      25.181  31.102  39.484  1.00  0.00    -0.028 C 
ATOM      3  C   UNL     1      25.494  32.034  38.555  1.00  0.00    -0.077 C 
ATOM      4  C   UNL     1      26.769  31.965  37.748  1.00  0.00     0.039 C 
BRANCH   3   5
ATOM      5  C   UNL     1      24.565  33.210  38.344  1.00  0.00     0.034 C 
BRANCH   5   6
ATOM      6  C   UNL     1      23.191  32.764  37.826  1.00  0.00     0.032 C 
BRANCH   6   7
ATOM      7  C   UNL     1      23.033  33.018  36.346  1.00  0.00    -0.028 C 
ATOM      8  C   UNL     1      22.992  32.487  33.948  1.00  0.00     0.039 C 
ATOM      9  C   UNL     1      23.239  32.094  35.382  1.00  0.00    -0.080 C 
ATOM     10  C   UNL     1      23.722  30.699  35.699  1.00  0.00     0.039 C 
ENDBRANCH   6   7
ENDBRANCH   5   6
ENDBRANCH   3   5
ENDBRANCH   1   2
BRANCH   1  11
ATOM     11  C   UNL     1      25.256  28.593  39.301  1.00  0.00     0.034 C 
BRANCH  11  12
ATOM     12  C   UNL     1      24.147  28.191  40.257  1.00  0.00    -0.077 C 
ATOM     13  C   UNL     1      22.839  28.393  39.985  1.00  0.00    -0.028 C 
ATOM     14  C   UNL     1      24.514  27.564  41.578  1.00  0.00     0.039 C 
BRANCH  13  15
ATOM     15  C   UNL     1      22.328  28.982  38.690  1.00  0.00     0.035 C 
BRANCH  15  16
ATOM     16  C   UNL     1      21.742  27.909  37.763  1.00  0.00     0.079 C 
BRANCH  16  17
ATOM     17  C   UNL     1      20.756  28.494  36.786  1.00  0.00     0.130 C 
ATOM     18  O   UNL     1      20.287  27.791  35.903  1.00  0.00    -0.300 OA
ATOM     19  C   UNL     1      20.330  29.927  36.898  1.00  0.00     0.087 C 
ENDBRANCH  16  17
ENDBRANCH  15  16
ENDBRANCH  13  15
ENDBRANCH  11  12
ENDBRANCH   1  11
TORSDOF 9
ENDMDL
MODEL 6
REMARK VINA RESULT:    -4.857      1.663      4.004
REMARK INTER + INTRA:          -9.771
REMARK INTER:                  -7.121
REMARK INTRA:                  -2.650
REMARK UNBOUND:                -2.358
REMARK SMILES CC(=O)CCC=C(C)CCC=C(C)CCC=C(C)C
REMARK SMILES IDX 10 1 11 2 12 3 13 4 14 5 15 6 16 7 18 8 17 9 19 10 9 11 7 12
REMARK SMILES IDX 6 13 8 14 5 15 4 16 2 17 3 18 1 19
REMARK H PARENT
REMARK Flexibility Score: inf
ROOT
ATOM      1  C   UNL     1      24.735  32.563  37.960  1.00  0.00     0.032 C 
ENDROOT
BRANCH   1   2
ATOM      2  C   UNL     1      23.642  32.658  36.922  1.00  0.00    -0.028 C 
ATOM      3  C   UNL     1      23.504  31.819  35.870  1.00  0.00    -0.077 C 
ATOM      4  C   UNL     1      24.510  30.733  35.572  1.00  0.00     0.039 C 
BRANCH   3   5
ATOM      5  C   UNL     1      22.331  31.998  34.930  1.00  0.00     0.034 C 
BRANCH   5   6
ATOM      6  C   UNL     1      21.183  32.772  35.593  1.00  0.00     0.032 C 
BRANCH   6   7
ATOM      7  C   UNL     1      20.163  31.849  36.217  1.00  0.00    -0.028 C 
ATOM      8  C   UNL     1      18.748  30.903  37.987  1.00  0.00     0.039 C 
ATOM      9  C   UNL     1      19.821  31.855  37.524  1.00  0.00    -0.080 C 
ATOM     10  C   UNL     1      20.491  32.766  38.524  1.00  0.00     0.039 C 
ENDBRANCH   6   7
ENDBRANCH   5   6
ENDBRANCH   3   5
ENDBRANCH   1   2
BRANCH   1  11
ATOM     11  C   UNL     1      24.253  31.826  39.218  1.00  0.00     0.034 C 
BRANCH  11  12
ATOM     12  C   UNL     1      24.710  30.378  39.246  1.00  0.00    -0.077 C 
ATOM     13  C   UNL     1      23.865  29.341  39.051  1.00  0.00    -0.028 C 
ATOM     14  C   UNL     1      26.159  30.076  39.530  1.00  0.00     0.039 C 
BRANCH  13  15
ATOM     15  C   UNL     1      22.398  29.499  38.728  1.00  0.00     0.035 C 
BRANCH  15  16
ATOM     16  C   UNL     1      21.749  28.166  38.334  1.00  0.00     0.079 C 
BRANCH  16  17
ATOM     17  C   UNL     1      21.377  28.135  36.875  1.00  0.00     0.130 C 
ATOM     18  O   UNL     1      22.246  28.258  36.024  1.00  0.00    -0.300 OA
ATOM     19  C   UNL     1      19.951  27.935  36.456  1.00  0.00     0.087 C 
ENDBRANCH  16  17
ENDBRANCH  15  16
ENDBRANCH  13  15
ENDBRANCH  11  12
ENDBRANCH   1  11
TORSDOF 9
ENDMDL
MODEL 7
REMARK VINA RESULT:    -4.852      2.802      5.406
REMARK INTER + INTRA:          -9.764
REMARK INTER:                  -7.763
REMARK INTRA:                  -2.001
REMARK UNBOUND:                -2.358
REMARK SMILES CC(=O)CCC=C(C)CCC=C(C)CCC=C(C)C
REMARK SMILES IDX 10 1 11 2 12 3 13 4 14 5 15 6 16 7 18 8 17 9 19 10 9 11 7 12
REMARK SMILES IDX 6 13 8 14 5 15 4 16 2 17 3 18 1 19
REMARK H PARENT
REMARK Flexibility Score: inf
ROOT
ATOM      1  C   UNL     1      23.474  31.077  38.229  1.00  0.00     0.032 C 
ENDROOT
BRANCH   1   2
ATOM      2  C   UNL     1      23.443  31.734  36.870  1.00  0.00    -0.028 C 
ATOM      3  C   UNL     1      23.962  31.197  35.742  1.00  0.00    -0.077 C 
ATOM      4  C   UNL     1      24.726  29.894  35.753  1.00  0.00     0.039 C 
BRANCH   3   5
ATOM      5  C   UNL     1      23.818  31.942  34.433  1.00  0.00     0.034 C 
BRANCH   5   6
ATOM      6  C   UNL     1      23.254  33.355  34.641  1.00  0.00     0.032 C 
BRANCH   6   7
ATOM      7  C   UNL     1      22.328  33.766  33.522  1.00  0.00    -0.028 C 
ATOM      8  C   UNL     1      20.190  34.126  32.368  1.00  0.00     0.039 C 
ATOM      9  C   UNL     1      20.985  33.621  33.544  1.00  0.00    -0.080 C 
ATOM     10  C   UNL     1      20.270  32.956  34.696  1.00  0.00     0.039 C 
ENDBRANCH   6   7
ENDBRANCH   5   6
ENDBRANCH   3   5
ENDBRANCH   1   2
BRANCH   1  11
ATOM     11  C   UNL     1      22.114  30.458  38.585  1.00  0.00     0.034 C 
BRANCH  11  12
ATOM     12  C   UNL     1      22.177  28.943  38.668  1.00  0.00    -0.077 C 
ATOM     13  C   UNL     1      21.705  28.138  37.690  1.00  0.00    -0.028 C 
ATOM     14  C   UNL     1      22.762  28.302  39.900  1.00  0.00     0.039 C 
BRANCH  13  15
ATOM     15  C   UNL     1      21.123  28.644  36.390  1.00  0.00     0.035 C 
BRANCH  15  16
ATOM     16  C   UNL     1      19.621  28.350  36.280  1.00  0.00     0.079 C 
BRANCH  16  17
ATOM     17  C   UNL     1      18.804  29.616  36.260  1.00  0.00     0.130 C 
ATOM     18  O   UNL     1      18.300  29.996  35.214  1.00  0.00    -0.300 OA
ATOM     19  C   UNL     1      18.588  30.403  37.517  1.00  0.00     0.087 C 
ENDBRANCH  16  17
ENDBRANCH  15  16
ENDBRANCH  13  15
ENDBRANCH  11  12
ENDBRANCH   1  11
TORSDOF 9
ENDMDL
MODEL 8
REMARK VINA RESULT:    -4.821      2.303      6.203
REMARK INTER + INTRA:          -9.716
REMARK INTER:                  -7.835
REMARK INTRA:                  -1.881
REMARK UNBOUND:                -2.358
REMARK SMILES CC(=O)CCC=C(C)CCC=C(C)CCC=C(C)C
REMARK SMILES IDX 10 1 11 2 12 3 13 4 14 5 15 6 16 7 18 8 17 9 19 10 9 11 7 12
REMARK SMILES IDX 6 13 8 14 5 15 4 16 2 17 3 18 1 19
REMARK H PARENT
REMARK Flexibility Score: inf
ROOT
ATOM      1  C   UNL     1      21.911  29.544  38.546  1.00  0.00     0.032 C 
ENDROOT
BRANCH   1   2
ATOM      2  C   UNL     1      23.265  30.175  38.765  1.00  0.00    -0.028 C 
ATOM      3  C   UNL     1      23.476  31.495  38.973  1.00  0.00    -0.077 C 
ATOM      4  C   UNL     1      22.355  32.506  38.912  1.00  0.00     0.039 C 
BRANCH   3   5
ATOM      5  C   UNL     1      24.883  31.988  39.229  1.00  0.00     0.034 C 
BRANCH   5   6
ATOM      6  C   UNL     1      25.781  31.815  37.996  1.00  0.00     0.032 C 
BRANCH   6   7
ATOM      7  C   UNL     1      25.102  32.283  36.731  1.00  0.00    -0.028 C 
ATOM      8  C   UNL     1      24.057  32.089  34.516  1.00  0.00     0.039 C 
ATOM      9  C   UNL     1      24.778  31.481  35.693  1.00  0.00    -0.080 C 
ATOM     10  C   UNL     1      25.130  30.013  35.673  1.00  0.00     0.039 C 
ENDBRANCH   6   7
ENDBRANCH   5   6
ENDBRANCH   3   5
ENDBRANCH   1   2
BRANCH   1  11
ATOM     11  C   UNL     1      21.631  29.316  37.054  1.00  0.00     0.034 C 
BRANCH  11  12
ATOM     12  C   UNL     1      20.689  28.149  36.816  1.00  0.00    -0.077 C 
ATOM     13  C   UNL     1      19.442  28.306  36.320  1.00  0.00    -0.028 C 
ATOM     14  C   UNL     1      21.147  26.758  37.172  1.00  0.00     0.039 C 
BRANCH  13  15
ATOM     15  C   UNL     1      18.867  29.636  35.892  1.00  0.00     0.035 C 
BRANCH  15  16
ATOM     16  C   UNL     1      18.004  30.270  36.992  1.00  0.00     0.079 C 
BRANCH  16  17
ATOM     17  C   UNL     1      18.710  31.418  37.664  1.00  0.00     0.130 C 
ATOM     18  O   UNL     1      18.963  31.360  38.858  1.00  0.00    -0.300 OA
ATOM     19  C   UNL     1      19.124  32.625  36.876  1.00  0.00     0.087 C 
ENDBRANCH  16  17
ENDBRANCH  15  16
ENDBRANCH  13  15
ENDBRANCH  11  12
ENDBRANCH   1  11
TORSDOF 9
ENDMDL
MODEL 9
REMARK VINA RESULT:    -4.761      2.052      6.350
REMARK INTER + INTRA:          -9.624
REMARK INTER:                  -7.246
REMARK INTRA:                  -2.379
REMARK UNBOUND:                -2.358
REMARK SMILES CC(=O)CCC=C(C)CCC=C(C)CCC=C(C)C
REMARK SMILES IDX 10 1 11 2 12 3 13 4 14 5 15 6 16 7 18 8 17 9 19 10 9 11 7 12
REMARK SMILES IDX 6 13 8 14 5 15 4 16 2 17 3 18 1 19
REMARK H PARENT
REMARK Flexibility Score: inf
ROOT
ATOM      1  C   UNL     1      22.218  30.707  36.209  1.00  0.00     0.032 C 
ENDROOT
BRANCH   1   2
ATOM      2  C   UNL     1      23.206  31.470  37.059  1.00  0.00    -0.028 C 
ATOM      3  C   UNL     1      22.931  31.996  38.275  1.00  0.00    -0.077 C 
ATOM      4  C   UNL     1      21.546  31.950  38.874  1.00  0.00     0.039 C 
BRANCH   3   5
ATOM      5  C   UNL     1      24.031  32.697  39.043  1.00  0.00     0.034 C 
BRANCH   5   6
ATOM      6  C   UNL     1      25.375  31.966  38.907  1.00  0.00     0.032 C 
BRANCH   6   7
ATOM      7  C   UNL     1      25.366  30.627  39.605  1.00  0.00    -0.028 C 
ATOM      8  C   UNL     1      25.756  28.219  39.890  1.00  0.00     0.039 C 
ATOM      9  C   UNL     1      25.781  29.469  39.048  1.00  0.00    -0.080 C 
ATOM     10  C   UNL     1      26.245  29.390  37.613  1.00  0.00     0.039 C 
ENDBRANCH   6   7
ENDBRANCH   5   6
ENDBRANCH   3   5
ENDBRANCH   1   2
BRANCH   1  11
ATOM     11  C   UNL     1      22.478  29.194  36.266  1.00  0.00     0.034 C 
BRANCH  11  12
ATOM     12  C   UNL     1      21.658  28.511  37.345  1.00  0.00    -0.077 C 
ATOM     13  C   UNL     1      20.373  28.136  37.159  1.00  0.00    -0.028 C 
ATOM     14  C   UNL     1      22.287  28.260  38.692  1.00  0.00     0.039 C 
BRANCH  13  15
ATOM     15  C   UNL     1      19.629  28.298  35.853  1.00  0.00     0.035 C 
BRANCH  15  16
ATOM     16  C   UNL     1      18.291  29.024  36.040  1.00  0.00     0.079 C 
BRANCH  16  17
ATOM     17  C   UNL     1      18.487  30.485  36.353  1.00  0.00     0.130 C 
ATOM     18  O   UNL     1      18.877  31.245  35.479  1.00  0.00    -0.300 OA
ATOM     19  C   UNL     1      18.191  31.017  37.723  1.00  0.00     0.087 C 
ENDBRANCH  16  17
ENDBRANCH  15  16
ENDBRANCH  13  15
ENDBRANCH  11  12
ENDBRANCH   1  11
TORSDOF 9
ENDMDL
