MODEL 1
REMARK VINA RESULT:    -3.316      0.000      0.000
REMARK INTER + INTRA:          -4.316
REMARK INTER:                  -4.091
REMARK INTRA:                  -0.225
REMARK UNBOUND:                -0.225
REMARK SMILES CCCCCC(=O)[O-]
REMARK SMILES IDX 4 1 5 2 6 3 7 4 8 5 3 6 2 7 1 8
REMARK H PARENT
REMARK Flexibility Score: inf
ROOT
ATOM      1  C   UNL     1     173.743 173.875 151.119  1.00  0.00     0.006 C 
ENDROOT
BRANCH   1   2
ATOM      2  C   UNL     1     175.105 174.266 151.714  1.00  0.00     0.053 C 
BRANCH   2   3
ATOM      3  C   UNL     1     175.259 173.790 153.126  1.00  0.00     0.041 C 
ATOM      4  O   UNL     1     175.537 172.585 153.361  1.00  0.00    -0.550 OA
ATOM      5  O   UNL     1     175.062 174.670 154.184  1.00  0.00    -0.550 OA
ENDBRANCH   2   3
ENDBRANCH   1   2
BRANCH   1   6
ATOM      6  C   UNL     1     173.831 172.967 149.879  1.00  0.00     0.000 C 
BRANCH   6   7
ATOM      7  C   UNL     1     173.709 171.475 150.224  1.00  0.00    -0.003 C 
ATOM      8  C   UNL     1     175.079 170.807 150.269  1.00  0.00     0.004 C 
ENDBRANCH   6   7
ENDBRANCH   1   6
TORSDOF 4
ENDMDL
MODEL 2
REMARK VINA RESULT:    -3.290      1.274      2.504
REMARK INTER + INTRA:          -4.284
REMARK INTER:                  -4.128
REMARK INTRA:                  -0.156
REMARK UNBOUND:                -0.225
REMARK SMILES CCCCCC(=O)[O-]
REMARK SMILES IDX 4 1 5 2 6 3 7 4 8 5 3 6 2 7 1 8
REMARK H PARENT
REMARK Flexibility Score: inf
ROOT
ATOM      1  C   UNL     1     174.627 173.256 150.499  1.00  0.00     0.006 C 
ENDROOT
BRANCH   1   2
ATOM      2  C   UNL     1     175.175 174.307 151.478  1.00  0.00     0.053 C 
BRANCH   2   3
ATOM      3  C   UNL     1     175.221 173.793 152.884  1.00  0.00     0.041 C 
ATOM      4  O   UNL     1     175.145 174.594 153.853  1.00  0.00    -0.550 OA
ATOM      5  O   UNL     1     175.382 172.434 153.125  1.00  0.00    -0.550 OA
ENDBRANCH   2   3
ENDBRANCH   1   2
BRANCH   1   6
ATOM      6  C   UNL     1     173.291 173.640 149.838  1.00  0.00     0.000 C 
BRANCH   6   7
ATOM      7  C   UNL     1     172.095 173.506 150.793  1.00  0.00    -0.003 C 
ATOM      8  C   UNL     1     171.506 174.872 151.132  1.00  0.00     0.004 C 
ENDBRANCH   6   7
ENDBRANCH   1   6
TORSDOF 4
ENDMDL
MODEL 3
REMARK VINA RESULT:    -3.213      2.019      3.678
REMARK INTER + INTRA:          -4.189
REMARK INTER:                  -3.932
REMARK INTRA:                  -0.257
REMARK UNBOUND:                -0.225
REMARK SMILES CCCCCC(=O)[O-]
REMARK SMILES IDX 4 1 5 2 6 3 7 4 8 5 3 6 2 7 1 8
REMARK H PARENT
REMARK Flexibility Score: inf
ROOT
ATOM      1  C   UNL     1     173.350 172.302 150.302  1.00  0.00     0.006 C 
ENDROOT
BRANCH   1   2
ATOM      2  C   UNL     1     173.730 170.823 150.127  1.00  0.00     0.053 C 
BRANCH   2   3
ATOM      3  C   UNL     1     175.101 170.529 150.654  1.00  0.00     0.041 C 
ATOM      4  O   UNL     1     175.351 170.670 151.880  1.00  0.00    -0.550 OA
ATOM      5  O   UNL     1     176.110 170.131 149.786  1.00  0.00    -0.550 OA
ENDBRANCH   2   3
ENDBRANCH   1   2
BRANCH   1   6
ATOM      6  C   UNL     1     174.401 173.293 149.769  1.00  0.00     0.000 C 
BRANCH   6   7
ATOM      7  C   UNL     1     175.014 174.163 150.877  1.00  0.00    -0.003 C 
ATOM      8  C   UNL     1     174.180 174.099 152.151  1.00  0.00     0.004 C 
ENDBRANCH   6   7
ENDBRANCH   1   6
TORSDOF 4
ENDMDL
MODEL 4
REMARK VINA RESULT:    -3.177      2.212      2.778
REMARK INTER + INTRA:          -4.145
REMARK INTER:                  -3.996
REMARK INTRA:                  -0.148
REMARK UNBOUND:                -0.225
REMARK SMILES CCCCCC(=O)[O-]
REMARK SMILES IDX 4 1 5 2 6 3 7 4 8 5 3 6 2 7 1 8
REMARK H PARENT
REMARK Flexibility Score: inf
ROOT
ATOM      1  C   UNL     1     173.414 173.538 149.723  1.00  0.00     0.006 C 
ENDROOT
BRANCH   1   2
ATOM      2  C   UNL     1     172.230 173.351 150.684  1.00  0.00     0.053 C 
BRANCH   2   3
ATOM      3  C   UNL     1     172.105 174.489 151.650  1.00  0.00     0.041 C 
ATOM      4  O   UNL     1     172.790 174.501 152.707  1.00  0.00    -0.550 OA
ATOM      5  O   UNL     1     171.207 175.520 151.400  1.00  0.00    -0.550 OA
ENDBRANCH   2   3
ENDBRANCH   1   2
BRANCH   1   6
ATOM      6  C   UNL     1     174.682 172.760 150.120  1.00  0.00     0.000 C 
BRANCH   6   7
ATOM      7  C   UNL     1     174.369 171.382 150.724  1.00  0.00    -0.003 C 
ATOM      8  C   UNL     1     175.380 170.338 150.264  1.00  0.00     0.004 C 
ENDBRANCH   6   7
ENDBRANCH   1   6
TORSDOF 4
ENDMDL
MODEL 5
REMARK VINA RESULT:    -3.156      2.552      3.955
REMARK INTER + INTRA:          -4.119
REMARK INTER:                  -4.011
REMARK INTRA:                  -0.108
REMARK UNBOUND:                -0.225
REMARK SMILES CCCCCC(=O)[O-]
REMARK SMILES IDX 4 1 5 2 6 3 7 4 8 5 3 6 2 7 1 8
REMARK H PARENT
REMARK Flexibility Score: inf
ROOT
ATOM      1  C   UNL     1     174.940 171.223 150.452  1.00  0.00     0.006 C 
ENDROOT
BRANCH   1   2
ATOM      2  C   UNL     1     175.162 169.713 150.271  1.00  0.00     0.053 C 
BRANCH   2   3
ATOM      3  C   UNL     1     175.210 168.991 151.583  1.00  0.00     0.041 C 
ATOM      4  O   UNL     1     175.037 167.745 151.626  1.00  0.00    -0.550 OA
ATOM      5  O   UNL     1     175.414 169.700 152.761  1.00  0.00    -0.550 OA
ENDBRANCH   2   3
ENDBRANCH   1   2
BRANCH   1   6
ATOM      6  C   UNL     1     173.531 171.707 150.066  1.00  0.00     0.000 C 
BRANCH   6   7
ATOM      7  C   UNL     1     173.450 173.232 149.899  1.00  0.00    -0.003 C 
ATOM      8  C   UNL     1     174.840 173.860 149.909  1.00  0.00     0.004 C 
ENDBRANCH   6   7
ENDBRANCH   1   6
TORSDOF 4
ENDMDL
MODEL 6
REMARK VINA RESULT:    -3.078      1.241      2.030
REMARK INTER + INTRA:          -4.022
REMARK INTER:                  -3.848
REMARK INTRA:                  -0.175
REMARK UNBOUND:                -0.225
REMARK SMILES CCCCCC(=O)[O-]
REMARK SMILES IDX 4 1 5 2 6 3 7 4 8 5 3 6 2 7 1 8
REMARK H PARENT
REMARK Flexibility Score: inf
ROOT
ATOM      1  C   UNL     1     174.408 174.114 152.212  1.00  0.00     0.006 C 
ENDROOT
BRANCH   1   2
ATOM      2  C   UNL     1     175.413 173.886 153.352  1.00  0.00     0.053 C 
BRANCH   2   3
ATOM      3  C   UNL     1     175.128 172.623 154.107  1.00  0.00     0.041 C 
ATOM      4  O   UNL     1     174.722 172.676 155.297  1.00  0.00    -0.550 OA
ATOM      5  O   UNL     1     175.343 171.389 153.506  1.00  0.00    -0.550 OA
ENDBRANCH   2   3
ENDBRANCH   1   2
BRANCH   1   6
ATOM      6  C   UNL     1     175.046 174.199 150.813  1.00  0.00     0.000 C 
BRANCH   6   7
ATOM      7  C   UNL     1     174.271 173.397 149.756  1.00  0.00    -0.003 C 
ATOM      8  C   UNL     1     174.129 171.936 150.170  1.00  0.00     0.004 C 
ENDBRANCH   6   7
ENDBRANCH   1   6
TORSDOF 4
ENDMDL
MODEL 7
REMARK VINA RESULT:    -3.049     13.053     14.415
REMARK INTER + INTRA:          -3.986
REMARK INTER:                  -3.867
REMARK INTRA:                  -0.119
REMARK UNBOUND:                -0.225
REMARK SMILES CCCCCC(=O)[O-]
REMARK SMILES IDX 4 1 5 2 6 3 7 4 8 5 3 6 2 7 1 8
REMARK H PARENT
REMARK Flexibility Score: inf
ROOT
ATOM      1  C   UNL     1     173.618 159.382 151.159  1.00  0.00     0.006 C 
ENDROOT
BRANCH   1   2
ATOM      2  C   UNL     1     172.755 158.169 150.777  1.00  0.00     0.053 C 
BRANCH   2   3
ATOM      3  C   UNL     1     171.644 157.939 151.756  1.00  0.00     0.041 C 
ATOM      4  O   UNL     1     171.750 157.043 152.634  1.00  0.00    -0.550 OA
ATOM      5  O   UNL     1     170.480 158.693 151.677  1.00  0.00    -0.550 OA
ENDBRANCH   2   3
ENDBRANCH   1   2
BRANCH   1   6
ATOM      6  C   UNL     1     173.591 160.527 150.130  1.00  0.00     0.000 C 
BRANCH   6   7
ATOM      7  C   UNL     1     174.985 161.112 149.856  1.00  0.00    -0.003 C 
ATOM      8  C   UNL     1     176.044 160.016 149.822  1.00  0.00     0.004 C 
ENDBRANCH   6   7
ENDBRANCH   1   6
TORSDOF 4
ENDMDL
MODEL 8
REMARK VINA RESULT:    -3.046      1.260      1.992
REMARK INTER + INTRA:          -3.983
REMARK INTER:                  -3.845
REMARK INTRA:                  -0.139
REMARK UNBOUND:                -0.225
REMARK SMILES CCCCCC(=O)[O-]
REMARK SMILES IDX 4 1 5 2 6 3 7 4 8 5 3 6 2 7 1 8
REMARK H PARENT
REMARK Flexibility Score: inf
ROOT
ATOM      1  C   UNL     1     174.674 171.652 151.643  1.00  0.00     0.006 C 
ENDROOT
BRANCH   1   2
ATOM      2  C   UNL     1     174.067 172.683 152.606  1.00  0.00     0.053 C 
BRANCH   2   3
ATOM      3  C   UNL     1     175.091 173.249 153.542  1.00  0.00     0.041 C 
ATOM      4  O   UNL     1     175.830 172.480 154.211  1.00  0.00    -0.550 OA
ATOM      5  O   UNL     1     175.206 174.625 153.699  1.00  0.00    -0.550 OA
ENDBRANCH   2   3
ENDBRANCH   1   2
BRANCH   1   6
ATOM      6  C   UNL     1     174.653 172.077 150.163  1.00  0.00     0.000 C 
BRANCH   6   7
ATOM      7  C   UNL     1     174.293 173.559 149.975  1.00  0.00    -0.003 C 
ATOM      8  C   UNL     1     175.547 174.420 149.870  1.00  0.00     0.004 C 
ENDBRANCH   6   7
ENDBRANCH   1   6
TORSDOF 4
ENDMDL
