MODEL 1
REMARK VINA RESULT:    -2.578      0.000      0.000
REMARK INTER + INTRA:          -4.354
REMARK INTER:                  -3.934
REMARK INTRA:                  -0.420
REMARK UNBOUND:                -0.420
REMARK SMILES CC1=CCC[C@H](C)C(=O)C[C@H](C(C)C)C(=O)C1
REMARK SMILES IDX 8 1 9 2 6 3 7 4 5 5 4 6 3 7 2 8 1 9 10 11 11 12 15 13 16 14
REMARK SMILES IDX 17 15 12 17 13 18 14 19
REMARK H PARENT
REMARK Flexibility Score: 70.00
ROOT
ATOM      1  C   UNL     1     201.351 150.570 165.403  1.00  0.00     0.136 C 
ATOM      2  O   UNL     1     201.893 151.118 164.453  1.00  0.00    -0.299 OA
ENDROOT
BRANCH   1   3
ATOM      3  C   UNL     1     199.835 150.572 165.501  1.00  0.00     0.053 C 
ATOM      4  C   UNL     1     199.314 151.993 165.758  1.00  0.00     0.016 C 
BRANCH   3   5
ATOM      5  C   UNL     1     199.201 149.976 164.225  1.00  0.00     0.015 C 
BRANCH   5   6
ATOM      6  C   UNL     1     199.153 148.436 164.278  1.00  0.00     0.028 C 
BRANCH   6   7
ATOM      7  C   UNL     1     200.235 147.783 163.455  1.00  0.00    -0.028 C 
ATOM      8  C   UNL     1     201.135 146.888 163.927  1.00  0.00    -0.070 CG0
ATOM      9  C   UNL     1     202.089 146.265 162.938  1.00  0.00     0.039 C 
ATOM     10  G   UNL     1     201.254 146.517 165.398  1.00  0.00     0.000 G0
ENDBRANCH   6   7
ENDBRANCH   5   6
ENDBRANCH   3   5
ENDBRANCH   1   3
BRANCH   1  11
ATOM     11  C   UNL     1     202.202 149.944 166.486  1.00  0.00     0.087 C 
BRANCH  11  12
ATOM     12  C   UNL     1     201.690 148.579 167.031  1.00  0.00     0.066 C 
BRANCH  12  13
ATOM     13  C   UNL     1     202.210 147.413 166.196  1.00  0.00     0.140 C 
ATOM     14  O   UNL     1     203.418 147.245 166.108  1.00  0.00    -0.299 OA
BRANCH  13  15
ATOM     15  C   UNL     1     201.279 146.508 165.416  1.00  0.00     0.106 CG0
ATOM     16  G   UNL     1     201.138 146.890 163.949  1.00  0.00     0.000 G0
ENDBRANCH  13  15
ENDBRANCH  12  13
BRANCH  12  17
ATOM     17  C   UNL     1     201.895 148.348 168.565  1.00  0.00    -0.006 C 
ATOM     18  C   UNL     1     201.507 149.579 169.404  1.00  0.00     0.008 C 
ATOM     19  C   UNL     1     201.067 147.143 169.052  1.00  0.00     0.008 C 
ENDBRANCH  12  17
ENDBRANCH  11  12
ENDBRANCH   1  11
TORSDOF 1
ENDMDL
MODEL 2
REMARK VINA RESULT:    -2.564      3.511      5.611
REMARK INTER + INTRA:          -4.333
REMARK INTER:                  -3.999
REMARK INTRA:                  -0.334
REMARK UNBOUND:                -0.420
REMARK SMILES CC1=CCC[C@H](C)C(=O)C[C@H](C(C)C)C(=O)C1
REMARK SMILES IDX 8 1 9 2 6 3 7 4 5 5 4 6 3 7 2 8 1 9 10 11 11 12 15 13 16 14
REMARK SMILES IDX 17 15 12 17 13 18 14 19
REMARK H PARENT
REMARK Flexibility Score: 70.00
ROOT
ATOM      1  C   UNL     1     199.951 153.460 165.340  1.00  0.00     0.136 C 
ATOM      2  O   UNL     1     199.567 154.171 166.258  1.00  0.00    -0.299 OA
ENDROOT
BRANCH   1   3
ATOM      3  C   UNL     1     199.369 152.065 165.181  1.00  0.00     0.053 C 
ATOM      4  C   UNL     1     199.679 151.508 163.784  1.00  0.00     0.016 C 
BRANCH   3   5
ATOM      5  C   UNL     1     199.899 151.120 166.281  1.00  0.00     0.015 C 
BRANCH   5   6
ATOM      6  C   UNL     1     200.924 150.113 165.721  1.00  0.00     0.028 C 
BRANCH   6   7
ATOM      7  C   UNL     1     202.290 150.255 166.341  1.00  0.00    -0.028 C 
ATOM      8  C   UNL     1     203.295 151.013 165.842  1.00  0.00    -0.070 CG0
ATOM      9  C   UNL     1     204.567 151.111 166.646  1.00  0.00     0.039 C 
ATOM     10  G   UNL     1     203.216 151.728 164.500  1.00  0.00     0.000 G0
ENDBRANCH   6   7
ENDBRANCH   5   6
ENDBRANCH   3   5
ENDBRANCH   1   3
BRANCH   1  11
ATOM     11  C   UNL     1     201.033 153.964 164.410  1.00  0.00     0.087 C 
BRANCH  11  12
ATOM     12  C   UNL     1     202.425 154.190 165.068  1.00  0.00     0.066 C 
BRANCH  12  13
ATOM     13  C   UNL     1     203.464 153.213 164.526  1.00  0.00     0.140 C 
ATOM     14  O   UNL     1     204.505 153.658 164.064  1.00  0.00    -0.299 OA
BRANCH  13  15
ATOM     15  C   UNL     1     203.213 151.720 164.477  1.00  0.00     0.106 CG0
ATOM     16  G   UNL     1     203.314 151.036 165.833  1.00  0.00     0.000 G0
ENDBRANCH  13  15
ENDBRANCH  12  13
BRANCH  12  17
ATOM     17  C   UNL     1     202.940 155.667 165.062  1.00  0.00    -0.006 C 
ATOM     18  C   UNL     1     201.803 156.687 164.870  1.00  0.00     0.008 C 
ATOM     19  C   UNL     1     203.676 155.995 166.375  1.00  0.00     0.008 C 
ENDBRANCH  12  17
ENDBRANCH  11  12
ENDBRANCH   1  11
TORSDOF 1
ENDMDL
MODEL 3
REMARK VINA RESULT:    -2.383      2.305      4.524
REMARK INTER + INTRA:          -4.057
REMARK INTER:                  -3.639
REMARK INTRA:                  -0.419
REMARK UNBOUND:                -0.420
REMARK SMILES CC1=CCC[C@H](C)C(=O)C[C@H](C(C)C)C(=O)C1
REMARK SMILES IDX 8 1 9 2 6 3 7 4 5 5 4 6 3 7 2 8 1 9 10 11 11 12 15 13 16 14
REMARK SMILES IDX 17 15 12 17 13 18 14 19
REMARK H PARENT
REMARK Flexibility Score: 70.00
ROOT
ATOM      1  C   UNL     1     199.317 150.457 164.768  1.00  0.00     0.136 C 
ATOM      2  O   UNL     1     199.089 150.733 165.937  1.00  0.00    -0.299 OA
ENDROOT
BRANCH   1   3
ATOM      3  C   UNL     1     200.520 151.075 164.076  1.00  0.00     0.053 C 
ATOM      4  C   UNL     1     200.325 152.588 163.906  1.00  0.00     0.016 C 
BRANCH   3   5
ATOM      5  C   UNL     1     201.818 150.772 164.856  1.00  0.00     0.015 C 
BRANCH   5   6
ATOM      6  C   UNL     1     202.456 149.442 164.408  1.00  0.00     0.028 C 
BRANCH   6   7
ATOM      7  C   UNL     1     202.096 148.284 165.303  1.00  0.00    -0.028 C 
ATOM      8  C   UNL     1     201.456 147.160 164.900  1.00  0.00    -0.070 CG0
ATOM      9  C   UNL     1     201.261 146.061 165.915  1.00  0.00     0.039 C 
ATOM     10  G   UNL     1     200.894 146.975 163.497  1.00  0.00     0.000 G0
ENDBRANCH   6   7
ENDBRANCH   5   6
ENDBRANCH   3   5
ENDBRANCH   1   3
BRANCH   1  11
ATOM     11  C   UNL     1     198.369 149.545 164.019  1.00  0.00     0.087 C 
BRANCH  11  12
ATOM     12  C   UNL     1     199.010 148.719 162.866  1.00  0.00     0.066 C 
BRANCH  12  13
ATOM     13  C   UNL     1     199.437 147.334 163.342  1.00  0.00     0.140 C 
ATOM     14  O   UNL     1     198.574 146.530 163.661  1.00  0.00    -0.299 OA
BRANCH  13  15
ATOM     15  C   UNL     1     200.895 146.954 163.498  1.00  0.00     0.106 CG0
ATOM     16  G   UNL     1     201.433 147.157 164.908  1.00  0.00     0.000 G0
ENDBRANCH  13  15
ENDBRANCH  12  13
BRANCH  12  17
ATOM     17  C   UNL     1     198.183 148.662 161.539  1.00  0.00    -0.006 C 
ATOM     18  C   UNL     1     197.104 149.758 161.470  1.00  0.00     0.008 C 
ATOM     19  C   UNL     1     199.105 148.803 160.313  1.00  0.00     0.008 C 
ENDBRANCH  12  17
ENDBRANCH  11  12
ENDBRANCH   1  11
TORSDOF 1
ENDMDL
MODEL 4
REMARK VINA RESULT:    -2.369      8.636     10.861
REMARK INTER + INTRA:          -4.035
REMARK INTER:                  -3.519
REMARK INTRA:                  -0.516
REMARK UNBOUND:                -0.420
REMARK SMILES CC1=CCC[C@H](C)C(=O)C[C@H](C(C)C)C(=O)C1
REMARK SMILES IDX 8 1 9 2 6 3 7 4 5 5 4 6 3 7 2 8 1 9 10 11 11 12 15 13 16 14
REMARK SMILES IDX 17 15 12 17 13 18 14 19
REMARK H PARENT
REMARK Flexibility Score: 70.00
ROOT
ATOM      1  C   UNL     1     200.821 158.534 162.115  1.00  0.00     0.136 C 
ATOM      2  O   UNL     1     199.680 158.591 161.680  1.00  0.00    -0.299 OA
ENDROOT
BRANCH   1   3
ATOM      3  C   UNL     1     201.058 158.012 163.523  1.00  0.00     0.053 C 
ATOM      4  C   UNL     1     200.180 158.767 164.531  1.00  0.00     0.016 C 
BRANCH   3   5
ATOM      5  C   UNL     1     200.797 156.492 163.597  1.00  0.00     0.015 C 
BRANCH   5   6
ATOM      6  C   UNL     1     201.766 155.703 162.695  1.00  0.00     0.028 C 
BRANCH   6   7
ATOM      7  C   UNL     1     203.153 155.589 163.276  1.00  0.00    -0.028 C 
ATOM      8  C   UNL     1     204.254 156.205 162.785  1.00  0.00    -0.070 CG0
ATOM      9  C   UNL     1     205.544 156.053 163.552  1.00  0.00     0.039 C 
ATOM     10  G   UNL     1     204.258 157.001 161.487  1.00  0.00     0.000 G0
ENDBRANCH   6   7
ENDBRANCH   5   6
ENDBRANCH   3   5
ENDBRANCH   1   3
BRANCH   1  11
ATOM     11  C   UNL     1     201.969 159.028 161.263  1.00  0.00     0.087 C 
BRANCH  11  12
ATOM     12  C   UNL     1     203.260 159.414 162.042  1.00  0.00     0.066 C 
BRANCH  12  13
ATOM     13  C   UNL     1     204.427 158.502 161.676  1.00  0.00     0.140 C 
ATOM     14  O   UNL     1     205.525 159.002 161.479  1.00  0.00    -0.299 OA
BRANCH  13  15
ATOM     15  C   UNL     1     204.248 157.011 161.477  1.00  0.00     0.106 CG0
ATOM     16  G   UNL     1     204.282 156.211 162.772  1.00  0.00     0.000 G0
ENDBRANCH  13  15
ENDBRANCH  12  13
BRANCH  12  17
ATOM     17  C   UNL     1     203.651 160.928 161.989  1.00  0.00    -0.006 C 
ATOM     18  C   UNL     1     202.864 161.702 160.916  1.00  0.00     0.008 C 
ATOM     19  C   UNL     1     203.414 161.603 163.353  1.00  0.00     0.008 C 
ENDBRANCH  12  17
ENDBRANCH  11  12
ENDBRANCH   1  11
TORSDOF 1
ENDMDL
MODEL 5
REMARK VINA RESULT:    -2.365      3.052      4.896
REMARK INTER + INTRA:          -4.029
REMARK INTER:                  -3.781
REMARK INTRA:                  -0.248
REMARK UNBOUND:                -0.420
REMARK SMILES CC1=CCC[C@H](C)C(=O)C[C@H](C(C)C)C(=O)C1
REMARK SMILES IDX 8 1 9 2 6 3 7 4 5 5 4 6 3 7 2 8 1 9 10 11 11 12 15 13 16 14
REMARK SMILES IDX 17 15 12 17 13 18 14 19
REMARK H PARENT
REMARK Flexibility Score: 70.00
ROOT
ATOM      1  C   UNL     1     201.056 153.126 163.902  1.00  0.00     0.136 C 
ATOM      2  O   UNL     1     200.375 153.248 162.894  1.00  0.00    -0.299 OA
ENDROOT
BRANCH   1   3
ATOM      3  C   UNL     1     200.527 153.646 165.228  1.00  0.00     0.053 C 
ATOM      4  C   UNL     1     199.851 155.012 165.039  1.00  0.00     0.016 C 
BRANCH   3   5
ATOM      5  C   UNL     1     199.552 152.633 165.866  1.00  0.00     0.015 C 
BRANCH   5   6
ATOM      6  C   UNL     1     199.890 151.184 165.462  1.00  0.00     0.028 C 
BRANCH   6   7
ATOM      7  C   UNL     1     200.471 150.376 166.594  1.00  0.00    -0.028 C 
ATOM      8  C   UNL     1     201.767 149.995 166.691  1.00  0.00    -0.070 CG0
ATOM      9  C   UNL     1     202.194 149.269 167.943  1.00  0.00     0.039 C 
ATOM     10  G   UNL     1     202.791 150.227 165.589  1.00  0.00     0.000 G0
ENDBRANCH   6   7
ENDBRANCH   5   6
ENDBRANCH   3   5
ENDBRANCH   1   3
BRANCH   1  11
ATOM     11  C   UNL     1     202.432 152.504 163.801  1.00  0.00     0.087 C 
BRANCH  11  12
ATOM     12  C   UNL     1     203.361 152.737 165.028  1.00  0.00     0.066 C 
BRANCH  12  13
ATOM     13  C   UNL     1     203.657 151.432 165.760  1.00  0.00     0.140 C 
ATOM     14  O   UNL     1     204.653 151.366 166.465  1.00  0.00    -0.299 OA
BRANCH  13  15
ATOM     15  C   UNL     1     202.797 150.198 165.579  1.00  0.00     0.106 CG0
ATOM     16  G   UNL     1     201.765 150.003 166.683  1.00  0.00     0.000 G0
ENDBRANCH  13  15
ENDBRANCH  12  13
BRANCH  12  17
ATOM     17  C   UNL     1     204.658 153.564 164.742  1.00  0.00    -0.006 C 
ATOM     18  C   UNL     1     205.132 153.432 163.283  1.00  0.00     0.008 C 
ATOM     19  C   UNL     1     204.434 155.057 165.051  1.00  0.00     0.008 C 
ENDBRANCH  12  17
ENDBRANCH  11  12
ENDBRANCH   1  11
TORSDOF 1
ENDMDL
MODEL 6
REMARK VINA RESULT:    -2.310     12.409     14.045
REMARK INTER + INTRA:          -3.946
REMARK INTER:                  -3.413
REMARK INTRA:                  -0.533
REMARK UNBOUND:                -0.420
REMARK SMILES CC1=CCC[C@H](C)C(=O)C[C@H](C(C)C)C(=O)C1
REMARK SMILES IDX 8 1 9 2 6 3 7 4 5 5 4 6 3 7 2 8 1 9 10 11 11 12 15 13 16 14
REMARK SMILES IDX 17 15 12 17 13 18 14 19
REMARK H PARENT
REMARK Flexibility Score: 70.00
ROOT
ATOM      1  C   UNL     1     213.697 153.229 171.491  1.00  0.00     0.136 C 
ATOM      2  O   UNL     1     213.702 154.075 172.374  1.00  0.00    -0.299 OA
ENDROOT
BRANCH   1   3
ATOM      3  C   UNL     1     215.001 152.859 170.805  1.00  0.00     0.053 C 
ATOM      4  C   UNL     1     215.714 154.117 170.291  1.00  0.00     0.016 C 
BRANCH   3   5
ATOM      5  C   UNL     1     215.915 152.059 171.758  1.00  0.00     0.015 C 
BRANCH   5   6
ATOM      6  C   UNL     1     215.246 150.751 172.226  1.00  0.00     0.028 C 
BRANCH   6   7
ATOM      7  C   UNL     1     215.293 149.659 171.187  1.00  0.00    -0.028 C 
ATOM      8  C   UNL     1     214.215 149.150 170.546  1.00  0.00    -0.070 CG0
ATOM      9  C   UNL     1     214.459 148.125 169.467  1.00  0.00     0.039 C 
ATOM     10  G   UNL     1     212.781 149.530 170.890  1.00  0.00     0.000 G0
ENDBRANCH   6   7
ENDBRANCH   5   6
ENDBRANCH   3   5
ENDBRANCH   1   3
BRANCH   1  11
ATOM     11  C   UNL     1     212.386 152.604 171.067  1.00  0.00     0.087 C 
BRANCH  11  12
ATOM     12  C   UNL     1     212.406 151.887 169.686  1.00  0.00     0.066 C 
BRANCH  12  13
ATOM     13  C   UNL     1     212.099 150.399 169.824  1.00  0.00     0.140 C 
ATOM     14  O   UNL     1     211.246 149.905 169.101  1.00  0.00    -0.299 OA
BRANCH  13  15
ATOM     15  C   UNL     1     212.764 149.537 170.878  1.00  0.00     0.106 CG0
ATOM     16  G   UNL     1     214.196 149.146 170.536  1.00  0.00     0.000 G0
ENDBRANCH  13  15
ENDBRANCH  12  13
BRANCH  12  17
ATOM     17  C   UNL     1     211.555 152.566 168.562  1.00  0.00    -0.006 C 
ATOM     18  C   UNL     1     210.838 153.837 169.053  1.00  0.00     0.008 C 
ATOM     19  C   UNL     1     212.438 152.936 167.355  1.00  0.00     0.008 C 
ENDBRANCH  12  17
ENDBRANCH  11  12
ENDBRANCH   1  11
TORSDOF 1
ENDMDL
MODEL 7
REMARK VINA RESULT:    -2.265      3.297      4.365
REMARK INTER + INTRA:          -3.877
REMARK INTER:                  -3.495
REMARK INTRA:                  -0.382
REMARK UNBOUND:                -0.420
REMARK SMILES CC1=CCC[C@H](C)C(=O)C[C@H](C(C)C)C(=O)C1
REMARK SMILES IDX 8 1 9 2 6 3 7 4 5 5 4 6 3 7 2 8 1 9 10 11 11 12 15 13 16 14
REMARK SMILES IDX 17 15 12 17 13 18 14 19
REMARK H PARENT
REMARK Flexibility Score: 70.00
ROOT
ATOM      1  C   UNL     1     201.093 150.822 161.416  1.00  0.00     0.136 C 
ATOM      2  O   UNL     1     202.000 150.857 160.597  1.00  0.00    -0.299 OA
ENDROOT
BRANCH   1   3
ATOM      3  C   UNL     1     199.773 151.505 161.099  1.00  0.00     0.053 C 
ATOM      4  C   UNL     1     199.998 152.702 160.164  1.00  0.00     0.016 C 
BRANCH   3   5
ATOM      5  C   UNL     1     198.772 150.505 160.480  1.00  0.00     0.015 C 
BRANCH   5   6
ATOM      6  C   UNL     1     197.628 150.166 161.456  1.00  0.00     0.028 C 
BRANCH   6   7
ATOM      7  C   UNL     1     197.604 148.713 161.855  1.00  0.00    -0.028 C 
ATOM      8  C   UNL     1     197.768 148.251 163.118  1.00  0.00    -0.070 CG0
ATOM      9  C   UNL     1     197.620 146.767 163.348  1.00  0.00     0.039 C 
ATOM     10  G   UNL     1     198.131 149.146 164.295  1.00  0.00     0.000 G0
ENDBRANCH   6   7
ENDBRANCH   5   6
ENDBRANCH   3   5
ENDBRANCH   1   3
BRANCH   1  11
ATOM     11  C   UNL     1     201.319 150.143 162.749  1.00  0.00     0.087 C 
BRANCH  11  12
ATOM     12  C   UNL     1     200.346 150.567 163.887  1.00  0.00     0.066 C 
BRANCH  12  13
ATOM     13  C   UNL     1     199.622 149.363 164.481  1.00  0.00     0.140 C 
ATOM     14  O   UNL     1     200.276 148.516 165.073  1.00  0.00    -0.299 OA
BRANCH  13  15
ATOM     15  C   UNL     1     198.134 149.150 164.295  1.00  0.00     0.106 CG0
ATOM     16  G   UNL     1     197.786 148.247 163.120  1.00  0.00     0.000 G0
ENDBRANCH  13  15
ENDBRANCH  12  13
BRANCH  12  17
ATOM     17  C   UNL     1     200.962 151.491 164.990  1.00  0.00    -0.006 C 
ATOM     18  C   UNL     1     202.457 151.773 164.754  1.00  0.00     0.008 C 
ATOM     19  C   UNL     1     200.214 152.836 165.057  1.00  0.00     0.008 C 
ENDBRANCH  12  17
ENDBRANCH  11  12
ENDBRANCH   1  11
TORSDOF 1
ENDMDL
MODEL 8
REMARK VINA RESULT:    -2.264     10.617     12.330
REMARK INTER + INTRA:          -3.875
REMARK INTER:                  -3.454
REMARK INTRA:                  -0.421
REMARK UNBOUND:                -0.420
REMARK SMILES CC1=CCC[C@H](C)C(=O)C[C@H](C(C)C)C(=O)C1
REMARK SMILES IDX 8 1 9 2 6 3 7 4 5 5 4 6 3 7 2 8 1 9 10 11 11 12 15 13 16 14
REMARK SMILES IDX 17 15 12 17 13 18 14 19
REMARK H PARENT
REMARK Flexibility Score: 70.00
ROOT
ATOM      1  C   UNL     1     212.448 155.472 168.227  1.00  0.00     0.136 C 
ATOM      2  O   UNL     1     213.473 155.970 167.783  1.00  0.00    -0.299 OA
ENDROOT
BRANCH   1   3
ATOM      3  C   UNL     1     212.539 154.246 169.120  1.00  0.00     0.053 C 
ATOM      4  C   UNL     1     211.295 154.139 170.014  1.00  0.00     0.016 C 
BRANCH   3   5
ATOM      5  C   UNL     1     212.722 152.965 168.277  1.00  0.00     0.015 C 
BRANCH   5   6
ATOM      6  C   UNL     1     211.381 152.247 168.033  1.00  0.00     0.028 C 
BRANCH   6   7
ATOM      7  C   UNL     1     211.064 152.068 166.570  1.00  0.00    -0.028 C 
ATOM      8  C   UNL     1     210.232 152.860 165.853  1.00  0.00    -0.070 CG0
ATOM      9  C   UNL     1     210.106 152.589 164.374  1.00  0.00     0.039 C 
ATOM     10  G   UNL     1     209.395 153.971 166.471  1.00  0.00     0.000 G0
ENDBRANCH   6   7
ENDBRANCH   5   6
ENDBRANCH   3   5
ENDBRANCH   1   3
BRANCH   1  11
ATOM     11  C   UNL     1     211.107 156.057 167.839  1.00  0.00     0.087 C 
BRANCH  11  12
ATOM     12  C   UNL     1     210.851 156.180 166.309  1.00  0.00     0.066 C 
BRANCH  12  13
ATOM     13  C   UNL     1     209.651 155.345 165.875  1.00  0.00     0.140 C 
ATOM     14  O   UNL     1     208.860 155.823 165.074  1.00  0.00    -0.299 OA
BRANCH  13  15
ATOM     15  C   UNL     1     209.372 153.976 166.460  1.00  0.00     0.106 CG0
ATOM     16  G   UNL     1     210.229 152.868 165.865  1.00  0.00     0.000 G0
ENDBRANCH  13  15
ENDBRANCH  12  13
BRANCH  12  17
ATOM     17  C   UNL     1     210.790 157.641 165.752  1.00  0.00    -0.006 C 
ATOM     18  C   UNL     1     210.454 158.674 166.843  1.00  0.00     0.008 C 
ATOM     19  C   UNL     1     212.129 158.034 165.099  1.00  0.00     0.008 C 
ENDBRANCH  12  17
ENDBRANCH  11  12
ENDBRANCH   1  11
TORSDOF 1
ENDMDL
MODEL 9
REMARK VINA RESULT:    -2.099     15.086     16.299
REMARK INTER + INTRA:          -3.624
REMARK INTER:                  -3.467
REMARK INTRA:                  -0.157
REMARK UNBOUND:                -0.420
REMARK SMILES CC1=CCC[C@H](C)C(=O)C[C@H](C(C)C)C(=O)C1
REMARK SMILES IDX 8 1 9 2 6 3 7 4 5 5 4 6 3 7 2 8 1 9 10 11 11 12 15 13 16 14
REMARK SMILES IDX 17 15 12 17 13 18 14 19
REMARK H PARENT
REMARK Flexibility Score: 70.00
ROOT
ATOM      1  C   UNL     1     212.725 160.473 162.102  1.00  0.00     0.136 C 
ATOM      2  O   UNL     1     213.027 161.649 162.250  1.00  0.00    -0.299 OA
ENDROOT
BRANCH   1   3
ATOM      3  C   UNL     1     212.119 160.017 160.786  1.00  0.00     0.053 C 
ATOM      4  C   UNL     1     210.625 160.369 160.731  1.00  0.00     0.016 C 
BRANCH   3   5
ATOM      5  C   UNL     1     212.874 160.637 159.589  1.00  0.00     0.015 C 
BRANCH   5   6
ATOM      6  C   UNL     1     214.186 159.884 159.291  1.00  0.00     0.028 C 
BRANCH   6   7
ATOM      7  C   UNL     1     213.990 158.398 159.131  1.00  0.00    -0.028 C 
ATOM      8  C   UNL     1     214.328 157.466 160.053  1.00  0.00    -0.070 CG0
ATOM      9  C   UNL     1     213.972 156.029 159.761  1.00  0.00     0.039 C 
ATOM     10  G   UNL     1     215.080 157.792 161.335  1.00  0.00     0.000 G0
ENDBRANCH   6   7
ENDBRANCH   5   6
ENDBRANCH   3   5
ENDBRANCH   1   3
BRANCH   1  11
ATOM     11  C   UNL     1     212.917 159.506 163.249  1.00  0.00     0.087 C 
BRANCH  11  12
ATOM     12  C   UNL     1     212.901 157.999 162.860  1.00  0.00     0.066 C 
BRANCH  12  13
ATOM     13  C   UNL     1     214.310 157.472 162.605  1.00  0.00     0.140 C 
ATOM     14  O   UNL     1     214.860 156.817 163.479  1.00  0.00    -0.299 OA
BRANCH  13  15
ATOM     15  C   UNL     1     215.072 157.801 161.338  1.00  0.00     0.106 CG0
ATOM     16  G   UNL     1     214.313 157.461 160.062  1.00  0.00     0.000 G0
ENDBRANCH  13  15
ENDBRANCH  12  13
BRANCH  12  17
ATOM     17  C   UNL     1     212.083 157.066 163.814  1.00  0.00    -0.006 C 
ATOM     18  C   UNL     1     210.736 157.686 164.231  1.00  0.00     0.008 C 
ATOM     19  C   UNL     1     211.812 155.704 163.148  1.00  0.00     0.008 C 
ENDBRANCH  12  17
ENDBRANCH  11  12
ENDBRANCH   1  11
TORSDOF 1
ENDMDL
