MODEL 1
REMARK VINA RESULT:    -4.556      0.000      0.000
REMARK INTER + INTRA:          -4.757
REMARK INTER:                  -5.621
REMARK INTRA:                   0.864
REMARK UNBOUND:                 0.864
REMARK SMILES CC1=CC=CC(C)(C)CC1=O
REMARK SMILES IDX 1 1 2 2 3 3 10 4 11 5 9 6 4 8 5 9 6 10 7 11 8 12
REMARK H PARENT
REMARK Flexibility Score: 80.00
ROOT
ATOM      1  C   UNL     1       0.239 -12.503  31.504  1.00  0.00     0.048 C 
ATOM      2  C   UNL     1      -0.956 -12.963  30.702  1.00  0.00    -0.008 C 
ATOM      3  C   UNL     1      -2.155 -13.004  31.323  1.00  0.00     0.007 C 
ENDROOT
BRANCH   2   4
ATOM      4  C   UNL     1      -0.696 -13.387  29.300  1.00  0.00     0.159 C 
ATOM      5  O   UNL     1       0.470 -13.254  28.836  1.00  0.00    -0.295 OA
BRANCH   4   6
ATOM      6  C   UNL     1      -1.727 -14.004  28.404  1.00  0.00     0.091 CG0
ATOM      7  G   UNL     1      -3.036 -13.189  28.298  1.00  0.00     0.000 G0
ENDBRANCH   4   6
ENDBRANCH   2   4
BRANCH   3   8
ATOM      8  C   UNL     1      -3.482 -13.396  30.794  1.00  0.00    -0.003 C 
ATOM      9  C   UNL     1      -3.888 -13.456  29.521  1.00  0.00    -0.020 C 
BRANCH   9  10
ATOM     10  C   UNL     1      -3.038 -13.192  28.301  1.00  0.00    -0.010 CG0
ATOM     11  C   UNL     1      -2.786 -11.676  28.139  1.00  0.00     0.016 C 
ATOM     12  C   UNL     1      -3.815 -13.680  27.057  1.00  0.00     0.016 C 
ATOM     13  G   UNL     1      -1.729 -14.008  28.401  1.00  0.00     0.000 G0
ENDBRANCH   9  10
ENDBRANCH   3   8
TORSDOF 0
ENDMDL
MODEL 2
REMARK VINA RESULT:    -4.504      2.027      2.973
REMARK INTER + INTRA:          -4.693
REMARK INTER:                  -5.541
REMARK INTRA:                   0.849
REMARK UNBOUND:                 0.864
REMARK SMILES CC1=CC=CC(C)(C)CC1=O
REMARK SMILES IDX 1 1 2 2 3 3 10 4 11 5 9 6 4 8 5 9 6 10 7 11 8 12
REMARK H PARENT
REMARK Flexibility Score: 80.00
ROOT
ATOM      1  C   UNL     1      -4.836 -14.566  32.514  1.00  0.00     0.048 C 
ATOM      2  C   UNL     1      -4.561 -14.159  31.084  1.00  0.00    -0.008 C 
ATOM      3  C   UNL     1      -5.511 -14.422  30.161  1.00  0.00     0.007 C 
ENDROOT
BRANCH   2   4
ATOM      4  C   UNL     1      -3.235 -13.547  30.807  1.00  0.00     0.159 C 
ATOM      5  O   UNL     1      -2.467 -13.305  31.779  1.00  0.00    -0.295 OA
BRANCH   4   6
ATOM      6  C   UNL     1      -2.726 -13.230  29.433  1.00  0.00     0.091 CG0
ATOM      7  G   UNL     1      -3.699 -12.380  28.584  1.00  0.00     0.000 G0
ENDBRANCH   4   6
ENDBRANCH   2   4
BRANCH   3   8
ATOM      8  C   UNL     1      -5.525 -14.132  28.708  1.00  0.00    -0.003 C 
ATOM      9  C   UNL     1      -4.787 -13.248  28.026  1.00  0.00    -0.020 C 
BRANCH   9  10
ATOM     10  C   UNL     1      -3.696 -12.371  28.595  1.00  0.00    -0.010 CG0
ATOM     11  C   UNL     1      -4.311 -11.200  29.395  1.00  0.00     0.016 C 
ATOM     12  C   UNL     1      -2.894 -11.774  27.417  1.00  0.00     0.016 C 
ATOM     13  G   UNL     1      -2.735 -13.234  29.444  1.00  0.00     0.000 G0
ENDBRANCH   9  10
ENDBRANCH   3   8
TORSDOF 0
ENDMDL
MODEL 3
REMARK VINA RESULT:    -4.438      2.389      4.072
REMARK INTER + INTRA:          -4.611
REMARK INTER:                  -5.469
REMARK INTRA:                   0.857
REMARK UNBOUND:                 0.864
REMARK SMILES CC1=CC=CC(C)(C)CC1=O
REMARK SMILES IDX 1 1 2 2 3 3 10 4 11 5 9 6 4 8 5 9 6 10 7 11 8 12
REMARK H PARENT
REMARK Flexibility Score: 80.00
ROOT
ATOM      1  C   UNL     1      -6.439 -14.735  28.747  1.00  0.00     0.048 C 
ATOM      2  C   UNL     1      -5.115 -14.008  28.788  1.00  0.00    -0.008 C 
ATOM      3  C   UNL     1      -4.566 -13.632  27.613  1.00  0.00     0.007 C 
ENDROOT
BRANCH   2   4
ATOM      4  C   UNL     1      -4.500 -13.814  30.128  1.00  0.00     0.159 C 
ATOM      5  O   UNL     1      -5.142 -14.191  31.147  1.00  0.00    -0.295 OA
BRANCH   4   6
ATOM      6  C   UNL     1      -3.137 -13.229  30.351  1.00  0.00     0.091 CG0
ATOM      7  G   UNL     1      -2.909 -11.878  29.636  1.00  0.00     0.000 G0
ENDBRANCH   4   6
ENDBRANCH   2   4
BRANCH   3   8
ATOM      8  C   UNL     1      -3.303 -12.905  27.347  1.00  0.00    -0.003 C 
ATOM      9  C   UNL     1      -2.592 -12.134  28.179  1.00  0.00    -0.020 C 
BRANCH   9  10
ATOM     10  C   UNL     1      -2.896 -11.882  29.637  1.00  0.00    -0.010 CG0
ATOM     11  C   UNL     1      -4.087 -10.906  29.776  1.00  0.00     0.016 C 
ATOM     12  C   UNL     1      -1.658 -11.216  30.280  1.00  0.00     0.016 C 
ATOM     13  G   UNL     1      -3.143 -13.230  30.351  1.00  0.00     0.000 G0
ENDBRANCH   9  10
ENDBRANCH   3   8
TORSDOF 0
ENDMDL
MODEL 4
REMARK VINA RESULT:    -4.327      2.485      3.408
REMARK INTER + INTRA:          -4.475
REMARK INTER:                  -5.320
REMARK INTRA:                   0.845
REMARK UNBOUND:                 0.864
REMARK SMILES CC1=CC=CC(C)(C)CC1=O
REMARK SMILES IDX 1 1 2 2 3 3 10 4 11 5 9 6 4 8 5 9 6 10 7 11 8 12
REMARK H PARENT
REMARK Flexibility Score: 80.00
ROOT
ATOM      1  C   UNL     1      -5.001 -14.826  32.153  1.00  0.00     0.048 C 
ATOM      2  C   UNL     1      -4.503 -13.736  31.232  1.00  0.00    -0.008 C 
ATOM      3  C   UNL     1      -3.681 -12.798  31.751  1.00  0.00     0.007 C 
ENDROOT
BRANCH   2   4
ATOM      4  C   UNL     1      -5.009 -13.760  29.834  1.00  0.00     0.159 C 
ATOM      5  O   UNL     1      -5.745 -14.720  29.475  1.00  0.00    -0.295 OA
BRANCH   4   6
ATOM      6  C   UNL     1      -4.731 -12.690  28.821  1.00  0.00     0.091 CG0
ATOM      7  G   UNL     1      -3.234 -12.336  28.675  1.00  0.00     0.000 G0
ENDBRANCH   4   6
ENDBRANCH   2   4
BRANCH   3   8
ATOM      8  C   UNL     1      -3.037 -11.637  31.096  1.00  0.00    -0.003 C 
ATOM      9  C   UNL     1      -2.811 -11.432  29.793  1.00  0.00    -0.020 C 
BRANCH   9  10
ATOM     10  C   UNL     1      -3.235 -12.339  28.663  1.00  0.00    -0.010 CG0
ATOM     11  C   UNL     1      -2.325 -13.587  28.605  1.00  0.00     0.016 C 
ATOM     12  C   UNL     1      -3.068 -11.566  27.335  1.00  0.00     0.016 C 
ATOM     13  G   UNL     1      -4.730 -12.698  28.825  1.00  0.00     0.000 G0
ENDBRANCH   9  10
ENDBRANCH   3   8
TORSDOF 0
ENDMDL
MODEL 5
REMARK VINA RESULT:    -4.282      2.024      3.771
REMARK INTER + INTRA:          -4.418
REMARK INTER:                  -5.253
REMARK INTRA:                   0.834
REMARK UNBOUND:                 0.864
REMARK SMILES CC1=CC=CC(C)(C)CC1=O
REMARK SMILES IDX 1 1 2 2 3 3 10 4 11 5 9 6 4 8 5 9 6 10 7 11 8 12
REMARK H PARENT
REMARK Flexibility Score: 80.00
ROOT
ATOM      1  C   UNL     1      -5.652 -13.934  28.250  1.00  0.00     0.048 C 
ATOM      2  C   UNL     1      -4.676 -13.382  29.263  1.00  0.00    -0.008 C 
ATOM      3  C   UNL     1      -4.634 -13.965  30.480  1.00  0.00     0.007 C 
ENDROOT
BRANCH   2   4
ATOM      4  C   UNL     1      -3.878 -12.199  28.846  1.00  0.00     0.159 C 
ATOM      5  O   UNL     1      -3.992 -11.781  27.661  1.00  0.00    -0.295 OA
BRANCH   4   6
ATOM      6  C   UNL     1      -2.964 -11.437  29.758  1.00  0.00     0.091 CG0
ATOM      7  G   UNL     1      -1.945 -12.323  30.510  1.00  0.00     0.000 G0
ENDBRANCH   4   6
ENDBRANCH   2   4
BRANCH   3   8
ATOM      8  C   UNL     1      -3.783 -13.652  31.651  1.00  0.00    -0.003 C 
ATOM      9  C   UNL     1      -2.626 -12.979  31.687  1.00  0.00    -0.020 C 
BRANCH   9  10
ATOM     10  C   UNL     1      -1.947 -12.314  30.514  1.00  0.00    -0.010 CG0
ATOM     11  C   UNL     1      -1.265 -13.372  29.617  1.00  0.00     0.016 C 
ATOM     12  C   UNL     1      -0.848 -11.375  31.061  1.00  0.00     0.016 C 
ATOM     13  G   UNL     1      -2.975 -11.454  29.745  1.00  0.00     0.000 G0
ENDBRANCH   9  10
ENDBRANCH   3   8
TORSDOF 0
ENDMDL
MODEL 6
REMARK VINA RESULT:    -4.170      1.895      3.044
REMARK INTER + INTRA:          -4.281
REMARK INTER:                  -5.128
REMARK INTRA:                   0.847
REMARK UNBOUND:                 0.864
REMARK SMILES CC1=CC=CC(C)(C)CC1=O
REMARK SMILES IDX 1 1 2 2 3 3 10 4 11 5 9 6 4 8 5 9 6 10 7 11 8 12
REMARK H PARENT
REMARK Flexibility Score: 80.00
ROOT
ATOM      1  C   UNL     1       0.166 -14.043  28.342  1.00  0.00     0.048 C 
ATOM      2  C   UNL     1      -0.647 -13.355  29.414  1.00  0.00    -0.008 C 
ATOM      3  C   UNL     1       0.013 -12.845  30.476  1.00  0.00     0.007 C 
ENDROOT
BRANCH   2   4
ATOM      4  C   UNL     1      -2.123 -13.348  29.232  1.00  0.00     0.159 C 
ATOM      5  O   UNL     1      -2.602 -13.835  28.171  1.00  0.00    -0.295 OA
BRANCH   4   6
ATOM      6  C   UNL     1      -3.093 -12.830  30.251  1.00  0.00     0.091 CG0
ATOM      7  G   UNL     1      -2.769 -11.407  30.761  1.00  0.00     0.000 G0
ENDBRANCH   4   6
ENDBRANCH   2   4
BRANCH   3   8
ATOM      8  C   UNL     1      -0.510 -12.118  31.656  1.00  0.00    -0.003 C 
ATOM      9  C   UNL     1      -1.673 -11.470  31.789  1.00  0.00    -0.020 C 
BRANCH   9  10
ATOM     10  C   UNL     1      -2.772 -11.391  30.756  1.00  0.00    -0.010 CG0
ATOM     11  C   UNL     1      -2.376 -10.415  29.625  1.00  0.00     0.016 C 
ATOM     12  C   UNL     1      -4.040 -10.835  31.442  1.00  0.00     0.016 C 
ATOM     13  G   UNL     1      -3.090 -12.811  30.235  1.00  0.00     0.000 G0
ENDBRANCH   9  10
ENDBRANCH   3   8
TORSDOF 0
ENDMDL
MODEL 7
REMARK VINA RESULT:    -4.115      1.623      2.433
REMARK INTER + INTRA:          -4.213
REMARK INTER:                  -5.064
REMARK INTRA:                   0.852
REMARK UNBOUND:                 0.864
REMARK SMILES CC1=CC=CC(C)(C)CC1=O
REMARK SMILES IDX 1 1 2 2 3 3 10 4 11 5 9 6 4 8 5 9 6 10 7 11 8 12
REMARK H PARENT
REMARK Flexibility Score: 80.00
ROOT
ATOM      1  C   UNL     1       0.453 -12.502  31.705  1.00  0.00     0.048 C 
ATOM      2  C   UNL     1      -0.576 -12.634  30.607  1.00  0.00    -0.008 C 
ATOM      3  C   UNL     1      -0.409 -13.622  29.701  1.00  0.00     0.007 C 
ENDROOT
BRANCH   2   4
ATOM      4  C   UNL     1      -1.665 -11.621  30.586  1.00  0.00     0.159 C 
ATOM      5  O   UNL     1      -1.714 -10.769  31.516  1.00  0.00    -0.295 OA
BRANCH   4   6
ATOM      6  C   UNL     1      -2.697 -11.518  29.503  1.00  0.00     0.091 CG0
ATOM      7  G   UNL     1      -3.420 -12.849  29.196  1.00  0.00     0.000 G0
ENDBRANCH   4   6
ENDBRANCH   2   4
BRANCH   3   8
ATOM      8  C   UNL     1      -1.250 -13.995  28.541  1.00  0.00    -0.003 C 
ATOM      9  C   UNL     1      -2.534 -13.697  28.311  1.00  0.00    -0.020 C 
BRANCH   9  10
ATOM     10  C   UNL     1      -3.418 -12.834  29.179  1.00  0.00    -0.010 CG0
ATOM     11  C   UNL     1      -3.851 -13.610  30.443  1.00  0.00     0.016 C 
ATOM     12  C   UNL     1      -4.691 -12.485  28.375  1.00  0.00     0.016 C 
ATOM     13  G   UNL     1      -2.682 -11.516  29.510  1.00  0.00     0.000 G0
ENDBRANCH   9  10
ENDBRANCH   3   8
TORSDOF 0
ENDMDL
MODEL 8
REMARK VINA RESULT:    -4.043      2.166      3.411
REMARK INTER + INTRA:          -4.125
REMARK INTER:                  -4.984
REMARK INTRA:                   0.859
REMARK UNBOUND:                 0.864
REMARK SMILES CC1=CC=CC(C)(C)CC1=O
REMARK SMILES IDX 1 1 2 2 3 3 10 4 11 5 9 6 4 8 5 9 6 10 7 11 8 12
REMARK H PARENT
REMARK Flexibility Score: 80.00
ROOT
ATOM      1  C   UNL     1      -0.098 -14.014  28.765  1.00  0.00     0.048 C 
ATOM      2  C   UNL     1      -0.996 -12.864  29.158  1.00  0.00    -0.008 C 
ATOM      3  C   UNL     1      -1.978 -12.509  28.301  1.00  0.00     0.007 C 
ENDROOT
BRANCH   2   4
ATOM      4  C   UNL     1      -0.685 -12.182  30.442  1.00  0.00     0.159 C 
ATOM      5  O   UNL     1       0.235 -12.651  31.167  1.00  0.00    -0.295 OA
BRANCH   4   6
ATOM      6  C   UNL     1      -1.371 -10.938  30.921  1.00  0.00     0.091 CG0
ATOM      7  G   UNL     1      -2.913 -11.036  30.933  1.00  0.00     0.000 G0
ENDBRANCH   4   6
ENDBRANCH   2   4
BRANCH   3   8
ATOM      8  C   UNL     1      -3.002 -11.446  28.422  1.00  0.00    -0.003 C 
ATOM      9  C   UNL     1      -3.438 -10.828  29.526  1.00  0.00    -0.020 C 
BRANCH   9  10
ATOM     10  C   UNL     1      -2.919 -11.041  30.929  1.00  0.00    -0.010 CG0
ATOM     11  C   UNL     1      -3.427 -12.388  31.490  1.00  0.00     0.016 C 
ATOM     12  C   UNL     1      -3.477  -9.912  31.825  1.00  0.00     0.016 C 
ATOM     13  G   UNL     1      -1.377 -10.937  30.927  1.00  0.00     0.000 G0
ENDBRANCH   9  10
ENDBRANCH   3   8
TORSDOF 0
ENDMDL
MODEL 9
REMARK VINA RESULT:    -4.018      1.744      3.552
REMARK INTER + INTRA:          -4.093
REMARK INTER:                  -4.936
REMARK INTRA:                   0.843
REMARK UNBOUND:                 0.864
REMARK SMILES CC1=CC=CC(C)(C)CC1=O
REMARK SMILES IDX 1 1 2 2 3 3 10 4 11 5 9 6 4 8 5 9 6 10 7 11 8 12
REMARK H PARENT
REMARK Flexibility Score: 80.00
ROOT
ATOM      1  C   UNL     1      -4.623 -14.235  27.405  1.00  0.00     0.048 C 
ATOM      2  C   UNL     1      -3.925 -13.235  28.297  1.00  0.00    -0.008 C 
ATOM      3  C   UNL     1      -4.663 -12.233  28.821  1.00  0.00     0.007 C 
ENDROOT
BRANCH   2   4
ATOM      4  C   UNL     1      -2.459 -13.411  28.479  1.00  0.00     0.159 C 
ATOM      5  O   UNL     1      -1.905 -14.421  27.963  1.00  0.00    -0.295 OA
BRANCH   4   6
ATOM      6  C   UNL     1      -1.580 -12.441  29.209  1.00  0.00     0.091 CG0
ATOM      7  G   UNL     1      -2.087 -12.073  30.622  1.00  0.00     0.000 G0
ENDBRANCH   4   6
ENDBRANCH   2   4
BRANCH   3   8
ATOM      8  C   UNL     1      -4.260 -11.131  29.724  1.00  0.00    -0.003 C 
ATOM      9  C   UNL     1      -3.184 -11.053  30.516  1.00  0.00    -0.020 C 
BRANCH   9  10
ATOM     10  C   UNL     1      -2.076 -12.074  30.617  1.00  0.00    -0.010 CG0
ATOM     11  C   UNL     1      -2.549 -13.301  31.429  1.00  0.00     0.016 C 
ATOM     12  C   UNL     1      -0.893 -11.430  31.375  1.00  0.00     0.016 C 
ATOM     13  G   UNL     1      -1.591 -12.448  29.198  1.00  0.00     0.000 G0
ENDBRANCH   9  10
ENDBRANCH   3   8
TORSDOF 0
ENDMDL
