MODEL 1
REMARK VINA RESULT:    15.814      0.000      0.000
REMARK INTER + INTRA:          16.383
REMARK INTER:                  16.739
REMARK INTRA:                  -0.356
REMARK UNBOUND:                -0.356
REMARK SMILES CC1=CC[C@]23[C@@H]([C@@H](C(C)C)CC[C@H]2C)[C@@H]13
REMARK SMILES IDX 14 1 13 2 12 3 11 4 7 5 6 6 5 7 15 8 2 9 3 10 4 11 1 12 8 13
REMARK SMILES IDX 9 14 10 15
REMARK H PARENT
REMARK Flexibility Score: inf
ROOT
ATOM      1  C   UNL     1       1.072   3.022  -9.335  1.00  0.00     0.008 C 
ATOM      2  C   UNL     1       1.445   4.309 -10.093  1.00  0.00    -0.007 C 
ATOM      3  C   UNL     1       2.103   5.386  -9.175  1.00  0.00     0.004 C 
ATOM      4  C   UNL     1       1.107   6.296  -8.389  1.00  0.00     0.004 C 
ATOM      5  C   UNL     1      -0.171   6.714  -9.185  1.00  0.00    -0.004 C 
ATOM      6  C   UNL     1      -0.715   5.401  -9.761  1.00  0.00     0.007 C 
ATOM      7  C   UNL     1       0.296   4.970 -10.883  1.00  0.00    -0.013 C 
ATOM      8  C   UNL     1      -1.214   4.865 -11.067  1.00  0.00     0.025 C 
ATOM      9  C   UNL     1      -1.563   5.881 -12.097  1.00  0.00    -0.073 C 
ATOM     10  C   UNL     1      -0.497   6.479 -12.600  1.00  0.00    -0.027 C 
ATOM     11  C   UNL     1       0.755   5.969 -11.982  1.00  0.00     0.035 C 
ATOM     12  C   UNL     1      -2.964   6.185 -12.529  1.00  0.00     0.039 C 
ENDROOT
BRANCH   5  13
ATOM     13  C   UNL     1      -1.239   7.376  -8.267  1.00  0.00    -0.014 C 
ATOM     14  C   UNL     1      -0.600   7.912  -6.974  1.00  0.00     0.007 C 
ATOM     15  C   UNL     1      -2.365   6.394  -7.903  1.00  0.00     0.007 C 
ENDBRANCH   5  13
TORSDOF 1
ENDMDL
