MODEL 1
REMARK VINA RESULT:    20.189      0.000      0.000
REMARK INTER + INTRA:          42.706
REMARK INTER:                  43.793
REMARK INTRA:                  -1.087
REMARK UNBOUND:                -1.087
REMARK SMILES CCCCCCCCCCCCCCCCCCCCCC(=O)[O-]
REMARK SMILES IDX 12 1 11 2 10 3 9 4 8 5 7 6 6 7 5 8 4 9 3 10 2 11 1 12 13 13
REMARK SMILES IDX 14 14 15 15 16 16 17 17 18 18 19 19 20 20 21 21 22 22 23 23
REMARK SMILES IDX 24 24
REMARK H PARENT
REMARK Flexibility Score: inf
ROOT
ATOM      1  C   UNL     1     -12.708  37.800 -12.999  1.00  0.00     0.000 C 
ENDROOT
BRANCH   1   2
ATOM      2  C   UNL     1     -11.326  38.322 -13.431  1.00  0.00     0.000 C 
BRANCH   2   3
ATOM      3  C   UNL     1     -10.818  39.549 -12.646  1.00  0.00     0.000 C 
BRANCH   3   4
ATOM      4  C   UNL     1     -11.926  40.560 -12.281  1.00  0.00    -0.000 C 
BRANCH   4   5
ATOM      5  C   UNL     1     -11.423  41.662 -11.331  1.00  0.00    -0.000 C 
BRANCH   5   6
ATOM      6  C   UNL     1     -11.334  41.189  -9.871  1.00  0.00    -0.000 C 
BRANCH   6   7
ATOM      7  C   UNL     1      -9.895  41.201  -9.334  1.00  0.00    -0.000 C 
BRANCH   7   8
ATOM      8  C   UNL     1      -9.828  41.887  -7.961  1.00  0.00    -0.000 C 
BRANCH   8   9
ATOM      9  C   UNL     1     -11.210  42.331  -7.447  1.00  0.00    -0.000 C 
BRANCH   9  10
ATOM     10  C   UNL     1     -11.699  41.606  -6.175  1.00  0.00    -0.000 C 
BRANCH  10  11
ATOM     11  C   UNL     1     -13.223  41.419  -6.076  1.00  0.00    -0.003 C 
ATOM     12  C   UNL     1     -13.948  41.732  -7.385  1.00  0.00     0.004 C 
ENDBRANCH  10  11
ENDBRANCH   9  10
ENDBRANCH   8   9
ENDBRANCH   7   8
ENDBRANCH   6   7
ENDBRANCH   5   6
ENDBRANCH   4   5
ENDBRANCH   3   4
ENDBRANCH   2   3
ENDBRANCH   1   2
BRANCH   1  13
ATOM     13  C   UNL     1     -12.851  36.280 -13.170  1.00  0.00     0.000 C 
BRANCH  13  14
ATOM     14  C   UNL     1     -13.062  35.593 -11.812  1.00  0.00     0.000 C 
BRANCH  14  15
ATOM     15  C   UNL     1     -14.099  34.459 -11.886  1.00  0.00     0.000 C 
BRANCH  15  16
ATOM     16  C   UNL     1     -14.538  33.981 -10.493  1.00  0.00     0.000 C 
BRANCH  16  17
ATOM     17  C   UNL     1     -14.717  32.459 -10.464  1.00  0.00     0.000 C 
BRANCH  17  18
ATOM     18  C   UNL     1     -14.362  31.890  -9.081  1.00  0.00     0.000 C 
BRANCH  18  19
ATOM     19  C   UNL     1     -12.848  31.746  -8.867  1.00  0.00     0.000 C 
BRANCH  19  20
ATOM     20  C   UNL     1     -12.445  30.345  -8.382  1.00  0.00     0.006 C 
BRANCH  20  21
ATOM     21  C   UNL     1     -11.507  30.435  -7.174  1.00  0.00     0.053 C 
BRANCH  21  22
ATOM     22  C   UNL     1     -10.271  29.623  -7.404  1.00  0.00     0.041 C 
ATOM     23  O   UNL     1     -10.333  28.548  -8.058  1.00  0.00    -0.550 OA
ATOM     24  O   UNL     1      -9.045  30.071  -6.929  1.00  0.00    -0.550 OA
ENDBRANCH  21  22
ENDBRANCH  20  21
ENDBRANCH  19  20
ENDBRANCH  18  19
ENDBRANCH  17  18
ENDBRANCH  16  17
ENDBRANCH  15  16
ENDBRANCH  14  15
ENDBRANCH  13  14
ENDBRANCH   1  13
TORSDOF 20
ENDMDL
MODEL 2
REMARK VINA RESULT:    20.283      3.749      9.830
REMARK INTER + INTRA:          42.911
REMARK INTER:                  43.860
REMARK INTRA:                  -0.949
REMARK UNBOUND:                -1.087
REMARK SMILES CCCCCCCCCCCCCCCCCCCCCC(=O)[O-]
REMARK SMILES IDX 12 1 11 2 10 3 9 4 8 5 7 6 6 7 5 8 4 9 3 10 2 11 1 12 13 13
REMARK SMILES IDX 14 14 15 15 16 16 17 17 18 18 19 19 20 20 21 21 22 22 23 23
REMARK SMILES IDX 24 24
REMARK H PARENT
REMARK Flexibility Score: inf
ROOT
ATOM      1  C   UNL     1     -13.260  36.403 -12.795  1.00  0.00     0.000 C 
ENDROOT
BRANCH   1   2
ATOM      2  C   UNL     1     -12.986  35.074 -12.070  1.00  0.00     0.000 C 
BRANCH   2   3
ATOM      3  C   UNL     1     -14.237  34.223 -11.772  1.00  0.00     0.000 C 
BRANCH   3   4
ATOM      4  C   UNL     1     -14.394  33.839 -10.286  1.00  0.00    -0.000 C 
BRANCH   4   5
ATOM      5  C   UNL     1     -14.830  32.373 -10.103  1.00  0.00    -0.000 C 
BRANCH   5   6
ATOM      6  C   UNL     1     -14.170  31.708  -8.884  1.00  0.00    -0.000 C 
BRANCH   6   7
ATOM      7  C   UNL     1     -12.638  31.655  -8.999  1.00  0.00    -0.000 C 
BRANCH   7   8
ATOM      8  C   UNL     1     -12.102  30.285  -8.557  1.00  0.00    -0.000 C 
BRANCH   8   9
ATOM      9  C   UNL     1     -12.215  30.063  -7.037  1.00  0.00    -0.000 C 
BRANCH   9  10
ATOM     10  C   UNL     1     -10.948  29.495  -6.363  1.00  0.00    -0.000 C 
BRANCH  10  11
ATOM     11  C   UNL     1      -9.714  29.390  -7.277  1.00  0.00    -0.003 C 
ATOM     12  C   UNL     1      -8.776  30.590  -7.152  1.00  0.00     0.004 C 
ENDBRANCH  10  11
ENDBRANCH   9  10
ENDBRANCH   8   9
ENDBRANCH   7   8
ENDBRANCH   6   7
ENDBRANCH   5   6
ENDBRANCH   4   5
ENDBRANCH   3   4
ENDBRANCH   2   3
ENDBRANCH   1   2
BRANCH   1  13
ATOM     13  C   UNL     1     -11.988  37.232 -13.023  1.00  0.00     0.000 C 
BRANCH  13  14
ATOM     14  C   UNL     1     -12.335  38.690 -13.357  1.00  0.00     0.000 C 
BRANCH  14  15
ATOM     15  C   UNL     1     -11.353  39.686 -12.717  1.00  0.00     0.000 C 
BRANCH  15  16
ATOM     16  C   UNL     1     -12.017  41.035 -12.399  1.00  0.00     0.000 C 
BRANCH  16  17
ATOM     17  C   UNL     1     -11.305  41.739 -11.238  1.00  0.00     0.000 C 
BRANCH  17  18
ATOM     18  C   UNL     1     -10.954  40.743 -10.122  1.00  0.00     0.000 C 
BRANCH  18  19
ATOM     19  C   UNL     1     -10.285  41.414  -8.913  1.00  0.00     0.000 C 
BRANCH  19  20
ATOM     20  C   UNL     1     -11.254  42.293  -8.107  1.00  0.00     0.006 C 
BRANCH  20  21
ATOM     21  C   UNL     1     -11.458  41.728  -6.698  1.00  0.00     0.053 C 
BRANCH  21  22
ATOM     22  C   UNL     1     -12.916  41.558  -6.404  1.00  0.00     0.041 C 
ATOM     23  O   UNL     1     -13.300  41.315  -5.229  1.00  0.00    -0.550 OA
ATOM     24  O   UNL     1     -13.853  41.705  -7.419  1.00  0.00    -0.550 OA
ENDBRANCH  21  22
ENDBRANCH  20  21
ENDBRANCH  19  20
ENDBRANCH  18  19
ENDBRANCH  17  18
ENDBRANCH  16  17
ENDBRANCH  15  16
ENDBRANCH  14  15
ENDBRANCH  13  14
ENDBRANCH   1  13
TORSDOF 20
ENDMDL
MODEL 3
REMARK VINA RESULT:    20.785      1.040      2.324
REMARK INTER + INTRA:          44.001
REMARK INTER:                  44.790
REMARK INTRA:                  -0.789
REMARK UNBOUND:                -1.087
REMARK SMILES CCCCCCCCCCCCCCCCCCCCCC(=O)[O-]
REMARK SMILES IDX 12 1 11 2 10 3 9 4 8 5 7 6 6 7 5 8 4 9 3 10 2 11 1 12 13 13
REMARK SMILES IDX 14 14 15 15 16 16 17 17 18 18 19 19 20 20 21 21 22 22 23 23
REMARK SMILES IDX 24 24
REMARK H PARENT
REMARK Flexibility Score: inf
ROOT
ATOM      1  C   UNL     1     -12.876  35.769 -11.912  1.00  0.00     0.000 C 
ENDROOT
BRANCH   1   2
ATOM      2  C   UNL     1     -12.729  36.420 -13.299  1.00  0.00     0.000 C 
BRANCH   2   3
ATOM      3  C   UNL     1     -12.541  37.950 -13.284  1.00  0.00     0.000 C 
BRANCH   3   4
ATOM      4  C   UNL     1     -11.086  38.404 -13.523  1.00  0.00    -0.000 C 
BRANCH   4   5
ATOM      5  C   UNL     1     -10.714  39.643 -12.689  1.00  0.00    -0.000 C 
BRANCH   5   6
ATOM      6  C   UNL     1     -11.895  40.610 -12.508  1.00  0.00    -0.000 C 
BRANCH   6   7
ATOM      7  C   UNL     1     -11.586  41.739 -11.513  1.00  0.00    -0.000 C 
BRANCH   7   8
ATOM      8  C   UNL     1     -11.006  41.175 -10.207  1.00  0.00    -0.000 C 
BRANCH   8   9
ATOM      9  C   UNL     1     -11.791  41.626  -8.962  1.00  0.00    -0.000 C 
BRANCH   9  10
ATOM     10  C   UNL     1     -11.048  41.453  -7.621  1.00  0.00    -0.000 C 
BRANCH  10  11
ATOM     11  C   UNL     1     -11.697  42.163  -6.419  1.00  0.00    -0.003 C 
ATOM     12  C   UNL     1     -12.928  41.429  -5.887  1.00  0.00     0.004 C 
ENDBRANCH  10  11
ENDBRANCH   9  10
ENDBRANCH   8   9
ENDBRANCH   7   8
ENDBRANCH   6   7
ENDBRANCH   5   6
ENDBRANCH   4   5
ENDBRANCH   3   4
ENDBRANCH   2   3
ENDBRANCH   1   2
BRANCH   1  13
ATOM     13  C   UNL     1     -13.986  34.709 -11.865  1.00  0.00     0.000 C 
BRANCH  13  14
ATOM     14  C   UNL     1     -14.203  34.204 -10.431  1.00  0.00     0.000 C 
BRANCH  14  15
ATOM     15  C   UNL     1     -14.946  32.858 -10.390  1.00  0.00     0.000 C 
BRANCH  15  16
ATOM     16  C   UNL     1     -14.487  31.975  -9.220  1.00  0.00     0.000 C 
BRANCH  16  17
ATOM     17  C   UNL     1     -12.997  31.635  -9.338  1.00  0.00     0.000 C 
BRANCH  17  18
ATOM     18  C   UNL     1     -12.536  30.766  -8.157  1.00  0.00     0.000 C 
BRANCH  18  19
ATOM     19  C   UNL     1     -11.426  29.777  -8.543  1.00  0.00     0.000 C 
BRANCH  19  20
ATOM     20  C   UNL     1     -10.992  28.882  -7.371  1.00  0.00     0.006 C 
BRANCH  20  21
ATOM     21  C   UNL     1      -9.477  28.961  -7.156  1.00  0.00     0.053 C 
BRANCH  21  22
ATOM     22  C   UNL     1      -9.042  30.383  -6.989  1.00  0.00     0.041 C 
ATOM     23  O   UNL     1      -8.054  30.822  -7.635  1.00  0.00    -0.550 OA
ATOM     24  O   UNL     1      -9.749  31.233  -6.149  1.00  0.00    -0.550 OA
ENDBRANCH  21  22
ENDBRANCH  20  21
ENDBRANCH  19  20
ENDBRANCH  18  19
ENDBRANCH  17  18
ENDBRANCH  16  17
ENDBRANCH  15  16
ENDBRANCH  14  15
ENDBRANCH  13  14
ENDBRANCH   1  13
TORSDOF 20
ENDMDL
MODEL 4
REMARK VINA RESULT:    20.904      3.805      9.661
REMARK INTER + INTRA:          44.257
REMARK INTER:                  45.360
REMARK INTRA:                  -1.103
REMARK UNBOUND:                -1.087
REMARK SMILES CCCCCCCCCCCCCCCCCCCCCC(=O)[O-]
REMARK SMILES IDX 12 1 11 2 10 3 9 4 8 5 7 6 6 7 5 8 4 9 3 10 2 11 1 12 13 13
REMARK SMILES IDX 14 14 15 15 16 16 17 17 18 18 19 19 20 20 21 21 22 22 23 23
REMARK SMILES IDX 24 24
REMARK H PARENT
REMARK Flexibility Score: inf
ROOT
ATOM      1  C   UNL     1     -12.868  36.818 -13.555  1.00  0.00     0.000 C 
ENDROOT
BRANCH   1   2
ATOM      2  C   UNL     1     -12.470  36.038 -12.289  1.00  0.00     0.000 C 
BRANCH   2   3
ATOM      3  C   UNL     1     -13.638  35.351 -11.553  1.00  0.00     0.000 C 
BRANCH   3   4
ATOM      4  C   UNL     1     -14.287  34.199 -12.349  1.00  0.00    -0.000 C 
BRANCH   4   5
ATOM      5  C   UNL     1     -14.805  33.074 -11.434  1.00  0.00    -0.000 C 
BRANCH   5   6
ATOM      6  C   UNL     1     -14.304  33.211  -9.987  1.00  0.00    -0.000 C 
BRANCH   6   7
ATOM      7  C   UNL     1     -14.172  31.855  -9.278  1.00  0.00    -0.000 C 
BRANCH   7   8
ATOM      8  C   UNL     1     -12.704  31.556  -8.935  1.00  0.00    -0.000 C 
BRANCH   8   9
ATOM      9  C   UNL     1     -12.547  30.365  -7.973  1.00  0.00    -0.000 C 
BRANCH   9  10
ATOM     10  C   UNL     1     -11.301  29.488  -8.216  1.00  0.00    -0.000 C 
BRANCH  10  11
ATOM     11  C   UNL     1     -10.330  29.390  -7.025  1.00  0.00    -0.003 C 
ATOM     12  C   UNL     1      -9.097  30.278  -7.186  1.00  0.00     0.004 C 
ENDBRANCH  10  11
ENDBRANCH   9  10
ENDBRANCH   8   9
ENDBRANCH   7   8
ENDBRANCH   6   7
ENDBRANCH   5   6
ENDBRANCH   4   5
ENDBRANCH   3   4
ENDBRANCH   2   3
ENDBRANCH   1   2
BRANCH   1  13
ATOM     13  C   UNL     1     -12.471  38.300 -13.492  1.00  0.00     0.000 C 
BRANCH  13  14
ATOM     14  C   UNL     1     -10.963  38.454 -13.246  1.00  0.00     0.000 C 
BRANCH  14  15
ATOM     15  C   UNL     1     -10.627  39.730 -12.455  1.00  0.00     0.000 C 
BRANCH  15  16
ATOM     16  C   UNL     1     -11.808  40.711 -12.403  1.00  0.00     0.000 C 
BRANCH  16  17
ATOM     17  C   UNL     1     -11.641  41.716 -11.257  1.00  0.00     0.000 C 
BRANCH  17  18
ATOM     18  C   UNL     1     -10.988  41.051 -10.035  1.00  0.00     0.000 C 
BRANCH  18  19
ATOM     19  C   UNL     1     -10.215  42.048  -9.157  1.00  0.00     0.000 C 
BRANCH  19  20
ATOM     20  C   UNL     1      -9.876  41.481  -7.770  1.00  0.00     0.006 C 
BRANCH  20  21
ATOM     21  C   UNL     1     -11.096  40.793  -7.148  1.00  0.00     0.053 C 
BRANCH  21  22
ATOM     22  C   UNL     1     -12.051  41.807  -6.602  1.00  0.00     0.041 C 
ATOM     23  O   UNL     1     -11.623  42.903  -6.154  1.00  0.00    -0.550 OA
ATOM     24  O   UNL     1     -13.418  41.557  -6.621  1.00  0.00    -0.550 OA
ENDBRANCH  21  22
ENDBRANCH  20  21
ENDBRANCH  19  20
ENDBRANCH  18  19
ENDBRANCH  17  18
ENDBRANCH  16  17
ENDBRANCH  15  16
ENDBRANCH  14  15
ENDBRANCH  13  14
ENDBRANCH   1  13
TORSDOF 20
ENDMDL
