MODEL 1
REMARK VINA RESULT:    -2.927      0.000      0.000
REMARK INTER + INTRA:          -2.927
REMARK INTER:                  -2.927
REMARK INTRA:                   0.000
REMARK UNBOUND:                 0.000
REMARK SMILES O=C1CCCCC1
REMARK SMILES IDX 5 1 4 2 3 3 2 4 1 5 7 6 6 7
REMARK H PARENT
REMARK Flexibility Score: inf
ROOT
ATOM      1  C   UNL     1     140.982 148.555 139.121  1.00  0.00     0.001 C 
ATOM      2  C   UNL     1     140.246 148.631 140.468  1.00  0.00     0.008 C 
ATOM      3  C   UNL     1     140.650 149.882 141.257  1.00  0.00     0.075 C 
ATOM      4  C   UNL     1     142.149 149.988 141.337  1.00  0.00     0.132 C 
ATOM      5  O   UNL     1     142.690 150.297 142.388  1.00  0.00    -0.300 OA
ATOM      6  C   UNL     1     142.966 149.803 140.088  1.00  0.00     0.075 C 
ATOM      7  C   UNL     1     142.504 148.554 139.328  1.00  0.00     0.008 C 
ENDROOT
TORSDOF 0
ENDMDL
MODEL 2
REMARK VINA RESULT:    -2.918     16.792     17.472
REMARK INTER + INTRA:          -2.918
REMARK INTER:                  -2.918
REMARK INTRA:                   0.000
REMARK UNBOUND:                 0.000
REMARK SMILES O=C1CCCCC1
REMARK SMILES IDX 5 1 4 2 3 3 2 4 1 5 7 6 6 7
REMARK H PARENT
REMARK Flexibility Score: inf
ROOT
ATOM      1  C   UNL     1     140.677 133.029 139.111  1.00  0.00     0.001 C 
ATOM      2  C   UNL     1     141.384 132.951 140.473  1.00  0.00     0.008 C 
ATOM      3  C   UNL     1     140.965 131.697 141.250  1.00  0.00     0.075 C 
ATOM      4  C   UNL     1     139.466 131.587 141.297  1.00  0.00     0.132 C 
ATOM      5  O   UNL     1     138.903 131.274 142.336  1.00  0.00    -0.300 OA
ATOM      6  C   UNL     1     138.676 131.773 140.032  1.00  0.00     0.075 C 
ATOM      7  C   UNL     1     139.151 133.026 139.285  1.00  0.00     0.008 C 
ENDROOT
TORSDOF 0
ENDMDL
MODEL 3
REMARK VINA RESULT:    -2.917     11.406     12.318
REMARK INTER + INTRA:          -2.917
REMARK INTER:                  -2.917
REMARK INTRA:                   0.000
REMARK UNBOUND:                 0.000
REMARK SMILES O=C1CCCCC1
REMARK SMILES IDX 5 1 4 2 3 3 2 4 1 5 7 6 6 7
REMARK H PARENT
REMARK Flexibility Score: inf
ROOT
ATOM      1  C   UNL     1     133.108 140.993 139.148  1.00  0.00     0.001 C 
ATOM      2  C   UNL     1     133.022 140.267 140.500  1.00  0.00     0.008 C 
ATOM      3  C   UNL     1     131.751 140.657 141.265  1.00  0.00     0.075 C 
ATOM      4  C   UNL     1     131.619 142.154 141.329  1.00  0.00     0.132 C 
ATOM      5  O   UNL     1     131.283 142.699 142.370  1.00  0.00    -0.300 OA
ATOM      6  C   UNL     1     131.810 142.963 140.077  1.00  0.00     0.075 C 
ATOM      7  C   UNL     1     133.080 142.516 139.341  1.00  0.00     0.008 C 
ENDROOT
TORSDOF 0
ENDMDL
MODEL 4
REMARK VINA RESULT:    -2.907     11.507     12.417
REMARK INTER + INTRA:          -2.907
REMARK INTER:                  -2.907
REMARK INTRA:                   0.000
REMARK UNBOUND:                 0.000
REMARK SMILES O=C1CCCCC1
REMARK SMILES IDX 5 1 4 2 3 3 2 4 1 5 7 6 6 7
REMARK H PARENT
REMARK Flexibility Score: inf
ROOT
ATOM      1  C   UNL     1     148.542 140.566 139.140  1.00  0.00     0.001 C 
ATOM      2  C   UNL     1     148.670 141.286 140.491  1.00  0.00     0.008 C 
ATOM      3  C   UNL     1     149.933 140.847 141.242  1.00  0.00     0.075 C 
ATOM      4  C   UNL     1     150.010 139.346 141.304  1.00  0.00     0.132 C 
ATOM      5  O   UNL     1     150.336 138.787 142.340  1.00  0.00    -0.300 OA
ATOM      6  C   UNL     1     149.774 138.546 140.052  1.00  0.00     0.075 C 
ATOM      7  C   UNL     1     148.514 139.042 139.331  1.00  0.00     0.008 C 
ENDROOT
TORSDOF 0
ENDMDL
MODEL 5
REMARK VINA RESULT:    -2.848     11.226     12.110
REMARK INTER + INTRA:          -2.848
REMARK INTER:                  -2.848
REMARK INTRA:                   0.000
REMARK UNBOUND:                 0.000
REMARK SMILES O=C1CCCCC1
REMARK SMILES IDX 5 1 4 2 3 3 2 4 1 5 7 6 6 7
REMARK H PARENT
REMARK Flexibility Score: inf
ROOT
ATOM      1  C   UNL     1     149.126 138.880 138.877  1.00  0.00     0.001 C 
ATOM      2  C   UNL     1     147.980 139.735 139.439  1.00  0.00     0.008 C 
ATOM      3  C   UNL     1     148.497 141.064 140.003  1.00  0.00     0.075 C 
ATOM      4  C   UNL     1     149.641 140.822 140.948  1.00  0.00     0.132 C 
ATOM      5  O   UNL     1     149.705 141.428 142.007  1.00  0.00    -0.300 OA
ATOM      6  C   UNL     1     150.753 139.897 140.535  1.00  0.00     0.075 C 
ATOM      7  C   UNL     1     150.179 138.596 139.958  1.00  0.00     0.008 C 
ENDROOT
TORSDOF 0
ENDMDL
MODEL 6
REMARK VINA RESULT:    -2.798     11.524     12.501
REMARK INTER + INTRA:          -2.798
REMARK INTER:                  -2.798
REMARK INTRA:                   0.000
REMARK UNBOUND:                 0.000
REMARK SMILES O=C1CCCCC1
REMARK SMILES IDX 5 1 4 2 3 3 2 4 1 5 7 6 6 7
REMARK H PARENT
REMARK Flexibility Score: inf
ROOT
ATOM      1  C   UNL     1     149.578 141.089 141.201  1.00  0.00     0.001 C 
ATOM      2  C   UNL     1     148.609 141.304 140.028  1.00  0.00     0.008 C 
ATOM      3  C   UNL     1     147.852 140.016 139.684  1.00  0.00     0.075 C 
ATOM      4  C   UNL     1     148.813 138.871 139.521  1.00  0.00     0.132 C 
ATOM      5  O   UNL     1     148.681 138.081 138.598  1.00  0.00    -0.300 OA
ATOM      6  C   UNL     1     149.880 138.655 140.559  1.00  0.00     0.075 C 
ATOM      7  C   UNL     1     150.588 139.977 140.881  1.00  0.00     0.008 C 
ENDROOT
TORSDOF 0
ENDMDL
MODEL 7
REMARK VINA RESULT:    -2.795      1.565      2.733
REMARK INTER + INTRA:          -2.795
REMARK INTER:                  -2.795
REMARK INTRA:                   0.000
REMARK UNBOUND:                 0.000
REMARK SMILES O=C1CCCCC1
REMARK SMILES IDX 5 1 4 2 3 3 2 4 1 5 7 6 6 7
REMARK H PARENT
REMARK Flexibility Score: inf
ROOT
ATOM      1  C   UNL     1     140.552 149.866 141.326  1.00  0.00     0.001 C 
ATOM      2  C   UNL     1     142.044 150.052 141.642  1.00  0.00     0.008 C 
ATOM      3  C   UNL     1     142.882 150.134 140.361  1.00  0.00     0.075 C 
ATOM      4  C   UNL     1     142.557 148.983 139.448  1.00  0.00     0.132 C 
ATOM      5  O   UNL     1     143.451 148.379 138.875  1.00  0.00    -0.300 OA
ATOM      6  C   UNL     1     141.117 148.646 139.177  1.00  0.00     0.075 C 
ATOM      7  C   UNL     1     140.322 148.600 140.488  1.00  0.00     0.008 C 
ENDROOT
TORSDOF 0
ENDMDL
MODEL 8
REMARK VINA RESULT:    -2.776     11.680     12.724
REMARK INTER + INTRA:          -2.776
REMARK INTER:                  -2.776
REMARK INTRA:                   0.000
REMARK UNBOUND:                 0.000
REMARK SMILES O=C1CCCCC1
REMARK SMILES IDX 5 1 4 2 3 3 2 4 1 5 7 6 6 7
REMARK H PARENT
REMARK Flexibility Score: inf
ROOT
ATOM      1  C   UNL     1     149.734 141.079 141.247  1.00  0.00     0.001 C 
ATOM      2  C   UNL     1     150.095 139.629 141.602  1.00  0.00     0.008 C 
ATOM      3  C   UNL     1     150.419 138.809 140.348  1.00  0.00     0.075 C 
ATOM      4  C   UNL     1     149.329 138.967 139.324  1.00  0.00     0.132 C 
ATOM      5  O   UNL     1     148.916 137.996 138.708  1.00  0.00    -0.300 OA
ATOM      6  C   UNL     1     148.821 140.344 138.999  1.00  0.00     0.075 C 
ATOM      7  C   UNL     1     148.536 141.127 140.287  1.00  0.00     0.008 C 
ENDROOT
TORSDOF 0
ENDMDL
MODEL 9
REMARK VINA RESULT:    -2.766     16.636     17.278
REMARK INTER + INTRA:          -2.766
REMARK INTER:                  -2.766
REMARK INTRA:                   0.000
REMARK UNBOUND:                 0.000
REMARK SMILES O=C1CCCCC1
REMARK SMILES IDX 5 1 4 2 3 3 2 4 1 5 7 6 6 7
REMARK H PARENT
REMARK Flexibility Score: inf
ROOT
ATOM      1  C   UNL     1     140.980 131.642 141.241  1.00  0.00     0.001 C 
ATOM      2  C   UNL     1     139.465 131.520 141.466  1.00  0.00     0.008 C 
ATOM      3  C   UNL     1     138.697 131.554 140.140  1.00  0.00     0.075 C 
ATOM      4  C   UNL     1     139.131 132.734 139.314  1.00  0.00     0.132 C 
ATOM      5  O   UNL     1     138.302 133.415 138.729  1.00  0.00    -0.300 OA
ATOM      6  C   UNL     1     140.599 133.008 139.139  1.00  0.00     0.075 C 
ATOM      7  C   UNL     1     141.320 132.939 140.491  1.00  0.00     0.008 C 
ENDROOT
TORSDOF 0
ENDMDL
