MODEL 1
REMARK VINA RESULT:    -3.115      0.000      0.000
REMARK INTER + INTRA:          -7.157
REMARK INTER:                  -5.665
REMARK INTRA:                  -1.492
REMARK UNBOUND:                -1.492
REMARK SMILES CCCCCCCCCCCCCC[C@H](C)C(=O)[O-]
REMARK SMILES IDX 9 1 10 2 11 3 12 4 13 5 14 6 15 7 16 8 17 9 18 10 19 11 8 12
REMARK SMILES IDX 7 13 6 14 5 15 4 16 3 17 2 18 1 19
REMARK H PARENT
REMARK Flexibility Score: inf
ROOT
ATOM      1  C   UNL     1      16.020  15.679   7.140  1.00  0.00     0.000 C 
ENDROOT
BRANCH   1   2
ATOM      2  C   UNL     1      16.892  16.522   8.084  1.00  0.00     0.000 C 
BRANCH   2   3
ATOM      3  C   UNL     1      17.018  15.849   9.459  1.00  0.00     0.000 C 
BRANCH   3   4
ATOM      4  C   UNL     1      16.461  16.717  10.598  1.00  0.00     0.000 C 
BRANCH   4   5
ATOM      5  C   UNL     1      16.639  18.221  10.338  1.00  0.00     0.001 C 
BRANCH   5   6
ATOM      6  C   UNL     1      15.278  18.927  10.244  1.00  0.00     0.009 C 
BRANCH   6   7
ATOM      7  C   UNL     1      15.246  20.242  11.051  1.00  0.00     0.032 C 
ATOM      8  C   UNL     1      16.314  20.230  12.148  1.00  0.00     0.014 C 
BRANCH   7   9
ATOM      9  C   UNL     1      13.889  20.483  11.658  1.00  0.00     0.044 C 
ATOM     10  O   UNL     1      13.271  19.551  12.237  1.00  0.00    -0.550 OA
ATOM     11  O   UNL     1      13.310  21.744  11.580  1.00  0.00    -0.550 OA
ENDBRANCH   7   9
ENDBRANCH   6   7
ENDBRANCH   5   6
ENDBRANCH   4   5
ENDBRANCH   3   4
ENDBRANCH   2   3
ENDBRANCH   1   2
BRANCH   1  12
ATOM     12  C   UNL     1      16.023  14.186   7.503  1.00  0.00     0.000 C 
BRANCH  12  13
ATOM     13  C   UNL     1      14.798  13.439   6.947  1.00  0.00    -0.000 C 
BRANCH  13  14
ATOM     14  C   UNL     1      13.954  12.785   8.053  1.00  0.00    -0.000 C 
BRANCH  14  15
ATOM     15  C   UNL     1      14.492  13.080   9.463  1.00  0.00    -0.000 C 
BRANCH  15  16
ATOM     16  C   UNL     1      14.092  12.006  10.492  1.00  0.00    -0.000 C 
BRANCH  16  17
ATOM     17  C   UNL     1      14.841  12.085  11.835  1.00  0.00    -0.000 C 
BRANCH  17  18
ATOM     18  C   UNL     1      16.216  12.758  11.714  1.00  0.00    -0.003 C 
ATOM     19  C   UNL     1      16.463  13.717  12.874  1.00  0.00     0.004 C 
ENDBRANCH  17  18
ENDBRANCH  16  17
ENDBRANCH  15  16
ENDBRANCH  14  15
ENDBRANCH  13  14
ENDBRANCH  12  13
ENDBRANCH   1  12
TORSDOF 14
ENDMDL
MODEL 2
REMARK VINA RESULT:    -3.068      1.025      2.149
REMARK INTER + INTRA:          -7.071
REMARK INTER:                  -5.728
REMARK INTRA:                  -1.342
REMARK UNBOUND:                -1.492
REMARK SMILES CCCCCCCCCCCCCC[C@H](C)C(=O)[O-]
REMARK SMILES IDX 9 1 10 2 11 3 12 4 13 5 14 6 15 7 16 8 17 9 18 10 19 11 8 12
REMARK SMILES IDX 7 13 6 14 5 15 4 16 3 17 2 18 1 19
REMARK H PARENT
REMARK Flexibility Score: inf
ROOT
ATOM      1  C   UNL     1      14.692  13.643   7.051  1.00  0.00     0.000 C 
ENDROOT
BRANCH   1   2
ATOM      2  C   UNL     1      16.003  14.273   7.550  1.00  0.00     0.000 C 
BRANCH   2   3
ATOM      3  C   UNL     1      15.929  15.806   7.496  1.00  0.00     0.000 C 
BRANCH   3   4
ATOM      4  C   UNL     1      15.759  16.442   8.884  1.00  0.00     0.000 C 
BRANCH   4   5
ATOM      5  C   UNL     1      15.603  17.969   8.822  1.00  0.00     0.001 C 
BRANCH   5   6
ATOM      6  C   UNL     1      16.148  18.630  10.096  1.00  0.00     0.009 C 
BRANCH   6   7
ATOM      7  C   UNL     1      15.261  19.799  10.573  1.00  0.00     0.032 C 
ATOM      8  C   UNL     1      16.111  21.037  10.874  1.00  0.00     0.014 C 
BRANCH   7   9
ATOM      9  C   UNL     1      14.458  19.420  11.789  1.00  0.00     0.044 C 
ATOM     10  O   UNL     1      13.217  19.632  11.830  1.00  0.00    -0.550 OA
ATOM     11  O   UNL     1      15.088  18.832  12.880  1.00  0.00    -0.550 OA
ENDBRANCH   7   9
ENDBRANCH   6   7
ENDBRANCH   5   6
ENDBRANCH   4   5
ENDBRANCH   3   4
ENDBRANCH   2   3
ENDBRANCH   1   2
BRANCH   1  12
ATOM     12  C   UNL     1      14.006  12.776   8.118  1.00  0.00     0.000 C 
BRANCH  12  13
ATOM     13  C   UNL     1      14.500  13.088   9.541  1.00  0.00    -0.000 C 
BRANCH  13  14
ATOM     14  C   UNL     1      13.999  12.067  10.576  1.00  0.00    -0.000 C 
BRANCH  14  15
ATOM     15  C   UNL     1      15.146  11.338  11.295  1.00  0.00    -0.000 C 
BRANCH  15  16
ATOM     16  C   UNL     1      16.446  12.161  11.336  1.00  0.00    -0.000 C 
BRANCH  16  17
ATOM     17  C   UNL     1      17.002  12.424  12.747  1.00  0.00    -0.000 C 
BRANCH  17  18
ATOM     18  C   UNL     1      16.996  13.912  13.125  1.00  0.00    -0.003 C 
ATOM     19  C   UNL     1      16.799  14.791  11.893  1.00  0.00     0.004 C 
ENDBRANCH  17  18
ENDBRANCH  16  17
ENDBRANCH  15  16
ENDBRANCH  14  15
ENDBRANCH  13  14
ENDBRANCH  12  13
ENDBRANCH   1  12
TORSDOF 14
ENDMDL
MODEL 3
REMARK VINA RESULT:    -2.909      3.286      7.127
REMARK INTER + INTRA:          -6.782
REMARK INTER:                  -5.618
REMARK INTRA:                  -1.163
REMARK UNBOUND:                -1.492
REMARK SMILES CCCCCCCCCCCCCC[C@H](C)C(=O)[O-]
REMARK SMILES IDX 9 1 10 2 11 3 12 4 13 5 14 6 15 7 16 8 17 9 18 10 19 11 8 12
REMARK SMILES IDX 7 13 6 14 5 15 4 16 3 17 2 18 1 19
REMARK H PARENT
REMARK Flexibility Score: inf
ROOT
ATOM      1  C   UNL     1      15.273  17.073   8.300  1.00  0.00     0.000 C 
ENDROOT
BRANCH   1   2
ATOM      2  C   UNL     1      15.299  15.585   7.912  1.00  0.00     0.000 C 
BRANCH   2   3
ATOM      3  C   UNL     1      16.631  14.937   8.321  1.00  0.00     0.000 C 
BRANCH   3   4
ATOM      4  C   UNL     1      16.444  13.757   9.287  1.00  0.00     0.000 C 
BRANCH   4   5
ATOM      5  C   UNL     1      15.086  13.787  10.005  1.00  0.00     0.001 C 
BRANCH   5   6
ATOM      6  C   UNL     1      14.483  12.377  10.100  1.00  0.00     0.009 C 
BRANCH   6   7
ATOM      7  C   UNL     1      14.462  11.848  11.548  1.00  0.00     0.032 C 
ATOM      8  C   UNL     1      13.919  12.913  12.506  1.00  0.00     0.014 C 
BRANCH   7   9
ATOM      9  C   UNL     1      15.833  11.409  11.994  1.00  0.00     0.044 C 
ATOM     10  O   UNL     1      16.307  10.305  11.616  1.00  0.00    -0.550 OA
ATOM     11  O   UNL     1      16.583  12.226  12.831  1.00  0.00    -0.550 OA
ENDBRANCH   7   9
ENDBRANCH   6   7
ENDBRANCH   5   6
ENDBRANCH   4   5
ENDBRANCH   3   4
ENDBRANCH   2   3
ENDBRANCH   1   2
BRANCH   1  12
ATOM     12  C   UNL     1      16.454  17.474   9.197  1.00  0.00     0.000 C 
BRANCH  12  13
ATOM     13  C   UNL     1      17.006  18.870   8.859  1.00  0.00    -0.000 C 
BRANCH  13  14
ATOM     14  C   UNL     1      16.366  19.978   9.711  1.00  0.00    -0.000 C 
BRANCH  14  15
ATOM     15  C   UNL     1      16.721  19.861  11.203  1.00  0.00    -0.000 C 
BRANCH  15  16
ATOM     16  C   UNL     1      15.479  19.814  12.111  1.00  0.00    -0.000 C 
BRANCH  16  17
ATOM     17  C   UNL     1      14.177  20.308  11.454  1.00  0.00    -0.000 C 
BRANCH  17  18
ATOM     18  C   UNL     1      13.808  21.742  11.861  1.00  0.00    -0.003 C 
ATOM     19  C   UNL     1      12.788  21.746  12.996  1.00  0.00     0.004 C 
ENDBRANCH  17  18
ENDBRANCH  16  17
ENDBRANCH  15  16
ENDBRANCH  14  15
ENDBRANCH  13  14
ENDBRANCH  12  13
ENDBRANCH   1  12
TORSDOF 14
ENDMDL
MODEL 4
REMARK VINA RESULT:    -2.905      1.415      2.132
REMARK INTER + INTRA:          -6.775
REMARK INTER:                  -5.958
REMARK INTRA:                  -0.817
REMARK UNBOUND:                -1.492
REMARK SMILES CCCCCCCCCCCCCC[C@H](C)C(=O)[O-]
REMARK SMILES IDX 9 1 10 2 11 3 12 4 13 5 14 6 15 7 16 8 17 9 18 10 19 11 8 12
REMARK SMILES IDX 7 13 6 14 5 15 4 16 3 17 2 18 1 19
REMARK H PARENT
REMARK Flexibility Score: inf
ROOT
ATOM      1  C   UNL     1      15.662  16.325   7.824  1.00  0.00     0.000 C 
ENDROOT
BRANCH   1   2
ATOM      2  C   UNL     1      16.269  17.024   9.052  1.00  0.00     0.000 C 
BRANCH   2   3
ATOM      3  C   UNL     1      15.954  18.527   9.038  1.00  0.00     0.000 C 
BRANCH   3   4
ATOM      4  C   UNL     1      16.919  19.344   9.910  1.00  0.00     0.000 C 
BRANCH   4   5
ATOM      5  C   UNL     1      16.482  20.809  10.065  1.00  0.00     0.001 C 
BRANCH   5   6
ATOM      6  C   UNL     1      15.825  21.045  11.434  1.00  0.00     0.009 C 
BRANCH   6   7
ATOM      7  C   UNL     1      14.297  20.831  11.391  1.00  0.00     0.032 C 
ATOM      8  C   UNL     1      13.560  22.114  11.788  1.00  0.00     0.014 C 
BRANCH   7   9
ATOM      9  C   UNL     1      13.874  19.698  12.289  1.00  0.00     0.044 C 
ATOM     10  O   UNL     1      12.703  19.647  12.749  1.00  0.00    -0.550 OA
ATOM     11  O   UNL     1      14.782  18.698  12.615  1.00  0.00    -0.550 OA
ENDBRANCH   7   9
ENDBRANCH   6   7
ENDBRANCH   5   6
ENDBRANCH   4   5
ENDBRANCH   3   4
ENDBRANCH   2   3
ENDBRANCH   1   2
BRANCH   1  12
ATOM     12  C   UNL     1      16.338  14.981   7.512  1.00  0.00     0.000 C 
BRANCH  12  13
ATOM     13  C   UNL     1      16.649  14.167   8.779  1.00  0.00    -0.000 C 
BRANCH  13  14
ATOM     14  C   UNL     1      15.418  13.988   9.682  1.00  0.00    -0.000 C 
BRANCH  14  15
ATOM     15  C   UNL     1      14.434  12.936   9.144  1.00  0.00    -0.000 C 
BRANCH  15  16
ATOM     16  C   UNL     1      13.954  11.955  10.230  1.00  0.00    -0.000 C 
BRANCH  16  17
ATOM     17  C   UNL     1      13.998  12.508  11.666  1.00  0.00    -0.000 C 
BRANCH  17  18
ATOM     18  C   UNL     1      14.938  11.713  12.584  1.00  0.00    -0.003 C 
ATOM     19  C   UNL     1      15.989  10.960  11.774  1.00  0.00     0.004 C 
ENDBRANCH  17  18
ENDBRANCH  16  17
ENDBRANCH  15  16
ENDBRANCH  14  15
ENDBRANCH  13  14
ENDBRANCH  12  13
ENDBRANCH   1  12
TORSDOF 14
ENDMDL
MODEL 5
REMARK VINA RESULT:    -2.798      1.441      3.030
REMARK INTER + INTRA:          -6.581
REMARK INTER:                  -5.055
REMARK INTRA:                  -1.525
REMARK UNBOUND:                -1.492
REMARK SMILES CCCCCCCCCCCCCC[C@H](C)C(=O)[O-]
REMARK SMILES IDX 9 1 10 2 11 3 12 4 13 5 14 6 15 7 16 8 17 9 18 10 19 11 8 12
REMARK SMILES IDX 7 13 6 14 5 15 4 16 3 17 2 18 1 19
REMARK H PARENT
REMARK Flexibility Score: inf
ROOT
ATOM      1  C   UNL     1      15.704  15.494   9.307  1.00  0.00     0.000 C 
ENDROOT
BRANCH   1   2
ATOM      2  C   UNL     1      16.141  16.658   8.402  1.00  0.00     0.000 C 
BRANCH   2   3
ATOM      3  C   UNL     1      15.702  18.005   8.993  1.00  0.00     0.000 C 
BRANCH   3   4
ATOM      4  C   UNL     1      16.859  19.009   9.105  1.00  0.00     0.000 C 
BRANCH   4   5
ATOM      5  C   UNL     1      16.421  20.353   9.709  1.00  0.00     0.001 C 
BRANCH   5   6
ATOM      6  C   UNL     1      15.972  20.180  11.168  1.00  0.00     0.009 C 
BRANCH   6   7
ATOM      7  C   UNL     1      14.470  20.477  11.355  1.00  0.00     0.032 C 
ATOM      8  C   UNL     1      14.251  21.947  11.723  1.00  0.00     0.014 C 
BRANCH   7   9
ATOM      9  C   UNL     1      13.859  19.588  12.406  1.00  0.00     0.044 C 
ATOM     10  O   UNL     1      12.708  19.826  12.857  1.00  0.00    -0.550 OA
ATOM     11  O   UNL     1      14.571  18.495  12.887  1.00  0.00    -0.550 OA
ENDBRANCH   7   9
ENDBRANCH   6   7
ENDBRANCH   5   6
ENDBRANCH   4   5
ENDBRANCH   3   4
ENDBRANCH   2   3
ENDBRANCH   1   2
BRANCH   1  12
ATOM     12  C   UNL     1      16.790  15.085  10.314  1.00  0.00     0.000 C 
BRANCH  12  13
ATOM     13  C   UNL     1      16.677  15.844  11.647  1.00  0.00    -0.000 C 
BRANCH  13  14
ATOM     14  C   UNL     1      16.773  14.913  12.866  1.00  0.00    -0.000 C 
BRANCH  14  15
ATOM     15  C   UNL     1      16.118  13.543  12.620  1.00  0.00    -0.000 C 
BRANCH  15  16
ATOM     16  C   UNL     1      14.627  13.517  13.003  1.00  0.00    -0.000 C 
BRANCH  16  17
ATOM     17  C   UNL     1      13.715  12.779  12.005  1.00  0.00    -0.000 C 
BRANCH  17  18
ATOM     18  C   UNL     1      14.501  11.978  10.957  1.00  0.00    -0.003 C 
ATOM     19  C   UNL     1      14.064  12.347   9.542  1.00  0.00     0.004 C 
ENDBRANCH  17  18
ENDBRANCH  16  17
ENDBRANCH  15  16
ENDBRANCH  14  15
ENDBRANCH  13  14
ENDBRANCH  12  13
ENDBRANCH   1  12
TORSDOF 14
ENDMDL
MODEL 6
REMARK VINA RESULT:    -2.726      2.874      6.777
REMARK INTER + INTRA:          -6.450
REMARK INTER:                  -5.125
REMARK INTRA:                  -1.325
REMARK UNBOUND:                -1.492
REMARK SMILES CCCCCCCCCCCCCC[C@H](C)C(=O)[O-]
REMARK SMILES IDX 9 1 10 2 11 3 12 4 13 5 14 6 15 7 16 8 17 9 18 10 19 11 8 12
REMARK SMILES IDX 7 13 6 14 5 15 4 16 3 17 2 18 1 19
REMARK H PARENT
REMARK Flexibility Score: inf
ROOT
ATOM      1  C   UNL     1      15.251  16.876   8.354  1.00  0.00     0.000 C 
ENDROOT
BRANCH   1   2
ATOM      2  C   UNL     1      15.645  15.792   7.337  1.00  0.00     0.000 C 
BRANCH   2   3
ATOM      3  C   UNL     1      15.771  14.422   8.018  1.00  0.00     0.000 C 
BRANCH   3   4
ATOM      4  C   UNL     1      17.089  14.262   8.790  1.00  0.00     0.000 C 
BRANCH   4   5
ATOM      5  C   UNL     1      17.027  13.146   9.845  1.00  0.00     0.001 C 
BRANCH   5   6
ATOM      6  C   UNL     1      16.340  13.640  11.128  1.00  0.00     0.009 C 
BRANCH   6   7
ATOM      7  C   UNL     1      15.564  12.515  11.843  1.00  0.00     0.032 C 
ATOM      8  C   UNL     1      16.230  11.157  11.599  1.00  0.00     0.014 C 
BRANCH   7   9
ATOM      9  C   UNL     1      14.126  12.468  11.398  1.00  0.00     0.044 C 
ATOM     10  O   UNL     1      13.198  12.777  12.192  1.00  0.00    -0.550 OA
ATOM     11  O   UNL     1      13.815  12.079  10.100  1.00  0.00    -0.550 OA
ENDBRANCH   7   9
ENDBRANCH   6   7
ENDBRANCH   5   6
ENDBRANCH   4   5
ENDBRANCH   3   4
ENDBRANCH   2   3
ENDBRANCH   1   2
BRANCH   1  12
ATOM     12  C   UNL     1      16.371  17.901   8.593  1.00  0.00     0.000 C 
BRANCH  12  13
ATOM     13  C   UNL     1      17.088  17.691   9.939  1.00  0.00    -0.000 C 
BRANCH  13  14
ATOM     14  C   UNL     1      16.199  18.049  11.141  1.00  0.00    -0.000 C 
BRANCH  14  15
ATOM     15  C   UNL     1      16.877  19.033  12.109  1.00  0.00    -0.000 C 
BRANCH  15  16
ATOM     16  C   UNL     1      16.332  20.467  11.983  1.00  0.00    -0.000 C 
BRANCH  16  17
ATOM     17  C   UNL     1      14.989  20.587  11.240  1.00  0.00    -0.000 C 
BRANCH  17  18
ATOM     18  C   UNL     1      13.818  20.926  12.173  1.00  0.00    -0.003 C 
ATOM     19  C   UNL     1      13.030  22.125  11.652  1.00  0.00     0.004 C 
ENDBRANCH  17  18
ENDBRANCH  16  17
ENDBRANCH  15  16
ENDBRANCH  14  15
ENDBRANCH  13  14
ENDBRANCH  12  13
ENDBRANCH   1  12
TORSDOF 14
ENDMDL
MODEL 7
REMARK VINA RESULT:    -2.618      1.094      2.816
REMARK INTER + INTRA:          -6.253
REMARK INTER:                  -4.938
REMARK INTRA:                  -1.315
REMARK UNBOUND:                -1.492
REMARK SMILES CCCCCCCCCCCCCC[C@H](C)C(=O)[O-]
REMARK SMILES IDX 9 1 10 2 11 3 12 4 13 5 14 6 15 7 16 8 17 9 18 10 19 11 8 12
REMARK SMILES IDX 7 13 6 14 5 15 4 16 3 17 2 18 1 19
REMARK H PARENT
REMARK Flexibility Score: inf
ROOT
ATOM      1  C   UNL     1      16.166  16.263   9.301  1.00  0.00     0.000 C 
ENDROOT
BRANCH   1   2
ATOM      2  C   UNL     1      17.033  16.872   8.186  1.00  0.00     0.000 C 
BRANCH   2   3
ATOM      3  C   UNL     1      17.017  18.407   8.258  1.00  0.00     0.000 C 
BRANCH   3   4
ATOM      4  C   UNL     1      17.125  18.934   9.697  1.00  0.00     0.000 C 
BRANCH   4   5
ATOM      5  C   UNL     1      15.964  19.868  10.074  1.00  0.00     0.001 C 
BRANCH   5   6
ATOM      6  C   UNL     1      16.219  20.542  11.430  1.00  0.00     0.009 C 
BRANCH   6   7
ATOM      7  C   UNL     1      15.128  20.200  12.466  1.00  0.00     0.032 C 
ATOM      8  C   UNL     1      15.057  18.687  12.697  1.00  0.00     0.014 C 
BRANCH   7   9
ATOM      9  C   UNL     1      13.780  20.718  12.038  1.00  0.00     0.044 C 
ATOM     10  O   UNL     1      12.768  19.969  12.065  1.00  0.00    -0.550 OA
ATOM     11  O   UNL     1      13.648  22.033  11.608  1.00  0.00    -0.550 OA
ENDBRANCH   7   9
ENDBRANCH   6   7
ENDBRANCH   5   6
ENDBRANCH   4   5
ENDBRANCH   3   4
ENDBRANCH   2   3
ENDBRANCH   1   2
BRANCH   1  12
ATOM     12  C   UNL     1      16.861  15.099  10.024  1.00  0.00     0.000 C 
BRANCH  12  13
ATOM     13  C   UNL     1      16.409  14.958  11.488  1.00  0.00    -0.000 C 
BRANCH  13  14
ATOM     14  C   UNL     1      16.490  13.508  11.993  1.00  0.00    -0.000 C 
BRANCH  14  15
ATOM     15  C   UNL     1      16.354  12.476  10.861  1.00  0.00    -0.000 C 
BRANCH  15  16
ATOM     16  C   UNL     1      15.017  11.715  10.903  1.00  0.00    -0.000 C 
BRANCH  16  17
ATOM     17  C   UNL     1      13.921  12.278   9.981  1.00  0.00    -0.000 C 
BRANCH  17  18
ATOM     18  C   UNL     1      14.489  13.060   8.787  1.00  0.00    -0.003 C 
ATOM     19  C   UNL     1      13.762  12.696   7.496  1.00  0.00     0.004 C 
ENDBRANCH  17  18
ENDBRANCH  16  17
ENDBRANCH  15  16
ENDBRANCH  14  15
ENDBRANCH  13  14
ENDBRANCH  12  13
ENDBRANCH   1  12
TORSDOF 14
ENDMDL
MODEL 8
REMARK VINA RESULT:    -2.354      2.840      7.106
REMARK INTER + INTRA:          -5.772
REMARK INTER:                  -4.269
REMARK INTRA:                  -1.504
REMARK UNBOUND:                -1.492
REMARK SMILES CCCCCCCCCCCCCC[C@H](C)C(=O)[O-]
REMARK SMILES IDX 9 1 10 2 11 3 12 4 13 5 14 6 15 7 16 8 17 9 18 10 19 11 8 12
REMARK SMILES IDX 7 13 6 14 5 15 4 16 3 17 2 18 1 19
REMARK H PARENT
REMARK Flexibility Score: inf
ROOT
ATOM      1  C   UNL     1      16.825  17.106  10.592  1.00  0.00     0.000 C 
ENDROOT
BRANCH   1   2
ATOM      2  C   UNL     1      16.519  17.116  12.099  1.00  0.00     0.000 C 
BRANCH   2   3
ATOM      3  C   UNL     1      16.654  15.706  12.693  1.00  0.00     0.000 C 
BRANCH   3   4
ATOM      4  C   UNL     1      15.960  14.634  11.839  1.00  0.00     0.000 C 
BRANCH   4   5
ATOM      5  C   UNL     1      16.941  13.584  11.294  1.00  0.00     0.001 C 
BRANCH   5   6
ATOM      6  C   UNL     1      16.387  12.921  10.023  1.00  0.00     0.009 C 
BRANCH   6   7
ATOM      7  C   UNL     1      14.889  13.224   9.813  1.00  0.00     0.032 C 
ATOM      8  C   UNL     1      14.029  12.031  10.242  1.00  0.00     0.014 C 
BRANCH   7   9
ATOM      9  C   UNL     1      14.594  13.579   8.379  1.00  0.00     0.044 C 
ATOM     10  O   UNL     1      15.063  14.630   7.869  1.00  0.00    -0.550 OA
ATOM     11  O   UNL     1      13.797  12.741   7.608  1.00  0.00    -0.550 OA
ENDBRANCH   7   9
ENDBRANCH   6   7
ENDBRANCH   5   6
ENDBRANCH   4   5
ENDBRANCH   3   4
ENDBRANCH   2   3
ENDBRANCH   1   2
BRANCH   1  12
ATOM     12  C   UNL     1      15.891  18.028   9.791  1.00  0.00     0.000 C 
BRANCH  12  13
ATOM     13  C   UNL     1      16.600  19.300   9.294  1.00  0.00    -0.000 C 
BRANCH  13  14
ATOM     14  C   UNL     1      17.125  20.171  10.447  1.00  0.00    -0.000 C 
BRANCH  14  15
ATOM     15  C   UNL     1      16.374  21.507  10.572  1.00  0.00    -0.000 C 
BRANCH  15  16
ATOM     16  C   UNL     1      15.721  21.699  11.953  1.00  0.00    -0.000 C 
BRANCH  16  17
ATOM     17  C   UNL     1      14.218  22.032  11.918  1.00  0.00    -0.000 C 
BRANCH  17  18
ATOM     18  C   UNL     1      13.339  20.801  11.659  1.00  0.00    -0.003 C 
ATOM     19  C   UNL     1      13.817  19.602  12.473  1.00  0.00     0.004 C 
ENDBRANCH  17  18
ENDBRANCH  16  17
ENDBRANCH  15  16
ENDBRANCH  14  15
ENDBRANCH  13  14
ENDBRANCH  12  13
ENDBRANCH   1  12
TORSDOF 14
ENDMDL
MODEL 9
REMARK VINA RESULT:    -1.835      3.236      6.881
REMARK INTER + INTRA:          -4.828
REMARK INTER:                  -3.717
REMARK INTRA:                  -1.111
REMARK UNBOUND:                -1.492
REMARK SMILES CCCCCCCCCCCCCC[C@H](C)C(=O)[O-]
REMARK SMILES IDX 9 1 10 2 11 3 12 4 13 5 14 6 15 7 16 8 17 9 18 10 19 11 8 12
REMARK SMILES IDX 7 13 6 14 5 15 4 16 3 17 2 18 1 19
REMARK H PARENT
REMARK Flexibility Score: inf
ROOT
ATOM      1  C   UNL     1      15.621  15.957   7.153  1.00  0.00     0.000 C 
ENDROOT
BRANCH   1   2
ATOM      2  C   UNL     1      15.248  14.512   7.524  1.00  0.00     0.000 C 
BRANCH   2   3
ATOM      3  C   UNL     1      16.502  13.697   7.876  1.00  0.00     0.000 C 
BRANCH   3   4
ATOM      4  C   UNL     1      16.510  13.222   9.337  1.00  0.00     0.000 C 
BRANCH   4   5
ATOM      5  C   UNL     1      15.225  13.600  10.090  1.00  0.00     0.001 C 
BRANCH   5   6
ATOM      6  C   UNL     1      14.389  12.352  10.412  1.00  0.00     0.009 C 
BRANCH   6   7
ATOM      7  C   UNL     1      14.452  11.977  11.907  1.00  0.00     0.032 C 
ATOM      8  C   UNL     1      14.000  13.153  12.779  1.00  0.00     0.014 C 
BRANCH   7   9
ATOM      9  C   UNL     1      15.838  11.544  12.308  1.00  0.00     0.044 C 
ATOM     10  O   UNL     1      16.511  12.225  13.125  1.00  0.00    -0.550 OA
ATOM     11  O   UNL     1      16.382  10.382  11.773  1.00  0.00    -0.550 OA
ENDBRANCH   7   9
ENDBRANCH   6   7
ENDBRANCH   5   6
ENDBRANCH   4   5
ENDBRANCH   3   4
ENDBRANCH   2   3
ENDBRANCH   1   2
BRANCH   1  12
ATOM     12  C   UNL     1      16.825  16.483   7.949  1.00  0.00     0.000 C 
BRANCH  12  13
ATOM     13  C   UNL     1      16.408  17.361   9.141  1.00  0.00    -0.000 C 
BRANCH  13  14
ATOM     14  C   UNL     1      16.721  18.849   8.914  1.00  0.00    -0.000 C 
BRANCH  14  15
ATOM     15  C   UNL     1      16.007  19.767   9.921  1.00  0.00    -0.000 C 
BRANCH  15  16
ATOM     16  C   UNL     1      15.201  18.986  10.975  1.00  0.00    -0.000 C 
BRANCH  16  17
ATOM     17  C   UNL     1      14.095  19.796  11.675  1.00  0.00    -0.000 C 
BRANCH  17  18
ATOM     18  C   UNL     1      14.321  21.313  11.591  1.00  0.00    -0.003 C 
ATOM     19  C   UNL     1      13.077  22.078  12.033  1.00  0.00     0.004 C 
ENDBRANCH  17  18
ENDBRANCH  16  17
ENDBRANCH  15  16
ENDBRANCH  14  15
ENDBRANCH  13  14
ENDBRANCH  12  13
ENDBRANCH   1  12
TORSDOF 14
ENDMDL
