MODEL 1
REMARK VINA RESULT:    -4.267      0.000      0.000
REMARK INTER + INTRA:          -5.702
REMARK INTER:                  -5.515
REMARK INTRA:                  -0.187
REMARK UNBOUND:                -0.187
REMARK SMILES CCO[C@@H]1O[C@H](CO)[C@@H](O)[C@@H](O)[C@H]1O
REMARK SMILES IDX 4 1 13 2 11 3 9 4 6 5 5 6 3 7 2 8 1 9 14 10 12 12 7 14 8 15
REMARK SMILES IDX 10 17
REMARK H PARENT 14 11 12 13 8 16 10 18
REMARK Flexibility Score: inf
ROOT
ATOM      1  C   UNL     1       7.980  -6.302  -1.543  1.00  0.00     0.281 C 
ATOM      2  C   UNL     1       9.373  -5.599  -1.640  1.00  0.00     0.202 C 
ATOM      3  C   UNL     1       9.230  -4.202  -2.273  1.00  0.00     0.179 C 
ATOM      4  C   UNL     1       8.188  -3.356  -1.505  1.00  0.00     0.177 C 
ATOM      5  C   UNL     1       7.018  -4.239  -0.993  1.00  0.00     0.178 C 
ATOM      6  O   UNL     1       6.904  -5.397  -1.801  1.00  0.00    -0.341 OA
ENDROOT
BRANCH   1   7
ATOM      7  O   UNL     1       7.940  -7.345  -2.507  1.00  0.00    -0.350 OA
BRANCH   7   8
ATOM      8  C   UNL     1       6.898  -8.259  -2.206  1.00  0.00     0.160 C 
ATOM      9  C   UNL     1       7.049  -8.768  -0.768  1.00  0.00     0.035 C 
ENDBRANCH   7   8
ENDBRANCH   1   7
BRANCH   2  10
ATOM     10  O   UNL     1       9.951  -5.468  -0.363  1.00  0.00    -0.385 OA
ATOM     11  H   UNL     1       9.235  -5.137   0.244  1.00  0.00     0.211 HD
ENDBRANCH   2  10
BRANCH   3  12
ATOM     12  O   UNL     1      10.466  -3.534  -2.302  1.00  0.00    -0.387 OA
ATOM     13  H   UNL     1      10.877  -3.663  -1.407  1.00  0.00     0.211 HD
ENDBRANCH   3  12
BRANCH   5  14
ATOM     14  C   UNL     1       5.686  -3.473  -1.024  1.00  0.00     0.191 C 
BRANCH  14  15
ATOM     15  O   UNL     1       5.209  -3.273   0.284  1.00  0.00    -0.394 OA
ATOM     16  H   UNL     1       4.210  -3.324   0.196  1.00  0.00     0.210 HD
ENDBRANCH  14  15
ENDBRANCH   5  14
BRANCH   4  17
ATOM     17  O   UNL     1       8.801  -2.717  -0.412  1.00  0.00    -0.387 OA
ATOM     18  H   UNL     1       8.083  -2.506   0.240  1.00  0.00     0.211 HD
ENDBRANCH   4  17
TORSDOF 7
ENDMDL
MODEL 2
REMARK VINA RESULT:    -3.438      1.345      3.311
REMARK INTER + INTRA:          -4.630
REMARK INTER:                  -4.395
REMARK INTRA:                  -0.236
REMARK UNBOUND:                -0.187
REMARK SMILES CCO[C@@H]1O[C@H](CO)[C@@H](O)[C@@H](O)[C@H]1O
REMARK SMILES IDX 4 1 13 2 11 3 9 4 6 5 5 6 3 7 2 8 1 9 14 10 12 12 7 14 8 15
REMARK SMILES IDX 10 17
REMARK H PARENT 14 11 12 13 8 16 10 18
REMARK Flexibility Score: inf
ROOT
ATOM      1  C   UNL     1       6.915  -5.543  -2.924  1.00  0.00     0.281 C 
ATOM      2  C   UNL     1       6.208  -4.491  -2.010  1.00  0.00     0.202 C 
ATOM      3  C   UNL     1       6.832  -4.490  -0.602  1.00  0.00     0.179 C 
ATOM      4  C   UNL     1       8.362  -4.277  -0.682  1.00  0.00     0.177 C 
ATOM      5  C   UNL     1       8.959  -4.973  -1.935  1.00  0.00     0.178 C 
ATOM      6  O   UNL     1       8.119  -6.040  -2.335  1.00  0.00    -0.341 OA
ENDROOT
BRANCH   1   7
ATOM      7  O   UNL     1       6.023  -6.630  -3.125  1.00  0.00    -0.350 OA
BRANCH   7   8
ATOM      8  C   UNL     1       6.600  -7.838  -2.659  1.00  0.00     0.160 C 
ATOM      9  C   UNL     1       5.748  -9.031  -3.110  1.00  0.00     0.035 C 
ENDBRANCH   7   8
ENDBRANCH   1   7
BRANCH   2  10
ATOM     10  O   UNL     1       6.319  -3.201  -2.563  1.00  0.00    -0.385 OA
ATOM     11  H   UNL     1       5.438  -2.755  -2.433  1.00  0.00     0.211 HD
ENDBRANCH   2  10
BRANCH   3  12
ATOM     12  O   UNL     1       6.250  -3.500   0.206  1.00  0.00    -0.387 OA
ATOM     13  H   UNL     1       6.130  -3.903   1.106  1.00  0.00     0.211 HD
ENDBRANCH   3  12
BRANCH   5  14
ATOM     14  C   UNL     1      10.366  -5.523  -1.650  1.00  0.00     0.191 C 
BRANCH  14  15
ATOM     15  O   UNL     1      10.530  -5.753  -0.272  1.00  0.00    -0.394 OA
ATOM     16  H   UNL     1       9.986  -6.578  -0.090  1.00  0.00     0.210 HD
ENDBRANCH  14  15
ENDBRANCH   5  14
BRANCH   4  17
ATOM     17  O   UNL     1       8.653  -2.902  -0.731  1.00  0.00    -0.387 OA
ATOM     18  H   UNL     1       8.832  -2.677  -1.681  1.00  0.00     0.211 HD
ENDBRANCH   4  17
TORSDOF 7
ENDMDL
MODEL 3
REMARK VINA RESULT:    -3.432      3.718      5.334
REMARK INTER + INTRA:          -4.622
REMARK INTER:                  -4.263
REMARK INTRA:                  -0.359
REMARK UNBOUND:                -0.187
REMARK SMILES CCO[C@@H]1O[C@H](CO)[C@@H](O)[C@@H](O)[C@H]1O
REMARK SMILES IDX 4 1 13 2 11 3 9 4 6 5 5 6 3 7 2 8 1 9 14 10 12 12 7 14 8 15
REMARK SMILES IDX 10 17
REMARK H PARENT 14 11 12 13 8 16 10 18
REMARK Flexibility Score: inf
ROOT
ATOM      1  C   UNL     1      13.018  -7.382  -1.838  1.00  0.00     0.281 C 
ATOM      2  C   UNL     1      12.814  -5.832  -1.869  1.00  0.00     0.202 C 
ATOM      3  C   UNL     1      11.416  -5.481  -2.410  1.00  0.00     0.179 C 
ATOM      4  C   UNL     1      10.317  -6.211  -1.602  1.00  0.00     0.177 C 
ATOM      5  C   UNL     1      10.788  -7.625  -1.167  1.00  0.00     0.178 C 
ATOM      6  O   UNL     1      11.793  -8.087  -2.051  1.00  0.00    -0.341 OA
ENDROOT
BRANCH   1   7
ATOM      7  O   UNL     1      13.930  -7.731  -2.870  1.00  0.00    -0.350 OA
BRANCH   7   8
ATOM      8  C   UNL     1      15.015  -8.476  -2.341  1.00  0.00     0.160 C 
ATOM      9  C   UNL     1      16.136  -7.526  -1.902  1.00  0.00     0.035 C 
ENDBRANCH   7   8
ENDBRANCH   1   7
BRANCH   2  10
ATOM     10  O   UNL     1      12.958  -5.289  -0.578  1.00  0.00    -0.385 OA
ATOM     11  H   UNL     1      13.455  -4.432  -0.680  1.00  0.00     0.211 HD
ENDBRANCH   2  10
BRANCH   3  12
ATOM     12  O   UNL     1      11.197  -4.094  -2.376  1.00  0.00    -0.387 OA
ATOM     13  H   UNL     1      10.742  -3.900  -1.514  1.00  0.00     0.211 HD
ENDBRANCH   3  12
BRANCH   5  14
ATOM     14  C   UNL     1       9.622  -8.625  -1.166  1.00  0.00     0.191 C 
BRANCH  14  15
ATOM     15  O   UNL     1       8.551  -8.125  -0.403  1.00  0.00    -0.394 OA
ATOM     16  H   UNL     1       8.946  -7.967   0.508  1.00  0.00     0.210 HD
ENDBRANCH  14  15
ENDBRANCH   5  14
BRANCH   4  17
ATOM     17  O   UNL     1       9.983  -5.460  -0.461  1.00  0.00    -0.387 OA
ATOM     18  H   UNL     1       9.381  -6.024   0.092  1.00  0.00     0.211 HD
ENDBRANCH   4  17
TORSDOF 7
ENDMDL
MODEL 4
REMARK VINA RESULT:    -3.420      2.335      4.687
REMARK INTER + INTRA:          -4.606
REMARK INTER:                  -4.343
REMARK INTRA:                  -0.264
REMARK UNBOUND:                -0.187
REMARK SMILES CCO[C@@H]1O[C@H](CO)[C@@H](O)[C@@H](O)[C@H]1O
REMARK SMILES IDX 4 1 13 2 11 3 9 4 6 5 5 6 3 7 2 8 1 9 14 10 12 12 7 14 8 15
REMARK SMILES IDX 10 17
REMARK H PARENT 14 11 12 13 8 16 10 18
REMARK Flexibility Score: inf
ROOT
ATOM      1  C   UNL     1       9.100  -3.567  -2.274  1.00  0.00     0.281 C 
ATOM      2  C   UNL     1       8.861  -4.790  -1.331  1.00  0.00     0.202 C 
ATOM      3  C   UNL     1       9.765  -5.969  -1.735  1.00  0.00     0.179 C 
ATOM      4  C   UNL     1      11.249  -5.533  -1.780  1.00  0.00     0.177 C 
ATOM      5  C   UNL     1      11.386  -4.073  -2.291  1.00  0.00     0.178 C 
ATOM      6  O   UNL     1      10.264  -3.737  -3.086  1.00  0.00    -0.341 OA
ENDROOT
BRANCH   1   7
ATOM      7  O   UNL     1       7.969  -3.431  -3.122  1.00  0.00    -0.350 OA
BRANCH   7   8
ATOM      8  C   UNL     1       6.874  -2.883  -2.406  1.00  0.00     0.160 C 
ATOM      9  C   UNL     1       5.649  -3.793  -2.549  1.00  0.00     0.035 C 
ENDBRANCH   7   8
ENDBRANCH   1   7
BRANCH   2  10
ATOM     10  O   UNL     1       9.129  -4.442   0.007  1.00  0.00    -0.385 OA
ATOM     11  H   UNL     1       8.452  -4.911   0.567  1.00  0.00     0.211 HD
ENDBRANCH   2  10
BRANCH   3  12
ATOM     12  O   UNL     1       9.608  -7.049  -0.850  1.00  0.00    -0.387 OA
ATOM     13  H   UNL     1      10.206  -7.772  -1.178  1.00  0.00     0.211 HD
ENDBRANCH   3  12
BRANCH   5  14
ATOM     14  C   UNL     1      12.665  -3.892  -3.124  1.00  0.00     0.191 C 
BRANCH  14  15
ATOM     15  O   UNL     1      13.786  -3.791  -2.281  1.00  0.00    -0.394 OA
ATOM     16  H   UNL     1      13.909  -4.718  -1.916  1.00  0.00     0.210 HD
ENDBRANCH  14  15
ENDBRANCH   5  14
BRANCH   4  17
ATOM     17  O   UNL     1      11.817  -5.632  -0.498  1.00  0.00    -0.387 OA
ATOM     18  H   UNL     1      11.177  -6.142   0.064  1.00  0.00     0.211 HD
ENDBRANCH   4  17
TORSDOF 7
ENDMDL
MODEL 5
REMARK VINA RESULT:    -3.365      2.118      4.543
REMARK INTER + INTRA:          -4.536
REMARK INTER:                  -4.158
REMARK INTRA:                  -0.378
REMARK UNBOUND:                -0.187
REMARK SMILES CCO[C@@H]1O[C@H](CO)[C@@H](O)[C@@H](O)[C@H]1O
REMARK SMILES IDX 4 1 13 2 11 3 9 4 6 5 5 6 3 7 2 8 1 9 14 10 12 12 7 14 8 15
REMARK SMILES IDX 10 17
REMARK H PARENT 14 11 12 13 8 16 10 18
REMARK Flexibility Score: inf
ROOT
ATOM      1  C   UNL     1       7.475  -2.938  -2.922  1.00  0.00     0.281 C 
ATOM      2  C   UNL     1       8.404  -2.744  -1.680  1.00  0.00     0.202 C 
ATOM      3  C   UNL     1       7.945  -3.641  -0.516  1.00  0.00     0.179 C 
ATOM      4  C   UNL     1       7.851  -5.118  -0.965  1.00  0.00     0.177 C 
ATOM      5  C   UNL     1       7.362  -5.226  -2.435  1.00  0.00     0.178 C 
ATOM      6  O   UNL     1       6.616  -4.072  -2.776  1.00  0.00    -0.341 OA
ENDROOT
BRANCH   1   7
ATOM      7  O   UNL     1       6.673  -1.774  -3.064  1.00  0.00    -0.350 OA
BRANCH   7   8
ATOM      8  C   UNL     1       7.424  -0.613  -2.751  1.00  0.00     0.160 C 
ATOM      9  C   UNL     1       6.625   0.642  -3.125  1.00  0.00     0.035 C 
ENDBRANCH   7   8
ENDBRANCH   1   7
BRANCH   2  10
ATOM     10  O   UNL     1       9.737  -3.060  -2.006  1.00  0.00    -0.385 OA
ATOM     11  H   UNL     1      10.315  -2.566  -1.363  1.00  0.00     0.211 HD
ENDBRANCH   2  10
BRANCH   3  12
ATOM     12  O   UNL     1       8.815  -3.526   0.581  1.00  0.00    -0.387 OA
ATOM     13  H   UNL     1       9.139  -2.587   0.588  1.00  0.00     0.211 HD
ENDBRANCH   3  12
BRANCH   5  14
ATOM     14  C   UNL     1       6.484  -6.470  -2.641  1.00  0.00     0.191 C 
BRANCH  14  15
ATOM     15  O   UNL     1       6.839  -7.474  -1.722  1.00  0.00    -0.394 OA
ATOM     16  H   UNL     1       6.382  -7.205  -0.869  1.00  0.00     0.210 HD
ENDBRANCH  14  15
ENDBRANCH   5  14
BRANCH   4  17
ATOM     17  O   UNL     1       9.109  -5.736  -0.847  1.00  0.00    -0.387 OA
ATOM     18  H   UNL     1       9.306  -5.811   0.123  1.00  0.00     0.211 HD
ENDBRANCH   4  17
TORSDOF 7
ENDMDL
MODEL 6
REMARK VINA RESULT:    -3.293      1.776      3.899
REMARK INTER + INTRA:          -4.442
REMARK INTER:                  -4.122
REMARK INTRA:                  -0.320
REMARK UNBOUND:                -0.187
REMARK SMILES CCO[C@@H]1O[C@H](CO)[C@@H](O)[C@@H](O)[C@H]1O
REMARK SMILES IDX 4 1 13 2 11 3 9 4 6 5 5 6 3 7 2 8 1 9 14 10 12 12 7 14 8 15
REMARK SMILES IDX 10 17
REMARK H PARENT 14 11 12 13 8 16 10 18
REMARK Flexibility Score: inf
ROOT
ATOM      1  C   UNL     1       7.339  -3.601  -2.930  1.00  0.00     0.281 C 
ATOM      2  C   UNL     1       7.953  -2.985  -1.631  1.00  0.00     0.202 C 
ATOM      3  C   UNL     1       8.087  -4.058  -0.534  1.00  0.00     0.179 C 
ATOM      4  C   UNL     1       8.889  -5.275  -1.053  1.00  0.00     0.177 C 
ATOM      5  C   UNL     1       8.585  -5.547  -2.551  1.00  0.00     0.178 C 
ATOM      6  O   UNL     1       7.310  -5.029  -2.882  1.00  0.00    -0.341 OA
ENDROOT
BRANCH   1   7
ATOM      7  O   UNL     1       6.009  -3.121  -3.064  1.00  0.00    -0.350 OA
BRANCH   7   8
ATOM      8  C   UNL     1       5.114  -3.920  -2.308  1.00  0.00     0.160 C 
ATOM      9  C   UNL     1       3.846  -4.199  -3.125  1.00  0.00     0.035 C 
ENDBRANCH   7   8
ENDBRANCH   1   7
BRANCH   2  10
ATOM     10  O   UNL     1       9.223  -2.437  -1.895  1.00  0.00    -0.385 OA
ATOM     11  H   UNL     1       9.447  -1.846  -1.125  1.00  0.00     0.211 HD
ENDBRANCH   2  10
BRANCH   3  12
ATOM     12  O   UNL     1       8.701  -3.530   0.614  1.00  0.00    -0.387 OA
ATOM     13  H   UNL     1       8.149  -3.819   1.388  1.00  0.00     0.211 HD
ENDBRANCH   3  12
BRANCH   5  14
ATOM     14  C   UNL     1       8.611  -7.052  -2.860  1.00  0.00     0.191 C 
BRANCH  14  15
ATOM     15  O   UNL     1       9.237  -7.754  -1.815  1.00  0.00    -0.394 OA
ATOM     16  H   UNL     1      10.220  -7.653  -1.999  1.00  0.00     0.210 HD
ENDBRANCH  14  15
ENDBRANCH   5  14
BRANCH   4  17
ATOM     17  O   UNL     1      10.267  -5.044  -0.892  1.00  0.00    -0.387 OA
ATOM     18  H   UNL     1      10.740  -5.808  -1.313  1.00  0.00     0.211 HD
ENDBRANCH   4  17
TORSDOF 7
ENDMDL
MODEL 7
REMARK VINA RESULT:    -3.269      2.297      4.841
REMARK INTER + INTRA:          -4.411
REMARK INTER:                  -4.225
REMARK INTRA:                  -0.186
REMARK UNBOUND:                -0.187
REMARK SMILES CCO[C@@H]1O[C@H](CO)[C@@H](O)[C@@H](O)[C@H]1O
REMARK SMILES IDX 4 1 13 2 11 3 9 4 6 5 5 6 3 7 2 8 1 9 14 10 12 12 7 14 8 15
REMARK SMILES IDX 10 17
REMARK H PARENT 14 11 12 13 8 16 10 18
REMARK Flexibility Score: inf
ROOT
ATOM      1  C   UNL     1       9.450  -5.157  -1.564  1.00  0.00     0.281 C 
ATOM      2  C   UNL     1       9.273  -6.705  -1.688  1.00  0.00     0.202 C 
ATOM      3  C   UNL     1      10.155  -7.262  -2.821  1.00  0.00     0.179 C 
ATOM      4  C   UNL     1      11.631  -6.846  -2.621  1.00  0.00     0.177 C 
ATOM      5  C   UNL     1      11.733  -5.420  -2.015  1.00  0.00     0.178 C 
ATOM      6  O   UNL     1      10.564  -4.684  -2.325  1.00  0.00    -0.341 OA
ENDROOT
BRANCH   1   7
ATOM      7  O   UNL     1       8.269  -4.534  -2.049  1.00  0.00    -0.350 OA
BRANCH   7   8
ATOM      8  C   UNL     1       7.141  -4.957  -1.301  1.00  0.00     0.160 C 
ATOM      9  C   UNL     1       6.693  -3.839  -0.353  1.00  0.00     0.035 C 
ENDBRANCH   7   8
ENDBRANCH   1   7
BRANCH   2  10
ATOM     10  O   UNL     1       9.619  -7.341  -0.480  1.00  0.00    -0.385 OA
ATOM     11  H   UNL     1       9.782  -6.620   0.187  1.00  0.00     0.211 HD
ENDBRANCH   2  10
BRANCH   3  12
ATOM     12  O   UNL     1      10.055  -8.661  -2.895  1.00  0.00    -0.387 OA
ATOM     13  H   UNL     1      10.754  -8.961  -3.534  1.00  0.00     0.211 HD
ENDBRANCH   3  12
BRANCH   5  14
ATOM     14  C   UNL     1      12.958  -4.669  -2.559  1.00  0.00     0.191 C 
BRANCH  14  15
ATOM     15  O   UNL     1      13.782  -4.249  -1.500  1.00  0.00    -0.394 OA
ATOM     16  H   UNL     1      13.445  -3.331  -1.269  1.00  0.00     0.210 HD
ENDBRANCH  14  15
ENDBRANCH   5  14
BRANCH   4  17
ATOM     17  O   UNL     1      12.276  -7.760  -1.770  1.00  0.00    -0.387 OA
ATOM     18  H   UNL     1      12.268  -7.365  -0.859  1.00  0.00     0.211 HD
ENDBRANCH   4  17
TORSDOF 7
ENDMDL
MODEL 8
REMARK VINA RESULT:    -3.212      1.849      3.190
REMARK INTER + INTRA:          -4.338
REMARK INTER:                  -4.138
REMARK INTRA:                  -0.200
REMARK UNBOUND:                -0.187
REMARK SMILES CCO[C@@H]1O[C@H](CO)[C@@H](O)[C@@H](O)[C@H]1O
REMARK SMILES IDX 4 1 13 2 11 3 9 4 6 5 5 6 3 7 2 8 1 9 14 10 12 12 7 14 8 15
REMARK SMILES IDX 10 17
REMARK H PARENT 14 11 12 13 8 16 10 18
REMARK Flexibility Score: inf
ROOT
ATOM      1  C   UNL     1       6.650  -5.769  -2.019  1.00  0.00     0.281 C 
ATOM      2  C   UNL     1       7.770  -6.742  -2.508  1.00  0.00     0.202 C 
ATOM      3  C   UNL     1       9.097  -5.984  -2.705  1.00  0.00     0.179 C 
ATOM      4  C   UNL     1       9.490  -5.222  -1.417  1.00  0.00     0.177 C 
ATOM      5  C   UNL     1       8.234  -4.672  -0.689  1.00  0.00     0.178 C 
ATOM      6  O   UNL     1       7.178  -4.503  -1.617  1.00  0.00    -0.341 OA
ENDROOT
BRANCH   1   7
ATOM      7  O   UNL     1       5.739  -5.564  -3.090  1.00  0.00    -0.350 OA
BRANCH   7   8
ATOM      8  C   UNL     1       5.240  -4.236  -3.069  1.00  0.00     0.160 C 
ATOM      9  C   UNL     1       3.707  -4.255  -3.125  1.00  0.00     0.035 C 
ENDBRANCH   7   8
ENDBRANCH   1   7
BRANCH   2  10
ATOM     10  O   UNL     1       7.967  -7.778  -1.576  1.00  0.00    -0.385 OA
ATOM     11  H   UNL     1       7.721  -8.628  -2.034  1.00  0.00     0.211 HD
ENDBRANCH   2  10
BRANCH   3  12
ATOM     12  O   UNL     1      10.127  -6.863  -3.078  1.00  0.00    -0.387 OA
ATOM     13  H   UNL     1      10.526  -6.494  -3.910  1.00  0.00     0.211 HD
ENDBRANCH   3  12
BRANCH   5  14
ATOM     14  C   UNL     1       8.528  -3.323  -0.013  1.00  0.00     0.191 C 
BRANCH  14  15
ATOM     15  O   UNL     1       8.831  -3.515   1.347  1.00  0.00    -0.394 OA
ATOM     16  H   UNL     1       7.953  -3.766   1.766  1.00  0.00     0.210 HD
ENDBRANCH  14  15
ENDBRANCH   5  14
BRANCH   4  17
ATOM     17  O   UNL     1      10.192  -6.078  -0.550  1.00  0.00    -0.387 OA
ATOM     18  H   UNL     1      10.572  -5.511   0.171  1.00  0.00     0.211 HD
ENDBRANCH   4  17
TORSDOF 7
ENDMDL
