MODEL 1
REMARK VINA RESULT:    -5.292      0.000      0.000
REMARK INTER + INTRA:          -9.214
REMARK INTER:                  -8.076
REMARK INTRA:                  -1.138
REMARK UNBOUND:                -1.138
REMARK SMILES CC(=O)CCC=C(C)CCC=C(C)CCC=C(C)C
REMARK SMILES IDX 10 1 11 2 12 3 13 4 14 5 15 6 16 7 18 8 17 9 19 10 9 11 7 12
REMARK SMILES IDX 6 13 8 14 5 15 4 16 2 17 3 18 1 19
REMARK H PARENT
REMARK Flexibility Score: inf
ROOT
ATOM      1  C   UNL     1       5.182  23.404  40.128  1.00  0.00     0.032 C 
ENDROOT
BRANCH   1   2
ATOM      2  C   UNL     1       4.195  23.321  38.991  1.00  0.00    -0.028 C 
ATOM      3  C   UNL     1       3.023  23.994  38.944  1.00  0.00    -0.077 C 
ATOM      4  C   UNL     1       2.613  24.959  40.032  1.00  0.00     0.039 C 
BRANCH   3   5
ATOM      5  C   UNL     1       2.103  23.786  37.760  1.00  0.00     0.034 C 
BRANCH   5   6
ATOM      6  C   UNL     1       2.158  22.334  37.274  1.00  0.00     0.032 C 
BRANCH   6   7
ATOM      7  C   UNL     1       0.802  21.682  37.385  1.00  0.00    -0.028 C 
ATOM      8  C   UNL     1      -0.953  20.264  38.359  1.00  0.00     0.039 C 
ATOM      9  C   UNL     1       0.421  20.880  38.404  1.00  0.00    -0.080 C 
ATOM     10  C   UNL     1       1.322  20.604  39.584  1.00  0.00     0.039 C 
ENDBRANCH   6   7
ENDBRANCH   5   6
ENDBRANCH   3   5
ENDBRANCH   1   2
BRANCH   1  11
ATOM     11  C   UNL     1       6.618  23.280  39.610  1.00  0.00     0.034 C 
BRANCH  11  12
ATOM     12  C   UNL     1       7.130  21.864  39.788  1.00  0.00    -0.077 C 
ATOM     13  C   UNL     1       8.175  21.364  39.090  1.00  0.00    -0.028 C 
ATOM     14  C   UNL     1       6.493  20.996  40.843  1.00  0.00     0.039 C 
BRANCH  13  15
ATOM     15  C   UNL     1       8.914  22.100  38.001  1.00  0.00     0.035 C 
BRANCH  15  16
ATOM     16  C   UNL     1      10.337  22.450  38.447  1.00  0.00     0.079 C 
BRANCH  16  17
ATOM     17  C   UNL     1      11.136  22.998  37.295  1.00  0.00     0.130 C 
ATOM     18  O   UNL     1      11.331  24.201  37.218  1.00  0.00    -0.300 OA
ATOM     19  C   UNL     1      11.691  22.099  36.230  1.00  0.00     0.087 C 
ENDBRANCH  16  17
ENDBRANCH  15  16
ENDBRANCH  13  15
ENDBRANCH  11  12
ENDBRANCH   1  11
TORSDOF 9
ENDMDL
MODEL 2
REMARK VINA RESULT:    -5.173      4.821      7.121
REMARK INTER + INTRA:          -9.032
REMARK INTER:                  -6.178
REMARK INTRA:                  -2.854
REMARK UNBOUND:                -1.138
REMARK SMILES CC(=O)CCC=C(C)CCC=C(C)CCC=C(C)C
REMARK SMILES IDX 10 1 11 2 12 3 13 4 14 5 15 6 16 7 18 8 17 9 19 10 9 11 7 12
REMARK SMILES IDX 6 13 8 14 5 15 4 16 2 17 3 18 1 19
REMARK H PARENT
REMARK Flexibility Score: inf
ROOT
ATOM      1  C   UNL     1       1.529  25.911  39.609  1.00  0.00     0.032 C 
ENDROOT
BRANCH   1   2
ATOM      2  C   UNL     1       1.981  24.641  38.934  1.00  0.00    -0.028 C 
ATOM      3  C   UNL     1       3.030  23.889  39.340  1.00  0.00    -0.077 C 
ATOM      4  C   UNL     1       3.828  24.236  40.576  1.00  0.00     0.039 C 
BRANCH   3   5
ATOM      5  C   UNL     1       3.403  22.657  38.545  1.00  0.00     0.034 C 
BRANCH   5   6
ATOM      6  C   UNL     1       2.329  22.335  37.500  1.00  0.00     0.032 C 
BRANCH   6   7
ATOM      7  C   UNL     1       1.614  21.053  37.846  1.00  0.00    -0.028 C 
ATOM      8  C   UNL     1      -0.274  19.620  38.494  1.00  0.00     0.039 C 
ATOM      9  C   UNL     1       0.294  20.965  38.123  1.00  0.00    -0.080 C 
ATOM     10  C   UNL     1      -0.619  22.166  38.054  1.00  0.00     0.039 C 
ENDBRANCH   6   7
ENDBRANCH   5   6
ENDBRANCH   3   5
ENDBRANCH   1   2
BRANCH   1  11
ATOM     11  C   UNL     1       0.223  25.681  40.376  1.00  0.00     0.034 C 
BRANCH  11  12
ATOM     12  C   UNL     1       0.508  25.368  41.833  1.00  0.00    -0.077 C 
ATOM     13  C   UNL     1       0.465  24.115  42.340  1.00  0.00    -0.028 C 
ATOM     14  C   UNL     1       0.931  26.494  42.741  1.00  0.00     0.039 C 
BRANCH  13  15
ATOM     15  C   UNL     1       0.057  22.887  41.567  1.00  0.00     0.035 C 
BRANCH  15  16
ATOM     16  C   UNL     1       1.156  21.821  41.618  1.00  0.00     0.079 C 
BRANCH  16  17
ATOM     17  C   UNL     1       0.575  20.474  41.959  1.00  0.00     0.130 C 
ATOM     18  O   UNL     1       1.228  19.465  41.743  1.00  0.00    -0.300 OA
ATOM     19  C   UNL     1      -0.797  20.342  42.550  1.00  0.00     0.087 C 
ENDBRANCH  16  17
ENDBRANCH  15  16
ENDBRANCH  13  15
ENDBRANCH  11  12
ENDBRANCH   1  11
TORSDOF 9
ENDMDL
MODEL 3
REMARK VINA RESULT:    -5.171      5.079      8.612
REMARK INTER + INTRA:          -9.029
REMARK INTER:                  -7.362
REMARK INTRA:                  -1.667
REMARK UNBOUND:                -1.138
REMARK SMILES CC(=O)CCC=C(C)CCC=C(C)CCC=C(C)C
REMARK SMILES IDX 10 1 11 2 12 3 13 4 14 5 15 6 16 7 18 8 17 9 19 10 9 11 7 12
REMARK SMILES IDX 6 13 8 14 5 15 4 16 2 17 3 18 1 19
REMARK H PARENT
REMARK Flexibility Score: inf
ROOT
ATOM      1  C   UNL     1      14.058  20.972  37.800  1.00  0.00     0.032 C 
ENDROOT
BRANCH   1   2
ATOM      2  C   UNL     1      12.584  20.851  38.092  1.00  0.00    -0.028 C 
ATOM      3  C   UNL     1      11.608  21.446  37.368  1.00  0.00    -0.077 C 
ATOM      4  C   UNL     1      11.916  22.263  36.135  1.00  0.00     0.039 C 
BRANCH   3   5
ATOM      5  C   UNL     1      10.167  21.275  37.797  1.00  0.00     0.034 C 
BRANCH   5   6
ATOM      6  C   UNL     1       9.901  22.003  39.119  1.00  0.00     0.032 C 
BRANCH   6   7
ATOM      7  C   UNL     1      10.084  23.491  38.956  1.00  0.00    -0.028 C 
ATOM      8  C   UNL     1       9.438  25.808  38.451  1.00  0.00     0.039 C 
ATOM      9  C   UNL     1       9.097  24.350  38.618  1.00  0.00    -0.080 C 
ATOM     10  C   UNL     1       7.670  23.893  38.424  1.00  0.00     0.039 C 
ENDBRANCH   6   7
ENDBRANCH   5   6
ENDBRANCH   3   5
ENDBRANCH   1   2
BRANCH   1  11
ATOM     11  C   UNL     1      14.748  21.848  38.849  1.00  0.00     0.034 C 
BRANCH  11  12
ATOM     12  C   UNL     1      14.797  23.293  38.390  1.00  0.00    -0.077 C 
ATOM     13  C   UNL     1      15.724  23.760  37.522  1.00  0.00    -0.028 C 
ATOM     14  C   UNL     1      13.721  24.236  38.863  1.00  0.00     0.039 C 
BRANCH  13  15
ATOM     15  C   UNL     1      16.865  22.949  36.961  1.00  0.00     0.035 C 
BRANCH  15  16
ATOM     16  C   UNL     1      16.667  22.692  35.464  1.00  0.00     0.079 C 
BRANCH  16  17
ATOM     17  C   UNL     1      17.962  22.271  34.822  1.00  0.00     0.130 C 
ATOM     18  O   UNL     1      18.410  22.922  33.890  1.00  0.00    -0.300 OA
ATOM     19  C   UNL     1      18.712  21.061  35.294  1.00  0.00     0.087 C 
ENDBRANCH  16  17
ENDBRANCH  15  16
ENDBRANCH  13  15
ENDBRANCH  11  12
ENDBRANCH   1  11
TORSDOF 9
ENDMDL
MODEL 4
REMARK VINA RESULT:    -5.156      1.536      2.097
REMARK INTER + INTRA:          -9.006
REMARK INTER:                  -7.535
REMARK INTRA:                  -1.471
REMARK UNBOUND:                -1.138
REMARK SMILES CC(=O)CCC=C(C)CCC=C(C)CCC=C(C)C
REMARK SMILES IDX 10 1 11 2 12 3 13 4 14 5 15 6 16 7 18 8 17 9 19 10 9 11 7 12
REMARK SMILES IDX 6 13 8 14 5 15 4 16 2 17 3 18 1 19
REMARK H PARENT
REMARK Flexibility Score: inf
ROOT
ATOM      1  C   UNL     1       4.431  23.197  39.689  1.00  0.00     0.032 C 
ENDROOT
BRANCH   1   2
ATOM      2  C   UNL     1       3.592  22.453  38.680  1.00  0.00    -0.028 C 
ATOM      3  C   UNL     1       2.477  22.949  38.097  1.00  0.00    -0.077 C 
ATOM      4  C   UNL     1       1.990  24.353  38.372  1.00  0.00     0.039 C 
BRANCH   3   5
ATOM      5  C   UNL     1       1.704  22.079  37.130  1.00  0.00     0.034 C 
BRANCH   5   6
ATOM      6  C   UNL     1       0.368  21.639  37.739  1.00  0.00     0.032 C 
BRANCH   6   7
ATOM      7  C   UNL     1       0.412  20.183  38.130  1.00  0.00    -0.028 C 
ATOM      8  C   UNL     1       0.712  18.248  39.615  1.00  0.00     0.039 C 
ATOM      9  C   UNL     1       0.657  19.735  39.382  1.00  0.00    -0.080 C 
ATOM     10  C   UNL     1       0.857  20.678  40.544  1.00  0.00     0.039 C 
ENDBRANCH   6   7
ENDBRANCH   5   6
ENDBRANCH   3   5
ENDBRANCH   1   2
BRANCH   1  11
ATOM     11  C   UNL     1       5.858  23.393  39.168  1.00  0.00     0.034 C 
BRANCH  11  12
ATOM     12  C   UNL     1       6.754  22.259  39.627  1.00  0.00    -0.077 C 
ATOM     13  C   UNL     1       7.964  22.005  39.076  1.00  0.00    -0.028 C 
ATOM     14  C   UNL     1       6.312  21.421  40.799  1.00  0.00     0.039 C 
BRANCH  13  15
ATOM     15  C   UNL     1       8.546  22.746  37.899  1.00  0.00     0.035 C 
BRANCH  15  16
ATOM     16  C   UNL     1       9.773  23.560  38.320  1.00  0.00     0.079 C 
BRANCH  16  17
ATOM     17  C   UNL     1       9.359  24.892  38.887  1.00  0.00     0.130 C 
ATOM     18  O   UNL     1       8.938  25.760  38.137  1.00  0.00    -0.300 OA
ATOM     19  C   UNL     1       9.461  25.183  40.355  1.00  0.00     0.087 C 
ENDBRANCH  16  17
ENDBRANCH  15  16
ENDBRANCH  13  15
ENDBRANCH  11  12
ENDBRANCH   1  11
TORSDOF 9
ENDMDL
MODEL 5
REMARK VINA RESULT:    -5.106     15.717     19.447
REMARK INTER + INTRA:          -8.931
REMARK INTER:                  -7.474
REMARK INTRA:                  -1.457
REMARK UNBOUND:                -1.138
REMARK SMILES CC(=O)CCC=C(C)CCC=C(C)CCC=C(C)C
REMARK SMILES IDX 10 1 11 2 12 3 13 4 14 5 15 6 16 7 18 8 17 9 19 10 9 11 7 12
REMARK SMILES IDX 6 13 8 14 5 15 4 16 2 17 3 18 1 19
REMARK H PARENT
REMARK Flexibility Score: inf
ROOT
ATOM      1  C   UNL     1      12.109   9.755  49.673  1.00  0.00     0.032 C 
ENDROOT
BRANCH   1   2
ATOM      2  C   UNL     1      13.513   9.637  50.212  1.00  0.00    -0.028 C 
ATOM      3  C   UNL     1      14.630   9.670  49.451  1.00  0.00    -0.077 C 
ATOM      4  C   UNL     1      14.572   9.889  47.957  1.00  0.00     0.039 C 
BRANCH   3   5
ATOM      5  C   UNL     1      15.978   9.499  50.118  1.00  0.00     0.034 C 
BRANCH   5   6
ATOM      6  C   UNL     1      16.156  10.507  51.258  1.00  0.00     0.032 C 
BRANCH   6   7
ATOM      7  C   UNL     1      17.148  11.577  50.875  1.00  0.00    -0.028 C 
ATOM      8  C   UNL     1      19.078  13.074  51.149  1.00  0.00     0.039 C 
ATOM      9  C   UNL     1      18.192  11.960  51.643  1.00  0.00    -0.080 C 
ATOM     10  C   UNL     1      18.501  11.294  52.963  1.00  0.00     0.039 C 
ENDBRANCH   6   7
ENDBRANCH   5   6
ENDBRANCH   3   5
ENDBRANCH   1   2
BRANCH   1  11
ATOM     11  C   UNL     1      11.408  10.987  50.252  1.00  0.00     0.034 C 
BRANCH  11  12
ATOM     12  C   UNL     1      11.178  12.027  49.172  1.00  0.00    -0.077 C 
ATOM     13  C   UNL     1       9.951  12.336  48.694  1.00  0.00    -0.028 C 
ATOM     14  C   UNL     1      12.363  12.805  48.658  1.00  0.00     0.039 C 
BRANCH  13  15
ATOM     15  C   UNL     1       8.671  11.650  49.100  1.00  0.00     0.035 C 
BRANCH  15  16
ATOM     16  C   UNL     1       7.994  11.000  47.889  1.00  0.00     0.079 C 
BRANCH  16  17
ATOM     17  C   UNL     1       8.714   9.740  47.489  1.00  0.00     0.130 C 
ATOM     18  O   UNL     1       8.836   8.835  48.299  1.00  0.00    -0.300 OA
ATOM     19  C   UNL     1       9.297   9.575  46.117  1.00  0.00     0.087 C 
ENDBRANCH  16  17
ENDBRANCH  15  16
ENDBRANCH  13  15
ENDBRANCH  11  12
ENDBRANCH   1  11
TORSDOF 9
ENDMDL
MODEL 6
REMARK VINA RESULT:    -5.077      2.856      7.736
REMARK INTER + INTRA:          -8.885
REMARK INTER:                  -6.865
REMARK INTRA:                  -2.020
REMARK UNBOUND:                -1.138
REMARK SMILES CC(=O)CCC=C(C)CCC=C(C)CCC=C(C)C
REMARK SMILES IDX 10 1 11 2 12 3 13 4 14 5 15 6 16 7 18 8 17 9 19 10 9 11 7 12
REMARK SMILES IDX 6 13 8 14 5 15 4 16 2 17 3 18 1 19
REMARK H PARENT
REMARK Flexibility Score: inf
ROOT
ATOM      1  C   UNL     1       1.789  21.664  37.512  1.00  0.00     0.032 C 
ENDROOT
BRANCH   1   2
ATOM      2  C   UNL     1       2.810  22.684  37.951  1.00  0.00    -0.028 C 
ATOM      3  C   UNL     1       3.394  22.708  39.170  1.00  0.00    -0.077 C 
ATOM      4  C   UNL     1       3.107  21.651  40.212  1.00  0.00     0.039 C 
BRANCH   3   5
ATOM      5  C   UNL     1       4.373  23.815  39.495  1.00  0.00     0.034 C 
BRANCH   5   6
ATOM      6  C   UNL     1       5.699  23.238  40.004  1.00  0.00     0.032 C 
BRANCH   6   7
ATOM      7  C   UNL     1       6.645  22.980  38.857  1.00  0.00    -0.028 C 
ATOM      8  C   UNL     1       8.786  22.477  37.761  1.00  0.00     0.039 C 
ATOM      9  C   UNL     1       7.952  22.667  39.001  1.00  0.00    -0.080 C 
ATOM     10  C   UNL     1       8.586  22.487  40.360  1.00  0.00     0.039 C 
ENDBRANCH   6   7
ENDBRANCH   5   6
ENDBRANCH   3   5
ENDBRANCH   1   2
BRANCH   1  11
ATOM     11  C   UNL     1       0.385  22.275  37.496  1.00  0.00     0.034 C 
BRANCH  11  12
ATOM     12  C   UNL     1      -0.476  21.664  38.585  1.00  0.00    -0.077 C 
ATOM     13  C   UNL     1      -0.940  22.369  39.642  1.00  0.00    -0.028 C 
ATOM     14  C   UNL     1      -0.895  20.222  38.447  1.00  0.00     0.039 C 
BRANCH  13  15
ATOM     15  C   UNL     1      -0.609  23.812  39.926  1.00  0.00     0.035 C 
BRANCH  15  16
ATOM     16  C   UNL     1       0.251  23.937  41.188  1.00  0.00     0.079 C 
BRANCH  16  17
ATOM     17  C   UNL     1       1.285  25.018  41.023  1.00  0.00     0.130 C 
ATOM     18  O   UNL     1       2.078  25.235  41.926  1.00  0.00    -0.300 OA
ATOM     19  C   UNL     1       1.357  25.846  39.775  1.00  0.00     0.087 C 
ENDBRANCH  16  17
ENDBRANCH  15  16
ENDBRANCH  13  15
ENDBRANCH  11  12
ENDBRANCH   1  11
TORSDOF 9
ENDMDL
MODEL 7
REMARK VINA RESULT:    -5.071      2.797      8.386
REMARK INTER + INTRA:          -8.876
REMARK INTER:                  -7.768
REMARK INTRA:                  -1.108
REMARK UNBOUND:                -1.138
REMARK SMILES CC(=O)CCC=C(C)CCC=C(C)CCC=C(C)C
REMARK SMILES IDX 10 1 11 2 12 3 13 4 14 5 15 6 16 7 18 8 17 9 19 10 9 11 7 12
REMARK SMILES IDX 6 13 8 14 5 15 4 16 2 17 3 18 1 19
REMARK H PARENT
REMARK Flexibility Score: inf
ROOT
ATOM      1  C   UNL     1       5.209  23.466  39.412  1.00  0.00     0.032 C 
ENDROOT
BRANCH   1   2
ATOM      2  C   UNL     1       6.212  22.358  39.615  1.00  0.00    -0.028 C 
ATOM      3  C   UNL     1       7.460  22.350  39.093  1.00  0.00    -0.077 C 
ATOM      4  C   UNL     1       7.994  23.510  38.285  1.00  0.00     0.039 C 
BRANCH   3   5
ATOM      5  C   UNL     1       8.352  21.153  39.340  1.00  0.00     0.034 C 
BRANCH   5   6
ATOM      6  C   UNL     1       9.161  20.807  38.086  1.00  0.00     0.032 C 
BRANCH   6   7
ATOM      7  C   UNL     1      10.632  20.717  38.405  1.00  0.00    -0.028 C 
ATOM      8  C   UNL     1      13.037  21.140  38.128  1.00  0.00     0.039 C 
ATOM      9  C   UNL     1      11.604  21.359  37.719  1.00  0.00    -0.080 C 
ATOM     10  C   UNL     1      11.291  22.293  36.575  1.00  0.00     0.039 C 
ENDBRANCH   6   7
ENDBRANCH   5   6
ENDBRANCH   3   5
ENDBRANCH   1   2
BRANCH   1  11
ATOM     11  C   UNL     1       3.789  22.971  39.704  1.00  0.00     0.034 C 
BRANCH  11  12
ATOM     12  C   UNL     1       2.764  23.981  39.227  1.00  0.00    -0.077 C 
ATOM     13  C   UNL     1       1.942  23.758  38.175  1.00  0.00    -0.028 C 
ATOM     14  C   UNL     1       2.600  25.263  40.003  1.00  0.00     0.039 C 
BRANCH  13  15
ATOM     15  C   UNL     1       1.983  22.534  37.296  1.00  0.00     0.035 C 
BRANCH  15  16
ATOM     16  C   UNL     1       0.665  21.757  37.382  1.00  0.00     0.079 C 
BRANCH  16  17
ATOM     17  C   UNL     1       0.725  20.729  38.481  1.00  0.00     0.130 C 
ATOM     18  O   UNL     1       1.131  19.605  38.231  1.00  0.00    -0.300 OA
ATOM     19  C   UNL     1       0.287  21.053  39.878  1.00  0.00     0.087 C 
ENDBRANCH  16  17
ENDBRANCH  15  16
ENDBRANCH  13  15
ENDBRANCH  11  12
ENDBRANCH   1  11
TORSDOF 9
ENDMDL
MODEL 8
REMARK VINA RESULT:    -5.016     13.121     16.192
REMARK INTER + INTRA:          -8.792
REMARK INTER:                  -6.622
REMARK INTRA:                  -2.170
REMARK UNBOUND:                -1.138
REMARK SMILES CC(=O)CCC=C(C)CCC=C(C)CCC=C(C)C
REMARK SMILES IDX 10 1 11 2 12 3 13 4 14 5 15 6 16 7 18 8 17 9 19 10 9 11 7 12
REMARK SMILES IDX 6 13 8 14 5 15 4 16 2 17 3 18 1 19
REMARK H PARENT
REMARK Flexibility Score: inf
ROOT
ATOM      1  C   UNL     1       1.157  12.908  48.655  1.00  0.00     0.032 C 
ENDROOT
BRANCH   1   2
ATOM      2  C   UNL     1       1.913  11.604  48.593  1.00  0.00    -0.028 C 
ATOM      3  C   UNL     1       2.737  11.245  47.583  1.00  0.00    -0.077 C 
ATOM      4  C   UNL     1       3.025  12.168  46.421  1.00  0.00     0.039 C 
BRANCH   3   5
ATOM      5  C   UNL     1       3.402   9.886  47.625  1.00  0.00     0.034 C 
BRANCH   5   6
ATOM      6  C   UNL     1       4.661   9.867  46.751  1.00  0.00     0.032 C 
BRANCH   6   7
ATOM      7  C   UNL     1       5.905   9.898  47.605  1.00  0.00    -0.028 C 
ATOM      8  C   UNL     1       8.091  10.701  48.388  1.00  0.00     0.039 C 
ATOM      9  C   UNL     1       6.885  10.822  47.494  1.00  0.00    -0.080 C 
ATOM     10  C   UNL     1       6.793  11.972  46.519  1.00  0.00     0.039 C 
ENDBRANCH   6   7
ENDBRANCH   5   6
ENDBRANCH   3   5
ENDBRANCH   1   2
BRANCH   1  11
ATOM     11  C   UNL     1      -0.325  12.690  48.340  1.00  0.00     0.034 C 
BRANCH  11  12
ATOM     12  C   UNL     1      -0.566  12.741  46.843  1.00  0.00    -0.077 C 
ATOM     13  C   UNL     1      -0.864  11.646  46.106  1.00  0.00    -0.028 C 
ATOM     14  C   UNL     1      -0.544  14.082  46.156  1.00  0.00     0.039 C 
BRANCH  13  15
ATOM     15  C   UNL     1      -0.919  10.237  46.641  1.00  0.00     0.035 C 
BRANCH  15  16
ATOM     16  C   UNL     1      -0.769   9.218  45.507  1.00  0.00     0.079 C 
BRANCH  16  17
ATOM     17  C   UNL     1       0.579   8.550  45.569  1.00  0.00     0.130 C 
ATOM     18  O   UNL     1       0.824   7.773  46.478  1.00  0.00    -0.300 OA
ATOM     19  C   UNL     1       1.636   8.826  44.540  1.00  0.00     0.087 C 
ENDBRANCH  16  17
ENDBRANCH  15  16
ENDBRANCH  13  15
ENDBRANCH  11  12
ENDBRANCH   1  11
TORSDOF 9
ENDMDL
MODEL 9
REMARK VINA RESULT:    -4.994      6.617     10.392
REMARK INTER + INTRA:          -8.759
REMARK INTER:                  -6.664
REMARK INTRA:                  -2.095
REMARK UNBOUND:                -1.138
REMARK SMILES CC(=O)CCC=C(C)CCC=C(C)CCC=C(C)C
REMARK SMILES IDX 10 1 11 2 12 3 13 4 14 5 15 6 16 7 18 8 17 9 19 10 9 11 7 12
REMARK SMILES IDX 6 13 8 14 5 15 4 16 2 17 3 18 1 19
REMARK H PARENT
REMARK Flexibility Score: inf
ROOT
ATOM      1  C   UNL     1      16.478  23.759  36.833  1.00  0.00     0.032 C 
ENDROOT
BRANCH   1   2
ATOM      2  C   UNL     1      15.183  24.113  37.521  1.00  0.00    -0.028 C 
ATOM      3  C   UNL     1      14.860  23.744  38.781  1.00  0.00    -0.077 C 
ATOM      4  C   UNL     1      15.818  22.968  39.655  1.00  0.00     0.039 C 
BRANCH   3   5
ATOM      5  C   UNL     1      13.507  24.133  39.336  1.00  0.00     0.034 C 
BRANCH   5   6
ATOM      6  C   UNL     1      12.451  24.169  38.226  1.00  0.00     0.032 C 
BRANCH   6   7
ATOM      7  C   UNL     1      11.428  23.078  38.426  1.00  0.00    -0.028 C 
ATOM      8  C   UNL     1      10.012  21.166  37.813  1.00  0.00     0.039 C 
ATOM      9  C   UNL     1      11.083  22.173  37.484  1.00  0.00    -0.080 C 
ATOM     10  C   UNL     1      11.750  22.134  36.129  1.00  0.00     0.039 C 
ENDBRANCH   6   7
ENDBRANCH   5   6
ENDBRANCH   3   5
ENDBRANCH   1   2
BRANCH   1  11
ATOM     11  C   UNL     1      16.287  22.553  35.908  1.00  0.00     0.034 C 
BRANCH  11  12
ATOM     12  C   UNL     1      17.612  21.862  35.651  1.00  0.00    -0.077 C 
ATOM     13  C   UNL     1      18.102  20.886  36.450  1.00  0.00    -0.028 C 
ATOM     14  C   UNL     1      18.385  22.225  34.409  1.00  0.00     0.039 C 
BRANCH  13  15
ATOM     15  C   UNL     1      17.455  20.413  37.727  1.00  0.00     0.035 C 
BRANCH  15  16
ATOM     16  C   UNL     1      16.645  19.135  37.486  1.00  0.00     0.079 C 
BRANCH  16  17
ATOM     17  C   UNL     1      15.354  19.170  38.261  1.00  0.00     0.130 C 
ATOM     18  O   UNL     1      15.186  18.388  39.184  1.00  0.00    -0.300 OA
ATOM     19  C   UNL     1      14.262  20.140  37.918  1.00  0.00     0.087 C 
ENDBRANCH  16  17
ENDBRANCH  15  16
ENDBRANCH  13  15
ENDBRANCH  11  12
ENDBRANCH   1  11
TORSDOF 9
ENDMDL
