MODEL 1
REMARK VINA RESULT:    -3.208      0.000      0.000
REMARK INTER + INTRA:          -3.817
REMARK INTER:                  -3.771
REMARK INTRA:                  -0.046
REMARK UNBOUND:                -0.046
REMARK SMILES CCCCC(=O)[O-]
REMARK SMILES IDX 4 1 5 2 6 3 7 4 3 5 2 6 1 7
REMARK H PARENT
REMARK Flexibility Score: inf
ROOT
ATOM      1  C   UNL     1      24.888   0.703  18.146  1.00  0.00     0.053 C 
ENDROOT
BRANCH   1   2
ATOM      2  C   UNL     1      24.919  -0.571  17.364  1.00  0.00     0.041 C 
ATOM      3  O   UNL     1      24.696  -0.559  16.124  1.00  0.00    -0.550 OA
ATOM      4  O   UNL     1      25.145  -1.779  18.010  1.00  0.00    -0.550 OA
ENDBRANCH   1   2
BRANCH   1   5
ATOM      5  C   UNL     1      25.679   1.798  17.418  1.00  0.00     0.006 C 
BRANCH   5   6
ATOM      6  C   UNL     1      24.976   3.163  17.463  1.00  0.00    -0.003 C 
ATOM      7  C   UNL     1      24.214   3.392  18.768  1.00  0.00     0.004 C 
ENDBRANCH   5   6
ENDBRANCH   1   5
TORSDOF 3
ENDMDL
MODEL 2
REMARK VINA RESULT:    -3.196      1.111      1.297
REMARK INTER + INTRA:          -3.803
REMARK INTER:                  -3.699
REMARK INTRA:                  -0.104
REMARK UNBOUND:                -0.046
REMARK SMILES CCCCC(=O)[O-]
REMARK SMILES IDX 4 1 5 2 6 3 7 4 3 5 2 6 1 7
REMARK H PARENT
REMARK Flexibility Score: inf
ROOT
ATOM      1  C   UNL     1      24.729   0.580  17.002  1.00  0.00     0.053 C 
ENDROOT
BRANCH   1   2
ATOM      2  C   UNL     1      24.413  -0.384  18.102  1.00  0.00     0.041 C 
ATOM      3  O   UNL     1      23.474  -0.142  18.906  1.00  0.00    -0.550 OA
ATOM      4  O   UNL     1      25.185  -1.525  18.269  1.00  0.00    -0.550 OA
ENDBRANCH   1   2
BRANCH   1   5
ATOM      5  C   UNL     1      25.682   1.672  17.506  1.00  0.00     0.006 C 
BRANCH   5   6
ATOM      6  C   UNL     1      25.059   3.074  17.444  1.00  0.00    -0.003 C 
ATOM      7  C   UNL     1      24.223   3.404  18.679  1.00  0.00     0.004 C 
ENDBRANCH   5   6
ENDBRANCH   1   5
TORSDOF 3
ENDMDL
MODEL 3
REMARK VINA RESULT:    -2.977      9.004      9.938
REMARK INTER + INTRA:          -3.545
REMARK INTER:                  -3.514
REMARK INTRA:                  -0.032
REMARK UNBOUND:                -0.046
REMARK SMILES CCCCC(=O)[O-]
REMARK SMILES IDX 4 1 5 2 6 3 7 4 3 5 2 6 1 7
REMARK H PARENT
REMARK Flexibility Score: inf
ROOT
ATOM      1  C   UNL     1      28.452   1.476   8.878  1.00  0.00     0.053 C 
ENDROOT
BRANCH   1   2
ATOM      2  C   UNL     1      28.693   2.806   9.519  1.00  0.00     0.041 C 
ATOM      3  O   UNL     1      29.108   2.871  10.707  1.00  0.00    -0.550 OA
ATOM      4  O   UNL     1      28.415   3.975   8.823  1.00  0.00    -0.550 OA
ENDBRANCH   1   2
BRANCH   1   5
ATOM      5  C   UNL     1      29.125   0.361   9.688  1.00  0.00     0.006 C 
BRANCH   5   6
ATOM      6  C   UNL     1      28.375  -0.975   9.589  1.00  0.00    -0.003 C 
ATOM      7  C   UNL     1      28.177  -1.437   8.146  1.00  0.00     0.004 C 
ENDBRANCH   5   6
ENDBRANCH   1   5
TORSDOF 3
ENDMDL
MODEL 4
REMARK VINA RESULT:    -2.970      9.964     10.830
REMARK INTER + INTRA:          -3.537
REMARK INTER:                  -3.455
REMARK INTRA:                  -0.082
REMARK UNBOUND:                -0.046
REMARK SMILES CCCCC(=O)[O-]
REMARK SMILES IDX 4 1 5 2 6 3 7 4 3 5 2 6 1 7
REMARK H PARENT
REMARK Flexibility Score: inf
ROOT
ATOM      1  C   UNL     1      27.695   1.368   8.538  1.00  0.00     0.053 C 
ENDROOT
BRANCH   1   2
ATOM      2  C   UNL     1      28.372   2.505   7.839  1.00  0.00     0.041 C 
ATOM      3  O   UNL     1      28.636   2.426   6.610  1.00  0.00    -0.550 OA
ATOM      4  O   UNL     1      28.754   3.632   8.554  1.00  0.00    -0.550 OA
ENDBRANCH   1   2
BRANCH   1   5
ATOM      5  C   UNL     1      28.735   0.393   9.104  1.00  0.00     0.006 C 
BRANCH   5   6
ATOM      6  C   UNL     1      28.436  -1.068   8.737  1.00  0.00    -0.003 C 
ATOM      7  C   UNL     1      28.706  -1.374   7.264  1.00  0.00     0.004 C 
ENDBRANCH   5   6
ENDBRANCH   1   5
TORSDOF 3
ENDMDL
MODEL 5
REMARK VINA RESULT:    -2.949      9.222     10.231
REMARK INTER + INTRA:          -3.512
REMARK INTER:                  -3.494
REMARK INTRA:                  -0.018
REMARK UNBOUND:                -0.046
REMARK SMILES CCCCC(=O)[O-]
REMARK SMILES IDX 4 1 5 2 6 3 7 4 3 5 2 6 1 7
REMARK H PARENT
REMARK Flexibility Score: inf
ROOT
ATOM      1  C   UNL     1      27.970   1.711   8.735  1.00  0.00     0.053 C 
ENDROOT
BRANCH   1   2
ATOM      2  C   UNL     1      28.629   2.859   9.431  1.00  0.00     0.041 C 
ATOM      3  O   UNL     1      28.841   3.937   8.814  1.00  0.00    -0.550 OA
ATOM      4  O   UNL     1      29.055   2.724  10.746  1.00  0.00    -0.550 OA
ENDBRANCH   1   2
BRANCH   1   5
ATOM      5  C   UNL     1      28.744   0.412   8.993  1.00  0.00     0.006 C 
BRANCH   5   6
ATOM      6  C   UNL     1      28.840  -0.475   7.743  1.00  0.00    -0.003 C 
ATOM      7  C   UNL     1      28.330  -1.895   7.986  1.00  0.00     0.004 C 
ENDBRANCH   5   6
ENDBRANCH   1   5
TORSDOF 3
ENDMDL
MODEL 6
REMARK VINA RESULT:    -2.897      2.461      2.820
REMARK INTER + INTRA:          -3.452
REMARK INTER:                  -3.394
REMARK INTRA:                  -0.058
REMARK UNBOUND:                -0.046
REMARK SMILES CCCCC(=O)[O-]
REMARK SMILES IDX 4 1 5 2 6 3 7 4 3 5 2 6 1 7
REMARK H PARENT
REMARK Flexibility Score: inf
ROOT
ATOM      1  C   UNL     1      24.569   1.547  18.792  1.00  0.00     0.053 C 
ENDROOT
BRANCH   1   2
ATOM      2  C   UNL     1      23.181   1.066  19.073  1.00  0.00     0.041 C 
ATOM      3  O   UNL     1      22.863  -0.129  18.829  1.00  0.00    -0.550 OA
ATOM      4  O   UNL     1      22.224   1.947  19.558  1.00  0.00    -0.550 OA
ENDBRANCH   1   2
BRANCH   1   5
ATOM      5  C   UNL     1      24.592   3.077  18.677  1.00  0.00     0.006 C 
BRANCH   5   6
ATOM      6  C   UNL     1      24.805   3.557  17.234  1.00  0.00    -0.003 C 
ATOM      7  C   UNL     1      23.895   4.726  16.861  1.00  0.00     0.004 C 
ENDBRANCH   5   6
ENDBRANCH   1   5
TORSDOF 3
ENDMDL
MODEL 7
REMARK VINA RESULT:    -2.867      3.527      4.633
REMARK INTER + INTRA:          -3.417
REMARK INTER:                  -3.364
REMARK INTRA:                  -0.053
REMARK UNBOUND:                -0.046
REMARK SMILES CCCCC(=O)[O-]
REMARK SMILES IDX 4 1 5 2 6 3 7 4 3 5 2 6 1 7
REMARK H PARENT
REMARK Flexibility Score: inf
ROOT
ATOM      1  C   UNL     1      24.724   3.781  17.198  1.00  0.00     0.053 C 
ENDROOT
BRANCH   1   2
ATOM      2  C   UNL     1      23.694   4.835  16.938  1.00  0.00     0.041 C 
ATOM      3  O   UNL     1      24.041   5.964  16.500  1.00  0.00    -0.550 OA
ATOM      4  O   UNL     1      22.359   4.588  17.226  1.00  0.00    -0.550 OA
ENDBRANCH   1   2
BRANCH   1   5
ATOM      5  C   UNL     1      24.538   3.186  18.600  1.00  0.00     0.006 C 
BRANCH   5   6
ATOM      6  C   UNL     1      24.465   1.652  18.584  1.00  0.00    -0.003 C 
ATOM      7  C   UNL     1      25.454   1.022  17.604  1.00  0.00     0.004 C 
ENDBRANCH   5   6
ENDBRANCH   1   5
TORSDOF 3
ENDMDL
MODEL 8
REMARK VINA RESULT:    -2.836      1.863      2.287
REMARK INTER + INTRA:          -3.380
REMARK INTER:                  -3.271
REMARK INTRA:                  -0.109
REMARK UNBOUND:                -0.046
REMARK SMILES CCCCC(=O)[O-]
REMARK SMILES IDX 4 1 5 2 6 3 7 4 3 5 2 6 1 7
REMARK H PARENT
REMARK Flexibility Score: inf
ROOT
ATOM      1  C   UNL     1      22.877   1.173  19.413  1.00  0.00     0.053 C 
ENDROOT
BRANCH   1   2
ATOM      2  C   UNL     1      23.155  -0.036  18.578  1.00  0.00     0.041 C 
ATOM      3  O   UNL     1      22.205  -0.676  18.052  1.00  0.00    -0.550 OA
ATOM      4  O   UNL     1      24.459  -0.487  18.419  1.00  0.00    -0.550 OA
ENDBRANCH   1   2
BRANCH   1   5
ATOM      5  C   UNL     1      23.020   2.449  18.572  1.00  0.00     0.006 C 
BRANCH   5   6
ATOM      6  C   UNL     1      24.389   3.122  18.749  1.00  0.00    -0.003 C 
ATOM      7  C   UNL     1      25.230   3.094  17.474  1.00  0.00     0.004 C 
ENDBRANCH   5   6
ENDBRANCH   1   5
TORSDOF 3
ENDMDL
MODEL 9
REMARK VINA RESULT:    -2.800      8.686      9.485
REMARK INTER + INTRA:          -3.338
REMARK INTER:                  -3.227
REMARK INTRA:                  -0.111
REMARK UNBOUND:                -0.046
REMARK SMILES CCCCC(=O)[O-]
REMARK SMILES IDX 4 1 5 2 6 3 7 4 3 5 2 6 1 7
REMARK H PARENT
REMARK Flexibility Score: inf
ROOT
ATOM      1  C   UNL     1      28.743   3.655   8.928  1.00  0.00     0.053 C 
ENDROOT
BRANCH   1   2
ATOM      2  C   UNL     1      28.261   2.500   8.109  1.00  0.00     0.041 C 
ATOM      3  O   UNL     1      27.580   1.585   8.644  1.00  0.00    -0.550 OA
ATOM      4  O   UNL     1      28.603   2.408   6.766  1.00  0.00    -0.550 OA
ENDBRANCH   1   2
BRANCH   1   5
ATOM      5  C   UNL     1      28.012   3.698  10.276  1.00  0.00     0.006 C 
BRANCH   5   6
ATOM      6  C   UNL     1      26.875   4.730  10.297  1.00  0.00    -0.003 C 
ATOM      7  C   UNL     1      25.492   4.084  10.368  1.00  0.00     0.004 C 
ENDBRANCH   5   6
ENDBRANCH   1   5
TORSDOF 3
ENDMDL
