MODEL 1
REMARK VINA RESULT:    -2.777      0.000      0.000
REMARK INTER + INTRA:          -5.978
REMARK INTER:                  -4.482
REMARK INTRA:                  -1.496
REMARK UNBOUND:                -1.496
REMARK SMILES CCCCCCCCCCCCO
REMARK SMILES IDX 7 1 6 2 5 3 4 4 3 5 2 6 1 7 8 8 9 9 10 10 11 11 12 12 13 13
REMARK H PARENT 13 14
REMARK Flexibility Score: inf
ROOT
ATOM      1  C   UNL     1       8.741   2.068  -1.980  1.00  0.00     0.000 C 
ENDROOT
BRANCH   1   2
ATOM      2  C   UNL     1       8.773   2.981  -0.745  1.00  0.00    -0.000 C 
BRANCH   2   3
ATOM      3  C   UNL     1       7.806   2.479   0.334  1.00  0.00    -0.000 C 
BRANCH   3   4
ATOM      4  C   UNL     1       6.500   3.285   0.322  1.00  0.00    -0.000 C 
BRANCH   4   5
ATOM      5  C   UNL     1       5.297   2.468  -0.179  1.00  0.00    -0.000 C 
BRANCH   5   6
ATOM      6  C   UNL     1       5.590   0.959  -0.319  1.00  0.00    -0.003 C 
ATOM      7  C   UNL     1       5.501   0.482  -1.769  1.00  0.00     0.004 C 
ENDBRANCH   5   6
ENDBRANCH   4   5
ENDBRANCH   3   4
ENDBRANCH   2   3
ENDBRANCH   1   2
BRANCH   1   8
ATOM      8  C   UNL     1       8.437   2.831  -3.280  1.00  0.00     0.000 C 
BRANCH   8   9
ATOM      9  C   UNL     1       7.618   4.125  -3.104  1.00  0.00     0.000 C 
BRANCH   9  10
ATOM     10  C   UNL     1       6.118   3.997  -3.426  1.00  0.00     0.002 C 
BRANCH  10  11
ATOM     11  C   UNL     1       5.301   5.210  -2.958  1.00  0.00     0.028 C 
BRANCH  11  12
ATOM     12  C   UNL     1       4.734   5.983  -4.148  1.00  0.00     0.156 C 
BRANCH  12  13
ATOM     13  O   UNL     1       5.620   7.006  -4.505  1.00  0.00    -0.396 OA
ATOM     14  H   UNL     1       6.469   6.558  -4.762  1.00  0.00     0.210 HD
ENDBRANCH  12  13
ENDBRANCH  11  12
ENDBRANCH  10  11
ENDBRANCH   9  10
ENDBRANCH   8   9
ENDBRANCH   1   8
TORSDOF 11
ENDMDL
MODEL 2
REMARK VINA RESULT:    -2.772      2.743      5.001
REMARK INTER + INTRA:          -5.969
REMARK INTER:                  -4.679
REMARK INTRA:                  -1.290
REMARK UNBOUND:                -1.496
REMARK SMILES CCCCCCCCCCCCO
REMARK SMILES IDX 7 1 6 2 5 3 4 4 3 5 2 6 1 7 8 8 9 9 10 10 11 11 12 12 13 13
REMARK H PARENT 13 14
REMARK Flexibility Score: inf
ROOT
ATOM      1  C   UNL     1       8.235   2.272   0.171  1.00  0.00     0.000 C 
ENDROOT
BRANCH   1   2
ATOM      2  C   UNL     1       8.761   3.003  -1.074  1.00  0.00    -0.000 C 
BRANCH   2   3
ATOM      3  C   UNL     1       8.590   2.141  -2.330  1.00  0.00    -0.000 C 
BRANCH   3   4
ATOM      4  C   UNL     1       7.614   2.794  -3.319  1.00  0.00    -0.000 C 
BRANCH   4   5
ATOM      5  C   UNL     1       7.226   4.227  -2.918  1.00  0.00    -0.000 C 
BRANCH   5   6
ATOM      6  C   UNL     1       5.703   4.475  -2.905  1.00  0.00    -0.003 C 
ATOM      7  C   UNL     1       5.331   5.846  -3.467  1.00  0.00     0.004 C 
ENDBRANCH   5   6
ENDBRANCH   4   5
ENDBRANCH   3   4
ENDBRANCH   2   3
ENDBRANCH   1   2
BRANCH   1   8
ATOM      8  C   UNL     1       6.896   2.837   0.675  1.00  0.00     0.000 C 
BRANCH   8   9
ATOM      9  C   UNL     1       5.643   2.284  -0.035  1.00  0.00     0.000 C 
BRANCH   9  10
ATOM     10  C   UNL     1       5.559   0.749  -0.108  1.00  0.00     0.002 C 
BRANCH  10  11
ATOM     11  C   UNL     1       5.498   0.222  -1.550  1.00  0.00     0.028 C 
BRANCH  11  12
ATOM     12  C   UNL     1       4.909  -1.187  -1.596  1.00  0.00     0.156 C 
BRANCH  12  13
ATOM     13  O   UNL     1       4.329  -1.491  -0.359  1.00  0.00    -0.396 OA
ATOM     14  H   UNL     1       4.209  -2.477  -0.346  1.00  0.00     0.210 HD
ENDBRANCH  12  13
ENDBRANCH  11  12
ENDBRANCH  10  11
ENDBRANCH   9  10
ENDBRANCH   8   9
ENDBRANCH   1   8
TORSDOF 11
ENDMDL
MODEL 3
REMARK VINA RESULT:    -2.772      2.432      4.951
REMARK INTER + INTRA:          -5.969
REMARK INTER:                  -4.765
REMARK INTRA:                  -1.204
REMARK UNBOUND:                -1.496
REMARK SMILES CCCCCCCCCCCCO
REMARK SMILES IDX 7 1 6 2 5 3 4 4 3 5 2 6 1 7 8 8 9 9 10 10 11 11 12 12 13 13
REMARK H PARENT 13 14
REMARK Flexibility Score: inf
ROOT
ATOM      1  C   UNL     1       8.498   3.107  -2.730  1.00  0.00     0.000 C 
ENDROOT
BRANCH   1   2
ATOM      2  C   UNL     1       7.474   4.039  -3.396  1.00  0.00    -0.000 C 
BRANCH   2   3
ATOM      3  C   UNL     1       6.165   3.296  -3.687  1.00  0.00    -0.000 C 
BRANCH   3   4
ATOM      4  C   UNL     1       4.949   4.156  -3.315  1.00  0.00    -0.000 C 
BRANCH   4   5
ATOM      5  C   UNL     1       5.269   5.661  -3.279  1.00  0.00    -0.000 C 
BRANCH   5   6
ATOM      6  C   UNL     1       4.666   6.449  -4.461  1.00  0.00    -0.003 C 
ATOM      7  C   UNL     1       5.739   7.007  -5.395  1.00  0.00     0.004 C 
ENDBRANCH   5   6
ENDBRANCH   4   5
ENDBRANCH   3   4
ENDBRANCH   2   3
ENDBRANCH   1   2
BRANCH   1   8
ATOM      8  C   UNL     1       8.724   3.432  -1.243  1.00  0.00     0.000 C 
BRANCH   8   9
ATOM      9  C   UNL     1       7.779   2.706  -0.263  1.00  0.00     0.000 C 
BRANCH   9  10
ATOM     10  C   UNL     1       6.465   3.448   0.045  1.00  0.00     0.002 C 
BRANCH  10  11
ATOM     11  C   UNL     1       5.232   2.537  -0.039  1.00  0.00     0.028 C 
BRANCH  11  12
ATOM     12  C   UNL     1       5.580   1.197  -0.686  1.00  0.00     0.156 C 
BRANCH  12  13
ATOM     13  O   UNL     1       5.235   0.156   0.183  1.00  0.00    -0.396 OA
ATOM     14  H   UNL     1       5.879   0.201   0.938  1.00  0.00     0.210 HD
ENDBRANCH  12  13
ENDBRANCH  11  12
ENDBRANCH  10  11
ENDBRANCH   9  10
ENDBRANCH   8   9
ENDBRANCH   1   8
TORSDOF 11
ENDMDL
MODEL 4
REMARK VINA RESULT:    -2.744      1.105      2.282
REMARK INTER + INTRA:          -5.924
REMARK INTER:                  -4.670
REMARK INTRA:                  -1.253
REMARK UNBOUND:                -1.496
REMARK SMILES CCCCCCCCCCCCO
REMARK SMILES IDX 7 1 6 2 5 3 4 4 3 5 2 6 1 7 8 8 9 9 10 10 11 11 12 12 13 13
REMARK H PARENT 13 14
REMARK Flexibility Score: inf
ROOT
ATOM      1  C   UNL     1       7.114   1.509  -2.933  1.00  0.00     0.000 C 
ENDROOT
BRANCH   1   2
ATOM      2  C   UNL     1       5.699   1.224  -2.407  1.00  0.00    -0.000 C 
BRANCH   2   3
ATOM      3  C   UNL     1       5.679   1.193  -0.875  1.00  0.00    -0.000 C 
BRANCH   3   4
ATOM      4  C   UNL     1       5.272   2.557  -0.301  1.00  0.00    -0.000 C 
BRANCH   4   5
ATOM      5  C   UNL     1       6.426   3.270   0.424  1.00  0.00    -0.000 C 
BRANCH   5   6
ATOM      6  C   UNL     1       7.636   2.355   0.709  1.00  0.00    -0.003 C 
ATOM      7  C   UNL     1       7.696   1.906   2.169  1.00  0.00     0.004 C 
ENDBRANCH   5   6
ENDBRANCH   4   5
ENDBRANCH   3   4
ENDBRANCH   2   3
ENDBRANCH   1   2
BRANCH   1   8
ATOM      8  C   UNL     1       7.180   2.763  -3.822  1.00  0.00     0.000 C 
BRANCH   8   9
ATOM      9  C   UNL     1       7.346   4.096  -3.063  1.00  0.00     0.000 C 
BRANCH   9  10
ATOM     10  C   UNL     1       6.363   5.207  -3.474  1.00  0.00     0.002 C 
BRANCH  10  11
ATOM     11  C   UNL     1       4.900   4.739  -3.475  1.00  0.00     0.028 C 
BRANCH  11  12
ATOM     12  C   UNL     1       4.075   5.516  -4.499  1.00  0.00     0.156 C 
BRANCH  12  13
ATOM     13  O   UNL     1       4.331   6.886  -4.362  1.00  0.00    -0.396 OA
ATOM     14  H   UNL     1       5.316   6.975  -4.279  1.00  0.00     0.210 HD
ENDBRANCH  12  13
ENDBRANCH  11  12
ENDBRANCH  10  11
ENDBRANCH   9  10
ENDBRANCH   8   9
ENDBRANCH   1   8
TORSDOF 11
ENDMDL
MODEL 5
REMARK VINA RESULT:    -2.734      3.153      5.597
REMARK INTER + INTRA:          -5.908
REMARK INTER:                  -4.454
REMARK INTRA:                  -1.453
REMARK UNBOUND:                -1.496
REMARK SMILES CCCCCCCCCCCCO
REMARK SMILES IDX 7 1 6 2 5 3 4 4 3 5 2 6 1 7 8 8 9 9 10 10 11 11 12 12 13 13
REMARK H PARENT 13 14
REMARK Flexibility Score: inf
ROOT
ATOM      1  C   UNL     1       5.250   2.867  -0.485  1.00  0.00     0.000 C 
ENDROOT
BRANCH   1   2
ATOM      2  C   UNL     1       5.718   2.646  -1.931  1.00  0.00    -0.000 C 
BRANCH   2   3
ATOM      3  C   UNL     1       5.803   3.975  -2.690  1.00  0.00    -0.000 C 
BRANCH   3   4
ATOM      4  C   UNL     1       7.244   4.266  -3.131  1.00  0.00    -0.000 C 
BRANCH   4   5
ATOM      5  C   UNL     1       8.108   2.997  -3.229  1.00  0.00    -0.000 C 
BRANCH   5   6
ATOM      6  C   UNL     1       9.549   3.188  -2.709  1.00  0.00    -0.003 C 
ATOM      7  C   UNL     1       9.698   4.450  -1.860  1.00  0.00     0.004 C 
ENDBRANCH   5   6
ENDBRANCH   4   5
ENDBRANCH   3   4
ENDBRANCH   2   3
ENDBRANCH   1   2
BRANCH   1   8
ATOM      8  C   UNL     1       6.358   3.427   0.423  1.00  0.00     0.000 C 
BRANCH   8   9
ATOM      9  C   UNL     1       7.174   2.367   1.191  1.00  0.00     0.000 C 
BRANCH   9  10
ATOM     10  C   UNL     1       8.527   1.998   0.554  1.00  0.00     0.002 C 
BRANCH  10  11
ATOM     11  C   UNL     1       8.543   0.578  -0.031  1.00  0.00     0.028 C 
BRANCH  11  12
ATOM     12  C   UNL     1       7.274  -0.185   0.343  1.00  0.00     0.156 C 
BRANCH  12  13
ATOM     13  O   UNL     1       7.589  -1.192   1.262  1.00  0.00    -0.396 OA
ATOM     14  H   UNL     1       7.585  -2.044   0.751  1.00  0.00     0.210 HD
ENDBRANCH  12  13
ENDBRANCH  11  12
ENDBRANCH  10  11
ENDBRANCH   9  10
ENDBRANCH   8   9
ENDBRANCH   1   8
TORSDOF 11
ENDMDL
MODEL 6
REMARK VINA RESULT:    -2.702      1.463      2.768
REMARK INTER + INTRA:          -5.856
REMARK INTER:                  -4.290
REMARK INTRA:                  -1.566
REMARK UNBOUND:                -1.496
REMARK SMILES CCCCCCCCCCCCO
REMARK SMILES IDX 7 1 6 2 5 3 4 4 3 5 2 6 1 7 8 8 9 9 10 10 11 11 12 12 13 13
REMARK H PARENT 13 14
REMARK Flexibility Score: inf
ROOT
ATOM      1  C   UNL     1       7.114   2.190   1.220  1.00  0.00     0.000 C 
ENDROOT
BRANCH   1   2
ATOM      2  C   UNL     1       8.558   1.789   0.885  1.00  0.00    -0.000 C 
BRANCH   2   3
ATOM      3  C   UNL     1       8.690   1.397  -0.592  1.00  0.00    -0.000 C 
BRANCH   3   4
ATOM      4  C   UNL     1       7.925   0.100  -0.888  1.00  0.00    -0.000 C 
BRANCH   4   5
ATOM      5  C   UNL     1       7.134   0.160  -2.206  1.00  0.00    -0.000 C 
BRANCH   5   6
ATOM      6  C   UNL     1       5.771  -0.562  -2.143  1.00  0.00    -0.003 C 
ATOM      7  C   UNL     1       5.231  -0.661  -0.716  1.00  0.00     0.004 C 
ENDBRANCH   5   6
ENDBRANCH   4   5
ENDBRANCH   3   4
ENDBRANCH   2   3
ENDBRANCH   1   2
BRANCH   1   8
ATOM      8  C   UNL     1       6.577   3.306   0.307  1.00  0.00     0.000 C 
BRANCH   8   9
ATOM      9  C   UNL     1       5.280   2.962  -0.454  1.00  0.00     0.000 C 
BRANCH   9  10
ATOM     10  C   UNL     1       5.267   3.369  -1.938  1.00  0.00     0.002 C 
BRANCH  10  11
ATOM     11  C   UNL     1       6.626   3.892  -2.425  1.00  0.00     0.028 C 
BRANCH  11  12
ATOM     12  C   UNL     1       6.451   4.949  -3.514  1.00  0.00     0.156 C 
BRANCH  12  13
ATOM     13  O   UNL     1       5.751   6.043  -2.994  1.00  0.00    -0.396 OA
ATOM     14  H   UNL     1       5.895   6.021  -2.012  1.00  0.00     0.210 HD
ENDBRANCH  12  13
ENDBRANCH  11  12
ENDBRANCH  10  11
ENDBRANCH   9  10
ENDBRANCH   8   9
ENDBRANCH   1   8
TORSDOF 11
ENDMDL
MODEL 7
REMARK VINA RESULT:    -2.657      1.166      2.246
REMARK INTER + INTRA:          -5.784
REMARK INTER:                  -4.725
REMARK INTRA:                  -1.059
REMARK UNBOUND:                -1.496
REMARK SMILES CCCCCCCCCCCCO
REMARK SMILES IDX 7 1 6 2 5 3 4 4 3 5 2 6 1 7 8 8 9 9 10 10 11 11 12 12 13 13
REMARK H PARENT 13 14
REMARK Flexibility Score: inf
ROOT
ATOM      1  C   UNL     1       7.598   3.009  -3.389  1.00  0.00     0.000 C 
ENDROOT
BRANCH   1   2
ATOM      2  C   UNL     1       8.419   4.035  -2.592  1.00  0.00    -0.000 C 
BRANCH   2   3
ATOM      3  C   UNL     1       9.123   3.370  -1.404  1.00  0.00    -0.000 C 
BRANCH   3   4
ATOM      4  C   UNL     1       8.333   2.152  -0.905  1.00  0.00    -0.000 C 
BRANCH   4   5
ATOM      5  C   UNL     1       7.740   2.357   0.499  1.00  0.00    -0.000 C 
BRANCH   5   6
ATOM      6  C   UNL     1       6.399   3.121   0.499  1.00  0.00    -0.003 C 
ATOM      7  C   UNL     1       5.272   2.317  -0.148  1.00  0.00     0.004 C 
ENDBRANCH   5   6
ENDBRANCH   4   5
ENDBRANCH   3   4
ENDBRANCH   2   3
ENDBRANCH   1   2
BRANCH   1   8
ATOM      8  C   UNL     1       6.171   3.494  -3.695  1.00  0.00     0.000 C 
BRANCH   8   9
ATOM      9  C   UNL     1       5.666   4.649  -2.805  1.00  0.00     0.000 C 
BRANCH   9  10
ATOM     10  C   UNL     1       5.503   6.001  -3.523  1.00  0.00     0.002 C 
BRANCH  10  11
ATOM     11  C   UNL     1       4.425   5.970  -4.617  1.00  0.00     0.028 C 
BRANCH  11  12
ATOM     12  C   UNL     1       4.531   7.192  -5.528  1.00  0.00     0.156 C 
BRANCH  12  13
ATOM     13  O   UNL     1       3.916   8.288  -4.912  1.00  0.00    -0.396 OA
ATOM     14  H   UNL     1       4.184   8.253  -3.957  1.00  0.00     0.210 HD
ENDBRANCH  12  13
ENDBRANCH  11  12
ENDBRANCH  10  11
ENDBRANCH   9  10
ENDBRANCH   8   9
ENDBRANCH   1   8
TORSDOF 11
ENDMDL
MODEL 8
REMARK VINA RESULT:    -2.646      2.414      5.072
REMARK INTER + INTRA:          -5.766
REMARK INTER:                  -4.607
REMARK INTRA:                  -1.159
REMARK UNBOUND:                -1.496
REMARK SMILES CCCCCCCCCCCCO
REMARK SMILES IDX 7 1 6 2 5 3 4 4 3 5 2 6 1 7 8 8 9 9 10 10 11 11 12 12 13 13
REMARK H PARENT 13 14
REMARK Flexibility Score: inf
ROOT
ATOM      1  C   UNL     1       5.900   0.728  -2.018  1.00  0.00     0.000 C 
ENDROOT
BRANCH   1   2
ATOM      2  C   UNL     1       5.607   1.973  -2.869  1.00  0.00    -0.000 C 
BRANCH   2   3
ATOM      3  C   UNL     1       6.903   2.575  -3.424  1.00  0.00    -0.000 C 
BRANCH   3   4
ATOM      4  C   UNL     1       6.908   4.103  -3.278  1.00  0.00    -0.000 C 
BRANCH   4   5
ATOM      5  C   UNL     1       5.536   4.670  -2.872  1.00  0.00    -0.000 C 
BRANCH   5   6
ATOM      6  C   UNL     1       5.161   5.971  -3.613  1.00  0.00    -0.003 C 
ATOM      7  C   UNL     1       5.824   6.070  -4.986  1.00  0.00     0.004 C 
ENDBRANCH   5   6
ENDBRANCH   4   5
ENDBRANCH   3   4
ENDBRANCH   2   3
ENDBRANCH   1   2
BRANCH   1   8
ATOM      8  C   UNL     1       5.554   0.926  -0.532  1.00  0.00     0.000 C 
BRANCH   8   9
ATOM      9  C   UNL     1       5.226   2.377  -0.123  1.00  0.00     0.000 C 
BRANCH   9  10
ATOM     10  C   UNL     1       6.401   3.164   0.486  1.00  0.00     0.002 C 
BRANCH  10  11
ATOM     11  C   UNL     1       7.619   2.279   0.788  1.00  0.00     0.028 C 
BRANCH  11  12
ATOM     12  C   UNL     1       8.757   2.558  -0.193  1.00  0.00     0.156 C 
BRANCH  12  13
ATOM     13  O   UNL     1       9.656   1.484  -0.182  1.00  0.00    -0.396 OA
ATOM     14  H   UNL     1       9.220   0.766   0.347  1.00  0.00     0.210 HD
ENDBRANCH  12  13
ENDBRANCH  11  12
ENDBRANCH  10  11
ENDBRANCH   9  10
ENDBRANCH   8   9
ENDBRANCH   1   8
TORSDOF 11
ENDMDL
MODEL 9
REMARK VINA RESULT:    -2.586      3.640      5.728
REMARK INTER + INTRA:          -5.668
REMARK INTER:                  -4.229
REMARK INTRA:                  -1.439
REMARK UNBOUND:                -1.496
REMARK SMILES CCCCCCCCCCCCO
REMARK SMILES IDX 7 1 6 2 5 3 4 4 3 5 2 6 1 7 8 8 9 9 10 10 11 11 12 12 13 13
REMARK H PARENT 13 14
REMARK Flexibility Score: inf
ROOT
ATOM      1  C   UNL     1       5.944   2.037  -2.702  1.00  0.00     0.000 C 
ENDROOT
BRANCH   1   2
ATOM      2  C   UNL     1       5.377   3.201  -1.874  1.00  0.00    -0.000 C 
BRANCH   2   3
ATOM      3  C   UNL     1       5.267   2.819  -0.394  1.00  0.00    -0.000 C 
BRANCH   3   4
ATOM      4  C   UNL     1       6.437   3.398   0.414  1.00  0.00    -0.000 C 
BRANCH   4   5
ATOM      5  C   UNL     1       7.273   2.316   1.117  1.00  0.00    -0.000 C 
BRANCH   5   6
ATOM      6  C   UNL     1       8.602   1.997   0.400  1.00  0.00    -0.003 C 
ATOM      7  C   UNL     1       8.918   2.999  -0.711  1.00  0.00     0.004 C 
ENDBRANCH   5   6
ENDBRANCH   4   5
ENDBRANCH   3   4
ENDBRANCH   2   3
ENDBRANCH   1   2
BRANCH   1   8
ATOM      8  C   UNL     1       5.594   0.659  -2.114  1.00  0.00     0.000 C 
BRANCH   8   9
ATOM      9  C   UNL     1       6.788  -0.302  -1.943  1.00  0.00     0.000 C 
BRANCH   9  10
ATOM     10  C   UNL     1       6.865  -1.009  -0.577  1.00  0.00     0.002 C 
BRANCH  10  11
ATOM     11  C   UNL     1       8.244  -1.628  -0.303  1.00  0.00     0.028 C 
BRANCH  11  12
ATOM     12  C   UNL     1       8.247  -2.401   1.014  1.00  0.00     0.156 C 
BRANCH  12  13
ATOM     13  O   UNL     1       7.947  -1.530   2.068  1.00  0.00    -0.396 OA
ATOM     14  H   UNL     1       8.667  -0.847   2.075  1.00  0.00     0.210 HD
ENDBRANCH  12  13
ENDBRANCH  11  12
ENDBRANCH  10  11
ENDBRANCH   9  10
ENDBRANCH   8   9
ENDBRANCH   1   8
TORSDOF 11
ENDMDL
