MODEL 1
REMARK VINA RESULT:    -4.797      0.000      0.000
REMARK INTER + INTRA:          -5.837
REMARK INTER:                  -5.779
REMARK INTRA:                  -0.058
REMARK UNBOUND:                -0.058
REMARK SMILES CC[C@@H](C)[C@@H]([NH3+])C(=O)[O-]
REMARK SMILES IDX 3 1 4 2 5 3 6 4 7 8 8 9 9 10 2 11 1 12
REMARK H PARENT 6 5 6 6 6 7
REMARK Flexibility Score: inf
ROOT
ATOM      1  C   UNL     1     -13.430   4.345  22.757  1.00  0.00     0.050 C 
ATOM      2  C   UNL     1     -12.546   4.049  23.983  1.00  0.00     0.014 C 
ENDROOT
BRANCH   1   3
ATOM      3  C   UNL     1     -13.071   3.461  21.521  1.00  0.00     0.230 C 
BRANCH   3   4
ATOM      4  N   UNL     1     -14.218   3.286  20.617  1.00  0.00    -0.350 N 
ATOM      5  H   UNL     1     -13.920   3.269  19.616  1.00  0.00     0.345 HD
ATOM      6  H   UNL     1     -14.908   4.059  20.759  1.00  0.00     0.345 HD
ATOM      7  H   UNL     1     -14.696   2.381  20.833  1.00  0.00     0.345 HD
ENDBRANCH   3   4
BRANCH   3   8
ATOM      8  C   UNL     1     -11.868   3.975  20.764  1.00  0.00     0.099 C 
ATOM      9  O   UNL     1     -11.309   3.268  19.884  1.00  0.00    -0.544 OA
ATOM     10  O   UNL     1     -11.385   5.252  21.019  1.00  0.00    -0.544 OA
ENDBRANCH   3   8
ENDBRANCH   1   3
BRANCH   1  11
ATOM     11  C   UNL     1     -14.923   4.242  23.163  1.00  0.00     0.006 C 
ATOM     12  C   UNL     1     -15.666   5.577  23.089  1.00  0.00     0.004 C 
ENDBRANCH   1  11
TORSDOF 4
ENDMDL
MODEL 2
REMARK VINA RESULT:    -4.727     18.730     19.649
REMARK INTER + INTRA:          -5.753
REMARK INTER:                  -5.662
REMARK INTRA:                  -0.091
REMARK UNBOUND:                -0.058
REMARK SMILES CC[C@@H](C)[C@@H]([NH3+])C(=O)[O-]
REMARK SMILES IDX 3 1 4 2 5 3 6 4 7 8 8 9 9 10 2 11 1 12
REMARK H PARENT 6 5 6 6 6 7
REMARK Flexibility Score: inf
ROOT
ATOM      1  C   UNL     1     -19.055 -12.958  13.193  1.00  0.00     0.050 C 
ATOM      2  C   UNL     1     -19.856 -12.209  12.113  1.00  0.00     0.014 C 
ENDROOT
BRANCH   1   3
ATOM      3  C   UNL     1     -17.838 -12.138  13.726  1.00  0.00     0.230 C 
BRANCH   3   4
ATOM      4  N   UNL     1     -17.945 -11.869  15.169  1.00  0.00    -0.350 N 
ATOM      5  H   UNL     1     -18.586 -12.547  15.639  1.00  0.00     0.345 HD
ATOM      6  H   UNL     1     -18.294 -10.896  15.328  1.00  0.00     0.345 HD
ATOM      7  H   UNL     1     -17.000 -11.951  15.609  1.00  0.00     0.345 HD
ENDBRANCH   3   4
BRANCH   3   8
ATOM      8  C   UNL     1     -16.510 -12.780  13.399  1.00  0.00     0.099 C 
ATOM      9  O   UNL     1     -16.459 -13.904  12.833  1.00  0.00    -0.544 OA
ATOM     10  O   UNL     1     -15.329 -12.115  13.700  1.00  0.00    -0.544 OA
ENDBRANCH   3   8
ENDBRANCH   1   3
BRANCH   1  11
ATOM     11  C   UNL     1     -20.016 -13.419  14.319  1.00  0.00     0.006 C 
ATOM     12  C   UNL     1     -21.487 -13.415  13.900  1.00  0.00     0.004 C 
ENDBRANCH   1  11
TORSDOF 4
ENDMDL
MODEL 3
REMARK VINA RESULT:    -4.592     18.768     19.697
REMARK INTER + INTRA:          -5.590
REMARK INTER:                  -5.502
REMARK INTRA:                  -0.088
REMARK UNBOUND:                -0.058
REMARK SMILES CC[C@@H](C)[C@@H]([NH3+])C(=O)[O-]
REMARK SMILES IDX 3 1 4 2 5 3 6 4 7 8 8 9 9 10 2 11 1 12
REMARK H PARENT 6 5 6 6 6 7
REMARK Flexibility Score: inf
ROOT
ATOM      1  C   UNL     1     -18.727 -12.829  13.256  1.00  0.00     0.050 C 
ATOM      2  C   UNL     1     -19.800 -13.351  14.229  1.00  0.00     0.014 C 
ENDROOT
BRANCH   1   3
ATOM      3  C   UNL     1     -17.309 -13.417  13.542  1.00  0.00     0.230 C 
BRANCH   3   4
ATOM      4  N   UNL     1     -16.668 -13.928  12.320  1.00  0.00    -0.350 N 
ATOM      5  H   UNL     1     -17.299 -14.578  11.798  1.00  0.00     0.345 HD
ATOM      6  H   UNL     1     -15.782 -14.427  12.561  1.00  0.00     0.345 HD
ATOM      7  H   UNL     1     -16.429 -13.127  11.692  1.00  0.00     0.345 HD
ENDBRANCH   3   4
BRANCH   3   8
ATOM      8  C   UNL     1     -16.402 -12.440  14.252  1.00  0.00     0.099 C 
ATOM      9  O   UNL     1     -16.650 -12.067  15.430  1.00  0.00    -0.544 OA
ATOM     10  O   UNL     1     -15.265 -11.963  13.613  1.00  0.00    -0.544 OA
ENDBRANCH   3   8
ENDBRANCH   1   3
BRANCH   1  11
ATOM     11  C   UNL     1     -19.198 -13.063  11.798  1.00  0.00     0.006 C 
ATOM     12  C   UNL     1     -19.646 -11.782  11.092  1.00  0.00     0.004 C 
ENDBRANCH   1  11
TORSDOF 4
ENDMDL
MODEL 4
REMARK VINA RESULT:    -4.483     19.748     20.235
REMARK INTER + INTRA:          -5.458
REMARK INTER:                  -5.386
REMARK INTRA:                  -0.072
REMARK UNBOUND:                -0.058
REMARK SMILES CC[C@@H](C)[C@@H]([NH3+])C(=O)[O-]
REMARK SMILES IDX 3 1 4 2 5 3 6 4 7 8 8 9 9 10 2 11 1 12
REMARK H PARENT 6 5 6 6 6 7
REMARK Flexibility Score: inf
ROOT
ATOM      1  C   UNL     1     -19.795 -12.032  12.335  1.00  0.00     0.050 C 
ATOM      2  C   UNL     1     -21.237 -12.247  12.830  1.00  0.00     0.014 C 
ENDROOT
BRANCH   1   3
ATOM      3  C   UNL     1     -18.881 -13.278  12.563  1.00  0.00     0.230 C 
BRANCH   3   4
ATOM      4  N   UNL     1     -18.495 -13.917  11.296  1.00  0.00    -0.350 N 
ATOM      5  H   UNL     1     -19.002 -13.498  10.483  1.00  0.00     0.345 HD
ATOM      6  H   UNL     1     -18.694 -14.943  11.335  1.00  0.00     0.345 HD
ATOM      7  H   UNL     1     -17.468 -13.791  11.142  1.00  0.00     0.345 HD
ENDBRANCH   3   4
BRANCH   3   8
ATOM      8  C   UNL     1     -17.662 -12.965  13.398  1.00  0.00     0.099 C 
ATOM      9  O   UNL     1     -17.757 -12.271  14.445  1.00  0.00    -0.544 OA
ATOM     10  O   UNL     1     -16.422 -13.469  13.026  1.00  0.00    -0.544 OA
ENDBRANCH   3   8
ENDBRANCH   1   3
BRANCH   1  11
ATOM     11  C   UNL     1     -19.824 -11.564  10.857  1.00  0.00     0.006 C 
ATOM     12  C   UNL     1     -21.075 -10.760  10.500  1.00  0.00     0.004 C 
ENDBRANCH   1  11
TORSDOF 4
ENDMDL
MODEL 5
REMARK VINA RESULT:    -4.418      1.608      2.487
REMARK INTER + INTRA:          -5.380
REMARK INTER:                  -5.315
REMARK INTRA:                  -0.065
REMARK UNBOUND:                -0.058
REMARK SMILES CC[C@@H](C)[C@@H]([NH3+])C(=O)[O-]
REMARK SMILES IDX 3 1 4 2 5 3 6 4 7 8 8 9 9 10 2 11 1 12
REMARK H PARENT 6 5 6 6 6 7
REMARK Flexibility Score: inf
ROOT
ATOM      1  C   UNL     1     -13.421   3.863  22.614  1.00  0.00     0.050 C 
ATOM      2  C   UNL     1     -14.780   4.529  22.897  1.00  0.00     0.014 C 
ENDROOT
BRANCH   1   3
ATOM      3  C   UNL     1     -12.664   4.513  21.412  1.00  0.00     0.230 C 
BRANCH   3   4
ATOM      4  N   UNL     1     -11.380   5.102  21.823  1.00  0.00    -0.350 N 
ATOM      5  H   UNL     1     -10.614   4.861  21.154  1.00  0.00     0.345 HD
ATOM      6  H   UNL     1     -11.122   4.767  22.780  1.00  0.00     0.345 HD
ATOM      7  H   UNL     1     -11.471   6.143  21.858  1.00  0.00     0.345 HD
ENDBRANCH   3   4
BRANCH   3   8
ATOM      8  C   UNL     1     -12.468   3.558  20.258  1.00  0.00     0.099 C 
ATOM      9  O   UNL     1     -11.320   3.133  19.959  1.00  0.00    -0.544 OA
ATOM     10  O   UNL     1     -13.567   3.118  19.532  1.00  0.00    -0.544 OA
ENDBRANCH   3   8
ENDBRANCH   1   3
BRANCH   1  11
ATOM     11  C   UNL     1     -12.581   3.837  23.917  1.00  0.00     0.006 C 
ATOM     12  C   UNL     1     -13.217   3.007  25.032  1.00  0.00     0.004 C 
ENDBRANCH   1  11
TORSDOF 4
ENDMDL
MODEL 6
REMARK VINA RESULT:    -4.381     19.262     20.218
REMARK INTER + INTRA:          -5.336
REMARK INTER:                  -5.270
REMARK INTRA:                  -0.066
REMARK UNBOUND:                -0.058
REMARK SMILES CC[C@@H](C)[C@@H]([NH3+])C(=O)[O-]
REMARK SMILES IDX 3 1 4 2 5 3 6 4 7 8 8 9 9 10 2 11 1 12
REMARK H PARENT 6 5 6 6 6 7
REMARK Flexibility Score: inf
ROOT
ATOM      1  C   UNL     1     -17.920 -13.111  13.526  1.00  0.00     0.050 C 
ATOM      2  C   UNL     1     -17.881 -12.058  14.648  1.00  0.00     0.014 C 
ENDROOT
BRANCH   1   3
ATOM      3  C   UNL     1     -18.892 -12.726  12.365  1.00  0.00     0.230 C 
BRANCH   3   4
ATOM      4  N   UNL     1     -18.742 -13.616  11.203  1.00  0.00    -0.350 N 
ATOM      5  H   UNL     1     -18.672 -14.618  11.493  1.00  0.00     0.345 HD
ATOM      6  H   UNL     1     -17.889 -13.354  10.658  1.00  0.00     0.345 HD
ATOM      7  H   UNL     1     -19.572 -13.512  10.576  1.00  0.00     0.345 HD
ENDBRANCH   3   4
BRANCH   3   8
ATOM      8  C   UNL     1     -20.335 -12.662  12.806  1.00  0.00     0.099 C 
ATOM      9  O   UNL     1     -21.111 -11.779  12.353  1.00  0.00    -0.544 OA
ATOM     10  O   UNL     1     -20.825 -13.602  13.704  1.00  0.00    -0.544 OA
ENDBRANCH   3   8
ENDBRANCH   1   3
BRANCH   1  11
ATOM     11  C   UNL     1     -16.477 -13.397  13.038  1.00  0.00     0.006 C 
ATOM     12  C   UNL     1     -15.438 -12.438  13.621  1.00  0.00     0.004 C 
ENDBRANCH   1  11
TORSDOF 4
ENDMDL
MODEL 7
REMARK VINA RESULT:    -4.118     18.715     19.718
REMARK INTER + INTRA:          -5.019
REMARK INTER:                  -4.951
REMARK INTRA:                  -0.068
REMARK UNBOUND:                -0.058
REMARK SMILES CC[C@@H](C)[C@@H]([NH3+])C(=O)[O-]
REMARK SMILES IDX 3 1 4 2 5 3 6 4 7 8 8 9 9 10 2 11 1 12
REMARK H PARENT 6 5 6 6 6 7
REMARK Flexibility Score: inf
ROOT
ATOM      1  C   UNL     1     -17.278 -12.609  13.624  1.00  0.00     0.050 C 
ATOM      2  C   UNL     1     -16.097 -13.429  13.074  1.00  0.00     0.014 C 
ENDROOT
BRANCH   1   3
ATOM      3  C   UNL     1     -18.660 -13.296  13.384  1.00  0.00     0.230 C 
BRANCH   3   4
ATOM      4  N   UNL     1     -19.482 -13.321  14.604  1.00  0.00    -0.350 N 
ATOM      5  H   UNL     1     -18.969 -12.918  15.421  1.00  0.00     0.345 HD
ATOM      6  H   UNL     1     -19.766 -14.303  14.825  1.00  0.00     0.345 HD
ATOM      7  H   UNL     1     -20.350 -12.759  14.450  1.00  0.00     0.345 HD
ENDBRANCH   3   4
BRANCH   3   8
ATOM      8  C   UNL     1     -19.426 -12.685  12.235  1.00  0.00     0.099 C 
ATOM      9  O   UNL     1     -20.464 -12.001  12.443  1.00  0.00    -0.544 OA
ATOM     10  O   UNL     1     -18.972 -12.853  10.934  1.00  0.00    -0.544 OA
ENDBRANCH   3   8
ENDBRANCH   1   3
BRANCH   1  11
ATOM     11  C   UNL     1     -17.020 -12.272  15.115  1.00  0.00     0.006 C 
ATOM     12  C   UNL     1     -15.749 -11.450  15.340  1.00  0.00     0.004 C 
ENDBRANCH   1  11
TORSDOF 4
ENDMDL
MODEL 8
REMARK VINA RESULT:    -4.008      2.991      4.196
REMARK INTER + INTRA:          -4.886
REMARK INTER:                  -4.801
REMARK INTRA:                  -0.085
REMARK UNBOUND:                -0.058
REMARK SMILES CC[C@@H](C)[C@@H]([NH3+])C(=O)[O-]
REMARK SMILES IDX 3 1 4 2 5 3 6 4 7 8 8 9 9 10 2 11 1 12
REMARK H PARENT 6 5 6 6 6 7
REMARK Flexibility Score: inf
ROOT
ATOM      1  C   UNL     1     -13.253   4.255  21.872  1.00  0.00     0.050 C 
ATOM      2  C   UNL     1     -13.651   3.235  20.789  1.00  0.00     0.014 C 
ENDROOT
BRANCH   1   3
ATOM      3  C   UNL     1     -13.488   3.725  23.322  1.00  0.00     0.230 C 
BRANCH   3   4
ATOM      4  N   UNL     1     -12.448   4.189  24.253  1.00  0.00    -0.350 N 
ATOM      5  H   UNL     1     -11.489   4.011  23.878  1.00  0.00     0.345 HD
ATOM      6  H   UNL     1     -12.553   3.709  25.176  1.00  0.00     0.345 HD
ATOM      7  H   UNL     1     -12.554   5.218  24.408  1.00  0.00     0.345 HD
ENDBRANCH   3   4
BRANCH   3   8
ATOM      8  C   UNL     1     -14.864   4.055  23.850  1.00  0.00     0.099 C 
ATOM      9  O   UNL     1     -15.299   3.514  24.902  1.00  0.00    -0.544 OA
ATOM     10  O   UNL     1     -15.655   4.984  23.186  1.00  0.00    -0.544 OA
ENDBRANCH   3   8
ENDBRANCH   1   3
BRANCH   1  11
ATOM     11  C   UNL     1     -11.796   4.723  21.626  1.00  0.00     0.006 C 
ATOM     12  C   UNL     1     -11.152   4.083  20.395  1.00  0.00     0.004 C 
ENDBRANCH   1  11
TORSDOF 4
ENDMDL
MODEL 9
REMARK VINA RESULT:    -3.988      1.056      2.172
REMARK INTER + INTRA:          -4.862
REMARK INTER:                  -5.527
REMARK INTRA:                   0.666
REMARK UNBOUND:                -0.058
REMARK SMILES CC[C@@H](C)[C@@H]([NH3+])C(=O)[O-]
REMARK SMILES IDX 3 1 4 2 5 3 6 4 7 8 8 9 9 10 2 11 1 12
REMARK H PARENT 6 5 6 6 6 7
REMARK Flexibility Score: inf
ROOT
ATOM      1  C   UNL     1     -13.933   3.568  22.933  1.00  0.00     0.050 C 
ATOM      2  C   UNL     1     -14.803   4.838  22.920  1.00  0.00     0.014 C 
ENDROOT
BRANCH   1   3
ATOM      3  C   UNL     1     -13.137   3.362  21.605  1.00  0.00     0.230 C 
BRANCH   3   4
ATOM      4  N   UNL     1     -14.025   3.301  20.434  1.00  0.00    -0.350 N 
ATOM      5  H   UNL     1     -13.888   4.123  19.804  1.00  0.00     0.345 HD
ATOM      6  H   UNL     1     -15.024   3.266  20.743  1.00  0.00     0.345 HD
ATOM      7  H   UNL     1     -13.823   2.432  19.889  1.00  0.00     0.345 HD
ENDBRANCH   3   4
BRANCH   3   8
ATOM      8  C   UNL     1     -12.057   4.400  21.404  1.00  0.00     0.099 C 
ATOM      9  O   UNL     1     -11.991   5.415  22.146  1.00  0.00    -0.544 OA
ATOM     10  O   UNL     1     -11.108   4.224  20.405  1.00  0.00    -0.544 OA
ENDBRANCH   3   8
ENDBRANCH   1   3
BRANCH   1  11
ATOM     11  C   UNL     1     -13.025   3.580  24.189  1.00  0.00     0.006 C 
ATOM     12  C   UNL     1     -13.604   2.790  25.364  1.00  0.00     0.004 C 
ENDBRANCH   1  11
TORSDOF 4
ENDMDL
