MODEL 1
REMARK VINA RESULT:    -3.960      0.000      0.000
REMARK INTER + INTRA:          -5.094
REMARK INTER:                  -4.770
REMARK INTRA:                  -0.323
REMARK UNBOUND:                -0.323
REMARK SMILES O=c1c(O)c(-c2ccc(O)c(O)c2)oc2cc(O)cc(O)c12
REMARK SMILES IDX 5 1 3 2 2 3 1 4 22 5 20 6 19 7 17 8 16 9 15 10 14 11 6 12
REMARK SMILES IDX 7 13 8 14 9 15 13 16 11 17 10 18 12 20 4 22 21 24 18 26
REMARK H PARENT 10 19 12 21 4 23 21 25 18 27
REMARK Flexibility Score: inf
ROOT
ATOM      1  C   UNL     1      22.268  52.779  52.141  1.00  0.00     0.180 A 
ATOM      2  C   UNL     1      22.968  53.935  52.538  1.00  0.00     0.208 A 
ATOM      3  C   UNL     1      22.483  54.682  53.622  1.00  0.00     0.238 A 
ATOM      4  O   UNL     1      23.109  55.713  53.993  1.00  0.00    -0.285 OA
ATOM      5  C   UNL     1      21.302  54.277  54.276  1.00  0.00     0.111 A 
ATOM      6  C   UNL     1      20.746  54.977  55.373  1.00  0.00     0.134 A 
ATOM      7  C   UNL     1      19.560  54.515  55.964  1.00  0.00     0.093 A 
ATOM      8  C   UNL     1      18.922  53.369  55.481  1.00  0.00     0.123 A 
ATOM      9  C   UNL     1      19.468  52.674  54.397  1.00  0.00     0.094 A 
ATOM     10  C   UNL     1      20.649  53.118  53.796  1.00  0.00     0.146 A 
ATOM     11  O   UNL     1      21.149  52.435  52.771  1.00  0.00    -0.452 OA
ENDROOT
BRANCH   1  12
ATOM     12  C   UNL     1      22.726  51.927  51.020  1.00  0.00     0.025 A 
ATOM     13  C   UNL     1      23.598  50.857  51.278  1.00  0.00     0.016 A 
ATOM     14  C   UNL     1      24.060  50.052  50.232  1.00  0.00     0.051 A 
ATOM     15  C   UNL     1      23.669  50.315  48.914  1.00  0.00     0.157 A 
ATOM     16  C   UNL     1      22.353  52.200  49.691  1.00  0.00     0.062 A 
ATOM     17  C   UNL     1      22.818  51.393  48.642  1.00  0.00     0.158 A 
BRANCH  15  18
ATOM     18  O   UNL     1      24.125  49.514  47.868  1.00  0.00    -0.504 OA
ATOM     19  H   UNL     1      24.648  49.903  47.092  1.00  0.00     0.293 HD
ENDBRANCH  15  18
BRANCH  17  20
ATOM     20  O   UNL     1      22.441  51.661  47.327  1.00  0.00    -0.504 OA
ATOM     21  H   UNL     1      22.299  52.609  46.998  1.00  0.00     0.293 HD
ENDBRANCH  17  20
ENDBRANCH   1  12
BRANCH   2  22
ATOM     22  O   UNL     1      24.109  54.342  51.842  1.00  0.00    -0.502 OA
ATOM     23  H   UNL     1      25.036  54.002  52.071  1.00  0.00     0.293 HD
ENDBRANCH   2  22
BRANCH   6  24
ATOM     24  O   UNL     1      21.358  56.125  55.879  1.00  0.00    -0.507 OA
ATOM     25  H   UNL     1      22.316  56.361  55.652  1.00  0.00     0.293 HD
ENDBRANCH   6  24
BRANCH   8  26
ATOM     26  O   UNL     1      17.746  52.932  56.086  1.00  0.00    -0.508 OA
ATOM     27  H   UNL     1      16.836  53.187  55.720  1.00  0.00     0.293 HD
ENDBRANCH   8  26
TORSDOF 6
ENDMDL
MODEL 2
REMARK VINA RESULT:    -3.831      2.319      3.229
REMARK INTER + INTRA:          -4.938
REMARK INTER:                  -4.661
REMARK INTRA:                  -0.278
REMARK UNBOUND:                -0.323
REMARK SMILES O=c1c(O)c(-c2ccc(O)c(O)c2)oc2cc(O)cc(O)c12
REMARK SMILES IDX 5 1 3 2 2 3 1 4 22 5 20 6 19 7 17 8 16 9 15 10 14 11 6 12
REMARK SMILES IDX 7 13 8 14 9 15 13 16 11 17 10 18 12 20 4 22 21 24 18 26
REMARK H PARENT 10 19 12 21 4 23 21 25 18 27
REMARK Flexibility Score: inf
ROOT
ATOM      1  C   UNL     1      21.809  53.354  51.974  1.00  0.00     0.180 A 
ATOM      2  C   UNL     1      22.175  52.103  52.509  1.00  0.00     0.208 A 
ATOM      3  C   UNL     1      21.552  51.660  53.686  1.00  0.00     0.238 A 
ATOM      4  O   UNL     1      21.864  50.537  54.167  1.00  0.00    -0.285 OA
ATOM      5  C   UNL     1      20.593  52.479  54.318  1.00  0.00     0.111 A 
ATOM      6  C   UNL     1      19.924  52.108  55.509  1.00  0.00     0.134 A 
ATOM      7  C   UNL     1      18.989  52.983  56.082  1.00  0.00     0.093 A 
ATOM      8  C   UNL     1      18.712  54.218  55.490  1.00  0.00     0.123 A 
ATOM      9  C   UNL     1      19.371  54.589  54.314  1.00  0.00     0.094 A 
ATOM     10  C   UNL     1      20.304  53.730  53.726  1.00  0.00     0.146 A 
ATOM     11  O   UNL     1      20.912  54.105  52.606  1.00  0.00    -0.452 OA
ENDROOT
BRANCH   1  12
ATOM     12  C   UNL     1      22.405  53.881  50.726  1.00  0.00     0.025 A 
ATOM     13  C   UNL     1      23.312  54.951  50.793  1.00  0.00     0.016 A 
ATOM     14  C   UNL     1      23.872  55.479  49.626  1.00  0.00     0.051 A 
ATOM     15  C   UNL     1      23.521  54.955  48.375  1.00  0.00     0.157 A 
ATOM     16  C   UNL     1      22.040  53.372  49.466  1.00  0.00     0.062 A 
ATOM     17  C   UNL     1      22.600  53.903  48.295  1.00  0.00     0.158 A 
BRANCH  15  18
ATOM     18  O   UNL     1      24.079  55.476  47.209  1.00  0.00    -0.504 OA
ATOM     19  H   UNL     1      24.592  56.350  47.212  1.00  0.00     0.293 HD
ENDBRANCH  15  18
BRANCH  17  20
ATOM     20  O   UNL     1      22.243  53.392  47.049  1.00  0.00    -0.504 OA
ATOM     21  H   UNL     1      22.098  52.400  46.903  1.00  0.00     0.293 HD
ENDBRANCH  17  20
ENDBRANCH   1  12
BRANCH   2  22
ATOM     22  O   UNL     1      23.163  51.334  51.890  1.00  0.00    -0.502 OA
ATOM     23  H   UNL     1      24.095  51.235  52.275  1.00  0.00     0.293 HD
ENDBRANCH   2  22
BRANCH   6  24
ATOM     24  O   UNL     1      20.179  50.882  56.125  1.00  0.00    -0.507 OA
ATOM     25  H   UNL     1      19.838  50.672  57.056  1.00  0.00     0.293 HD
ENDBRANCH   6  24
BRANCH   8  26
ATOM     26  O   UNL     1      17.780  55.067  56.080  1.00  0.00    -0.508 OA
ATOM     27  H   UNL     1      17.447  54.914  57.026  1.00  0.00     0.293 HD
ENDBRANCH   8  26
TORSDOF 6
ENDMDL
MODEL 3
REMARK VINA RESULT:    -2.777      2.820      4.054
REMARK INTER + INTRA:          -3.668
REMARK INTER:                  -3.347
REMARK INTRA:                  -0.322
REMARK UNBOUND:                -0.323
REMARK SMILES O=c1c(O)c(-c2ccc(O)c(O)c2)oc2cc(O)cc(O)c12
REMARK SMILES IDX 5 1 3 2 2 3 1 4 22 5 20 6 19 7 17 8 16 9 15 10 14 11 6 12
REMARK SMILES IDX 7 13 8 14 9 15 13 16 11 17 10 18 12 20 4 22 21 24 18 26
REMARK H PARENT 10 19 12 21 4 23 21 25 18 27
REMARK Flexibility Score: inf
ROOT
ATOM      1  C   UNL     1      22.317  53.532  51.875  1.00  0.00     0.180 A 
ATOM      2  C   UNL     1      21.110  53.905  52.498  1.00  0.00     0.208 A 
ATOM      3  C   UNL     1      20.729  53.256  53.683  1.00  0.00     0.238 A 
ATOM      4  O   UNL     1      19.656  53.589  54.255  1.00  0.00    -0.285 OA
ATOM      5  C   UNL     1      21.546  52.236  54.213  1.00  0.00     0.111 A 
ATOM      6  C   UNL     1      21.231  51.531  55.399  1.00  0.00     0.134 A 
ATOM      7  C   UNL     1      22.092  50.521  55.857  1.00  0.00     0.093 A 
ATOM      8  C   UNL     1      23.257  50.204  55.153  1.00  0.00     0.123 A 
ATOM      9  C   UNL     1      23.572  50.898  53.981  1.00  0.00     0.094 A 
ATOM     10  C   UNL     1      22.728  51.908  53.509  1.00  0.00     0.146 A 
ATOM     11  O   UNL     1      23.055  52.555  52.395  1.00  0.00    -0.452 OA
ENDROOT
BRANCH   1  12
ATOM     12  C   UNL     1      22.796  54.182  50.635  1.00  0.00     0.025 A 
ATOM     13  C   UNL     1      23.535  55.373  50.721  1.00  0.00     0.016 A 
ATOM     14  C   UNL     1      23.981  56.016  49.563  1.00  0.00     0.051 A 
ATOM     15  C   UNL     1      23.680  55.485  48.302  1.00  0.00     0.157 A 
ATOM     16  C   UNL     1      22.479  53.665  49.366  1.00  0.00     0.062 A 
ATOM     17  C   UNL     1      22.925  54.311  48.203  1.00  0.00     0.158 A 
BRANCH  15  18
ATOM     18  O   UNL     1      24.125  56.121  47.144  1.00  0.00    -0.504 OA
ATOM     19  H   UNL     1      25.110  56.286  46.975  1.00  0.00     0.293 HD
ENDBRANCH  15  18
BRANCH  17  20
ATOM     20  O   UNL     1      22.616  53.793  46.947  1.00  0.00    -0.504 OA
ATOM     21  H   UNL     1      22.610  52.794  46.771  1.00  0.00     0.293 HD
ENDBRANCH  17  20
ENDBRANCH   1  12
BRANCH   2  22
ATOM     22  O   UNL     1      20.294  54.884  51.926  1.00  0.00    -0.502 OA
ATOM     23  H   UNL     1      20.306  55.088  50.933  1.00  0.00     0.293 HD
ENDBRANCH   2  22
BRANCH   6  24
ATOM     24  O   UNL     1      20.075  51.823  56.124  1.00  0.00    -0.507 OA
ATOM     25  H   UNL     1      19.748  52.774  56.245  1.00  0.00     0.293 HD
ENDBRANCH   6  24
BRANCH   8  26
ATOM     26  O   UNL     1      24.093  49.198  55.629  1.00  0.00    -0.508 OA
ATOM     27  H   UNL     1      24.735  48.708  55.016  1.00  0.00     0.293 HD
ENDBRANCH   8  26
TORSDOF 6
ENDMDL
