MODEL 1
REMARK VINA RESULT:    -2.750      0.000      0.000
REMARK INTER + INTRA:          -4.484
REMARK INTER:                  -3.393
REMARK INTRA:                  -1.090
REMARK UNBOUND:                -1.090
REMARK SMILES CC(C)=CCC[C@@H](C)c1ccc(C)cc1
REMARK SMILES IDX 6 1 7 2 8 3 9 4 13 5 12 6 11 7 14 8 10 9 15 10 5 11 4 12
REMARK SMILES IDX 2 13 1 14 3 15
REMARK H PARENT
REMARK Flexibility Score: inf
ROOT
ATOM      1  C   UNL     1      -8.704  24.043  28.817  1.00  0.00     0.012 C 
ENDROOT
BRANCH   1   2
ATOM      2  C   UNL     1      -9.348  24.022  27.412  1.00  0.00     0.016 C 
ATOM      3  C   UNL     1      -9.957  25.380  27.029  1.00  0.00     0.013 C 
BRANCH   2   4
ATOM      4  C   UNL     1      -8.334  23.584  26.371  1.00  0.00    -0.045 A 
ATOM      5  C   UNL     1      -5.451  22.306  23.419  1.00  0.00     0.044 C 
ATOM      6  C   UNL     1      -6.429  22.766  24.458  1.00  0.00    -0.051 A 
ATOM      7  C   UNL     1      -6.686  21.973  25.587  1.00  0.00     0.004 A 
ATOM      8  C   UNL     1      -7.146  23.957  24.278  1.00  0.00     0.004 A 
ATOM      9  C   UNL     1      -7.625  22.382  26.538  1.00  0.00     0.004 A 
ATOM     10  C   UNL     1      -8.084  24.368  25.228  1.00  0.00     0.004 A 
ENDBRANCH   2   4
ENDBRANCH   1   2
BRANCH   1  11
ATOM     11  C   UNL     1      -8.534  25.466  29.369  1.00  0.00     0.028 C 
BRANCH  11  12
ATOM     12  C   UNL     1      -7.180  25.631  30.011  1.00  0.00    -0.028 C 
ATOM     13  C   UNL     1      -6.050  25.953  29.341  1.00  0.00    -0.080 C 
ATOM     14  C   UNL     1      -6.032  26.125  27.840  1.00  0.00     0.039 C 
ATOM     15  C   UNL     1      -4.774  26.124  30.124  1.00  0.00     0.039 C 
ENDBRANCH  11  12
ENDBRANCH   1  11
TORSDOF 4
ENDMDL
MODEL 2
REMARK VINA RESULT:    -1.902      0.921      5.111
REMARK INTER + INTRA:          -3.438
REMARK INTER:                  -3.024
REMARK INTRA:                  -0.414
REMARK UNBOUND:                -1.090
REMARK SMILES CC(C)=CCC[C@@H](C)c1ccc(C)cc1
REMARK SMILES IDX 6 1 7 2 8 3 9 4 13 5 12 6 11 7 14 8 10 9 15 10 5 11 4 12
REMARK SMILES IDX 2 13 1 14 3 15
REMARK H PARENT
REMARK Flexibility Score: inf
ROOT
ATOM      1  C   UNL     1      -8.815  24.514  25.816  1.00  0.00     0.012 C 
ENDROOT
BRANCH   1   2
ATOM      2  C   UNL     1      -9.106  25.237  27.151  1.00  0.00     0.016 C 
ATOM      3  C   UNL     1     -10.122  24.477  28.017  1.00  0.00     0.013 C 
BRANCH   2   4
ATOM      4  C   UNL     1      -7.818  25.463  27.922  1.00  0.00    -0.045 A 
ATOM      5  C   UNL     1      -4.139  26.123  30.088  1.00  0.00     0.044 C 
ATOM      6  C   UNL     1      -5.409  25.864  29.334  1.00  0.00    -0.051 A 
ATOM      7  C   UNL     1      -5.446  26.009  27.939  1.00  0.00     0.004 A 
ATOM      8  C   UNL     1      -6.587  25.541  30.022  1.00  0.00     0.004 A 
ATOM      9  C   UNL     1      -6.637  25.804  27.239  1.00  0.00     0.004 A 
ATOM     10  C   UNL     1      -7.779  25.334  29.323  1.00  0.00     0.004 A 
ENDBRANCH   2   4
ENDBRANCH   1   2
BRANCH   1  11
ATOM     11  C   UNL     1      -8.046  23.199  26.010  1.00  0.00     0.028 C 
BRANCH  11  12
ATOM     12  C   UNL     1      -6.873  23.123  25.065  1.00  0.00    -0.028 C 
ATOM     13  C   UNL     1      -6.432  21.985  24.485  1.00  0.00    -0.080 C 
ATOM     14  C   UNL     1      -7.054  20.641  24.785  1.00  0.00     0.039 C 
ATOM     15  C   UNL     1      -5.271  22.069  23.528  1.00  0.00     0.039 C 
ENDBRANCH  11  12
ENDBRANCH   1  11
TORSDOF 4
ENDMDL
MODEL 3
REMARK VINA RESULT:    -1.605      1.190      2.751
REMARK INTER + INTRA:          -3.070
REMARK INTER:                  -2.411
REMARK INTRA:                  -0.659
REMARK UNBOUND:                -1.090
REMARK SMILES CC(C)=CCC[C@@H](C)c1ccc(C)cc1
REMARK SMILES IDX 6 1 7 2 8 3 9 4 13 5 12 6 11 7 14 8 10 9 15 10 5 11 4 12
REMARK SMILES IDX 2 13 1 14 3 15
REMARK H PARENT
REMARK Flexibility Score: inf
ROOT
ATOM      1  C   UNL     1      -7.335  25.931  27.750  1.00  0.00     0.012 C 
ENDROOT
BRANCH   1   2
ATOM      2  C   UNL     1      -8.354  25.056  26.985  1.00  0.00     0.016 C 
ATOM      3  C   UNL     1      -9.358  25.897  26.181  1.00  0.00     0.013 C 
BRANCH   2   4
ATOM      4  C   UNL     1      -7.634  24.079  26.073  1.00  0.00    -0.045 A 
ATOM      5  C   UNL     1      -5.566  21.326  23.464  1.00  0.00     0.044 C 
ATOM      6  C   UNL     1      -6.310  22.277  24.354  1.00  0.00    -0.051 A 
ATOM      7  C   UNL     1      -6.348  23.646  24.052  1.00  0.00     0.004 A 
ATOM      8  C   UNL     1      -6.916  21.816  25.532  1.00  0.00     0.004 A 
ATOM      9  C   UNL     1      -7.010  24.538  24.900  1.00  0.00     0.004 A 
ATOM     10  C   UNL     1      -7.578  22.706  26.380  1.00  0.00     0.004 A 
ENDBRANCH   2   4
ENDBRANCH   1   2
BRANCH   1  11
ATOM     11  C   UNL     1      -7.242  25.566  29.239  1.00  0.00     0.028 C 
BRANCH  11  12
ATOM     12  C   UNL     1      -8.071  24.343  29.540  1.00  0.00    -0.028 C 
ATOM     13  C   UNL     1      -9.375  24.372  29.894  1.00  0.00    -0.080 C 
ATOM     14  C   UNL     1     -10.124  25.670  30.080  1.00  0.00     0.039 C 
ATOM     15  C   UNL     1     -10.086  23.064  30.125  1.00  0.00     0.039 C 
ENDBRANCH  11  12
ENDBRANCH   1  11
TORSDOF 4
ENDMDL
MODEL 4
REMARK VINA RESULT:    -1.451      1.726      4.988
REMARK INTER + INTRA:          -2.880
REMARK INTER:                  -2.178
REMARK INTRA:                  -0.702
REMARK UNBOUND:                -1.090
REMARK SMILES CC(C)=CCC[C@@H](C)c1ccc(C)cc1
REMARK SMILES IDX 6 1 7 2 8 3 9 4 13 5 12 6 11 7 14 8 10 9 15 10 5 11 4 12
REMARK SMILES IDX 2 13 1 14 3 15
REMARK H PARENT
REMARK Flexibility Score: inf
ROOT
ATOM      1  C   UNL     1      -7.591  25.497  24.217  1.00  0.00     0.012 C 
ENDROOT
BRANCH   1   2
ATOM      2  C   UNL     1      -8.850  26.016  24.949  1.00  0.00     0.016 C 
ATOM      3  C   UNL     1     -10.125  25.847  24.108  1.00  0.00     0.013 C 
BRANCH   2   4
ATOM      4  C   UNL     1      -9.006  25.324  26.291  1.00  0.00    -0.045 A 
ATOM      5  C   UNL     1      -9.437  23.382  30.125  1.00  0.00     0.044 C 
ATOM      6  C   UNL     1      -9.266  24.035  28.786  1.00  0.00    -0.051 A 
ATOM      7  C   UNL     1      -8.358  25.092  28.625  1.00  0.00     0.004 A 
ATOM      8  C   UNL     1     -10.061  23.641  27.701  1.00  0.00     0.004 A 
ATOM      9  C   UNL     1      -8.223  25.726  27.387  1.00  0.00     0.004 A 
ATOM     10  C   UNL     1      -9.928  24.274  26.462  1.00  0.00     0.004 A 
ENDBRANCH   2   4
ENDBRANCH   1   2
BRANCH   1  11
ATOM     11  C   UNL     1      -6.700  24.629  25.118  1.00  0.00     0.028 C 
BRANCH  11  12
ATOM     12  C   UNL     1      -6.453  23.282  24.484  1.00  0.00    -0.028 C 
ATOM     13  C   UNL     1      -6.690  22.098  25.091  1.00  0.00    -0.080 C 
ATOM     14  C   UNL     1      -7.183  22.014  26.517  1.00  0.00     0.039 C 
ATOM     15  C   UNL     1      -6.434  20.830  24.318  1.00  0.00     0.039 C 
ENDBRANCH  11  12
ENDBRANCH   1  11
TORSDOF 4
ENDMDL
MODEL 5
REMARK VINA RESULT:    -1.400      1.746      4.997
REMARK INTER + INTRA:          -2.818
REMARK INTER:                  -1.986
REMARK INTRA:                  -0.833
REMARK UNBOUND:                -1.090
REMARK SMILES CC(C)=CCC[C@@H](C)c1ccc(C)cc1
REMARK SMILES IDX 6 1 7 2 8 3 9 4 13 5 12 6 11 7 14 8 10 9 15 10 5 11 4 12
REMARK SMILES IDX 2 13 1 14 3 15
REMARK H PARENT
REMARK Flexibility Score: inf
ROOT
ATOM      1  C   UNL     1      -7.628  25.474  24.126  1.00  0.00     0.012 C 
ENDROOT
BRANCH   1   2
ATOM      2  C   UNL     1      -8.815  26.125  24.873  1.00  0.00     0.016 C 
ATOM      3  C   UNL     1     -10.124  26.040  24.073  1.00  0.00     0.013 C 
BRANCH   2   4
ATOM      4  C   UNL     1      -8.990  25.493  26.242  1.00  0.00    -0.045 A 
ATOM      5  C   UNL     1      -9.498  23.664  30.122  1.00  0.00     0.044 C 
ATOM      6  C   UNL     1      -9.346  24.318  28.781  1.00  0.00    -0.051 A 
ATOM      7  C   UNL     1      -9.969  23.767  27.651  1.00  0.00     0.004 A 
ATOM      8  C   UNL     1      -8.525  25.444  28.632  1.00  0.00     0.004 A 
ATOM      9  C   UNL     1      -9.799  24.353  26.395  1.00  0.00     0.004 A 
ATOM     10  C   UNL     1      -8.353  26.032  27.376  1.00  0.00     0.004 A 
ENDBRANCH   2   4
ENDBRANCH   1   2
BRANCH   1  11
ATOM     11  C   UNL     1      -6.776  24.578  25.038  1.00  0.00     0.028 C 
BRANCH  11  12
ATOM     12  C   UNL     1      -6.710  23.173  24.493  1.00  0.00    -0.028 C 
ATOM     13  C   UNL     1      -6.859  22.056  25.241  1.00  0.00    -0.080 C 
ATOM     14  C   UNL     1      -7.053  22.116  26.738  1.00  0.00     0.039 C 
ATOM     15  C   UNL     1      -6.811  20.718  24.550  1.00  0.00     0.039 C 
ENDBRANCH  11  12
ENDBRANCH   1  11
TORSDOF 4
ENDMDL
MODEL 6
REMARK VINA RESULT:    -0.756      2.818      6.628
REMARK INTER + INTRA:          -2.023
REMARK INTER:                  -1.382
REMARK INTRA:                  -0.641
REMARK UNBOUND:                -1.090
REMARK SMILES CC(C)=CCC[C@@H](C)c1ccc(C)cc1
REMARK SMILES IDX 6 1 7 2 8 3 9 4 13 5 12 6 11 7 14 8 10 9 15 10 5 11 4 12
REMARK SMILES IDX 2 13 1 14 3 15
REMARK H PARENT
REMARK Flexibility Score: inf
ROOT
ATOM      1  C   UNL     1      -6.748  20.585  24.892  1.00  0.00     0.012 C 
ENDROOT
BRANCH   1   2
ATOM      2  C   UNL     1      -6.141  22.004  24.801  1.00  0.00     0.016 C 
ATOM      3  C   UNL     1      -5.702  22.361  23.372  1.00  0.00     0.013 C 
BRANCH   2   4
ATOM      4  C   UNL     1      -7.125  23.035  25.324  1.00  0.00    -0.045 A 
ATOM      5  C   UNL     1      -9.933  25.977  26.780  1.00  0.00     0.044 C 
ATOM      6  C   UNL     1      -8.935  24.972  26.287  1.00  0.00    -0.051 A 
ATOM      7  C   UNL     1      -8.407  25.077  24.991  1.00  0.00     0.004 A 
ATOM      8  C   UNL     1      -8.574  23.882  27.090  1.00  0.00     0.004 A 
ATOM      9  C   UNL     1      -7.504  24.122  24.517  1.00  0.00     0.004 A 
ATOM     10  C   UNL     1      -7.672  22.925  26.617  1.00  0.00     0.004 A 
ENDBRANCH   2   4
ENDBRANCH   1   2
BRANCH   1  11
ATOM     11  C   UNL     1      -8.061  20.452  24.107  1.00  0.00     0.028 C 
BRANCH  11  12
ATOM     12  C   UNL     1      -8.840  19.246  24.572  1.00  0.00    -0.028 C 
ATOM     13  C   UNL     1      -9.412  18.342  23.746  1.00  0.00    -0.080 C 
ATOM     14  C   UNL     1      -9.372  18.493  22.244  1.00  0.00     0.039 C 
ATOM     15  C   UNL     1     -10.125  17.162  24.356  1.00  0.00     0.039 C 
ENDBRANCH  11  12
ENDBRANCH   1  11
TORSDOF 4
ENDMDL
MODEL 7
REMARK VINA RESULT:    -0.367      1.368      5.392
REMARK INTER + INTRA:          -1.543
REMARK INTER:                  -1.325
REMARK INTRA:                  -0.217
REMARK UNBOUND:                -1.090
REMARK SMILES CC(C)=CCC[C@@H](C)c1ccc(C)cc1
REMARK SMILES IDX 6 1 7 2 8 3 9 4 13 5 12 6 11 7 14 8 10 9 15 10 5 11 4 12
REMARK SMILES IDX 2 13 1 14 3 15
REMARK H PARENT
REMARK Flexibility Score: inf
ROOT
ATOM      1  C   UNL     1      -7.479  25.039  25.996  1.00  0.00     0.012 C 
ENDROOT
BRANCH   1   2
ATOM      2  C   UNL     1      -7.556  26.034  27.176  1.00  0.00     0.016 C 
ATOM      3  C   UNL     1      -8.719  25.720  28.130  1.00  0.00     0.013 C 
BRANCH   2   4
ATOM      4  C   UNL     1      -6.241  26.058  27.935  1.00  0.00    -0.045 A 
ATOM      5  C   UNL     1      -2.518  26.111  30.125  1.00  0.00     0.044 C 
ATOM      6  C   UNL     1      -3.811  26.124  29.365  1.00  0.00    -0.051 A 
ATOM      7  C   UNL     1      -5.034  26.065  30.049  1.00  0.00     0.004 A 
ATOM      8  C   UNL     1      -3.807  26.124  27.963  1.00  0.00     0.004 A 
ATOM      9  C   UNL     1      -6.239  26.040  29.341  1.00  0.00     0.004 A 
ATOM     10  C   UNL     1      -5.010  26.099  27.254  1.00  0.00     0.004 A 
ENDBRANCH   2   4
ENDBRANCH   1   2
BRANCH   1  11
ATOM     11  C   UNL     1      -6.663  23.782  26.334  1.00  0.00     0.028 C 
BRANCH  11  12
ATOM     12  C   UNL     1      -7.309  22.553  25.746  1.00  0.00    -0.028 C 
ATOM     13  C   UNL     1      -6.745  21.772  24.798  1.00  0.00    -0.080 C 
ATOM     14  C   UNL     1      -5.404  22.101  24.185  1.00  0.00     0.039 C 
ATOM     15  C   UNL     1      -7.493  20.549  24.335  1.00  0.00     0.039 C 
ENDBRANCH  11  12
ENDBRANCH   1  11
TORSDOF 4
ENDMDL
