MODEL 1
REMARK VINA RESULT:    -5.041      0.000      0.000
REMARK INTER + INTRA:          -7.487
REMARK INTER:                  -6.367
REMARK INTRA:                  -1.121
REMARK UNBOUND:                -1.121
REMARK SMILES O=C(C=Cc1ccc(O)cc1)c1ccc(O)cc1O
REMARK SMILES IDX 4 1 3 2 5 3 6 4 7 5 8 6 11 7 10 8 9 9 2 11 1 12 12 13 18 14
REMARK SMILES IDX 13 15 17 16 14 17 15 18 19 19 16 21
REMARK H PARENT 9 10 19 20 16 22
REMARK Flexibility Score: inf
ROOT
ATOM      1  C   UNL     1      53.547   5.381 -47.301  1.00  0.00     0.012 C 
ATOM      2  C   UNL     1      52.784   5.549 -48.393  1.00  0.00     0.053 C 
ENDROOT
BRANCH   1   3
ATOM      3  C   UNL     1      54.018   6.461 -46.409  1.00  0.00    -0.025 A 
ATOM      4  C   UNL     1      53.255   6.803 -45.283  1.00  0.00     0.012 A 
ATOM      5  C   UNL     1      53.703   7.791 -44.399  1.00  0.00     0.047 A 
ATOM      6  C   UNL     1      54.931   8.428 -44.621  1.00  0.00     0.115 A 
ATOM      7  C   UNL     1      55.263   7.083 -46.611  1.00  0.00     0.012 A 
ATOM      8  C   UNL     1      55.709   8.069 -45.726  1.00  0.00     0.047 A 
BRANCH   6   9
ATOM      9  O   UNL     1      55.387   9.413 -43.749  1.00  0.00    -0.508 OA
ATOM     10  H   UNL     1      56.376   9.608 -43.640  1.00  0.00     0.293 HD
ENDBRANCH   6   9
ENDBRANCH   1   3
BRANCH   2  11
ATOM     11  C   UNL     1      52.125   6.820 -48.789  1.00  0.00     0.189 C 
ATOM     12  O   UNL     1      51.095   7.213 -48.179  1.00  0.00    -0.289 OA
BRANCH  11  13
ATOM     13  C   UNL     1      52.639   7.626 -49.921  1.00  0.00     0.064 A 
ATOM     14  C   UNL     1      51.934   7.667 -51.145  1.00  0.00     0.130 A 
ATOM     15  C   UNL     1      53.843   8.344 -49.803  1.00  0.00     0.020 A 
ATOM     16  C   UNL     1      52.435   8.421 -52.217  1.00  0.00     0.093 A 
ATOM     17  C   UNL     1      54.332   9.093 -50.876  1.00  0.00     0.047 A 
ATOM     18  C   UNL     1      53.629   9.135 -52.085  1.00  0.00     0.119 A 
BRANCH  14  19
ATOM     19  O   UNL     1      50.733   6.974 -51.290  1.00  0.00    -0.507 OA
ATOM     20  H   UNL     1      49.919   7.402 -51.716  1.00  0.00     0.293 HD
ENDBRANCH  14  19
BRANCH  18  21
ATOM     21  O   UNL     1      54.109   9.879 -53.161  1.00  0.00    -0.508 OA
ATOM     22  H   UNL     1      54.745   9.479 -53.840  1.00  0.00     0.293 HD
ENDBRANCH  18  21
ENDBRANCH  11  13
ENDBRANCH   2  11
TORSDOF 6
ENDMDL
MODEL 2
REMARK VINA RESULT:    -4.939     10.402     12.965
REMARK INTER + INTRA:          -7.359
REMARK INTER:                  -6.292
REMARK INTRA:                  -1.067
REMARK UNBOUND:                -1.121
REMARK SMILES O=C(C=Cc1ccc(O)cc1)c1ccc(O)cc1O
REMARK SMILES IDX 4 1 3 2 5 3 6 4 7 5 8 6 11 7 10 8 9 9 2 11 1 12 12 13 18 14
REMARK SMILES IDX 13 15 17 16 14 17 15 18 19 19 16 21
REMARK H PARENT 9 10 19 20 16 22
REMARK Flexibility Score: inf
ROOT
ATOM      1  C   UNL     1      43.443   2.329 -48.129  1.00  0.00     0.012 C 
ATOM      2  C   UNL     1      43.466   3.358 -47.266  1.00  0.00     0.053 C 
ENDROOT
BRANCH   1   3
ATOM      3  C   UNL     1      43.296   0.905 -47.762  1.00  0.00    -0.025 A 
ATOM      4  C   UNL     1      42.030   0.306 -47.828  1.00  0.00     0.012 A 
ATOM      5  C   UNL     1      41.875  -1.053 -47.530  1.00  0.00     0.047 A 
ATOM      6  C   UNL     1      42.990  -1.829 -47.186  1.00  0.00     0.115 A 
ATOM      7  C   UNL     1      44.416   0.115 -47.445  1.00  0.00     0.012 A 
ATOM      8  C   UNL     1      44.259  -1.242 -47.148  1.00  0.00     0.047 A 
BRANCH   6   9
ATOM      9  O   UNL     1      42.848  -3.181 -46.886  1.00  0.00    -0.508 OA
ATOM     10  H   UNL     1      42.001  -3.544 -46.463  1.00  0.00     0.293 HD
ENDBRANCH   6   9
ENDBRANCH   1   3
BRANCH   2  11
ATOM     11  C   UNL     1      43.161   3.265 -45.816  1.00  0.00     0.189 C 
ATOM     12  O   UNL     1      41.977   3.402 -45.409  1.00  0.00    -0.289 OA
BRANCH  11  13
ATOM     13  C   UNL     1      44.239   3.047 -44.822  1.00  0.00     0.064 A 
ATOM     14  C   UNL     1      44.034   2.179 -43.727  1.00  0.00     0.130 A 
ATOM     15  C   UNL     1      45.471   3.716 -44.941  1.00  0.00     0.020 A 
ATOM     16  C   UNL     1      45.054   1.990 -42.782  1.00  0.00     0.093 A 
ATOM     17  C   UNL     1      46.481   3.519 -43.996  1.00  0.00     0.047 A 
ATOM     18  C   UNL     1      46.276   2.655 -42.915  1.00  0.00     0.119 A 
BRANCH  14  19
ATOM     19  O   UNL     1      42.827   1.495 -43.586  1.00  0.00    -0.507 OA
ATOM     20  H   UNL     1      42.039   1.901 -43.094  1.00  0.00     0.293 HD
ENDBRANCH  14  19
BRANCH  18  21
ATOM     21  O   UNL     1      47.277   2.453 -41.967  1.00  0.00    -0.508 OA
ATOM     22  H   UNL     1      47.984   3.154 -41.786  1.00  0.00     0.293 HD
ENDBRANCH  18  21
ENDBRANCH  11  13
ENDBRANCH   2  11
TORSDOF 6
ENDMDL
MODEL 3
REMARK VINA RESULT:    -4.929     12.322     14.611
REMARK INTER + INTRA:          -7.347
REMARK INTER:                  -6.061
REMARK INTRA:                  -1.286
REMARK UNBOUND:                -1.121
REMARK SMILES O=C(C=Cc1ccc(O)cc1)c1ccc(O)cc1O
REMARK SMILES IDX 4 1 3 2 5 3 6 4 7 5 8 6 11 7 10 8 9 9 2 11 1 12 12 13 18 14
REMARK SMILES IDX 13 15 17 16 14 17 15 18 19 19 16 21
REMARK H PARENT 9 10 19 20 16 22
REMARK Flexibility Score: inf
ROOT
ATOM      1  C   UNL     1      59.522  -1.249 -47.716  1.00  0.00     0.012 C 
ATOM      2  C   UNL     1      59.120  -1.707 -46.519  1.00  0.00     0.053 C 
ENDROOT
BRANCH   1   3
ATOM      3  C   UNL     1      59.724  -2.074 -48.926  1.00  0.00    -0.025 A 
ATOM      4  C   UNL     1      60.942  -2.745 -49.103  1.00  0.00     0.012 A 
ATOM      5  C   UNL     1      61.140  -3.568 -50.217  1.00  0.00     0.047 A 
ATOM      6  C   UNL     1      60.111  -3.746 -51.152  1.00  0.00     0.115 A 
ATOM      7  C   UNL     1      58.685  -2.278 -49.851  1.00  0.00     0.012 A 
ATOM      8  C   UNL     1      58.884  -3.101 -50.963  1.00  0.00     0.047 A 
BRANCH   6   9
ATOM      9  O   UNL     1      60.296  -4.561 -52.265  1.00  0.00    -0.508 OA
ATOM     10  H   UNL     1      61.156  -5.079 -52.406  1.00  0.00     0.293 HD
ENDBRANCH   6   9
ENDBRANCH   1   3
BRANCH   2  11
ATOM     11  C   UNL     1      58.629  -3.083 -46.251  1.00  0.00     0.189 C 
ATOM     12  O   UNL     1      57.409  -3.359 -46.402  1.00  0.00    -0.289 OA
BRANCH  11  13
ATOM     13  C   UNL     1      59.549  -4.141 -45.768  1.00  0.00     0.064 A 
ATOM     14  C   UNL     1      59.767  -5.303 -46.540  1.00  0.00     0.130 A 
ATOM     15  C   UNL     1      60.200  -4.014 -44.526  1.00  0.00     0.020 A 
ATOM     16  C   UNL     1      60.627  -6.306 -46.069  1.00  0.00     0.093 A 
ATOM     17  C   UNL     1      61.056  -5.017 -44.067  1.00  0.00     0.047 A 
ATOM     18  C   UNL     1      61.273  -6.166 -44.838  1.00  0.00     0.119 A 
BRANCH  14  19
ATOM     19  O   UNL     1      59.144  -5.453 -47.778  1.00  0.00    -0.507 OA
ATOM     20  H   UNL     1      58.415  -6.142 -47.927  1.00  0.00     0.293 HD
ENDBRANCH  14  19
BRANCH  18  21
ATOM     21  O   UNL     1      62.125  -7.172 -44.388  1.00  0.00    -0.508 OA
ATOM     22  H   UNL     1      63.128  -7.108 -44.505  1.00  0.00     0.293 HD
ENDBRANCH  18  21
ENDBRANCH  11  13
ENDBRANCH   2  11
TORSDOF 6
ENDMDL
MODEL 4
REMARK VINA RESULT:    -4.793      1.212      6.132
REMARK INTER + INTRA:          -7.175
REMARK INTER:                  -6.213
REMARK INTRA:                  -0.962
REMARK UNBOUND:                -1.121
REMARK SMILES O=C(C=Cc1ccc(O)cc1)c1ccc(O)cc1O
REMARK SMILES IDX 4 1 3 2 5 3 6 4 7 5 8 6 11 7 10 8 9 9 2 11 1 12 12 13 18 14
REMARK SMILES IDX 13 15 17 16 14 17 15 18 19 19 16 21
REMARK H PARENT 9 10 19 20 16 22
REMARK Flexibility Score: inf
ROOT
ATOM      1  C   UNL     1      53.601   5.729 -49.417  1.00  0.00     0.012 C 
ATOM      2  C   UNL     1      53.240   5.686 -48.125  1.00  0.00     0.053 C 
ENDROOT
BRANCH   1   3
ATOM      3  C   UNL     1      53.428   6.888 -50.318  1.00  0.00    -0.025 A 
ATOM      4  C   UNL     1      54.401   7.897 -50.334  1.00  0.00     0.012 A 
ATOM      5  C   UNL     1      54.281   8.980 -51.212  1.00  0.00     0.047 A 
ATOM      6  C   UNL     1      53.199   9.052 -52.098  1.00  0.00     0.115 A 
ATOM      7  C   UNL     1      52.358   6.949 -51.230  1.00  0.00     0.012 A 
ATOM      8  C   UNL     1      52.241   8.032 -52.106  1.00  0.00     0.047 A 
BRANCH   6   9
ATOM      9  O   UNL     1      53.068  10.125 -52.975  1.00  0.00    -0.508 OA
ATOM     10  H   UNL     1      53.857  10.715 -53.211  1.00  0.00     0.293 HD
ENDBRANCH   6   9
ENDBRANCH   1   3
BRANCH   2  11
ATOM     11  C   UNL     1      52.779   6.850 -47.326  1.00  0.00     0.189 C 
ATOM     12  O   UNL     1      51.665   7.385 -47.575  1.00  0.00    -0.289 OA
BRANCH  11  13
ATOM     13  C   UNL     1      53.626   7.425 -46.255  1.00  0.00     0.064 A 
ATOM     14  C   UNL     1      53.109   7.599 -44.952  1.00  0.00     0.130 A 
ATOM     15  C   UNL     1      54.949   7.825 -46.523  1.00  0.00     0.020 A 
ATOM     16  C   UNL     1      53.913   8.157 -43.948  1.00  0.00     0.093 A 
ATOM     17  C   UNL     1      55.742   8.378 -45.515  1.00  0.00     0.047 A 
ATOM     18  C   UNL     1      55.227   8.545 -44.224  1.00  0.00     0.119 A 
BRANCH  14  19
ATOM     19  O   UNL     1      51.806   7.203 -44.654  1.00  0.00    -0.507 OA
ATOM     20  H   UNL     1      51.203   7.761 -44.058  1.00  0.00     0.293 HD
ENDBRANCH  14  19
BRANCH  18  21
ATOM     21  O   UNL     1      56.010   9.096 -43.213  1.00  0.00    -0.508 OA
ATOM     22  H   UNL     1      55.598   9.609 -42.444  1.00  0.00     0.293 HD
ENDBRANCH  18  21
ENDBRANCH  11  13
ENDBRANCH   2  11
TORSDOF 6
ENDMDL
MODEL 5
REMARK VINA RESULT:    -4.743     12.073     14.208
REMARK INTER + INTRA:          -7.112
REMARK INTER:                  -5.884
REMARK INTRA:                  -1.227
REMARK UNBOUND:                -1.121
REMARK SMILES O=C(C=Cc1ccc(O)cc1)c1ccc(O)cc1O
REMARK SMILES IDX 4 1 3 2 5 3 6 4 7 5 8 6 11 7 10 8 9 9 2 11 1 12 12 13 18 14
REMARK SMILES IDX 13 15 17 16 14 17 15 18 19 19 16 21
REMARK H PARENT 9 10 19 20 16 22
REMARK Flexibility Score: inf
ROOT
ATOM      1  C   UNL     1      59.607  -1.393 -47.604  1.00  0.00     0.012 C 
ATOM      2  C   UNL     1      59.715  -1.784 -46.324  1.00  0.00     0.053 C 
ENDROOT
BRANCH   1   3
ATOM      3  C   UNL     1      59.816  -2.256 -48.785  1.00  0.00    -0.025 A 
ATOM      4  C   UNL     1      58.739  -2.517 -49.644  1.00  0.00     0.012 A 
ATOM      5  C   UNL     1      58.924  -3.294 -50.793  1.00  0.00     0.047 A 
ATOM      6  C   UNL     1      60.194  -3.796 -51.106  1.00  0.00     0.115 A 
ATOM      7  C   UNL     1      61.094  -2.738 -49.118  1.00  0.00     0.012 A 
ATOM      8  C   UNL     1      61.277  -3.513 -50.267  1.00  0.00     0.047 A 
BRANCH   6   9
ATOM      9  O   UNL     1      60.390  -4.571 -52.245  1.00  0.00    -0.508 OA
ATOM     10  H   UNL     1      60.570  -4.149 -53.149  1.00  0.00     0.293 HD
ENDBRANCH   6   9
ENDBRANCH   1   3
BRANCH   2  11
ATOM     11  C   UNL     1      59.878  -3.188 -45.869  1.00  0.00     0.189 C 
ATOM     12  O   UNL     1      60.978  -3.574 -45.389  1.00  0.00    -0.289 OA
BRANCH  11  13
ATOM     13  C   UNL     1      58.773  -4.167 -46.003  1.00  0.00     0.064 A 
ATOM     14  C   UNL     1      58.945  -5.336 -46.775  1.00  0.00     0.130 A 
ATOM     15  C   UNL     1      57.531  -3.936 -45.382  1.00  0.00     0.020 A 
ATOM     16  C   UNL     1      57.889  -6.250 -46.909  1.00  0.00     0.093 A 
ATOM     17  C   UNL     1      56.487  -4.854 -45.519  1.00  0.00     0.047 A 
ATOM     18  C   UNL     1      56.663  -6.013 -46.282  1.00  0.00     0.119 A 
BRANCH  14  19
ATOM     19  O   UNL     1      60.166  -5.597 -47.396  1.00  0.00    -0.507 OA
ATOM     20  H   UNL     1      60.227  -6.156 -48.239  1.00  0.00     0.293 HD
ENDBRANCH  14  19
BRANCH  18  21
ATOM     21  O   UNL     1      55.627  -6.934 -46.425  1.00  0.00    -0.508 OA
ATOM     22  H   UNL     1      55.315  -7.243 -47.337  1.00  0.00     0.293 HD
ENDBRANCH  18  21
ENDBRANCH  11  13
ENDBRANCH   2  11
TORSDOF 6
ENDMDL
MODEL 6
REMARK VINA RESULT:    -4.742      1.787      5.695
REMARK INTER + INTRA:          -7.110
REMARK INTER:                  -5.748
REMARK INTRA:                  -1.361
REMARK UNBOUND:                -1.121
REMARK SMILES O=C(C=Cc1ccc(O)cc1)c1ccc(O)cc1O
REMARK SMILES IDX 4 1 3 2 5 3 6 4 7 5 8 6 11 7 10 8 9 9 2 11 1 12 12 13 18 14
REMARK SMILES IDX 13 15 17 16 14 17 15 18 19 19 16 21
REMARK H PARENT 9 10 19 20 16 22
REMARK Flexibility Score: inf
ROOT
ATOM      1  C   UNL     1      51.275   6.144 -48.161  1.00  0.00     0.012 C 
ATOM      2  C   UNL     1      51.680   5.478 -47.068  1.00  0.00     0.053 C 
ENDROOT
BRANCH   1   3
ATOM      3  C   UNL     1      52.135   6.984 -49.022  1.00  0.00    -0.025 A 
ATOM      4  C   UNL     1      52.407   8.305 -48.640  1.00  0.00     0.012 A 
ATOM      5  C   UNL     1      53.256   9.104 -49.415  1.00  0.00     0.047 A 
ATOM      6  C   UNL     1      53.858   8.579 -50.566  1.00  0.00     0.115 A 
ATOM      7  C   UNL     1      52.765   6.453 -50.161  1.00  0.00     0.012 A 
ATOM      8  C   UNL     1      53.613   7.252 -50.934  1.00  0.00     0.047 A 
BRANCH   6   9
ATOM      9  O   UNL     1      54.703   9.364 -51.346  1.00  0.00    -0.508 OA
ATOM     10  H   UNL     1      54.679  10.377 -51.298  1.00  0.00     0.293 HD
ENDBRANCH   6   9
ENDBRANCH   1   3
BRANCH   2  11
ATOM     11  C   UNL     1      53.093   5.315 -46.640  1.00  0.00     0.189 C 
ATOM     12  O   UNL     1      53.724   4.264 -46.932  1.00  0.00    -0.289 OA
BRANCH  11  13
ATOM     13  C   UNL     1      53.773   6.359 -45.838  1.00  0.00     0.064 A 
ATOM     14  C   UNL     1      54.933   6.996 -46.331  1.00  0.00     0.130 A 
ATOM     15  C   UNL     1      53.288   6.716 -44.566  1.00  0.00     0.020 A 
ATOM     16  C   UNL     1      55.579   7.972 -45.559  1.00  0.00     0.093 A 
ATOM     17  C   UNL     1      53.938   7.691 -43.805  1.00  0.00     0.047 A 
ATOM     18  C   UNL     1      55.084   8.323 -44.300  1.00  0.00     0.119 A 
BRANCH  14  19
ATOM     19  O   UNL     1      55.433   6.670 -47.591  1.00  0.00    -0.507 OA
ATOM     20  H   UNL     1      54.983   6.989 -48.442  1.00  0.00     0.293 HD
ENDBRANCH  14  19
BRANCH  18  21
ATOM     21  O   UNL     1      55.739   9.296 -43.549  1.00  0.00    -0.508 OA
ATOM     22  H   UNL     1      55.349  10.222 -43.426  1.00  0.00     0.293 HD
ENDBRANCH  18  21
ENDBRANCH  11  13
ENDBRANCH   2  11
TORSDOF 6
ENDMDL
MODEL 7
REMARK VINA RESULT:    -4.700     12.316     13.899
REMARK INTER + INTRA:          -7.057
REMARK INTER:                  -6.082
REMARK INTRA:                  -0.974
REMARK UNBOUND:                -1.121
REMARK SMILES O=C(C=Cc1ccc(O)cc1)c1ccc(O)cc1O
REMARK SMILES IDX 4 1 3 2 5 3 6 4 7 5 8 6 11 7 10 8 9 9 2 11 1 12 12 13 18 14
REMARK SMILES IDX 13 15 17 16 14 17 15 18 19 19 16 21
REMARK H PARENT 9 10 19 20 16 22
REMARK Flexibility Score: inf
ROOT
ATOM      1  C   UNL     1      60.135  -6.538 -46.226  1.00  0.00     0.012 C 
ATOM      2  C   UNL     1      61.186  -5.862 -46.717  1.00  0.00     0.053 C 
ENDROOT
BRANCH   1   3
ATOM      3  C   UNL     1      58.839  -5.943 -45.836  1.00  0.00    -0.025 A 
ATOM      4  C   UNL     1      58.797  -5.019 -44.783  1.00  0.00     0.012 A 
ATOM      5  C   UNL     1      57.589  -4.408 -44.427  1.00  0.00     0.047 A 
ATOM      6  C   UNL     1      56.417  -4.699 -45.138  1.00  0.00     0.115 A 
ATOM      7  C   UNL     1      57.666  -6.209 -46.566  1.00  0.00     0.012 A 
ATOM      8  C   UNL     1      56.461  -5.598 -46.209  1.00  0.00     0.047 A 
BRANCH   6   9
ATOM      9  O   UNL     1      55.210  -4.099 -44.793  1.00  0.00    -0.508 OA
ATOM     10  H   UNL     1      54.321  -4.487 -45.088  1.00  0.00     0.293 HD
ENDBRANCH   6   9
ENDBRANCH   1   3
BRANCH   2  11
ATOM     11  C   UNL     1      61.169  -4.436 -47.130  1.00  0.00     0.189 C 
ATOM     12  O   UNL     1      61.790  -3.574 -46.451  1.00  0.00    -0.289 OA
BRANCH  11  13
ATOM     13  C   UNL     1      60.399  -3.994 -48.316  1.00  0.00     0.064 A 
ATOM     14  C   UNL     1      60.895  -4.229 -49.617  1.00  0.00     0.130 A 
ATOM     15  C   UNL     1      59.175  -3.316 -48.165  1.00  0.00     0.020 A 
ATOM     16  C   UNL     1      60.167  -3.794 -50.735  1.00  0.00     0.093 A 
ATOM     17  C   UNL     1      58.457  -2.889 -49.285  1.00  0.00     0.047 A 
ATOM     18  C   UNL     1      58.950  -3.128 -50.572  1.00  0.00     0.119 A 
BRANCH  14  19
ATOM     19  O   UNL     1      62.100  -4.906 -49.799  1.00  0.00    -0.507 OA
ATOM     20  H   UNL     1      62.993  -4.427 -49.754  1.00  0.00     0.293 HD
ENDBRANCH  14  19
BRANCH  18  21
ATOM     21  O   UNL     1      58.241  -2.705 -51.694  1.00  0.00    -0.508 OA
ATOM     22  H   UNL     1      58.713  -2.381 -52.529  1.00  0.00     0.293 HD
ENDBRANCH  18  21
ENDBRANCH  11  13
ENDBRANCH   2  11
TORSDOF 6
ENDMDL
MODEL 8
REMARK VINA RESULT:    -4.637      2.109      6.473
REMARK INTER + INTRA:          -6.977
REMARK INTER:                  -5.912
REMARK INTRA:                  -1.065
REMARK UNBOUND:                -1.121
REMARK SMILES O=C(C=Cc1ccc(O)cc1)c1ccc(O)cc1O
REMARK SMILES IDX 4 1 3 2 5 3 6 4 7 5 8 6 11 7 10 8 9 9 2 11 1 12 12 13 18 14
REMARK SMILES IDX 13 15 17 16 14 17 15 18 19 19 16 21
REMARK H PARENT 9 10 19 20 16 22
REMARK Flexibility Score: inf
ROOT
ATOM      1  C   UNL     1      52.456   5.899 -47.705  1.00  0.00     0.012 C 
ATOM      2  C   UNL     1      53.086   5.425 -46.617  1.00  0.00     0.053 C 
ENDROOT
BRANCH   1   3
ATOM      3  C   UNL     1      53.037   6.831 -48.694  1.00  0.00    -0.025 A 
ATOM      4  C   UNL     1      53.719   6.315 -49.805  1.00  0.00     0.012 A 
ATOM      5  C   UNL     1      54.238   7.176 -50.778  1.00  0.00     0.047 A 
ATOM      6  C   UNL     1      54.057   8.561 -50.661  1.00  0.00     0.115 A 
ATOM      7  C   UNL     1      52.834   8.219 -48.595  1.00  0.00     0.012 A 
ATOM      8  C   UNL     1      53.352   9.078 -49.569  1.00  0.00     0.047 A 
BRANCH   6   9
ATOM      9  O   UNL     1      54.570   9.428 -51.622  1.00  0.00    -0.508 OA
ATOM     10  H   UNL     1      54.573  10.432 -51.482  1.00  0.00     0.293 HD
ENDBRANCH   6   9
ENDBRANCH   1   3
BRANCH   2  11
ATOM     11  C   UNL     1      54.529   5.602 -46.320  1.00  0.00     0.189 C 
ATOM     12  O   UNL     1      55.392   4.947 -46.964  1.00  0.00    -0.289 OA
BRANCH  11  13
ATOM     13  C   UNL     1      54.981   6.516 -45.244  1.00  0.00     0.064 A 
ATOM     14  C   UNL     1      55.415   5.998 -44.004  1.00  0.00     0.130 A 
ATOM     15  C   UNL     1      54.964   7.911 -45.433  1.00  0.00     0.020 A 
ATOM     16  C   UNL     1      55.827   6.871 -42.985  1.00  0.00     0.093 A 
ATOM     17  C   UNL     1      55.379   8.771 -44.413  1.00  0.00     0.047 A 
ATOM     18  C   UNL     1      55.812   8.253 -43.187  1.00  0.00     0.119 A 
BRANCH  14  19
ATOM     19  O   UNL     1      55.452   4.621 -43.790  1.00  0.00    -0.507 OA
ATOM     20  H   UNL     1      56.105   4.022 -44.283  1.00  0.00     0.293 HD
ENDBRANCH  14  19
BRANCH  18  21
ATOM     21  O   UNL     1      56.227   9.103 -42.164  1.00  0.00    -0.508 OA
ATOM     22  H   UNL     1      56.972   8.844 -41.529  1.00  0.00     0.293 HD
ENDBRANCH  18  21
ENDBRANCH  11  13
ENDBRANCH   2  11
TORSDOF 6
ENDMDL
MODEL 9
REMARK VINA RESULT:    -4.629     12.665     13.988
REMARK INTER + INTRA:          -6.968
REMARK INTER:                  -5.615
REMARK INTRA:                  -1.353
REMARK UNBOUND:                -1.121
REMARK SMILES O=C(C=Cc1ccc(O)cc1)c1ccc(O)cc1O
REMARK SMILES IDX 4 1 3 2 5 3 6 4 7 5 8 6 11 7 10 8 9 9 2 11 1 12 12 13 18 14
REMARK SMILES IDX 13 15 17 16 14 17 15 18 19 19 16 21
REMARK H PARENT 9 10 19 20 16 22
REMARK Flexibility Score: inf
ROOT
ATOM      1  C   UNL     1      60.379  -5.162 -44.865  1.00  0.00     0.012 C 
ATOM      2  C   UNL     1      61.063  -4.036 -45.125  1.00  0.00     0.053 C 
ENDROOT
BRANCH   1   3
ATOM      3  C   UNL     1      59.033  -5.487 -45.384  1.00  0.00    -0.025 A 
ATOM      4  C   UNL     1      57.923  -4.777 -44.905  1.00  0.00     0.012 A 
ATOM      5  C   UNL     1      56.646  -5.035 -45.415  1.00  0.00     0.047 A 
ATOM      6  C   UNL     1      56.472  -5.989 -46.427  1.00  0.00     0.115 A 
ATOM      7  C   UNL     1      58.858  -6.422 -46.420  1.00  0.00     0.012 A 
ATOM      8  C   UNL     1      57.582  -6.678 -46.928  1.00  0.00     0.047 A 
BRANCH   6   9
ATOM      9  O   UNL     1      55.206  -6.256 -46.941  1.00  0.00    -0.508 OA
ATOM     10  H   UNL     1      54.366  -5.927 -46.479  1.00  0.00     0.293 HD
ENDBRANCH   6   9
ENDBRANCH   1   3
BRANCH   2  11
ATOM     11  C   UNL     1      60.674  -3.010 -46.124  1.00  0.00     0.189 C 
ATOM     12  O   UNL     1      60.313  -1.864 -45.745  1.00  0.00    -0.289 OA
BRANCH  11  13
ATOM     13  C   UNL     1      60.665  -3.320 -47.574  1.00  0.00     0.064 A 
ATOM     14  C   UNL     1      59.473  -3.204 -48.321  1.00  0.00     0.130 A 
ATOM     15  C   UNL     1      61.837  -3.753 -48.222  1.00  0.00     0.020 A 
ATOM     16  C   UNL     1      59.470  -3.514 -49.689  1.00  0.00     0.093 A 
ATOM     17  C   UNL     1      61.825  -4.056 -49.585  1.00  0.00     0.047 A 
ATOM     18  C   UNL     1      60.642  -3.937 -50.323  1.00  0.00     0.119 A 
BRANCH  14  19
ATOM     19  O   UNL     1      58.298  -2.769 -47.709  1.00  0.00    -0.507 OA
ATOM     20  H   UNL     1      58.089  -2.986 -46.741  1.00  0.00     0.293 HD
ENDBRANCH  14  19
BRANCH  18  21
ATOM     21  O   UNL     1      60.619  -4.237 -51.683  1.00  0.00    -0.508 OA
ATOM     22  H   UNL     1      60.718  -3.516 -52.387  1.00  0.00     0.293 HD
ENDBRANCH  18  21
ENDBRANCH  11  13
ENDBRANCH   2  11
TORSDOF 6
ENDMDL
