MODEL 1
REMARK VINA RESULT:    -4.297      0.000      0.000
REMARK INTER + INTRA:          -6.087
REMARK INTER:                  -5.804
REMARK INTRA:                  -0.283
REMARK UNBOUND:                -0.283
REMARK SMILES O=C[C@@H](O)[C@@H](O)[C@H](O)CO
REMARK SMILES IDX 7 1 9 2 10 3 5 5 3 6 2 7 1 8 4 9 6 11 8 13
REMARK H PARENT 10 4 4 10 6 12 8 14
REMARK Flexibility Score: inf
ROOT
ATOM      1  C   UNL     1      35.923 -13.230 -17.530  1.00  0.00     0.171 C 
ENDROOT
BRANCH   1   2
ATOM      2  C   UNL     1      34.788 -13.506 -18.528  1.00  0.00     0.190 C 
BRANCH   2   3
ATOM      3  O   UNL     1      33.734 -14.175 -17.891  1.00  0.00    -0.394 OA
ATOM      4  H   UNL     1      33.268 -14.690 -18.600  1.00  0.00     0.210 HD
ENDBRANCH   2   3
ENDBRANCH   1   2
BRANCH   1   5
ATOM      5  C   UNL     1      36.918 -12.169 -18.077  1.00  0.00     0.181 C 
BRANCH   5   6
ATOM      6  C   UNL     1      37.508 -11.255 -16.975  1.00  0.00     0.209 C 
BRANCH   6   7
ATOM      7  C   UNL     1      39.007 -11.361 -16.875  1.00  0.00     0.258 C 
ATOM      8  O   UNL     1      39.722 -10.810 -17.697  1.00  0.00    -0.300 OA
ENDBRANCH   6   7
BRANCH   6   9
ATOM      9  O   UNL     1      37.157  -9.924 -17.251  1.00  0.00    -0.383 OA
ATOM     10  H   UNL     1      36.182  -9.841 -17.080  1.00  0.00     0.211 HD
ENDBRANCH   6   9
ENDBRANCH   5   6
BRANCH   5  11
ATOM     11  O   UNL     1      37.932 -12.748 -18.864  1.00  0.00    -0.387 OA
ATOM     12  H   UNL     1      37.591 -12.835 -19.791  1.00  0.00     0.211 HD
ENDBRANCH   5  11
ENDBRANCH   1   5
BRANCH   1  13
ATOM     13  O   UNL     1      36.596 -14.432 -17.251  1.00  0.00    -0.388 OA
ATOM     14  H   UNL     1      37.561 -14.268 -17.415  1.00  0.00     0.211 HD
ENDBRANCH   1  13
TORSDOF 8
ENDMDL
MODEL 2
REMARK VINA RESULT:    -4.268      2.071      4.931
REMARK INTER + INTRA:          -6.048
REMARK INTER:                  -5.594
REMARK INTRA:                  -0.455
REMARK UNBOUND:                -0.283
REMARK SMILES O=C[C@@H](O)[C@@H](O)[C@H](O)CO
REMARK SMILES IDX 7 1 9 2 10 3 5 5 3 6 2 7 1 8 4 9 6 11 8 13
REMARK H PARENT 10 4 4 10 6 12 8 14
REMARK Flexibility Score: inf
ROOT
ATOM      1  C   UNL     1      35.364 -12.953 -18.978  1.00  0.00     0.171 C 
ENDROOT
BRANCH   1   2
ATOM      2  C   UNL     1      36.475 -11.911 -18.777  1.00  0.00     0.190 C 
BRANCH   2   3
ATOM      3  O   UNL     1      37.716 -12.449 -19.146  1.00  0.00    -0.394 OA
ATOM      4  H   UNL     1      37.933 -13.134 -18.461  1.00  0.00     0.210 HD
ENDBRANCH   2   3
ENDBRANCH   1   2
BRANCH   1   5
ATOM      5  C   UNL     1      35.279 -13.935 -17.776  1.00  0.00     0.181 C 
BRANCH   5   6
ATOM      6  C   UNL     1      34.413 -15.185 -18.064  1.00  0.00     0.209 C 
BRANCH   6   7
ATOM      7  C   UNL     1      33.129 -14.849 -18.777  1.00  0.00     0.258 C 
ATOM      8  O   UNL     1      32.922 -15.268 -19.905  1.00  0.00    -0.300 OA
ENDBRANCH   6   7
BRANCH   6   9
ATOM      9  O   UNL     1      35.154 -16.084 -18.846  1.00  0.00    -0.383 OA
ATOM     10  H   UNL     1      34.855 -15.963 -19.786  1.00  0.00     0.211 HD
ENDBRANCH   6   9
ENDBRANCH   5   6
BRANCH   5  11
ATOM     11  O   UNL     1      36.552 -14.291 -17.290  1.00  0.00    -0.387 OA
ATOM     12  H   UNL     1      36.492 -15.202 -16.904  1.00  0.00     0.211 HD
ENDBRANCH   5  11
ENDBRANCH   1   5
BRANCH   1  13
ATOM     13  O   UNL     1      35.602 -13.660 -20.170  1.00  0.00    -0.388 OA
ATOM     14  H   UNL     1      35.437 -13.029 -20.918  1.00  0.00     0.211 HD
ENDBRANCH   1  13
TORSDOF 8
ENDMDL
MODEL 3
REMARK VINA RESULT:    -4.139      1.656      4.531
REMARK INTER + INTRA:          -5.873
REMARK INTER:                  -5.224
REMARK INTRA:                  -0.649
REMARK UNBOUND:                -0.283
REMARK SMILES O=C[C@@H](O)[C@@H](O)[C@H](O)CO
REMARK SMILES IDX 7 1 9 2 10 3 5 5 3 6 2 7 1 8 4 9 6 11 8 13
REMARK H PARENT 10 4 4 10 6 12 8 14
REMARK Flexibility Score: inf
ROOT
ATOM      1  C   UNL     1      36.693 -12.091 -18.492  1.00  0.00     0.171 C 
ENDROOT
BRANCH   1   2
ATOM      2  C   UNL     1      38.006 -12.043 -17.696  1.00  0.00     0.190 C 
BRANCH   2   3
ATOM      3  O   UNL     1      39.005 -12.762 -18.365  1.00  0.00    -0.394 OA
ATOM      4  H   UNL     1      39.673 -13.013 -17.675  1.00  0.00     0.210 HD
ENDBRANCH   2   3
ENDBRANCH   1   2
BRANCH   1   5
ATOM      5  C   UNL     1      35.761 -13.227 -17.986  1.00  0.00     0.181 C 
BRANCH   5   6
ATOM      6  C   UNL     1      34.787 -13.750 -19.070  1.00  0.00     0.209 C 
BRANCH   6   7
ATOM      7  C   UNL     1      33.990 -14.942 -18.607  1.00  0.00     0.258 C 
ATOM      8  O   UNL     1      34.447 -16.069 -18.712  1.00  0.00    -0.300 OA
ENDBRANCH   6   7
BRANCH   6   9
ATOM      9  O   UNL     1      33.906 -12.718 -19.428  1.00  0.00    -0.383 OA
ATOM     10  H   UNL     1      33.347 -12.524 -18.629  1.00  0.00     0.211 HD
ENDBRANCH   6   9
ENDBRANCH   5   6
BRANCH   5  11
ATOM     11  O   UNL     1      36.482 -14.279 -17.390  1.00  0.00    -0.387 OA
ATOM     12  H   UNL     1      36.699 -14.017 -16.459  1.00  0.00     0.211 HD
ENDBRANCH   5  11
ENDBRANCH   1   5
BRANCH   1  13
ATOM     13  O   UNL     1      36.985 -12.270 -19.856  1.00  0.00    -0.388 OA
ATOM     14  H   UNL     1      37.628 -11.557 -20.110  1.00  0.00     0.211 HD
ENDBRANCH   1  13
TORSDOF 8
ENDMDL
MODEL 4
REMARK VINA RESULT:    -4.047      1.987      2.345
REMARK INTER + INTRA:          -5.750
REMARK INTER:                  -5.071
REMARK INTRA:                  -0.680
REMARK UNBOUND:                -0.283
REMARK SMILES O=C[C@@H](O)[C@@H](O)[C@H](O)CO
REMARK SMILES IDX 7 1 9 2 10 3 5 5 3 6 2 7 1 8 4 9 6 11 8 13
REMARK H PARENT 10 4 4 10 6 12 8 14
REMARK Flexibility Score: inf
ROOT
ATOM      1  C   UNL     1      35.234 -14.059 -17.789  1.00  0.00     0.171 C 
ENDROOT
BRANCH   1   2
ATOM      2  C   UNL     1      34.363 -15.108 -18.496  1.00  0.00     0.190 C 
BRANCH   2   3
ATOM      3  O   UNL     1      35.166 -16.125 -19.030  1.00  0.00    -0.394 OA
ATOM      4  H   UNL     1      34.965 -16.941 -18.502  1.00  0.00     0.210 HD
ENDBRANCH   2   3
ENDBRANCH   1   2
BRANCH   1   5
ATOM      5  C   UNL     1      35.566 -12.867 -18.729  1.00  0.00     0.181 C 
BRANCH   5   6
ATOM      6  C   UNL     1      36.864 -12.119 -18.338  1.00  0.00     0.209 C 
BRANCH   6   7
ATOM      7  C   UNL     1      36.987 -10.778 -19.012  1.00  0.00     0.258 C 
ATOM      8  O   UNL     1      36.057 -10.325 -19.660  1.00  0.00    -0.300 OA
ENDBRANCH   6   7
BRANCH   6   9
ATOM      9  O   UNL     1      36.885 -11.939 -16.946  1.00  0.00    -0.383 OA
ATOM     10  H   UNL     1      36.073 -11.418 -16.710  1.00  0.00     0.211 HD
ENDBRANCH   6   9
ENDBRANCH   5   6
BRANCH   5  11
ATOM     11  O   UNL     1      35.580 -13.248 -20.085  1.00  0.00    -0.387 OA
ATOM     12  H   UNL     1      36.322 -12.768 -20.534  1.00  0.00     0.211 HD
ENDBRANCH   5  11
ENDBRANCH   1   5
BRANCH   1  13
ATOM     13  O   UNL     1      36.418 -14.669 -17.337  1.00  0.00    -0.388 OA
ATOM     14  H   UNL     1      36.999 -13.945 -16.986  1.00  0.00     0.211 HD
ENDBRANCH   1  13
TORSDOF 8
ENDMDL
MODEL 5
REMARK VINA RESULT:    -4.042      2.604      5.325
REMARK INTER + INTRA:          -5.743
REMARK INTER:                  -5.479
REMARK INTRA:                  -0.264
REMARK UNBOUND:                -0.283
REMARK SMILES O=C[C@@H](O)[C@@H](O)[C@H](O)CO
REMARK SMILES IDX 7 1 9 2 10 3 5 5 3 6 2 7 1 8 4 9 6 11 8 13
REMARK H PARENT 10 4 4 10 6 12 8 14
REMARK Flexibility Score: inf
ROOT
ATOM      1  C   UNL     1      35.375 -12.933 -18.730  1.00  0.00     0.171 C 
ENDROOT
BRANCH   1   2
ATOM      2  C   UNL     1      35.552 -13.512 -17.317  1.00  0.00     0.190 C 
BRANCH   2   3
ATOM      3  O   UNL     1      36.615 -14.424 -17.297  1.00  0.00    -0.394 OA
ATOM      4  H   UNL     1      37.422 -13.900 -17.050  1.00  0.00     0.210 HD
ENDBRANCH   2   3
ENDBRANCH   1   2
BRANCH   1   5
ATOM      5  C   UNL     1      34.376 -13.775 -19.570  1.00  0.00     0.181 C 
BRANCH   5   6
ATOM      6  C   UNL     1      34.040 -15.146 -18.933  1.00  0.00     0.209 C 
BRANCH   6   7
ATOM      7  C   UNL     1      32.623 -15.580 -19.203  1.00  0.00     0.258 C 
ATOM      8  O   UNL     1      32.165 -15.524 -20.333  1.00  0.00    -0.300 OA
ENDBRANCH   6   7
BRANCH   6   9
ATOM      9  O   UNL     1      34.923 -16.112 -19.438  1.00  0.00    -0.383 OA
ATOM     10  H   UNL     1      34.372 -16.779 -19.928  1.00  0.00     0.211 HD
ENDBRANCH   6   9
ENDBRANCH   5   6
BRANCH   5  11
ATOM     11  O   UNL     1      33.208 -13.054 -19.886  1.00  0.00    -0.387 OA
ATOM     12  H   UNL     1      32.699 -13.571 -20.561  1.00  0.00     0.211 HD
ENDBRANCH   5  11
ENDBRANCH   1   5
BRANCH   1  13
ATOM     13  O   UNL     1      36.627 -12.881 -19.368  1.00  0.00    -0.388 OA
ATOM     14  H   UNL     1      36.621 -12.077 -19.950  1.00  0.00     0.211 HD
ENDBRANCH   1  13
TORSDOF 8
ENDMDL
MODEL 6
REMARK VINA RESULT:    -4.042      1.216      4.455
REMARK INTER + INTRA:          -5.742
REMARK INTER:                  -5.472
REMARK INTRA:                  -0.270
REMARK UNBOUND:                -0.283
REMARK SMILES O=C[C@@H](O)[C@@H](O)[C@H](O)CO
REMARK SMILES IDX 7 1 9 2 10 3 5 5 3 6 2 7 1 8 4 9 6 11 8 13
REMARK H PARENT 10 4 4 10 6 12 8 14
REMARK Flexibility Score: inf
ROOT
ATOM      1  C   UNL     1      37.010 -12.154 -18.136  1.00  0.00     0.171 C 
ENDROOT
BRANCH   1   2
ATOM      2  C   UNL     1      37.410 -11.371 -16.876  1.00  0.00     0.190 C 
BRANCH   2   3
ATOM      3  O   UNL     1      38.451 -10.480 -17.169  1.00  0.00    -0.394 OA
ATOM      4  H   UNL     1      38.853 -10.230 -16.296  1.00  0.00     0.210 HD
ENDBRANCH   2   3
ENDBRANCH   1   2
BRANCH   1   5
ATOM      5  C   UNL     1      35.925 -13.221 -17.824  1.00  0.00     0.181 C 
BRANCH   5   6
ATOM      6  C   UNL     1      35.029 -13.561 -19.040  1.00  0.00     0.209 C 
BRANCH   6   7
ATOM      7  C   UNL     1      34.139 -14.750 -18.791  1.00  0.00     0.258 C 
ATOM      8  O   UNL     1      34.531 -15.879 -19.040  1.00  0.00    -0.300 OA
ENDBRANCH   6   7
BRANCH   6   9
ATOM      9  O   UNL     1      34.234 -12.446 -19.347  1.00  0.00    -0.383 OA
ATOM     10  H   UNL     1      34.559 -11.695 -18.783  1.00  0.00     0.211 HD
ENDBRANCH   6   9
ENDBRANCH   5   6
BRANCH   5  11
ATOM     11  O   UNL     1      36.473 -14.383 -17.246  1.00  0.00    -0.387 OA
ATOM     12  H   UNL     1      36.385 -14.310 -16.261  1.00  0.00     0.211 HD
ENDBRANCH   5  11
ENDBRANCH   1   5
BRANCH   1  13
ATOM     13  O   UNL     1      38.152 -12.764 -18.684  1.00  0.00    -0.388 OA
ATOM     14  H   UNL     1      37.848 -13.598 -19.129  1.00  0.00     0.211 HD
ENDBRANCH   1  13
TORSDOF 8
ENDMDL
MODEL 7
REMARK VINA RESULT:    -3.981      1.627      4.018
REMARK INTER + INTRA:          -5.661
REMARK INTER:                  -4.687
REMARK INTRA:                  -0.974
REMARK UNBOUND:                -0.283
REMARK SMILES O=C[C@@H](O)[C@@H](O)[C@H](O)CO
REMARK SMILES IDX 7 1 9 2 10 3 5 5 3 6 2 7 1 8 4 9 6 11 8 13
REMARK H PARENT 10 4 4 10 6 12 8 14
REMARK Flexibility Score: inf
ROOT
ATOM      1  C   UNL     1      38.378 -10.687 -17.668  1.00  0.00     0.171 C 
ENDROOT
BRANCH   1   2
ATOM      2  C   UNL     1      38.895  -9.887 -18.874  1.00  0.00     0.190 C 
BRANCH   2   3
ATOM      3  O   UNL     1      37.851  -9.642 -19.776  1.00  0.00    -0.394 OA
ATOM      4  H   UNL     1      38.089 -10.125 -20.610  1.00  0.00     0.210 HD
ENDBRANCH   2   3
ENDBRANCH   1   2
BRANCH   1   5
ATOM      5  C   UNL     1      38.113 -12.172 -18.041  1.00  0.00     0.181 C 
BRANCH   5   6
ATOM      6  C   UNL     1      36.670 -12.636 -17.729  1.00  0.00     0.209 C 
BRANCH   6   7
ATOM      7  C   UNL     1      35.771 -12.590 -18.937  1.00  0.00     0.258 C 
ATOM      8  O   UNL     1      35.644 -11.555 -19.573  1.00  0.00    -0.300 OA
ENDBRANCH   6   7
BRANCH   6   9
ATOM      9  O   UNL     1      36.710 -13.949 -17.235  1.00  0.00    -0.383 OA
ATOM     10  H   UNL     1      36.828 -13.884 -16.250  1.00  0.00     0.211 HD
ENDBRANCH   6   9
ENDBRANCH   5   6
BRANCH   5  11
ATOM     11  O   UNL     1      38.469 -12.456 -19.374  1.00  0.00    -0.387 OA
ATOM     12  H   UNL     1      39.334 -12.010 -19.565  1.00  0.00     0.211 HD
ENDBRANCH   5  11
ENDBRANCH   1   5
BRANCH   1  13
ATOM     13  O   UNL     1      37.201 -10.088 -17.185  1.00  0.00    -0.388 OA
ATOM     14  H   UNL     1      37.207 -10.196 -16.198  1.00  0.00     0.211 HD
ENDBRANCH   1  13
TORSDOF 8
ENDMDL
MODEL 8
REMARK VINA RESULT:    -3.966      1.413      2.082
REMARK INTER + INTRA:          -5.641
REMARK INTER:                  -5.186
REMARK INTRA:                  -0.455
REMARK UNBOUND:                -0.283
REMARK SMILES O=C[C@@H](O)[C@@H](O)[C@H](O)CO
REMARK SMILES IDX 7 1 9 2 10 3 5 5 3 6 2 7 1 8 4 9 6 11 8 13
REMARK H PARENT 10 4 4 10 6 12 8 14
REMARK Flexibility Score: inf
ROOT
ATOM      1  C   UNL     1      36.334 -12.768 -17.449  1.00  0.00     0.171 C 
ENDROOT
BRANCH   1   2
ATOM      2  C   UNL     1      35.643 -12.640 -18.815  1.00  0.00     0.190 C 
BRANCH   2   3
ATOM      3  O   UNL     1      34.343 -13.159 -18.750  1.00  0.00    -0.394 OA
ATOM      4  H   UNL     1      34.361 -13.859 -18.046  1.00  0.00     0.210 HD
ENDBRANCH   2   3
ENDBRANCH   1   2
BRANCH   1   5
ATOM      5  C   UNL     1      37.559 -11.818 -17.339  1.00  0.00     0.181 C 
BRANCH   5   6
ATOM      6  C   UNL     1      38.391 -11.735 -18.642  1.00  0.00     0.209 C 
BRANCH   6   7
ATOM      7  C   UNL     1      39.098 -10.414 -18.796  1.00  0.00     0.258 C 
ATOM      8  O   UNL     1      38.474  -9.413 -19.111  1.00  0.00    -0.300 OA
ENDBRANCH   6   7
BRANCH   6   9
ATOM      9  O   UNL     1      39.340 -12.769 -18.644  1.00  0.00    -0.383 OA
ATOM     10  H   UNL     1      40.080 -12.481 -19.242  1.00  0.00     0.211 HD
ENDBRANCH   6   9
ENDBRANCH   5   6
BRANCH   5  11
ATOM     11  O   UNL     1      37.199 -10.538 -16.875  1.00  0.00    -0.387 OA
ATOM     12  H   UNL     1      36.914  -9.996 -17.655  1.00  0.00     0.211 HD
ENDBRANCH   5  11
ENDBRANCH   1   5
BRANCH   1  13
ATOM     13  O   UNL     1      36.732 -14.102 -17.254  1.00  0.00    -0.388 OA
ATOM     14  H   UNL     1      36.095 -14.671 -17.760  1.00  0.00     0.211 HD
ENDBRANCH   1  13
TORSDOF 8
ENDMDL
MODEL 9
REMARK VINA RESULT:    -3.909      1.814      3.045
REMARK INTER + INTRA:          -5.564
REMARK INTER:                  -5.087
REMARK INTRA:                  -0.477
REMARK UNBOUND:                -0.283
REMARK SMILES O=C[C@@H](O)[C@@H](O)[C@H](O)CO
REMARK SMILES IDX 7 1 9 2 10 3 5 5 3 6 2 7 1 8 4 9 6 11 8 13
REMARK H PARENT 10 4 4 10 6 12 8 14
REMARK Flexibility Score: inf
ROOT
ATOM      1  C   UNL     1      38.287 -12.096 -17.419  1.00  0.00     0.171 C 
ENDROOT
BRANCH   1   2
ATOM      2  C   UNL     1      36.888 -12.569 -16.994  1.00  0.00     0.190 C 
BRANCH   2   3
ATOM      3  O   UNL     1      36.723 -13.927 -17.300  1.00  0.00    -0.394 OA
ATOM      4  H   UNL     1      36.970 -14.426 -16.478  1.00  0.00     0.210 HD
ENDBRANCH   2   3
ENDBRANCH   1   2
BRANCH   1   5
ATOM      5  C   UNL     1      38.344 -10.551 -17.571  1.00  0.00     0.181 C 
BRANCH   5   6
ATOM      6  C   UNL     1      38.922 -10.088 -18.930  1.00  0.00     0.209 C 
BRANCH   6   7
ATOM      7  C   UNL     1      37.850  -9.766 -19.938  1.00  0.00     0.258 C 
ATOM      8  O   UNL     1      36.982 -10.584 -20.199  1.00  0.00    -0.300 OA
ENDBRANCH   6   7
BRANCH   6   9
ATOM      9  O   UNL     1      39.718  -8.950 -18.724  1.00  0.00    -0.383 OA
ATOM     10  H   UNL     1      40.661  -9.226 -18.873  1.00  0.00     0.211 HD
ENDBRANCH   6   9
ENDBRANCH   5   6
BRANCH   5  11
ATOM     11  O   UNL     1      37.100  -9.945 -17.307  1.00  0.00    -0.387 OA
ATOM     12  H   UNL     1      37.122  -9.023 -17.670  1.00  0.00     0.211 HD
ENDBRANCH   5  11
ENDBRANCH   1   5
BRANCH   1  13
ATOM     13  O   UNL     1      38.640 -12.719 -18.629  1.00  0.00    -0.388 OA
ATOM     14  H   UNL     1      39.577 -13.029 -18.531  1.00  0.00     0.211 HD
ENDBRANCH   1  13
TORSDOF 8
ENDMDL
