MODEL 1
REMARK VINA RESULT:    -5.488      0.000      0.000
REMARK INTER + INTRA:          -6.956
REMARK INTER:                  -6.772
REMARK INTRA:                  -0.184
REMARK UNBOUND:                -0.184
REMARK SMILES O=c1c(O)c(-c2cc(O)c(O)c(O)c2)oc2cc(O)cc(O)c12
REMARK SMILES IDX 5 1 3 2 2 3 1 4 23 5 21 6 20 7 18 8 17 9 16 10 15 11 6 12
REMARK SMILES IDX 7 13 8 14 14 15 10 16 12 17 9 18 11 20 13 22 4 24 22 26
REMARK SMILES IDX 19 28
REMARK H PARENT 9 19 11 21 13 23 4 25 22 27 19 29
REMARK Flexibility Score: inf
ROOT
ATOM      1  C   UNL     1      37.210 -95.618  31.258  1.00  0.00     0.180 A 
ATOM      2  C   UNL     1      37.978 -96.215  30.242  1.00  0.00     0.208 A 
ATOM      3  C   UNL     1      37.422 -96.348  28.959  1.00  0.00     0.238 A 
ATOM      4  O   UNL     1      38.133 -96.834  28.041  1.00  0.00    -0.285 OA
ATOM      5  C   UNL     1      36.104 -95.897  28.712  1.00  0.00     0.111 A 
ATOM      6  C   UNL     1      35.427 -96.018  27.460  1.00  0.00     0.134 A 
ATOM      7  C   UNL     1      34.172 -95.420  27.294  1.00  0.00     0.093 A 
ATOM      8  C   UNL     1      33.542 -94.761  28.352  1.00  0.00     0.123 A 
ATOM      9  C   UNL     1      34.168 -94.690  29.594  1.00  0.00     0.094 A 
ATOM     10  C   UNL     1      35.436 -95.246  29.782  1.00  0.00     0.146 A 
ATOM     11  O   UNL     1      36.002 -95.146  30.979  1.00  0.00    -0.452 OA
ENDROOT
BRANCH   1  12
ATOM     12  C   UNL     1      37.718 -95.466  32.641  1.00  0.00     0.029 A 
ATOM     13  C   UNL     1      38.827 -94.651  32.927  1.00  0.00     0.062 A 
ATOM     14  C   UNL     1      39.307 -94.539  34.238  1.00  0.00     0.162 A 
ATOM     15  C   UNL     1      37.120 -96.194  33.681  1.00  0.00     0.062 A 
ATOM     16  C   UNL     1      38.691 -95.250  35.274  1.00  0.00     0.200 A 
ATOM     17  C   UNL     1      37.595 -96.084  34.995  1.00  0.00     0.162 A 
BRANCH  14  18
ATOM     18  O   UNL     1      40.403 -93.723  34.519  1.00  0.00    -0.504 OA
ATOM     19  H   UNL     1      40.599 -93.404  35.461  1.00  0.00     0.293 HD
ENDBRANCH  14  18
BRANCH  16  20
ATOM     20  O   UNL     1      39.181 -95.123  36.576  1.00  0.00    -0.502 OA
ATOM     21  H   UNL     1      39.956 -95.679  36.916  1.00  0.00     0.293 HD
ENDBRANCH  16  20
BRANCH  17  22
ATOM     22  O   UNL     1      36.983 -96.801  36.022  1.00  0.00    -0.504 OA
ATOM     23  H   UNL     1      36.561 -96.334  36.817  1.00  0.00     0.293 HD
ENDBRANCH  17  22
ENDBRANCH   1  12
BRANCH   2  24
ATOM     24  O   UNL     1      39.285 -96.634  30.502  1.00  0.00    -0.502 OA
ATOM     25  H   UNL     1      39.734 -97.374  29.978  1.00  0.00     0.293 HD
ENDBRANCH   2  24
BRANCH   6  26
ATOM     26  O   UNL     1      35.928 -96.733  26.369  1.00  0.00    -0.507 OA
ATOM     27  H   UNL     1      36.476 -97.577  26.437  1.00  0.00     0.293 HD
ENDBRANCH   6  26
BRANCH   8  28
ATOM     28  O   UNL     1      32.286 -94.182  28.182  1.00  0.00    -0.508 OA
ATOM     29  H   UNL     1      32.099 -93.228  28.466  1.00  0.00     0.293 HD
ENDBRANCH   8  28
TORSDOF 7
ENDMDL
MODEL 2
REMARK VINA RESULT:    -5.272     18.303     18.987
REMARK INTER + INTRA:          -6.689
REMARK INTER:                  -7.113
REMARK INTRA:                   0.424
REMARK UNBOUND:                -0.184
REMARK SMILES O=c1c(O)c(-c2cc(O)c(O)c(O)c2)oc2cc(O)cc(O)c12
REMARK SMILES IDX 5 1 3 2 2 3 1 4 23 5 21 6 20 7 18 8 17 9 16 10 15 11 6 12
REMARK SMILES IDX 7 13 8 14 14 15 10 16 12 17 9 18 11 20 13 22 4 24 22 26
REMARK SMILES IDX 19 28
REMARK H PARENT 9 19 11 21 13 23 4 25 22 27 19 29
REMARK Flexibility Score: inf
ROOT
ATOM      1  C   UNL     1      37.193 -77.642  34.317  1.00  0.00     0.180 A 
ATOM      2  C   UNL     1      37.486 -77.656  35.692  1.00  0.00     0.208 A 
ATOM      3  C   UNL     1      36.429 -77.734  36.613  1.00  0.00     0.238 A 
ATOM      4  O   UNL     1      36.701 -77.801  37.840  1.00  0.00    -0.285 OA
ATOM      5  C   UNL     1      35.092 -77.780  36.149  1.00  0.00     0.111 A 
ATOM      6  C   UNL     1      33.942 -77.820  36.994  1.00  0.00     0.134 A 
ATOM      7  C   UNL     1      32.674 -77.996  36.426  1.00  0.00     0.093 A 
ATOM      8  C   UNL     1      32.509 -78.069  35.040  1.00  0.00     0.123 A 
ATOM      9  C   UNL     1      33.620 -77.971  34.206  1.00  0.00     0.094 A 
ATOM     10  C   UNL     1      34.902 -77.831  34.743  1.00  0.00     0.146 A 
ATOM     11  O   UNL     1      35.934 -77.754  33.912  1.00  0.00    -0.452 OA
ENDROOT
BRANCH   1  12
ATOM     12  C   UNL     1      38.252 -77.538  33.287  1.00  0.00     0.029 A 
ATOM     13  C   UNL     1      39.612 -77.652  33.623  1.00  0.00     0.062 A 
ATOM     14  C   UNL     1      40.600 -77.525  32.639  1.00  0.00     0.162 A 
ATOM     15  C   UNL     1      37.898 -77.261  31.958  1.00  0.00     0.062 A 
ATOM     16  C   UNL     1      40.239 -77.272  31.310  1.00  0.00     0.200 A 
ATOM     17  C   UNL     1      38.883 -77.135  30.968  1.00  0.00     0.162 A 
BRANCH  14  18
ATOM     18  O   UNL     1      41.948 -77.646  32.974  1.00  0.00    -0.504 OA
ATOM     19  H   UNL     1      42.631 -77.995  32.312  1.00  0.00     0.293 HD
ENDBRANCH  14  18
BRANCH  16  20
ATOM     20  O   UNL     1      41.237 -77.153  30.342  1.00  0.00    -0.502 OA
ATOM     21  H   UNL     1      42.220 -77.249  30.566  1.00  0.00     0.293 HD
ENDBRANCH  16  20
BRANCH  17  22
ATOM     22  O   UNL     1      38.518 -76.875  29.648  1.00  0.00    -0.504 OA
ATOM     23  H   UNL     1      37.915 -77.505  29.130  1.00  0.00     0.293 HD
ENDBRANCH  17  22
ENDBRANCH   1  12
BRANCH   2  24
ATOM     24  O   UNL     1      38.813 -77.631  36.128  1.00  0.00    -0.502 OA
ATOM     25  H   UNL     1      39.596 -77.744  35.496  1.00  0.00     0.293 HD
ENDBRANCH   2  24
BRANCH   6  26
ATOM     26  O   UNL     1      33.988 -77.663  38.382  1.00  0.00    -0.507 OA
ATOM     27  H   UNL     1      34.813 -77.414  38.905  1.00  0.00     0.293 HD
ENDBRANCH   6  26
BRANCH   8  28
ATOM     28  O   UNL     1      31.242 -78.228  34.483  1.00  0.00    -0.508 OA
ATOM     29  H   UNL     1      30.797 -77.485  33.957  1.00  0.00     0.293 HD
ENDBRANCH   8  28
TORSDOF 7
ENDMDL
MODEL 3
REMARK VINA RESULT:    -5.133     18.122     19.375
REMARK INTER + INTRA:          -6.518
REMARK INTER:                  -6.916
REMARK INTRA:                   0.398
REMARK UNBOUND:                -0.184
REMARK SMILES O=c1c(O)c(-c2cc(O)c(O)c(O)c2)oc2cc(O)cc(O)c12
REMARK SMILES IDX 5 1 3 2 2 3 1 4 23 5 21 6 20 7 18 8 17 9 16 10 15 11 6 12
REMARK SMILES IDX 7 13 8 14 14 15 10 16 12 17 9 18 11 20 13 22 4 24 22 26
REMARK SMILES IDX 19 28
REMARK H PARENT 9 19 11 21 13 23 4 25 22 27 19 29
REMARK Flexibility Score: inf
ROOT
ATOM      1  C   UNL     1      37.326 -77.621  34.135  1.00  0.00     0.180 A 
ATOM      2  C   UNL     1      35.920 -77.635  34.109  1.00  0.00     0.208 A 
ATOM      3  C   UNL     1      35.218 -77.691  35.324  1.00  0.00     0.238 A 
ATOM      4  O   UNL     1      33.960 -77.649  35.297  1.00  0.00    -0.285 OA
ATOM      5  C   UNL     1      35.929 -77.748  36.547  1.00  0.00     0.111 A 
ATOM      6  C   UNL     1      35.320 -77.847  37.834  1.00  0.00     0.134 A 
ATOM      7  C   UNL     1      36.117 -77.764  38.983  1.00  0.00     0.093 A 
ATOM      8  C   UNL     1      37.506 -77.651  38.889  1.00  0.00     0.123 A 
ATOM      9  C   UNL     1      38.114 -77.614  37.637  1.00  0.00     0.094 A 
ATOM     10  C   UNL     1      37.343 -77.658  36.473  1.00  0.00     0.146 A 
ATOM     11  O   UNL     1      37.963 -77.608  35.299  1.00  0.00    -0.452 OA
ENDROOT
BRANCH   1  12
ATOM     12  C   UNL     1      38.135 -77.587  32.895  1.00  0.00     0.029 A 
ATOM     13  C   UNL     1      37.563 -77.243  31.658  1.00  0.00     0.062 A 
ATOM     14  C   UNL     1      38.340 -77.241  30.492  1.00  0.00     0.162 A 
ATOM     15  C   UNL     1      39.486 -77.963  32.941  1.00  0.00     0.062 A 
ATOM     16  C   UNL     1      39.693 -77.595  30.550  1.00  0.00     0.200 A 
ATOM     17  C   UNL     1      40.268 -77.962  31.779  1.00  0.00     0.162 A 
BRANCH  14  18
ATOM     18  O   UNL     1      37.771 -76.892  29.268  1.00  0.00    -0.504 OA
ATOM     19  H   UNL     1      38.321 -76.473  28.527  1.00  0.00     0.293 HD
ENDBRANCH  14  18
BRANCH  16  20
ATOM     20  O   UNL     1      40.453 -77.584  29.378  1.00  0.00    -0.502 OA
ATOM     21  H   UNL     1      40.956 -78.400  29.055  1.00  0.00     0.293 HD
ENDBRANCH  16  20
BRANCH  17  22
ATOM     22  O   UNL     1      41.614 -78.322  31.840  1.00  0.00    -0.504 OA
ATOM     23  H   UNL     1      41.902 -79.294  31.873  1.00  0.00     0.293 HD
ENDBRANCH  17  22
ENDBRANCH   1  12
BRANCH   2  24
ATOM     24  O   UNL     1      35.238 -77.557  32.892  1.00  0.00    -0.502 OA
ATOM     25  H   UNL     1      35.549 -78.044  32.062  1.00  0.00     0.293 HD
ENDBRANCH   2  24
BRANCH   6  26
ATOM     26  O   UNL     1      33.952 -78.054  38.037  1.00  0.00    -0.507 OA
ATOM     27  H   UNL     1      33.219 -77.589  37.524  1.00  0.00     0.293 HD
ENDBRANCH   6  26
BRANCH   8  28
ATOM     28  O   UNL     1      38.293 -77.586  40.038  1.00  0.00    -0.508 OA
ATOM     29  H   UNL     1      38.145 -76.872  40.741  1.00  0.00     0.293 HD
ENDBRANCH   8  28
TORSDOF 7
ENDMDL
MODEL 4
REMARK VINA RESULT:    -5.092      3.286      5.803
REMARK INTER + INTRA:          -6.468
REMARK INTER:                  -6.633
REMARK INTRA:                   0.166
REMARK UNBOUND:                -0.184
REMARK SMILES O=c1c(O)c(-c2cc(O)c(O)c(O)c2)oc2cc(O)cc(O)c12
REMARK SMILES IDX 5 1 3 2 2 3 1 4 23 5 21 6 20 7 18 8 17 9 16 10 15 11 6 12
REMARK SMILES IDX 7 13 8 14 14 15 10 16 12 17 9 18 11 20 13 22 4 24 22 26
REMARK SMILES IDX 19 28
REMARK H PARENT 9 19 11 21 13 23 4 25 22 27 19 29
REMARK Flexibility Score: inf
ROOT
ATOM      1  C   UNL     1      40.597 -95.486  35.750  1.00  0.00     0.180 A 
ATOM      2  C   UNL     1      41.746 -95.607  34.947  1.00  0.00     0.208 A 
ATOM      3  C   UNL     1      41.604 -95.593  33.550  1.00  0.00     0.238 A 
ATOM      4  O   UNL     1      42.641 -95.647  32.838  1.00  0.00    -0.285 OA
ATOM      5  C   UNL     1      40.317 -95.475  32.973  1.00  0.00     0.111 A 
ATOM      6  C   UNL     1      40.054 -95.490  31.570  1.00  0.00     0.134 A 
ATOM      7  C   UNL     1      38.756 -95.235  31.109  1.00  0.00     0.093 A 
ATOM      8  C   UNL     1      37.702 -95.029  32.002  1.00  0.00     0.123 A 
ATOM      9  C   UNL     1      37.939 -95.072  33.373  1.00  0.00     0.094 A 
ATOM     10  C   UNL     1      39.228 -95.289  33.865  1.00  0.00     0.146 A 
ATOM     11  O   UNL     1      39.412 -95.311  35.179  1.00  0.00    -0.452 OA
ENDROOT
BRANCH   1  12
ATOM     12  C   UNL     1      40.664 -95.517  37.229  1.00  0.00     0.029 A 
ATOM     13  C   UNL     1      41.611 -96.307  37.902  1.00  0.00     0.062 A 
ATOM     14  C   UNL     1      41.642 -96.342  39.302  1.00  0.00     0.162 A 
ATOM     15  C   UNL     1      39.727 -94.790  37.978  1.00  0.00     0.062 A 
ATOM     16  C   UNL     1      40.718 -95.595  40.043  1.00  0.00     0.200 A 
ATOM     17  C   UNL     1      39.754 -94.819  39.378  1.00  0.00     0.162 A 
BRANCH  14  18
ATOM     18  O   UNL     1      42.588 -97.122  39.966  1.00  0.00    -0.504 OA
ATOM     19  H   UNL     1      43.532 -96.790  40.126  1.00  0.00     0.293 HD
ENDBRANCH  14  18
BRANCH  16  20
ATOM     20  O   UNL     1      40.767 -95.639  41.437  1.00  0.00    -0.502 OA
ATOM     21  H   UNL     1      40.464 -94.861  42.012  1.00  0.00     0.293 HD
ENDBRANCH  16  20
BRANCH  17  22
ATOM     22  O   UNL     1      38.826 -94.079  40.112  1.00  0.00    -0.504 OA
ATOM     23  H   UNL     1      38.650 -94.271  41.092  1.00  0.00     0.293 HD
ENDBRANCH  17  22
ENDBRANCH   1  12
BRANCH   2  24
ATOM     24  O   UNL     1      43.009 -95.701  35.537  1.00  0.00    -0.502 OA
ATOM     25  H   UNL     1      43.864 -95.688  34.996  1.00  0.00     0.293 HD
ENDBRANCH   2  24
BRANCH   6  26
ATOM     26  O   UNL     1      41.016 -95.776  30.598  1.00  0.00    -0.507 OA
ATOM     27  H   UNL     1      41.905 -96.216  30.783  1.00  0.00     0.293 HD
ENDBRANCH   6  26
BRANCH   8  28
ATOM     28  O   UNL     1      36.411 -94.791  31.534  1.00  0.00    -0.508 OA
ATOM     29  H   UNL     1      35.728 -94.294  32.093  1.00  0.00     0.293 HD
ENDBRANCH   8  28
TORSDOF 7
ENDMDL
MODEL 5
REMARK VINA RESULT:    -5.085     18.169     19.056
REMARK INTER + INTRA:          -6.459
REMARK INTER:                  -6.472
REMARK INTRA:                   0.014
REMARK UNBOUND:                -0.184
REMARK SMILES O=c1c(O)c(-c2cc(O)c(O)c(O)c2)oc2cc(O)cc(O)c12
REMARK SMILES IDX 5 1 3 2 2 3 1 4 23 5 21 6 20 7 18 8 17 9 16 10 15 11 6 12
REMARK SMILES IDX 7 13 8 14 14 15 10 16 12 17 9 18 11 20 13 22 4 24 22 26
REMARK SMILES IDX 19 28
REMARK H PARENT 9 19 11 21 13 23 4 25 22 27 19 29
REMARK Flexibility Score: inf
ROOT
ATOM      1  C   UNL     1      38.286 -78.048  37.957  1.00  0.00     0.180 A 
ATOM      2  C   UNL     1      37.042 -78.561  38.364  1.00  0.00     0.208 A 
ATOM      3  C   UNL     1      35.985 -78.597  37.440  1.00  0.00     0.238 A 
ATOM      4  O   UNL     1      34.890 -79.107  37.795  1.00  0.00    -0.285 OA
ATOM      5  C   UNL     1      36.180 -78.106  36.127  1.00  0.00     0.111 A 
ATOM      6  C   UNL     1      35.168 -78.056  35.122  1.00  0.00     0.134 A 
ATOM      7  C   UNL     1      35.508 -77.671  33.819  1.00  0.00     0.093 A 
ATOM      8  C   UNL     1      36.809 -77.272  33.502  1.00  0.00     0.123 A 
ATOM      9  C   UNL     1      37.789 -77.260  34.490  1.00  0.00     0.094 A 
ATOM     10  C   UNL     1      37.490 -77.673  35.791  1.00  0.00     0.146 A 
ATOM     11  O   UNL     1      38.457 -77.656  36.700  1.00  0.00    -0.452 OA
ENDROOT
BRANCH   1  12
ATOM     12  C   UNL     1      39.440 -77.956  38.881  1.00  0.00     0.029 A 
ATOM     13  C   UNL     1      39.292 -77.462  40.188  1.00  0.00     0.062 A 
ATOM     14  C   UNL     1      40.400 -77.359  41.039  1.00  0.00     0.162 A 
ATOM     15  C   UNL     1      40.719 -78.313  38.427  1.00  0.00     0.062 A 
ATOM     16  C   UNL     1      41.670 -77.739  40.587  1.00  0.00     0.200 A 
ATOM     17  C   UNL     1      41.831 -78.214  39.274  1.00  0.00     0.162 A 
BRANCH  14  18
ATOM     18  O   UNL     1      40.249 -76.875  42.338  1.00  0.00    -0.504 OA
ATOM     19  H   UNL     1      39.382 -76.452  42.649  1.00  0.00     0.293 HD
ENDBRANCH  14  18
BRANCH  16  20
ATOM     20  O   UNL     1      42.762 -77.634  41.450  1.00  0.00    -0.502 OA
ATOM     21  H   UNL     1      43.652 -77.257  41.149  1.00  0.00     0.293 HD
ENDBRANCH  16  20
BRANCH  17  22
ATOM     22  O   UNL     1      43.095 -78.586  38.817  1.00  0.00    -0.504 OA
ATOM     23  H   UNL     1      43.211 -79.269  38.076  1.00  0.00     0.293 HD
ENDBRANCH  17  22
ENDBRANCH   1  12
BRANCH   2  24
ATOM     24  O   UNL     1      36.877 -79.061  39.659  1.00  0.00    -0.502 OA
ATOM     25  H   UNL     1      36.070 -79.608  39.932  1.00  0.00     0.293 HD
ENDBRANCH   2  24
BRANCH   6  26
ATOM     26  O   UNL     1      33.821 -78.345  35.356  1.00  0.00    -0.507 OA
ATOM     27  H   UNL     1      33.195 -77.767  35.896  1.00  0.00     0.293 HD
ENDBRANCH   6  26
BRANCH   8  28
ATOM     28  O   UNL     1      37.134 -76.875  32.206  1.00  0.00    -0.508 OA
ATOM     29  H   UNL     1      37.915 -76.256  32.022  1.00  0.00     0.293 HD
ENDBRANCH   8  28
TORSDOF 7
ENDMDL
MODEL 6
REMARK VINA RESULT:    -5.085     18.298     18.847
REMARK INTER + INTRA:          -6.459
REMARK INTER:                  -6.854
REMARK INTRA:                   0.396
REMARK UNBOUND:                -0.184
REMARK SMILES O=c1c(O)c(-c2cc(O)c(O)c(O)c2)oc2cc(O)cc(O)c12
REMARK SMILES IDX 5 1 3 2 2 3 1 4 23 5 21 6 20 7 18 8 17 9 16 10 15 11 6 12
REMARK SMILES IDX 7 13 8 14 14 15 10 16 12 17 9 18 11 20 13 22 4 24 22 26
REMARK SMILES IDX 19 28
REMARK H PARENT 9 19 11 21 13 23 4 25 22 27 19 29
REMARK Flexibility Score: inf
ROOT
ATOM      1  C   UNL     1      37.446 -77.575  34.651  1.00  0.00     0.180 A 
ATOM      2  C   UNL     1      38.692 -77.425  35.285  1.00  0.00     0.208 A 
ATOM      3  C   UNL     1      39.849 -77.321  34.495  1.00  0.00     0.238 A 
ATOM      4  O   UNL     1      40.955 -77.133  35.066  1.00  0.00    -0.285 OA
ATOM      5  C   UNL     1      39.747 -77.383  33.085  1.00  0.00     0.111 A 
ATOM      6  C   UNL     1      40.858 -77.329  32.189  1.00  0.00     0.134 A 
ATOM      7  C   UNL     1      40.629 -77.268  30.809  1.00  0.00     0.093 A 
ATOM      8  C   UNL     1      39.333 -77.325  30.290  1.00  0.00     0.123 A 
ATOM      9  C   UNL     1      38.247 -77.438  31.154  1.00  0.00     0.094 A 
ATOM     10  C   UNL     1      38.440 -77.465  32.538  1.00  0.00     0.146 A 
ATOM     11  O   UNL     1      37.376 -77.563  33.325  1.00  0.00    -0.452 OA
ENDROOT
BRANCH   1  12
ATOM     12  C   UNL     1      36.186 -77.715  35.416  1.00  0.00     0.029 A 
ATOM     13  C   UNL     1      36.195 -77.969  36.799  1.00  0.00     0.062 A 
ATOM     14  C   UNL     1      34.992 -78.123  37.500  1.00  0.00     0.162 A 
ATOM     15  C   UNL     1      34.957 -77.653  34.742  1.00  0.00     0.062 A 
ATOM     16  C   UNL     1      33.769 -78.037  36.824  1.00  0.00     0.200 A 
ATOM     17  C   UNL     1      33.751 -77.805  35.438  1.00  0.00     0.162 A 
BRANCH  14  18
ATOM     18  O   UNL     1      35.004 -78.368  38.873  1.00  0.00    -0.504 OA
ATOM     19  H   UNL     1      35.324 -79.251  39.252  1.00  0.00     0.293 HD
ENDBRANCH  14  18
BRANCH  16  20
ATOM     20  O   UNL     1      32.580 -78.189  37.541  1.00  0.00    -0.502 OA
ATOM     21  H   UNL     1      32.172 -79.099  37.720  1.00  0.00     0.293 HD
ENDBRANCH  16  20
BRANCH  17  22
ATOM     22  O   UNL     1      32.536 -77.726  34.759  1.00  0.00    -0.504 OA
ATOM     23  H   UNL     1      31.915 -76.932  34.871  1.00  0.00     0.293 HD
ENDBRANCH  17  22
ENDBRANCH   1  12
BRANCH   2  24
ATOM     24  O   UNL     1      38.768 -77.344  36.678  1.00  0.00    -0.502 OA
ATOM     25  H   UNL     1      38.096 -76.826  37.230  1.00  0.00     0.293 HD
ENDBRANCH   2  24
BRANCH   6  26
ATOM     26  O   UNL     1      42.194 -77.360  32.599  1.00  0.00    -0.507 OA
ATOM     27  H   UNL     1      42.498 -77.448  33.557  1.00  0.00     0.293 HD
ENDBRANCH   6  26
BRANCH   8  28
ATOM     28  O   UNL     1      39.116 -77.280  28.915  1.00  0.00    -0.508 OA
ATOM     29  H   UNL     1      38.260 -77.631  28.502  1.00  0.00     0.293 HD
ENDBRANCH   8  28
TORSDOF 7
ENDMDL
MODEL 7
REMARK VINA RESULT:    -5.056     18.138     18.811
REMARK INTER + INTRA:          -6.423
REMARK INTER:                  -6.749
REMARK INTRA:                   0.326
REMARK UNBOUND:                -0.184
REMARK SMILES O=c1c(O)c(-c2cc(O)c(O)c(O)c2)oc2cc(O)cc(O)c12
REMARK SMILES IDX 5 1 3 2 2 3 1 4 23 5 21 6 20 7 18 8 17 9 16 10 15 11 6 12
REMARK SMILES IDX 7 13 8 14 14 15 10 16 12 17 9 18 11 20 13 22 4 24 22 26
REMARK SMILES IDX 19 28
REMARK H PARENT 9 19 11 21 13 23 4 25 22 27 19 29
REMARK Flexibility Score: inf
ROOT
ATOM      1  C   UNL     1      36.140 -77.559  33.438  1.00  0.00     0.180 A 
ATOM      2  C   UNL     1      35.705 -77.451  32.106  1.00  0.00     0.208 A 
ATOM      3  C   UNL     1      36.664 -77.340  31.085  1.00  0.00     0.238 A 
ATOM      4  O   UNL     1      36.270 -77.297  29.890  1.00  0.00    -0.285 OA
ATOM      5  C   UNL     1      38.041 -77.323  31.410  1.00  0.00     0.111 A 
ATOM      6  C   UNL     1      39.096 -77.175  30.459  1.00  0.00     0.134 A 
ATOM      7  C   UNL     1      40.426 -77.304  30.879  1.00  0.00     0.093 A 
ATOM      8  C   UNL     1      40.740 -77.511  32.225  1.00  0.00     0.123 A 
ATOM      9  C   UNL     1      39.719 -77.597  33.168  1.00  0.00     0.094 A 
ATOM     10  C   UNL     1      38.381 -77.509  32.775  1.00  0.00     0.146 A 
ATOM     11  O   UNL     1      37.439 -77.607  33.706  1.00  0.00    -0.452 OA
ENDROOT
BRANCH   1  12
ATOM     12  C   UNL     1      35.189 -77.655  34.570  1.00  0.00     0.029 A 
ATOM     13  C   UNL     1      33.857 -77.226  34.445  1.00  0.00     0.062 A 
ATOM     14  C   UNL     1      32.980 -77.302  35.535  1.00  0.00     0.162 A 
ATOM     15  C   UNL     1      35.640 -78.129  35.812  1.00  0.00     0.062 A 
ATOM     16  C   UNL     1      33.430 -77.797  36.764  1.00  0.00     0.200 A 
ATOM     17  C   UNL     1      34.767 -78.209  36.905  1.00  0.00     0.162 A 
BRANCH  14  18
ATOM     18  O   UNL     1      31.657 -76.881  35.404  1.00  0.00    -0.504 OA
ATOM     19  H   UNL     1      30.934 -77.503  35.061  1.00  0.00     0.293 HD
ENDBRANCH  14  18
BRANCH  16  20
ATOM     20  O   UNL     1      32.541 -77.869  37.838  1.00  0.00    -0.502 OA
ATOM     21  H   UNL     1      32.209 -78.753  38.204  1.00  0.00     0.293 HD
ENDBRANCH  16  20
BRANCH  17  22
ATOM     22  O   UNL     1      35.222 -78.696  38.130  1.00  0.00    -0.504 OA
ATOM     23  H   UNL     1      34.996 -78.232  39.003  1.00  0.00     0.293 HD
ENDBRANCH  17  22
ENDBRANCH   1  12
BRANCH   2  24
ATOM     24  O   UNL     1      34.342 -77.491  31.805  1.00  0.00    -0.502 OA
ATOM     25  H   UNL     1      33.722 -76.710  31.983  1.00  0.00     0.293 HD
ENDBRANCH   2  24
BRANCH   6  26
ATOM     26  O   UNL     1      38.894 -76.875  29.109  1.00  0.00    -0.507 OA
ATOM     27  H   UNL     1      39.460 -77.228  28.352  1.00  0.00     0.293 HD
ENDBRANCH   6  26
BRANCH   8  28
ATOM     28  O   UNL     1      42.067 -77.622  32.636  1.00  0.00    -0.508 OA
ATOM     29  H   UNL     1      42.313 -77.702  33.615  1.00  0.00     0.293 HD
ENDBRANCH   8  28
TORSDOF 7
ENDMDL
MODEL 8
REMARK VINA RESULT:    -4.975     18.020     19.533
REMARK INTER + INTRA:          -6.323
REMARK INTER:                  -6.695
REMARK INTRA:                   0.372
REMARK UNBOUND:                -0.184
REMARK SMILES O=c1c(O)c(-c2cc(O)c(O)c(O)c2)oc2cc(O)cc(O)c12
REMARK SMILES IDX 5 1 3 2 2 3 1 4 23 5 21 6 20 7 18 8 17 9 16 10 15 11 6 12
REMARK SMILES IDX 7 13 8 14 14 15 10 16 12 17 9 18 11 20 13 22 4 24 22 26
REMARK SMILES IDX 19 28
REMARK H PARENT 9 19 11 21 13 23 4 25 22 27 19 29
REMARK Flexibility Score: inf
ROOT
ATOM      1  C   UNL     1      36.613 -78.197  37.047  1.00  0.00     0.180 A 
ATOM      2  C   UNL     1      37.762 -77.638  36.460  1.00  0.00     0.208 A 
ATOM      3  C   UNL     1      38.968 -77.651  37.178  1.00  0.00     0.238 A 
ATOM      4  O   UNL     1      40.005 -77.198  36.626  1.00  0.00    -0.285 OA
ATOM      5  C   UNL     1      39.008 -78.208  38.479  1.00  0.00     0.111 A 
ATOM      6  C   UNL     1      40.167 -78.239  39.312  1.00  0.00     0.134 A 
ATOM      7  C   UNL     1      40.124 -78.931  40.528  1.00  0.00     0.093 A 
ATOM      8  C   UNL     1      38.946 -79.539  40.970  1.00  0.00     0.123 A 
ATOM      9  C   UNL     1      37.794 -79.463  40.191  1.00  0.00     0.094 A 
ATOM     10  C   UNL     1      37.814 -78.810  38.957  1.00  0.00     0.146 A 
ATOM     11  O   UNL     1      36.697 -78.771  38.241  1.00  0.00    -0.452 OA
ENDROOT
BRANCH   1  12
ATOM     12  C   UNL     1      35.300 -78.198  36.361  1.00  0.00     0.029 A 
ATOM     13  C   UNL     1      35.200 -78.008  34.973  1.00  0.00     0.062 A 
ATOM     14  C   UNL     1      33.947 -77.988  34.346  1.00  0.00     0.162 A 
ATOM     15  C   UNL     1      34.126 -78.331  37.118  1.00  0.00     0.062 A 
ATOM     16  C   UNL     1      32.781 -78.145  35.105  1.00  0.00     0.200 A 
ATOM     17  C   UNL     1      32.870 -78.314  36.497  1.00  0.00     0.162 A 
BRANCH  14  18
ATOM     18  O   UNL     1      33.852 -77.807  32.967  1.00  0.00    -0.504 OA
ATOM     19  H   UNL     1      33.612 -76.908  32.565  1.00  0.00     0.293 HD
ENDBRANCH  14  18
BRANCH  16  20
ATOM     20  O   UNL     1      31.541 -78.126  34.463  1.00  0.00    -0.502 OA
ATOM     21  H   UNL     1      31.454 -77.985  33.464  1.00  0.00     0.293 HD
ENDBRANCH  16  20
BRANCH  17  22
ATOM     22  O   UNL     1      31.711 -78.463  37.258  1.00  0.00    -0.504 OA
ATOM     23  H   UNL     1      31.388 -77.732  37.882  1.00  0.00     0.293 HD
ENDBRANCH  17  22
ENDBRANCH   1  12
BRANCH   2  24
ATOM     24  O   UNL     1      37.706 -77.113  35.166  1.00  0.00    -0.502 OA
ATOM     25  H   UNL     1      37.205 -76.261  34.946  1.00  0.00     0.293 HD
ENDBRANCH   2  24
BRANCH   6  26
ATOM     26  O   UNL     1      41.365 -77.587  39.007  1.00  0.00    -0.507 OA
ATOM     27  H   UNL     1      41.842 -76.946  39.622  1.00  0.00     0.293 HD
ENDBRANCH   6  26
BRANCH   8  28
ATOM     28  O   UNL     1      38.908 -80.212  42.190  1.00  0.00    -0.508 OA
ATOM     29  H   UNL     1      38.509 -79.786  43.018  1.00  0.00     0.293 HD
ENDBRANCH   8  28
TORSDOF 7
ENDMDL
MODEL 9
REMARK VINA RESULT:    -4.895      3.050      8.345
REMARK INTER + INTRA:          -6.224
REMARK INTER:                  -6.431
REMARK INTRA:                   0.207
REMARK UNBOUND:                -0.184
REMARK SMILES O=c1c(O)c(-c2cc(O)c(O)c(O)c2)oc2cc(O)cc(O)c12
REMARK SMILES IDX 5 1 3 2 2 3 1 4 23 5 21 6 20 7 18 8 17 9 16 10 15 11 6 12
REMARK SMILES IDX 7 13 8 14 14 15 10 16 12 17 9 18 11 20 13 22 4 24 22 26
REMARK SMILES IDX 19 28
REMARK H PARENT 9 19 11 21 13 23 4 25 22 27 19 29
REMARK Flexibility Score: inf
ROOT
ATOM      1  C   UNL     1      39.285 -95.423  35.286  1.00  0.00     0.180 A 
ATOM      2  C   UNL     1      40.485 -95.071  35.929  1.00  0.00     0.208 A 
ATOM      3  C   UNL     1      40.555 -95.149  37.329  1.00  0.00     0.238 A 
ATOM      4  O   UNL     1      41.648 -94.885  37.894  1.00  0.00    -0.285 OA
ATOM      5  C   UNL     1      39.422 -95.562  38.070  1.00  0.00     0.111 A 
ATOM      6  C   UNL     1      39.369 -95.639  39.494  1.00  0.00     0.134 A 
ATOM      7  C   UNL     1      38.238 -96.186  40.115  1.00  0.00     0.093 A 
ATOM      8  C   UNL     1      37.133 -96.597  39.364  1.00  0.00     0.123 A 
ATOM      9  C   UNL     1      37.153 -96.470  37.978  1.00  0.00     0.094 A 
ATOM     10  C   UNL     1      38.280 -95.963  37.327  1.00  0.00     0.146 A 
ATOM     11  O   UNL     1      38.260 -95.869  36.003  1.00  0.00    -0.452 OA
ENDROOT
BRANCH   1  12
ATOM     12  C   UNL     1      39.127 -95.343  33.816  1.00  0.00     0.029 A 
ATOM     13  C   UNL     1      37.901 -94.981  33.231  1.00  0.00     0.062 A 
ATOM     14  C   UNL     1      37.765 -94.935  31.837  1.00  0.00     0.162 A 
ATOM     15  C   UNL     1      40.203 -95.692  32.986  1.00  0.00     0.062 A 
ATOM     16  C   UNL     1      38.850 -95.263  31.015  1.00  0.00     0.200 A 
ATOM     17  C   UNL     1      40.073 -95.647  31.591  1.00  0.00     0.162 A 
BRANCH  14  18
ATOM     18  O   UNL     1      36.550 -94.568  31.261  1.00  0.00    -0.504 OA
ATOM     19  H   UNL     1      35.687 -94.574  31.792  1.00  0.00     0.293 HD
ENDBRANCH  14  18
BRANCH  16  20
ATOM     20  O   UNL     1      38.696 -95.207  29.629  1.00  0.00    -0.502 OA
ATOM     21  H   UNL     1      38.194 -95.920  29.113  1.00  0.00     0.293 HD
ENDBRANCH  16  20
BRANCH  17  22
ATOM     22  O   UNL     1      41.154 -95.981  30.776  1.00  0.00    -0.504 OA
ATOM     23  H   UNL     1      41.200 -96.872  30.295  1.00  0.00     0.293 HD
ENDBRANCH  17  22
ENDBRANCH   1  12
BRANCH   2  24
ATOM     24  O   UNL     1      41.598 -94.687  35.178  1.00  0.00    -0.502 OA
ATOM     25  H   UNL     1      41.989 -93.754  35.222  1.00  0.00     0.293 HD
ENDBRANCH   2  24
BRANCH   6  26
ATOM     26  O   UNL     1      40.378 -95.171  40.340  1.00  0.00    -0.507 OA
ATOM     27  H   UNL     1      41.120 -94.548  40.058  1.00  0.00     0.293 HD
ENDBRANCH   6  26
BRANCH   8  28
ATOM     28  O   UNL     1      36.006 -97.125  39.991  1.00  0.00    -0.508 OA
ATOM     29  H   UNL     1      35.448 -97.850  39.555  1.00  0.00     0.293 HD
ENDBRANCH   8  28
TORSDOF 7
ENDMDL
