MODEL 1
REMARK VINA RESULT:    -4.341      0.000      0.000
REMARK INTER + INTRA:          -5.026
REMARK INTER:                  -4.975
REMARK INTRA:                  -0.051
REMARK UNBOUND:                -0.051
REMARK SMILES O=C([O-])c1cc(O)c(O)c(O)c1
REMARK SMILES IDX 4 1 5 2 12 3 6 4 10 5 8 6 2 7 1 8 3 9 7 10 11 12 9 14
REMARK H PARENT 7 11 11 13 9 15
REMARK Flexibility Score: inf
ROOT
ATOM      1  C   UNL     1      -5.569   0.433  -8.521  1.00  0.00     0.005 A 
ATOM      2  C   UNL     1      -5.727   1.649  -9.205  1.00  0.00     0.060 A 
ATOM      3  C   UNL     1      -6.709  -0.245  -8.068  1.00  0.00     0.060 A 
ATOM      4  C   UNL     1      -6.999   2.186  -9.437  1.00  0.00     0.162 A 
ATOM      5  C   UNL     1      -7.987   0.276  -8.292  1.00  0.00     0.162 A 
ATOM      6  C   UNL     1      -8.146   1.494  -8.978  1.00  0.00     0.200 A 
ENDROOT
BRANCH   1   7
ATOM      7  C   UNL     1      -4.220  -0.127  -8.279  1.00  0.00     0.072 C 
ATOM      8  O   UNL     1      -3.211   0.625  -8.247  1.00  0.00    -0.545 OA
ATOM      9  O   UNL     1      -4.051  -1.493  -8.084  1.00  0.00    -0.545 OA
ENDBRANCH   1   7
BRANCH   4  10
ATOM     10  O   UNL     1      -7.074   3.400 -10.124  1.00  0.00    -0.504 OA
ATOM     11  H   UNL     1      -6.757   3.535 -11.073  1.00  0.00     0.293 HD
ENDBRANCH   4  10
BRANCH   5  12
ATOM     12  O   UNL     1      -9.092  -0.435  -7.823  1.00  0.00    -0.504 OA
ATOM     13  H   UNL     1      -9.014  -1.150  -7.111  1.00  0.00     0.293 HD
ENDBRANCH   5  12
BRANCH   6  14
ATOM     14  O   UNL     1      -9.440   1.981  -9.179  1.00  0.00    -0.502 OA
ATOM     15  H   UNL     1     -10.263   1.610  -8.726  1.00  0.00     0.293 HD
ENDBRANCH   6  14
TORSDOF 4
ENDMDL
MODEL 2
REMARK VINA RESULT:    -4.187      0.980      4.109
REMARK INTER + INTRA:          -4.850
REMARK INTER:                  -4.798
REMARK INTRA:                  -0.052
REMARK UNBOUND:                -0.051
REMARK SMILES O=C([O-])c1cc(O)c(O)c(O)c1
REMARK SMILES IDX 4 1 5 2 12 3 6 4 10 5 8 6 2 7 1 8 3 9 7 10 11 12 9 14
REMARK H PARENT 7 11 11 13 9 15
REMARK Flexibility Score: inf
ROOT
ATOM      1  C   UNL     1      -7.421   1.087  -8.795  1.00  0.00     0.005 A 
ATOM      2  C   UNL     1      -6.748   2.169  -9.386  1.00  0.00     0.060 A 
ATOM      3  C   UNL     1      -6.672   0.018  -8.285  1.00  0.00     0.060 A 
ATOM      4  C   UNL     1      -5.351   2.190  -9.471  1.00  0.00     0.162 A 
ATOM      5  C   UNL     1      -5.276   0.023  -8.361  1.00  0.00     0.162 A 
ATOM      6  C   UNL     1      -4.601   1.106  -8.953  1.00  0.00     0.200 A 
ENDROOT
BRANCH   1   7
ATOM      7  C   UNL     1      -8.898   1.073  -8.709  1.00  0.00     0.072 C 
ATOM      8  O   UNL     1      -9.489   0.242  -7.969  1.00  0.00    -0.545 OA
ATOM      9  O   UNL     1      -9.655   1.976  -9.446  1.00  0.00    -0.545 OA
ENDBRANCH   1   7
BRANCH   4  10
ATOM     10  O   UNL     1      -4.755   3.301 -10.074  1.00  0.00    -0.504 OA
ATOM     11  H   UNL     1      -4.414   4.105  -9.568  1.00  0.00     0.293 HD
ENDBRANCH   4  10
BRANCH   5  12
ATOM     12  O   UNL     1      -4.572  -1.064  -7.840  1.00  0.00    -0.504 OA
ATOM     13  H   UNL     1      -3.796  -1.492  -8.330  1.00  0.00     0.293 HD
ENDBRANCH   5  12
BRANCH   6  14
ATOM     14  O   UNL     1      -3.206   1.071  -9.009  1.00  0.00    -0.502 OA
ATOM     15  H   UNL     1      -2.655   0.229  -8.925  1.00  0.00     0.293 HD
ENDBRANCH   6  14
TORSDOF 4
ENDMDL
MODEL 3
REMARK VINA RESULT:    -4.183      1.315      4.549
REMARK INTER + INTRA:          -4.845
REMARK INTER:                  -4.797
REMARK INTRA:                  -0.049
REMARK UNBOUND:                -0.051
REMARK SMILES O=C([O-])c1cc(O)c(O)c(O)c1
REMARK SMILES IDX 4 1 5 2 12 3 6 4 10 5 8 6 2 7 1 8 3 9 7 10 11 12 9 14
REMARK H PARENT 7 11 11 13 9 15
REMARK Flexibility Score: inf
ROOT
ATOM      1  C   UNL     1      -7.953   0.941  -8.930  1.00  0.00     0.005 A 
ATOM      2  C   UNL     1      -7.187  -0.189  -9.259  1.00  0.00     0.060 A 
ATOM      3  C   UNL     1      -7.296   2.141  -8.622  1.00  0.00     0.060 A 
ATOM      4  C   UNL     1      -5.789  -0.130  -9.283  1.00  0.00     0.162 A 
ATOM      5  C   UNL     1      -5.901   2.217  -8.642  1.00  0.00     0.162 A 
ATOM      6  C   UNL     1      -5.133   1.085  -8.972  1.00  0.00     0.200 A 
ENDROOT
BRANCH   1   7
ATOM      7  C   UNL     1      -9.431   0.871  -8.907  1.00  0.00     0.072 C 
ATOM      8  O   UNL     1     -10.124   1.810  -9.380  1.00  0.00    -0.545 OA
ATOM      9  O   UNL     1     -10.075  -0.234  -8.363  1.00  0.00    -0.545 OA
ENDBRANCH   1   7
BRANCH   4  10
ATOM     10  O   UNL     1      -5.097  -1.297  -9.619  1.00  0.00    -0.504 OA
ATOM     11  H   UNL     1      -4.810  -1.998  -8.952  1.00  0.00     0.293 HD
ENDBRANCH   4  10
BRANCH   5  12
ATOM     12  O   UNL     1      -5.292   3.433  -8.329  1.00  0.00    -0.504 OA
ATOM     13  H   UNL     1      -4.378   3.689  -8.685  1.00  0.00     0.293 HD
ENDBRANCH   5  12
BRANCH   6  14
ATOM     14  O   UNL     1      -3.741   1.204  -8.978  1.00  0.00    -0.502 OA
ATOM     15  H   UNL     1      -3.117   0.593  -8.472  1.00  0.00     0.293 HD
ENDBRANCH   6  14
TORSDOF 4
ENDMDL
MODEL 4
REMARK VINA RESULT:    -3.807     10.614     11.612
REMARK INTER + INTRA:          -4.414
REMARK INTER:                  -4.366
REMARK INTRA:                  -0.048
REMARK UNBOUND:                -0.051
REMARK SMILES O=C([O-])c1cc(O)c(O)c(O)c1
REMARK SMILES IDX 4 1 5 2 12 3 6 4 10 5 8 6 2 7 1 8 3 9 7 10 11 12 9 14
REMARK H PARENT 7 11 11 13 9 15
REMARK Flexibility Score: inf
ROOT
ATOM      1  C   UNL     1      -0.612   0.317   0.297  1.00  0.00     0.005 A 
ATOM      2  C   UNL     1       0.562   0.495  -0.453  1.00  0.00     0.060 A 
ATOM      3  C   UNL     1      -0.976  -0.979   0.692  1.00  0.00     0.060 A 
ATOM      4  C   UNL     1       1.364  -0.595  -0.807  1.00  0.00     0.162 A 
ATOM      5  C   UNL     1      -0.186  -2.079   0.347  1.00  0.00     0.162 A 
ATOM      6  C   UNL     1       0.991  -1.900  -0.404  1.00  0.00     0.200 A 
ENDROOT
BRANCH   1   7
ATOM      7  C   UNL     1      -1.455   1.475   0.668  1.00  0.00     0.072 C 
ATOM      8  O   UNL     1      -0.934   2.527   1.123  1.00  0.00    -0.545 OA
ATOM      9  O   UNL     1      -2.836   1.417   0.518  1.00  0.00    -0.545 OA
ENDBRANCH   1   7
BRANCH   4  10
ATOM     10  O   UNL     1       2.516  -0.337  -1.554  1.00  0.00    -0.504 OA
ATOM     11  H   UNL     1       3.320  -0.946  -1.586  1.00  0.00     0.293 HD
ENDBRANCH   4  10
BRANCH   5  12
ATOM     12  O   UNL     1      -0.588  -3.349   0.762  1.00  0.00    -0.504 OA
ATOM     13  H   UNL     1      -0.920  -3.532   1.702  1.00  0.00     0.293 HD
ENDBRANCH   5  12
BRANCH   6  14
ATOM     14  O   UNL     1       1.751  -3.027  -0.728  1.00  0.00    -0.502 OA
ATOM     15  H   UNL     1       1.740  -3.478  -1.631  1.00  0.00     0.293 HD
ENDBRANCH   6  14
TORSDOF 4
ENDMDL
MODEL 5
REMARK VINA RESULT:    -3.791     10.578     11.851
REMARK INTER + INTRA:          -4.397
REMARK INTER:                  -4.348
REMARK INTRA:                  -0.048
REMARK UNBOUND:                -0.051
REMARK SMILES O=C([O-])c1cc(O)c(O)c(O)c1
REMARK SMILES IDX 4 1 5 2 12 3 6 4 10 5 8 6 2 7 1 8 3 9 7 10 11 12 9 14
REMARK H PARENT 7 11 11 13 9 15
REMARK Flexibility Score: inf
ROOT
ATOM      1  C   UNL     1      -0.670   0.285   0.304  1.00  0.00     0.005 A 
ATOM      2  C   UNL     1      -1.017  -1.013   0.714  1.00  0.00     0.060 A 
ATOM      3  C   UNL     1       0.501   0.471  -0.444  1.00  0.00     0.060 A 
ATOM      4  C   UNL     1      -0.214  -2.111   0.387  1.00  0.00     0.162 A 
ATOM      5  C   UNL     1       1.314  -0.616  -0.780  1.00  0.00     0.162 A 
ATOM      6  C   UNL     1       0.966  -1.916  -0.370  1.00  0.00     0.200 A 
ENDROOT
BRANCH   1   7
ATOM      7  C   UNL     1      -1.524   1.442   0.655  1.00  0.00     0.072 C 
ATOM      8  O   UNL     1      -1.012   2.511   1.078  1.00  0.00    -0.545 OA
ATOM      9  O   UNL     1      -2.906   1.362   0.521  1.00  0.00    -0.545 OA
ENDBRANCH   1   7
BRANCH   4  10
ATOM     10  O   UNL     1      -0.626  -3.370   0.831  1.00  0.00    -0.504 OA
ATOM     11  H   UNL     1      -0.324  -3.793   1.697  1.00  0.00     0.293 HD
ENDBRANCH   4  10
BRANCH   5  12
ATOM     12  O   UNL     1       2.470  -0.382  -1.526  1.00  0.00    -0.504 OA
ATOM     13  H   UNL     1       3.334  -0.884  -1.359  1.00  0.00     0.293 HD
ENDBRANCH   5  12
BRANCH   6  14
ATOM     14  O   UNL     1       1.807  -2.973  -0.726  1.00  0.00    -0.502 OA
ATOM     15  H   UNL     1       2.065  -3.198  -1.676  1.00  0.00     0.293 HD
ENDBRANCH   6  14
TORSDOF 4
ENDMDL
MODEL 6
REMARK VINA RESULT:    -3.767     17.865     19.713
REMARK INTER + INTRA:          -4.369
REMARK INTER:                  -4.318
REMARK INTRA:                  -0.051
REMARK UNBOUND:                -0.051
REMARK SMILES O=C([O-])c1cc(O)c(O)c(O)c1
REMARK SMILES IDX 4 1 5 2 12 3 6 4 10 5 8 6 2 7 1 8 3 9 7 10 11 12 9 14
REMARK H PARENT 7 11 11 13 9 15
REMARK Flexibility Score: inf
ROOT
ATOM      1  C   UNL     1      -0.576  -9.039   6.123  1.00  0.00     0.005 A 
ATOM      2  C   UNL     1       0.207  -7.907   6.399  1.00  0.00     0.060 A 
ATOM      3  C   UNL     1      -1.122  -9.765   7.192  1.00  0.00     0.060 A 
ATOM      4  C   UNL     1       0.448  -7.499   7.716  1.00  0.00     0.162 A 
ATOM      5  C   UNL     1      -0.892  -9.372   8.514  1.00  0.00     0.162 A 
ATOM      6  C   UNL     1      -0.107  -8.237   8.790  1.00  0.00     0.200 A 
ENDROOT
BRANCH   1   7
ATOM      7  C   UNL     1      -0.826  -9.463   4.727  1.00  0.00     0.072 C 
ATOM      8  O   UNL     1      -1.856 -10.125   4.434  1.00  0.00    -0.545 OA
ATOM      9  O   UNL     1       0.075  -9.135   3.721  1.00  0.00    -0.545 OA
ENDBRANCH   1   7
BRANCH   4  10
ATOM     10  O   UNL     1       1.238  -6.363   7.909  1.00  0.00    -0.504 OA
ATOM     11  H   UNL     1       1.753  -6.168   8.755  1.00  0.00     0.293 HD
ENDBRANCH   4  10
BRANCH   5  12
ATOM     12  O   UNL     1      -1.455 -10.125   9.544  1.00  0.00    -0.504 OA
ATOM     13  H   UNL     1      -1.031 -10.979   9.886  1.00  0.00     0.293 HD
ENDBRANCH   5  12
BRANCH   6  14
ATOM     14  O   UNL     1       0.099  -7.879  10.125  1.00  0.00    -0.502 OA
ATOM     15  H   UNL     1       0.218  -8.541  10.878  1.00  0.00     0.293 HD
ENDBRANCH   6  14
TORSDOF 4
ENDMDL
MODEL 7
REMARK VINA RESULT:    -3.765      1.753      4.106
REMARK INTER + INTRA:          -4.366
REMARK INTER:                  -4.315
REMARK INTRA:                  -0.051
REMARK UNBOUND:                -0.051
REMARK SMILES O=C([O-])c1cc(O)c(O)c(O)c1
REMARK SMILES IDX 4 1 5 2 12 3 6 4 10 5 8 6 2 7 1 8 3 9 7 10 11 12 9 14
REMARK H PARENT 7 11 11 13 9 15
REMARK Flexibility Score: inf
ROOT
ATOM      1  C   UNL     1      -7.811  -0.361  -9.536  1.00  0.00     0.005 A 
ATOM      2  C   UNL     1      -7.798   0.952  -9.038  1.00  0.00     0.060 A 
ATOM      3  C   UNL     1      -6.592  -1.031  -9.714  1.00  0.00     0.060 A 
ATOM      4  C   UNL     1      -6.595   1.592  -8.721  1.00  0.00     0.162 A 
ATOM      5  C   UNL     1      -5.381  -0.407  -9.402  1.00  0.00     0.162 A 
ATOM      6  C   UNL     1      -5.368   0.908  -8.903  1.00  0.00     0.200 A 
ENDROOT
BRANCH   1   7
ATOM      7  C   UNL     1      -9.087  -1.031  -9.869  1.00  0.00     0.072 C 
ATOM      8  O   UNL     1     -10.118  -0.354 -10.125  1.00  0.00    -0.545 OA
ATOM      9  O   UNL     1      -9.166  -2.418  -9.903  1.00  0.00    -0.545 OA
ENDBRANCH   1   7
BRANCH   4  10
ATOM     10  O   UNL     1      -6.666   2.898  -8.230  1.00  0.00    -0.504 OA
ATOM     11  H   UNL     1      -7.316   3.203  -7.521  1.00  0.00     0.293 HD
ENDBRANCH   4  10
BRANCH   5  12
ATOM     12  O   UNL     1      -4.193  -1.113  -9.596  1.00  0.00    -0.504 OA
ATOM     13  H   UNL     1      -3.510  -0.845 -10.295  1.00  0.00     0.293 HD
ENDBRANCH   5  12
BRANCH   6  14
ATOM     14  O   UNL     1      -4.136   1.496  -8.604  1.00  0.00    -0.502 OA
ATOM     15  H   UNL     1      -4.007   2.479  -8.416  1.00  0.00     0.293 HD
ENDBRANCH   6  14
TORSDOF 4
ENDMDL
MODEL 8
REMARK VINA RESULT:    -3.489      1.705      4.711
REMARK INTER + INTRA:          -4.050
REMARK INTER:                  -3.998
REMARK INTRA:                  -0.053
REMARK UNBOUND:                -0.051
REMARK SMILES O=C([O-])c1cc(O)c(O)c(O)c1
REMARK SMILES IDX 4 1 5 2 12 3 6 4 10 5 8 6 2 7 1 8 3 9 7 10 11 12 9 14
REMARK H PARENT 7 11 11 13 9 15
REMARK Flexibility Score: inf
ROOT
ATOM      1  C   UNL     1      -5.329   0.429  -8.852  1.00  0.00     0.005 A 
ATOM      2  C   UNL     1      -4.209   1.073  -9.402  1.00  0.00     0.060 A 
ATOM      3  C   UNL     1      -5.220  -0.916  -8.469  1.00  0.00     0.060 A 
ATOM      4  C   UNL     1      -2.997   0.394  -9.570  1.00  0.00     0.162 A 
ATOM      5  C   UNL     1      -4.017  -1.609  -8.630  1.00  0.00     0.162 A 
ATOM      6  C   UNL     1      -2.894  -0.963  -9.180  1.00  0.00     0.200 A 
ENDROOT
BRANCH   1   7
ATOM      7  C   UNL     1      -6.608   1.154  -8.677  1.00  0.00     0.072 C 
ATOM      8  O   UNL     1      -7.550   0.640  -8.018  1.00  0.00    -0.545 OA
ATOM      9  O   UNL     1      -6.785   2.413  -9.238  1.00  0.00    -0.545 OA
ENDBRANCH   1   7
BRANCH   4  10
ATOM     10  O   UNL     1      -1.929   1.103 -10.125  1.00  0.00    -0.504 OA
ATOM     11  H   UNL     1      -1.923   1.478 -11.062  1.00  0.00     0.293 HD
ENDBRANCH   4  10
BRANCH   5  12
ATOM     12  O   UNL     1      -3.955  -2.945  -8.234  1.00  0.00    -0.504 OA
ATOM     13  H   UNL     1      -4.020  -3.710  -8.895  1.00  0.00     0.293 HD
ENDBRANCH   5  12
BRANCH   6  14
ATOM     14  O   UNL     1      -1.711  -1.693  -9.325  1.00  0.00    -0.502 OA
ATOM     15  H   UNL     1      -1.441  -2.461  -8.728  1.00  0.00     0.293 HD
ENDBRANCH   6  14
TORSDOF 4
ENDMDL
MODEL 9
REMARK VINA RESULT:    -3.406     18.981     20.450
REMARK INTER + INTRA:          -3.955
REMARK INTER:                  -3.911
REMARK INTRA:                  -0.045
REMARK UNBOUND:                -0.051
REMARK SMILES O=C([O-])c1cc(O)c(O)c(O)c1
REMARK SMILES IDX 4 1 5 2 12 3 6 4 10 5 8 6 2 7 1 8 3 9 7 10 11 12 9 14
REMARK H PARENT 7 11 11 13 9 15
REMARK Flexibility Score: inf
ROOT
ATOM      1  C   UNL     1       0.743  -6.834   8.815  1.00  0.00     0.005 A 
ATOM      2  C   UNL     1       0.753  -7.153   7.447  1.00  0.00     0.060 A 
ATOM      3  C   UNL     1      -0.017  -7.622   9.691  1.00  0.00     0.060 A 
ATOM      4  C   UNL     1       0.020  -8.238   6.955  1.00  0.00     0.162 A 
ATOM      5  C   UNL     1      -0.755  -8.710   9.215  1.00  0.00     0.162 A 
ATOM      6  C   UNL     1      -0.744  -9.030   7.845  1.00  0.00     0.200 A 
ENDROOT
BRANCH   1   7
ATOM      7  C   UNL     1       1.521  -5.684   9.328  1.00  0.00     0.072 C 
ATOM      8  O   UNL     1       1.006  -4.536   9.383  1.00  0.00    -0.545 OA
ATOM      9  O   UNL     1       2.832  -5.857   9.757  1.00  0.00    -0.545 OA
ENDBRANCH   1   7
BRANCH   4  10
ATOM     10  O   UNL     1       0.080  -8.491   5.582  1.00  0.00    -0.504 OA
ATOM     11  H   UNL     1       0.932  -8.482   5.040  1.00  0.00     0.293 HD
ENDBRANCH   4  10
BRANCH   5  12
ATOM     12  O   UNL     1      -1.495  -9.466  10.125  1.00  0.00    -0.504 OA
ATOM     13  H   UNL     1      -1.587 -10.472  10.045  1.00  0.00     0.293 HD
ENDBRANCH   5  12
BRANCH   6  14
ATOM     14  O   UNL     1      -1.496 -10.125   7.412  1.00  0.00    -0.502 OA
ATOM     15  H   UNL     1      -1.827 -10.248   6.466  1.00  0.00     0.293 HD
ENDBRANCH   6  14
TORSDOF 4
ENDMDL
