MODEL 1
REMARK VINA RESULT:    -3.978      0.000      0.000
REMARK INTER + INTRA:         -13.066
REMARK INTER:                  -9.094
REMARK INTRA:                  -3.972
REMARK UNBOUND:                -3.972
REMARK SMILES CCCCCCCCCCCCCCCCCCCCCCCC(=O)[O-]
REMARK SMILES IDX 13 1 14 2 15 3 16 4 17 5 18 6 19 7 20 8 21 9 22 10 23 11
REMARK SMILES IDX 24 12 25 13 26 14 12 15 11 16 10 17 9 18 8 19 7 20 6 21 5 22
REMARK SMILES IDX 4 23 3 24 2 25 1 26
REMARK H PARENT
REMARK Flexibility Score: inf
ROOT
ATOM      1  C   UNL     1     194.932 193.574 199.496  1.00  0.00     0.000 C 
ENDROOT
BRANCH   1   2
ATOM      2  C   UNL     1     195.925 194.525 198.812  1.00  0.00     0.000 C 
BRANCH   2   3
ATOM      3  C   UNL     1     197.267 193.823 198.559  1.00  0.00     0.000 C 
BRANCH   3   4
ATOM      4  C   UNL     1     198.465 194.604 199.128  1.00  0.00     0.000 C 
BRANCH   4   5
ATOM      5  C   UNL     1     198.430 194.821 200.655  1.00  0.00     0.000 C 
BRANCH   5   6
ATOM      6  C   UNL     1     198.222 196.281 201.107  1.00  0.00     0.000 C 
BRANCH   6   7
ATOM      7  C   UNL     1     196.943 196.529 201.927  1.00  0.00     0.000 C 
BRANCH   7   8
ATOM      8  C   UNL     1     195.906 197.377 201.171  1.00  0.00     0.000 C 
BRANCH   8   9
ATOM      9  C   UNL     1     194.751 197.842 202.072  1.00  0.00     0.000 C 
BRANCH   9  10
ATOM     10  C   UNL     1     193.399 197.860 201.335  1.00  0.00     0.006 C 
BRANCH  10  11
ATOM     11  C   UNL     1     193.471 197.147 199.977  1.00  0.00     0.053 C 
BRANCH  11  12
ATOM     12  C   UNL     1     192.124 197.048 199.327  1.00  0.00     0.041 C 
ATOM     13  O   UNL     1     192.014 197.180 198.080  1.00  0.00    -0.550 OA
ATOM     14  O   UNL     1     190.990 196.837 200.101  1.00  0.00    -0.550 OA
ENDBRANCH  11  12
ENDBRANCH  10  11
ENDBRANCH   9  10
ENDBRANCH   8   9
ENDBRANCH   7   8
ENDBRANCH   6   7
ENDBRANCH   5   6
ENDBRANCH   4   5
ENDBRANCH   3   4
ENDBRANCH   2   3
ENDBRANCH   1   2
BRANCH   1  15
ATOM     15  C   UNL     1     195.074 193.564 201.030  1.00  0.00     0.000 C 
BRANCH  15  16
ATOM     16  C   UNL     1     195.382 192.184 201.647  1.00  0.00     0.000 C 
BRANCH  16  17
ATOM     17  C   UNL     1     195.763 191.085 200.635  1.00  0.00     0.000 C 
BRANCH  17  18
ATOM     18  C   UNL     1     195.483 189.644 201.106  1.00  0.00    -0.000 C 
BRANCH  18  19
ATOM     19  C   UNL     1     194.278 189.495 202.056  1.00  0.00    -0.000 C 
BRANCH  19  20
ATOM     20  C   UNL     1     192.929 189.210 201.361  1.00  0.00    -0.000 C 
BRANCH  20  21
ATOM     21  C   UNL     1     191.849 190.285 201.578  1.00  0.00    -0.000 C 
BRANCH  21  22
ATOM     22  C   UNL     1     191.987 191.475 200.614  1.00  0.00    -0.000 C 
BRANCH  22  23
ATOM     23  C   UNL     1     191.022 191.390 199.421  1.00  0.00    -0.000 C 
BRANCH  23  24
ATOM     24  C   UNL     1     191.615 190.603 198.239  1.00  0.00    -0.000 C 
BRANCH  24  25
ATOM     25  C   UNL     1     193.109 190.898 198.025  1.00  0.00    -0.003 C 
ATOM     26  C   UNL     1     193.927 189.637 197.747  1.00  0.00     0.004 C 
ENDBRANCH  24  25
ENDBRANCH  23  24
ENDBRANCH  22  23
ENDBRANCH  21  22
ENDBRANCH  20  21
ENDBRANCH  19  20
ENDBRANCH  18  19
ENDBRANCH  17  18
ENDBRANCH  16  17
ENDBRANCH  15  16
ENDBRANCH   1  15
TORSDOF 22
ENDMDL
MODEL 2
REMARK VINA RESULT:    -3.968     10.311     14.659
REMARK INTER + INTRA:         -13.043
REMARK INTER:                  -9.190
REMARK INTRA:                  -3.853
REMARK UNBOUND:                -3.972
REMARK SMILES CCCCCCCCCCCCCCCCCCCCCCCC(=O)[O-]
REMARK SMILES IDX 13 1 14 2 15 3 16 4 17 5 18 6 19 7 20 8 21 9 22 10 23 11
REMARK SMILES IDX 24 12 25 13 26 14 12 15 11 16 10 17 9 18 8 19 7 20 6 21 5 22
REMARK SMILES IDX 4 23 3 24 2 25 1 26
REMARK H PARENT
REMARK Flexibility Score: inf
ROOT
ATOM      1  C   UNL     1     184.427 181.181 202.080  1.00  0.00     0.000 C 
ENDROOT
BRANCH   1   2
ATOM      2  C   UNL     1     183.282 181.422 201.085  1.00  0.00     0.000 C 
BRANCH   2   3
ATOM      3  C   UNL     1     182.332 182.512 201.600  1.00  0.00     0.000 C 
BRANCH   3   4
ATOM      4  C   UNL     1     181.002 182.558 200.825  1.00  0.00     0.000 C 
BRANCH   4   5
ATOM      5  C   UNL     1     180.793 183.826 199.972  1.00  0.00     0.000 C 
BRANCH   5   6
ATOM      6  C   UNL     1     182.017 184.759 199.870  1.00  0.00     0.000 C 
BRANCH   6   7
ATOM      7  C   UNL     1     182.257 185.363 198.474  1.00  0.00     0.000 C 
BRANCH   7   8
ATOM      8  C   UNL     1     181.934 186.866 198.412  1.00  0.00     0.000 C 
BRANCH   8   9
ATOM      9  C   UNL     1     183.192 187.734 198.251  1.00  0.00     0.000 C 
BRANCH   9  10
ATOM     10  C   UNL     1     183.396 188.212 196.801  1.00  0.00     0.006 C 
BRANCH  10  11
ATOM     11  C   UNL     1     184.723 187.715 196.210  1.00  0.00     0.053 C 
BRANCH  11  12
ATOM     12  C   UNL     1     184.569 186.388 195.530  1.00  0.00     0.041 C 
ATOM     13  O   UNL     1     185.502 185.545 195.573  1.00  0.00    -0.550 OA
ATOM     14  O   UNL     1     183.406 186.095 194.828  1.00  0.00    -0.550 OA
ENDBRANCH  11  12
ENDBRANCH  10  11
ENDBRANCH   9  10
ENDBRANCH   8   9
ENDBRANCH   7   8
ENDBRANCH   6   7
ENDBRANCH   5   6
ENDBRANCH   4   5
ENDBRANCH   3   4
ENDBRANCH   2   3
ENDBRANCH   1   2
BRANCH   1  15
ATOM     15  C   UNL     1     185.479 180.187 201.552  1.00  0.00     0.000 C 
BRANCH  15  16
ATOM     16  C   UNL     1     185.236 179.682 200.116  1.00  0.00     0.000 C 
BRANCH  16  17
ATOM     17  C   UNL     1     186.360 180.004 199.110  1.00  0.00     0.000 C 
BRANCH  17  18
ATOM     18  C   UNL     1     186.900 181.446 199.180  1.00  0.00    -0.000 C 
BRANCH  18  19
ATOM     19  C   UNL     1     186.286 182.419 198.155  1.00  0.00    -0.000 C 
BRANCH  19  20
ATOM     20  C   UNL     1     185.274 183.428 198.736  1.00  0.00    -0.000 C 
BRANCH  20  21
ATOM     21  C   UNL     1     185.742 184.155 200.010  1.00  0.00    -0.000 C 
BRANCH  21  22
ATOM     22  C   UNL     1     185.693 185.686 199.876  1.00  0.00    -0.000 C 
BRANCH  22  23
ATOM     23  C   UNL     1     186.653 186.221 198.802  1.00  0.00    -0.000 C 
BRANCH  23  24
ATOM     24  C   UNL     1     187.402 187.486 199.259  1.00  0.00    -0.000 C 
BRANCH  24  25
ATOM     25  C   UNL     1     186.466 188.525 199.897  1.00  0.00    -0.003 C 
ATOM     26  C   UNL     1     186.269 189.762 199.019  1.00  0.00     0.004 C 
ENDBRANCH  24  25
ENDBRANCH  23  24
ENDBRANCH  22  23
ENDBRANCH  21  22
ENDBRANCH  20  21
ENDBRANCH  19  20
ENDBRANCH  18  19
ENDBRANCH  17  18
ENDBRANCH  16  17
ENDBRANCH  15  16
ENDBRANCH   1  15
TORSDOF 22
ENDMDL
MODEL 3
REMARK VINA RESULT:    -3.961      9.571     13.657
REMARK INTER + INTRA:         -13.027
REMARK INTER:                  -9.283
REMARK INTRA:                  -3.745
REMARK UNBOUND:                -3.972
REMARK SMILES CCCCCCCCCCCCCCCCCCCCCCCC(=O)[O-]
REMARK SMILES IDX 13 1 14 2 15 3 16 4 17 5 18 6 19 7 20 8 21 9 22 10 23 11
REMARK SMILES IDX 24 12 25 13 26 14 12 15 11 16 10 17 9 18 8 19 7 20 6 21 5 22
REMARK SMILES IDX 4 23 3 24 2 25 1 26
REMARK H PARENT
REMARK Flexibility Score: inf
ROOT
ATOM      1  C   UNL     1     183.610 181.701 201.990  1.00  0.00     0.000 C 
ENDROOT
BRANCH   1   2
ATOM      2  C   UNL     1     182.299 182.442 201.686  1.00  0.00     0.000 C 
BRANCH   2   3
ATOM      3  C   UNL     1     182.532 183.958 201.621  1.00  0.00     0.000 C 
BRANCH   3   4
ATOM      4  C   UNL     1     181.572 184.667 200.648  1.00  0.00     0.000 C 
BRANCH   4   5
ATOM      5  C   UNL     1     181.740 186.198 200.573  1.00  0.00     0.000 C 
BRANCH   5   6
ATOM      6  C   UNL     1     183.096 186.737 201.072  1.00  0.00     0.000 C 
BRANCH   6   7
ATOM      7  C   UNL     1     183.323 188.241 200.839  1.00  0.00     0.000 C 
BRANCH   7   8
ATOM      8  C   UNL     1     184.587 188.531 200.011  1.00  0.00     0.000 C 
BRANCH   8   9
ATOM      9  C   UNL     1     184.294 189.372 198.759  1.00  0.00     0.000 C 
BRANCH   9  10
ATOM     10  C   UNL     1     185.534 189.550 197.864  1.00  0.00     0.006 C 
BRANCH  10  11
ATOM     11  C   UNL     1     186.781 189.936 198.673  1.00  0.00     0.053 C 
BRANCH  11  12
ATOM     12  C   UNL     1     187.937 189.029 198.383  1.00  0.00     0.041 C 
ATOM     13  O   UNL     1     188.844 189.395 197.591  1.00  0.00    -0.550 OA
ATOM     14  O   UNL     1     188.000 187.770 198.968  1.00  0.00    -0.550 OA
ENDBRANCH  11  12
ENDBRANCH  10  11
ENDBRANCH   9  10
ENDBRANCH   8   9
ENDBRANCH   7   8
ENDBRANCH   6   7
ENDBRANCH   5   6
ENDBRANCH   4   5
ENDBRANCH   3   4
ENDBRANCH   2   3
ENDBRANCH   1   2
BRANCH   1  15
ATOM     15  C   UNL     1     183.755 180.392 201.192  1.00  0.00     0.000 C 
BRANCH  15  16
ATOM     16  C   UNL     1     185.191 179.835 201.109  1.00  0.00     0.000 C 
BRANCH  16  17
ATOM     17  C   UNL     1     186.285 180.757 201.686  1.00  0.00     0.000 C 
BRANCH  17  18
ATOM     18  C   UNL     1     187.150 181.476 200.633  1.00  0.00    -0.000 C 
BRANCH  18  19
ATOM     19  C   UNL     1     186.783 181.162 199.168  1.00  0.00    -0.000 C 
BRANCH  19  20
ATOM     20  C   UNL     1     186.255 182.363 198.356  1.00  0.00    -0.000 C 
BRANCH  20  21
ATOM     21  C   UNL     1     185.222 183.238 199.089  1.00  0.00    -0.000 C 
BRANCH  21  22
ATOM     22  C   UNL     1     185.724 184.670 199.340  1.00  0.00    -0.000 C 
BRANCH  22  23
ATOM     23  C   UNL     1     185.239 185.667 198.276  1.00  0.00    -0.000 C 
BRANCH  23  24
ATOM     24  C   UNL     1     183.840 185.319 197.737  1.00  0.00    -0.000 C 
BRANCH  24  25
ATOM     25  C   UNL     1     183.225 186.461 196.913  1.00  0.00    -0.003 C 
ATOM     26  C   UNL     1     183.704 186.468 195.461  1.00  0.00     0.004 C 
ENDBRANCH  24  25
ENDBRANCH  23  24
ENDBRANCH  22  23
ENDBRANCH  21  22
ENDBRANCH  20  21
ENDBRANCH  19  20
ENDBRANCH  18  19
ENDBRANCH  17  18
ENDBRANCH  16  17
ENDBRANCH  15  16
ENDBRANCH   1  15
TORSDOF 22
ENDMDL
MODEL 4
REMARK VINA RESULT:    -3.929     11.393     15.449
REMARK INTER + INTRA:         -12.954
REMARK INTER:                  -8.568
REMARK INTRA:                  -4.385
REMARK UNBOUND:                -3.972
REMARK SMILES CCCCCCCCCCCCCCCCCCCCCCCC(=O)[O-]
REMARK SMILES IDX 13 1 14 2 15 3 16 4 17 5 18 6 19 7 20 8 21 9 22 10 23 11
REMARK SMILES IDX 24 12 25 13 26 14 12 15 11 16 10 17 9 18 8 19 7 20 6 21 5 22
REMARK SMILES IDX 4 23 3 24 2 25 1 26
REMARK H PARENT
REMARK Flexibility Score: inf
ROOT
ATOM      1  C   UNL     1     181.866 187.112 199.754  1.00  0.00     0.000 C 
ENDROOT
BRANCH   1   2
ATOM      2  C   UNL     1     180.729 186.475 198.941  1.00  0.00     0.000 C 
BRANCH   2   3
ATOM      3  C   UNL     1     179.502 186.216 199.827  1.00  0.00     0.000 C 
BRANCH   3   4
ATOM      4  C   UNL     1     179.591 184.883 200.592  1.00  0.00     0.000 C 
BRANCH   4   5
ATOM      5  C   UNL     1     180.016 183.672 199.738  1.00  0.00     0.000 C 
BRANCH   5   6
ATOM      6  C   UNL     1     181.077 182.755 200.379  1.00  0.00     0.000 C 
BRANCH   6   7
ATOM      7  C   UNL     1     181.660 183.268 201.707  1.00  0.00     0.000 C 
BRANCH   7   8
ATOM      8  C   UNL     1     183.124 182.843 201.919  1.00  0.00     0.000 C 
BRANCH   8   9
ATOM      9  C   UNL     1     183.546 181.694 200.989  1.00  0.00     0.000 C 
BRANCH   9  10
ATOM     10  C   UNL     1     185.049 181.376 201.091  1.00  0.00     0.006 C 
BRANCH  10  11
ATOM     11  C   UNL     1     185.600 180.763 199.796  1.00  0.00     0.053 C 
BRANCH  11  12
ATOM     12  C   UNL     1     186.830 181.475 199.320  1.00  0.00     0.041 C 
ATOM     13  O   UNL     1     187.676 181.897 200.151  1.00  0.00    -0.550 OA
ATOM     14  O   UNL     1     187.028 181.694 197.962  1.00  0.00    -0.550 OA
ENDBRANCH  11  12
ENDBRANCH  10  11
ENDBRANCH   9  10
ENDBRANCH   8   9
ENDBRANCH   7   8
ENDBRANCH   6   7
ENDBRANCH   5   6
ENDBRANCH   4   5
ENDBRANCH   3   4
ENDBRANCH   2   3
ENDBRANCH   1   2
BRANCH   1  15
ATOM     15  C   UNL     1     183.072 186.172 199.932  1.00  0.00     0.000 C 
BRANCH  15  16
ATOM     16  C   UNL     1     183.264 185.135 198.806  1.00  0.00     0.000 C 
BRANCH  16  17
ATOM     17  C   UNL     1     184.664 184.491 198.742  1.00  0.00     0.000 C 
BRANCH  17  18
ATOM     18  C   UNL     1     185.617 184.895 199.884  1.00  0.00    -0.000 C 
BRANCH  18  19
ATOM     19  C   UNL     1     186.899 185.623 199.432  1.00  0.00    -0.000 C 
BRANCH  19  20
ATOM     20  C   UNL     1     186.709 186.621 198.271  1.00  0.00    -0.000 C 
BRANCH  20  21
ATOM     21  C   UNL     1     186.074 187.966 198.670  1.00  0.00    -0.000 C 
BRANCH  21  22
ATOM     22  C   UNL     1     185.390 188.676 197.489  1.00  0.00    -0.000 C 
BRANCH  22  23
ATOM     23  C   UNL     1     184.219 187.869 196.906  1.00  0.00    -0.000 C 
BRANCH  23  24
ATOM     24  C   UNL     1     184.408 187.552 195.413  1.00  0.00    -0.000 C 
BRANCH  24  25
ATOM     25  C   UNL     1     184.042 186.099 195.069  1.00  0.00    -0.003 C 
ATOM     26  C   UNL     1     184.415 185.718 193.636  1.00  0.00     0.004 C 
ENDBRANCH  24  25
ENDBRANCH  23  24
ENDBRANCH  22  23
ENDBRANCH  21  22
ENDBRANCH  20  21
ENDBRANCH  19  20
ENDBRANCH  18  19
ENDBRANCH  17  18
ENDBRANCH  16  17
ENDBRANCH  15  16
ENDBRANCH   1  15
TORSDOF 22
ENDMDL
MODEL 5
REMARK VINA RESULT:    -3.921      1.642      3.565
REMARK INTER + INTRA:         -12.936
REMARK INTER:                  -8.965
REMARK INTRA:                  -3.971
REMARK UNBOUND:                -3.972
REMARK SMILES CCCCCCCCCCCCCCCCCCCCCCCC(=O)[O-]
REMARK SMILES IDX 13 1 14 2 15 3 16 4 17 5 18 6 19 7 20 8 21 9 22 10 23 11
REMARK SMILES IDX 24 12 25 13 26 14 12 15 11 16 10 17 9 18 8 19 7 20 6 21 5 22
REMARK SMILES IDX 4 23 3 24 2 25 1 26
REMARK H PARENT
REMARK Flexibility Score: inf
ROOT
ATOM      1  C   UNL     1     194.598 190.298 197.053  1.00  0.00     0.000 C 
ENDROOT
BRANCH   1   2
ATOM      2  C   UNL     1     195.648 190.688 198.104  1.00  0.00     0.000 C 
BRANCH   2   3
ATOM      3  C   UNL     1     195.406 189.939 199.422  1.00  0.00     0.000 C 
BRANCH   3   4
ATOM      4  C   UNL     1     195.739 190.789 200.661  1.00  0.00     0.000 C 
BRANCH   4   5
ATOM      5  C   UNL     1     196.155 192.243 200.357  1.00  0.00     0.000 C 
BRANCH   5   6
ATOM      6  C   UNL     1     195.794 193.272 201.447  1.00  0.00     0.000 C 
BRANCH   6   7
ATOM      7  C   UNL     1     196.944 194.209 201.860  1.00  0.00     0.000 C 
BRANCH   7   8
ATOM      8  C   UNL     1     196.495 195.673 202.007  1.00  0.00     0.000 C 
BRANCH   8   9
ATOM      9  C   UNL     1     194.973 195.841 201.878  1.00  0.00     0.000 C 
BRANCH   9  10
ATOM     10  C   UNL     1     194.584 196.943 200.875  1.00  0.00     0.006 C 
BRANCH  10  11
ATOM     11  C   UNL     1     193.291 197.664 201.280  1.00  0.00     0.053 C 
BRANCH  11  12
ATOM     12  C   UNL     1     192.284 197.671 200.170  1.00  0.00     0.041 C 
ATOM     13  O   UNL     1     192.534 198.278 199.096  1.00  0.00    -0.550 OA
ATOM     14  O   UNL     1     191.062 197.030 200.333  1.00  0.00    -0.550 OA
ENDBRANCH  11  12
ENDBRANCH  10  11
ENDBRANCH   9  10
ENDBRANCH   8   9
ENDBRANCH   7   8
ENDBRANCH   6   7
ENDBRANCH   5   6
ENDBRANCH   4   5
ENDBRANCH   3   4
ENDBRANCH   2   3
ENDBRANCH   1   2
BRANCH   1  15
ATOM     15  C   UNL     1     194.210 191.469 196.131  1.00  0.00     0.000 C 
BRANCH  15  16
ATOM     16  C   UNL     1     194.363 192.870 196.758  1.00  0.00     0.000 C 
BRANCH  16  17
ATOM     17  C   UNL     1     193.055 193.503 197.274  1.00  0.00     0.000 C 
BRANCH  17  18
ATOM     18  C   UNL     1     193.214 194.401 198.516  1.00  0.00    -0.000 C 
BRANCH  18  19
ATOM     19  C   UNL     1     192.516 193.879 199.788  1.00  0.00    -0.000 C 
BRANCH  19  20
ATOM     20  C   UNL     1     192.464 192.343 199.921  1.00  0.00    -0.000 C 
BRANCH  20  21
ATOM     21  C   UNL     1     191.048 191.744 199.984  1.00  0.00    -0.000 C 
BRANCH  21  22
ATOM     22  C   UNL     1     190.905 190.660 201.066  1.00  0.00    -0.000 C 
BRANCH  22  23
ATOM     23  C   UNL     1     192.259 190.191 201.621  1.00  0.00    -0.000 C 
BRANCH  23  24
ATOM     24  C   UNL     1     192.439 188.666 201.525  1.00  0.00    -0.000 C 
BRANCH  24  25
ATOM     25  C   UNL     1     191.606 188.045 200.392  1.00  0.00    -0.003 C 
ATOM     26  C   UNL     1     192.297 188.136 199.031  1.00  0.00     0.004 C 
ENDBRANCH  24  25
ENDBRANCH  23  24
ENDBRANCH  22  23
ENDBRANCH  21  22
ENDBRANCH  20  21
ENDBRANCH  19  20
ENDBRANCH  18  19
ENDBRANCH  17  18
ENDBRANCH  16  17
ENDBRANCH  15  16
ENDBRANCH   1  15
TORSDOF 22
ENDMDL
MODEL 6
REMARK VINA RESULT:    -3.866     11.395     15.707
REMARK INTER + INTRA:         -12.811
REMARK INTER:                  -8.604
REMARK INTRA:                  -4.206
REMARK UNBOUND:                -3.972
REMARK SMILES CCCCCCCCCCCCCCCCCCCCCCCC(=O)[O-]
REMARK SMILES IDX 13 1 14 2 15 3 16 4 17 5 18 6 19 7 20 8 21 9 22 10 23 11
REMARK SMILES IDX 24 12 25 13 26 14 12 15 11 16 10 17 9 18 8 19 7 20 6 21 5 22
REMARK SMILES IDX 4 23 3 24 2 25 1 26
REMARK H PARENT
REMARK Flexibility Score: inf
ROOT
ATOM      1  C   UNL     1     181.431 185.942 196.904  1.00  0.00     0.000 C 
ENDROOT
BRANCH   1   2
ATOM      2  C   UNL     1     180.455 186.638 197.864  1.00  0.00     0.000 C 
BRANCH   2   3
ATOM      3  C   UNL     1     179.771 185.616 198.784  1.00  0.00     0.000 C 
BRANCH   3   4
ATOM      4  C   UNL     1     180.629 184.361 199.023  1.00  0.00     0.000 C 
BRANCH   4   5
ATOM      5  C   UNL     1     180.394 183.664 200.378  1.00  0.00     0.000 C 
BRANCH   5   6
ATOM      6  C   UNL     1     181.176 184.257 201.567  1.00  0.00     0.000 C 
BRANCH   6   7
ATOM      7  C   UNL     1     182.316 183.371 202.100  1.00  0.00     0.000 C 
BRANCH   7   8
ATOM      8  C   UNL     1     182.062 181.871 201.869  1.00  0.00     0.000 C 
BRANCH   8   9
ATOM      9  C   UNL     1     183.217 181.184 201.124  1.00  0.00     0.000 C 
BRANCH   9  10
ATOM     10  C   UNL     1     184.524 181.996 201.185  1.00  0.00     0.006 C 
BRANCH  10  11
ATOM     11  C   UNL     1     185.759 181.097 201.329  1.00  0.00     0.053 C 
BRANCH  11  12
ATOM     12  C   UNL     1     186.634 181.152 200.114  1.00  0.00     0.041 C 
ATOM     13  O   UNL     1     186.313 180.517 199.075  1.00  0.00    -0.550 OA
ATOM     14  O   UNL     1     187.816 181.883 200.138  1.00  0.00    -0.550 OA
ENDBRANCH  11  12
ENDBRANCH  10  11
ENDBRANCH   9  10
ENDBRANCH   8   9
ENDBRANCH   7   8
ENDBRANCH   6   7
ENDBRANCH   5   6
ENDBRANCH   4   5
ENDBRANCH   3   4
ENDBRANCH   2   3
ENDBRANCH   1   2
BRANCH   1  15
ATOM     15  C   UNL     1     181.549 186.660 195.547  1.00  0.00     0.000 C 
BRANCH  15  16
ATOM     16  C   UNL     1     182.803 187.544 195.384  1.00  0.00     0.000 C 
BRANCH  16  17
ATOM     17  C   UNL     1     184.148 186.806 195.544  1.00  0.00     0.000 C 
BRANCH  17  18
ATOM     18  C   UNL     1     185.164 187.503 196.471  1.00  0.00    -0.000 C 
BRANCH  18  19
ATOM     19  C   UNL     1     184.650 188.791 197.145  1.00  0.00    -0.000 C 
BRANCH  19  20
ATOM     20  C   UNL     1     185.460 189.253 198.375  1.00  0.00    -0.000 C 
BRANCH  20  21
ATOM     21  C   UNL     1     185.278 188.387 199.634  1.00  0.00    -0.000 C 
BRANCH  21  22
ATOM     22  C   UNL     1     183.812 188.298 200.091  1.00  0.00    -0.000 C 
BRANCH  22  23
ATOM     23  C   UNL     1     183.284 186.855 200.124  1.00  0.00    -0.000 C 
BRANCH  23  24
ATOM     24  C   UNL     1     184.415 185.814 200.071  1.00  0.00    -0.000 C 
BRANCH  24  25
ATOM     25  C   UNL     1     184.257 184.832 198.898  1.00  0.00    -0.003 C 
ATOM     26  C   UNL     1     185.599 184.333 198.359  1.00  0.00     0.004 C 
ENDBRANCH  24  25
ENDBRANCH  23  24
ENDBRANCH  22  23
ENDBRANCH  21  22
ENDBRANCH  20  21
ENDBRANCH  19  20
ENDBRANCH  18  19
ENDBRANCH  17  18
ENDBRANCH  16  17
ENDBRANCH  15  16
ENDBRANCH   1  15
TORSDOF 22
ENDMDL
MODEL 7
REMARK VINA RESULT:    -3.849      3.403      7.003
REMARK INTER + INTRA:         -12.771
REMARK INTER:                  -8.333
REMARK INTRA:                  -4.438
REMARK UNBOUND:                -3.972
REMARK SMILES CCCCCCCCCCCCCCCCCCCCCCCC(=O)[O-]
REMARK SMILES IDX 13 1 14 2 15 3 16 4 17 5 18 6 19 7 20 8 21 9 22 10 23 11
REMARK SMILES IDX 24 12 25 13 26 14 12 15 11 16 10 17 9 18 8 19 7 20 6 21 5 22
REMARK SMILES IDX 4 23 3 24 2 25 1 26
REMARK H PARENT
REMARK Flexibility Score: inf
ROOT
ATOM      1  C   UNL     1     194.637 192.766 195.552  1.00  0.00     0.000 C 
ENDROOT
BRANCH   1   2
ATOM      2  C   UNL     1     193.520 192.283 196.489  1.00  0.00     0.000 C 
BRANCH   2   3
ATOM      3  C   UNL     1     192.756 193.473 197.088  1.00  0.00     0.000 C 
BRANCH   3   4
ATOM      4  C   UNL     1     193.462 194.080 198.313  1.00  0.00     0.000 C 
BRANCH   4   5
ATOM      5  C   UNL     1     192.869 193.665 199.674  1.00  0.00     0.000 C 
BRANCH   5   6
ATOM      6  C   UNL     1     193.419 192.348 200.258  1.00  0.00     0.000 C 
BRANCH   6   7
ATOM      7  C   UNL     1     192.684 191.077 199.794  1.00  0.00     0.000 C 
BRANCH   7   8
ATOM      8  C   UNL     1     193.643 189.910 199.498  1.00  0.00     0.000 C 
BRANCH   8   9
ATOM      9  C   UNL     1     194.363 189.402 200.756  1.00  0.00     0.000 C 
BRANCH   9  10
ATOM     10  C   UNL     1     195.887 189.613 200.689  1.00  0.00     0.006 C 
BRANCH  10  11
ATOM     11  C   UNL     1     196.630 188.333 200.281  1.00  0.00     0.053 C 
BRANCH  11  12
ATOM     12  C   UNL     1     197.319 188.485 198.959  1.00  0.00     0.041 C 
ATOM     13  O   UNL     1     196.872 187.892 197.942  1.00  0.00    -0.550 OA
ATOM     14  O   UNL     1     198.468 189.261 198.856  1.00  0.00    -0.550 OA
ENDBRANCH  11  12
ENDBRANCH  10  11
ENDBRANCH   9  10
ENDBRANCH   8   9
ENDBRANCH   7   8
ENDBRANCH   6   7
ENDBRANCH   5   6
ENDBRANCH   4   5
ENDBRANCH   3   4
ENDBRANCH   2   3
ENDBRANCH   1   2
BRANCH   1  15
ATOM     15  C   UNL     1     196.045 192.453 196.091  1.00  0.00     0.000 C 
BRANCH  15  16
ATOM     16  C   UNL     1     196.077 191.657 197.411  1.00  0.00     0.000 C 
BRANCH  16  17
ATOM     17  C   UNL     1     196.774 192.370 198.588  1.00  0.00     0.000 C 
BRANCH  17  18
ATOM     18  C   UNL     1     197.087 193.860 198.350  1.00  0.00    -0.000 C 
BRANCH  18  19
ATOM     19  C   UNL     1     196.876 194.771 199.576  1.00  0.00    -0.000 C 
BRANCH  19  20
ATOM     20  C   UNL     1     196.615 194.030 200.904  1.00  0.00    -0.000 C 
BRANCH  20  21
ATOM     21  C   UNL     1     195.788 194.818 201.935  1.00  0.00    -0.000 C 
BRANCH  21  22
ATOM     22  C   UNL     1     195.485 196.257 201.484  1.00  0.00    -0.000 C 
BRANCH  22  23
ATOM     23  C   UNL     1     194.008 196.640 201.665  1.00  0.00    -0.000 C 
BRANCH  23  24
ATOM     24  C   UNL     1     193.540 197.685 200.637  1.00  0.00    -0.000 C 
BRANCH  24  25
ATOM     25  C   UNL     1     192.124 197.399 200.110  1.00  0.00    -0.003 C 
ATOM     26  C   UNL     1     192.027 197.506 198.587  1.00  0.00     0.004 C 
ENDBRANCH  24  25
ENDBRANCH  23  24
ENDBRANCH  22  23
ENDBRANCH  21  22
ENDBRANCH  20  21
ENDBRANCH  19  20
ENDBRANCH  18  19
ENDBRANCH  17  18
ENDBRANCH  16  17
ENDBRANCH  15  16
ENDBRANCH   1  15
TORSDOF 22
ENDMDL
MODEL 8
REMARK VINA RESULT:    -3.847      9.970     14.756
REMARK INTER + INTRA:         -12.768
REMARK INTER:                  -8.296
REMARK INTRA:                  -4.472
REMARK UNBOUND:                -3.972
REMARK SMILES CCCCCCCCCCCCCCCCCCCCCCCC(=O)[O-]
REMARK SMILES IDX 13 1 14 2 15 3 16 4 17 5 18 6 19 7 20 8 21 9 22 10 23 11
REMARK SMILES IDX 24 12 25 13 26 14 12 15 11 16 10 17 9 18 8 19 7 20 6 21 5 22
REMARK SMILES IDX 4 23 3 24 2 25 1 26
REMARK H PARENT
REMARK Flexibility Score: inf
ROOT
ATOM      1  C   UNL     1     183.162 186.969 195.902  1.00  0.00     0.000 C 
ENDROOT
BRANCH   1   2
ATOM      2  C   UNL     1     182.795 185.997 197.033  1.00  0.00     0.000 C 
BRANCH   2   3
ATOM      3  C   UNL     1     181.288 185.705 197.035  1.00  0.00     0.000 C 
BRANCH   3   4
ATOM      4  C   UNL     1     180.683 185.701 198.450  1.00  0.00     0.000 C 
BRANCH   4   5
ATOM      5  C   UNL     1     181.177 184.559 199.362  1.00  0.00     0.000 C 
BRANCH   5   6
ATOM      6  C   UNL     1     181.204 184.886 200.869  1.00  0.00     0.000 C 
BRANCH   6   7
ATOM      7  C   UNL     1     181.967 183.872 201.739  1.00  0.00     0.000 C 
BRANCH   7   8
ATOM      8  C   UNL     1     182.392 182.617 200.957  1.00  0.00     0.000 C 
BRANCH   8   9
ATOM      9  C   UNL     1     183.873 182.265 201.162  1.00  0.00     0.000 C 
BRANCH   9  10
ATOM     10  C   UNL     1     184.818 183.344 200.602  1.00  0.00     0.006 C 
BRANCH  10  11
ATOM     11  C   UNL     1     184.815 183.376 199.067  1.00  0.00     0.053 C 
BRANCH  11  12
ATOM     12  C   UNL     1     186.100 182.860 198.495  1.00  0.00     0.041 C 
ATOM     13  O   UNL     1     186.847 182.121 199.187  1.00  0.00    -0.550 OA
ATOM     14  O   UNL     1     186.482 183.216 197.207  1.00  0.00    -0.550 OA
ENDBRANCH  11  12
ENDBRANCH  10  11
ENDBRANCH   9  10
ENDBRANCH   8   9
ENDBRANCH   7   8
ENDBRANCH   6   7
ENDBRANCH   5   6
ENDBRANCH   4   5
ENDBRANCH   3   4
ENDBRANCH   2   3
ENDBRANCH   1   2
BRANCH   1  15
ATOM     15  C   UNL     1     183.708 188.312 196.421  1.00  0.00     0.000 C 
BRANCH  15  16
ATOM     16  C   UNL     1     182.635 189.375 196.734  1.00  0.00     0.000 C 
BRANCH  16  17
ATOM     17  C   UNL     1     182.989 190.343 197.882  1.00  0.00     0.000 C 
BRANCH  17  18
ATOM     18  C   UNL     1     182.214 190.105 199.194  1.00  0.00    -0.000 C 
BRANCH  18  19
ATOM     19  C   UNL     1     182.187 188.640 199.674  1.00  0.00    -0.000 C 
BRANCH  19  20
ATOM     20  C   UNL     1     183.341 188.241 200.618  1.00  0.00    -0.000 C 
BRANCH  20  21
ATOM     21  C   UNL     1     184.063 186.935 200.243  1.00  0.00    -0.000 C 
BRANCH  21  22
ATOM     22  C   UNL     1     185.592 187.093 200.183  1.00  0.00    -0.000 C 
BRANCH  22  23
ATOM     23  C   UNL     1     186.152 186.924 198.762  1.00  0.00    -0.000 C 
BRANCH  23  24
ATOM     24  C   UNL     1     186.900 188.176 198.271  1.00  0.00    -0.000 C 
BRANCH  24  25
ATOM     25  C   UNL     1     186.353 189.471 198.893  1.00  0.00    -0.003 C 
ATOM     26  C   UNL     1     187.454 190.369 199.455  1.00  0.00     0.004 C 
ENDBRANCH  24  25
ENDBRANCH  23  24
ENDBRANCH  22  23
ENDBRANCH  21  22
ENDBRANCH  20  21
ENDBRANCH  19  20
ENDBRANCH  18  19
ENDBRANCH  17  18
ENDBRANCH  16  17
ENDBRANCH  15  16
ENDBRANCH   1  15
TORSDOF 22
ENDMDL
MODEL 9
REMARK VINA RESULT:    -3.844      9.384     13.263
REMARK INTER + INTRA:         -12.761
REMARK INTER:                  -9.272
REMARK INTRA:                  -3.488
REMARK UNBOUND:                -3.972
REMARK SMILES CCCCCCCCCCCCCCCCCCCCCCCC(=O)[O-]
REMARK SMILES IDX 13 1 14 2 15 3 16 4 17 5 18 6 19 7 20 8 21 9 22 10 23 11
REMARK SMILES IDX 24 12 25 13 26 14 12 15 11 16 10 17 9 18 8 19 7 20 6 21 5 22
REMARK SMILES IDX 4 23 3 24 2 25 1 26
REMARK H PARENT
REMARK Flexibility Score: inf
ROOT
ATOM      1  C   UNL     1     185.125 184.854 198.391  1.00  0.00     0.000 C 
ENDROOT
BRANCH   1   2
ATOM      2  C   UNL     1     186.302 185.477 197.626  1.00  0.00     0.000 C 
BRANCH   2   3
ATOM      3  C   UNL     1     186.351 184.958 196.182  1.00  0.00     0.000 C 
BRANCH   3   4
ATOM      4  C   UNL     1     185.310 185.632 195.270  1.00  0.00     0.000 C 
BRANCH   4   5
ATOM      5  C   UNL     1     185.222 187.166 195.411  1.00  0.00     0.000 C 
BRANCH   5   6
ATOM      6  C   UNL     1     183.852 187.707 195.867  1.00  0.00     0.000 C 
BRANCH   6   7
ATOM      7  C   UNL     1     183.902 188.671 197.066  1.00  0.00     0.000 C 
BRANCH   7   8
ATOM      8  C   UNL     1     183.164 188.123 198.301  1.00  0.00     0.000 C 
BRANCH   8   9
ATOM      9  C   UNL     1     183.890 188.448 199.615  1.00  0.00     0.000 C 
BRANCH   9  10
ATOM     10  C   UNL     1     185.420 188.500 199.446  1.00  0.00     0.006 C 
BRANCH  10  11
ATOM     11  C   UNL     1     186.148 188.606 200.793  1.00  0.00     0.053 C 
BRANCH  11  12
ATOM     12  C   UNL     1     187.188 189.685 200.782  1.00  0.00     0.041 C 
ATOM     13  O   UNL     1     187.526 190.225 199.697  1.00  0.00    -0.550 OA
ATOM     14  O   UNL     1     187.803 190.073 201.967  1.00  0.00    -0.550 OA
ENDBRANCH  11  12
ENDBRANCH  10  11
ENDBRANCH   9  10
ENDBRANCH   8   9
ENDBRANCH   7   8
ENDBRANCH   6   7
ENDBRANCH   5   6
ENDBRANCH   4   5
ENDBRANCH   3   4
ENDBRANCH   2   3
ENDBRANCH   1   2
BRANCH   1  15
ATOM     15  C   UNL     1     185.574 183.810 199.431  1.00  0.00     0.000 C 
BRANCH  15  16
ATOM     16  C   UNL     1     185.905 182.417 198.856  1.00  0.00     0.000 C 
BRANCH  16  17
ATOM     17  C   UNL     1     187.026 181.656 199.591  1.00  0.00     0.000 C 
BRANCH  17  18
ATOM     18  C   UNL     1     186.623 181.068 200.958  1.00  0.00    -0.000 C 
BRANCH  18  19
ATOM     19  C   UNL     1     185.594 179.922 200.894  1.00  0.00    -0.000 C 
BRANCH  19  20
ATOM     20  C   UNL     1     184.466 179.997 201.944  1.00  0.00    -0.000 C 
BRANCH  20  21
ATOM     21  C   UNL     1     183.838 181.391 202.123  1.00  0.00    -0.000 C 
BRANCH  21  22
ATOM     22  C   UNL     1     182.625 181.622 201.207  1.00  0.00    -0.000 C 
BRANCH  22  23
ATOM     23  C   UNL     1     182.010 183.020 201.374  1.00  0.00    -0.000 C 
BRANCH  23  24
ATOM     24  C   UNL     1     182.941 183.987 202.125  1.00  0.00    -0.000 C 
BRANCH  24  25
ATOM     25  C   UNL     1     182.886 185.416 201.559  1.00  0.00    -0.003 C 
ATOM     26  C   UNL     1     181.564 185.724 200.856  1.00  0.00     0.004 C 
ENDBRANCH  24  25
ENDBRANCH  23  24
ENDBRANCH  22  23
ENDBRANCH  21  22
ENDBRANCH  20  21
ENDBRANCH  19  20
ENDBRANCH  18  19
ENDBRANCH  17  18
ENDBRANCH  16  17
ENDBRANCH  15  16
ENDBRANCH   1  15
TORSDOF 22
ENDMDL
