MODEL 1
REMARK VINA RESULT:    -5.965      0.000      0.000
REMARK INTER + INTRA:          -7.383
REMARK INTER:                  -7.186
REMARK INTRA:                  -0.197
REMARK UNBOUND:                -0.197
REMARK SMILES CCCCc1oc(O)c2ccccc12
REMARK SMILES IDX 4 1 5 2 7 3 6 4 9 5 14 6 10 7 13 8 11 9 12 10 8 11 3 13 2 14
REMARK SMILES IDX 1 15
REMARK H PARENT 8 12
REMARK Flexibility Score: inf
ROOT
ATOM      1  C   UNL     1      26.132 -13.643 -17.154  1.00  0.00     0.076 C 
ENDROOT
BRANCH   1   2
ATOM      2  C   UNL     1      27.394 -14.385 -17.473  1.00  0.00     0.116 A 
ATOM      3  C   UNL     1      28.699 -15.868 -18.307  1.00  0.00     0.290 A 
ATOM      4  O   UNL     1      27.440 -15.491 -18.196  1.00  0.00    -0.430 OA
ATOM      5  C   UNL     1      29.511 -14.978 -17.642  1.00  0.00     0.066 A 
ATOM      6  C   UNL     1      28.680 -14.029 -17.110  1.00  0.00     0.027 A 
ATOM      7  C   UNL     1      30.894 -14.931 -17.474  1.00  0.00     0.016 A 
ATOM      8  C   UNL     1      29.175 -12.955 -16.370  1.00  0.00     0.012 A 
ATOM      9  C   UNL     1      31.423 -13.860 -16.729  1.00  0.00     0.001 A 
ATOM     10  C   UNL     1      30.569 -12.877 -16.180  1.00  0.00     0.001 A 
BRANCH   3  11
ATOM     11  O   UNL     1      29.124 -16.995 -19.000  1.00  0.00    -0.480 OA
ATOM     12  H   UNL     1      30.110 -17.163 -19.150  1.00  0.00     0.297 HD
ENDBRANCH   3  11
ENDBRANCH   1   2
BRANCH   1  13
ATOM     13  C   UNL     1      24.952 -14.613 -17.049  1.00  0.00     0.008 C 
BRANCH  13  14
ATOM     14  C   UNL     1      24.090 -14.297 -15.822  1.00  0.00    -0.003 C 
ATOM     15  C   UNL     1      23.494 -12.895 -15.912  1.00  0.00     0.004 C 
ENDBRANCH  13  14
ENDBRANCH   1  13
TORSDOF 4
ENDMDL
MODEL 2
REMARK VINA RESULT:    -5.278      2.264      4.876
REMARK INTER + INTRA:          -6.556
REMARK INTER:                  -6.207
REMARK INTRA:                  -0.348
REMARK UNBOUND:                -0.197
REMARK SMILES CCCCc1oc(O)c2ccccc12
REMARK SMILES IDX 4 1 5 2 7 3 6 4 9 5 14 6 10 7 13 8 11 9 12 10 8 11 3 13 2 14
REMARK SMILES IDX 1 15
REMARK H PARENT 8 12
REMARK Flexibility Score: inf
ROOT
ATOM      1  C   UNL     1      30.858 -17.629 -17.892  1.00  0.00     0.076 C 
ENDROOT
BRANCH   1   2
ATOM      2  C   UNL     1      29.828 -16.543 -17.955  1.00  0.00     0.116 A 
ATOM      3  C   UNL     1      28.034 -15.500 -18.499  1.00  0.00     0.290 A 
ATOM      4  O   UNL     1      28.732 -16.603 -18.693  1.00  0.00    -0.430 OA
ATOM      5  C   UNL     1      28.687 -14.690 -17.598  1.00  0.00     0.066 A 
ATOM      6  C   UNL     1      29.832 -15.353 -17.248  1.00  0.00     0.027 A 
ATOM      7  C   UNL     1      28.361 -13.443 -17.067  1.00  0.00     0.016 A 
ATOM      8  C   UNL     1      30.738 -14.818 -16.332  1.00  0.00     0.012 A 
ATOM      9  C   UNL     1      29.258 -12.875 -16.142  1.00  0.00     0.001 A 
ATOM     10  C   UNL     1      30.439 -13.559 -15.776  1.00  0.00     0.001 A 
BRANCH   3  11
ATOM     11  O   UNL     1      26.822 -15.219 -19.116  1.00  0.00    -0.480 OA
ATOM     12  H   UNL     1      26.789 -14.626 -19.935  1.00  0.00     0.297 HD
ENDBRANCH   3  11
ENDBRANCH   1   2
BRANCH   1  13
ATOM     13  C   UNL     1      32.201 -17.124 -18.428  1.00  0.00     0.008 C 
BRANCH  13  14
ATOM     14  C   UNL     1      32.000 -16.233 -19.658  1.00  0.00    -0.003 C 
ATOM     15  C   UNL     1      32.802 -14.940 -19.539  1.00  0.00     0.004 C 
ENDBRANCH  13  14
ENDBRANCH   1  13
TORSDOF 4
ENDMDL
MODEL 3
REMARK VINA RESULT:    -4.995      2.294      5.414
REMARK INTER + INTRA:          -6.214
REMARK INTER:                  -5.751
REMARK INTRA:                  -0.463
REMARK UNBOUND:                -0.197
REMARK SMILES CCCCc1oc(O)c2ccccc12
REMARK SMILES IDX 4 1 5 2 7 3 6 4 9 5 14 6 10 7 13 8 11 9 12 10 8 11 3 13 2 14
REMARK SMILES IDX 1 15
REMARK H PARENT 8 12
REMARK Flexibility Score: inf
ROOT
ATOM      1  C   UNL     1      30.866 -17.117 -17.874  1.00  0.00     0.076 C 
ENDROOT
BRANCH   1   2
ATOM      2  C   UNL     1      30.364 -15.852 -17.248  1.00  0.00     0.116 A 
ATOM      3  C   UNL     1      30.344 -14.062 -16.067  1.00  0.00     0.290 A 
ATOM      4  O   UNL     1      31.066 -15.114 -16.405  1.00  0.00    -0.430 OA
ATOM      5  C   UNL     1      29.129 -14.105 -16.712  1.00  0.00     0.066 A 
ATOM      6  C   UNL     1      29.140 -15.246 -17.469  1.00  0.00     0.027 A 
ATOM      7  C   UNL     1      28.039 -13.238 -16.694  1.00  0.00     0.016 A 
ATOM      8  C   UNL     1      28.055 -15.603 -18.270  1.00  0.00     0.012 A 
ATOM      9  C   UNL     1      26.928 -13.573 -17.491  1.00  0.00     0.001 A 
ATOM     10  C   UNL     1      26.936 -14.749 -18.276  1.00  0.00     0.001 A 
BRANCH   3  11
ATOM     11  O   UNL     1      30.766 -13.069 -15.192  1.00  0.00    -0.480 OA
ATOM     12  H   UNL     1      31.747 -12.965 -14.969  1.00  0.00     0.297 HD
ENDBRANCH   3  11
ENDBRANCH   1   2
BRANCH   1  13
ATOM     13  C   UNL     1      32.085 -16.832 -18.755  1.00  0.00     0.008 C 
BRANCH  13  14
ATOM     14  C   UNL     1      31.732 -15.850 -19.878  1.00  0.00    -0.003 C 
ATOM     15  C   UNL     1      32.534 -14.558 -19.754  1.00  0.00     0.004 C 
ENDBRANCH  13  14
ENDBRANCH   1  13
TORSDOF 4
ENDMDL
MODEL 4
REMARK VINA RESULT:    -4.985      1.987      3.142
REMARK INTER + INTRA:          -6.203
REMARK INTER:                  -5.855
REMARK INTRA:                  -0.347
REMARK UNBOUND:                -0.197
REMARK SMILES CCCCc1oc(O)c2ccccc12
REMARK SMILES IDX 4 1 5 2 7 3 6 4 9 5 14 6 10 7 13 8 11 9 12 10 8 11 3 13 2 14
REMARK SMILES IDX 1 15
REMARK H PARENT 8 12
REMARK Flexibility Score: inf
ROOT
ATOM      1  C   UNL     1      28.980 -15.857 -16.799  1.00  0.00     0.076 C 
ENDROOT
BRANCH   1   2
ATOM      2  C   UNL     1      30.201 -16.026 -17.651  1.00  0.00     0.116 A 
ATOM      3  C   UNL     1      31.706 -16.980 -18.843  1.00  0.00     0.290 A 
ATOM      4  O   UNL     1      30.628 -17.189 -18.111  1.00  0.00    -0.430 OA
ATOM      5  C   UNL     1      31.995 -15.635 -18.871  1.00  0.00     0.066 A 
ATOM      6  C   UNL     1      31.035 -15.022 -18.112  1.00  0.00     0.027 A 
ATOM      7  C   UNL     1      33.010 -14.918 -19.503  1.00  0.00     0.016 A 
ATOM      8  C   UNL     1      31.017 -13.639 -17.930  1.00  0.00     0.012 A 
ATOM      9  C   UNL     1      33.020 -13.520 -19.335  1.00  0.00     0.001 A 
ATOM     10  C   UNL     1      32.029 -12.884 -18.554  1.00  0.00     0.001 A 
BRANCH   3  11
ATOM     11  O   UNL     1      32.426 -17.980 -19.485  1.00  0.00    -0.480 OA
ATOM     12  H   UNL     1      32.026 -18.473 -20.273  1.00  0.00     0.297 HD
ENDBRANCH   3  11
ENDBRANCH   1   2
BRANCH   1  13
ATOM     13  C   UNL     1      27.783 -15.438 -17.657  1.00  0.00     0.008 C 
BRANCH  13  14
ATOM     14  C   UNL     1      27.426 -13.967 -17.418  1.00  0.00    -0.003 C 
ATOM     15  C   UNL     1      25.961 -13.812 -17.022  1.00  0.00     0.004 C 
ENDBRANCH  13  14
ENDBRANCH   1  13
TORSDOF 4
ENDMDL
MODEL 5
REMARK VINA RESULT:    -4.790      2.360      3.485
REMARK INTER + INTRA:          -5.968
REMARK INTER:                  -5.558
REMARK INTRA:                  -0.410
REMARK UNBOUND:                -0.197
REMARK SMILES CCCCc1oc(O)c2ccccc12
REMARK SMILES IDX 4 1 5 2 7 3 6 4 9 5 14 6 10 7 13 8 11 9 12 10 8 11 3 13 2 14
REMARK SMILES IDX 1 15
REMARK H PARENT 8 12
REMARK Flexibility Score: inf
ROOT
ATOM      1  C   UNL     1      28.295 -16.345 -17.141  1.00  0.00     0.076 C 
ENDROOT
BRANCH   1   2
ATOM      2  C   UNL     1      29.639 -16.294 -17.801  1.00  0.00     0.116 A 
ATOM      3  C   UNL     1      31.116 -16.204 -19.352  1.00  0.00     0.290 A 
ATOM      4  O   UNL     1      29.821 -16.277 -19.110  1.00  0.00    -0.430 OA
ATOM      5  C   UNL     1      31.810 -16.164 -18.165  1.00  0.00     0.066 A 
ATOM      6  C   UNL     1      30.869 -16.220 -17.171  1.00  0.00     0.027 A 
ATOM      7  C   UNL     1      33.173 -16.079 -17.890  1.00  0.00     0.016 A 
ATOM      8  C   UNL     1      31.225 -16.190 -15.823  1.00  0.00     0.012 A 
ATOM      9  C   UNL     1      33.564 -16.050 -16.537  1.00  0.00     0.001 A 
ATOM     10  C   UNL     1      32.595 -16.104 -15.509  1.00  0.00     0.001 A 
BRANCH   3  11
ATOM     11  O   UNL     1      31.676 -16.169 -20.623  1.00  0.00    -0.480 OA
ATOM     12  H   UNL     1      31.503 -16.918 -21.281  1.00  0.00     0.297 HD
ENDBRANCH   3  11
ENDBRANCH   1   2
BRANCH   1  13
ATOM     13  C   UNL     1      28.075 -15.101 -16.276  1.00  0.00     0.008 C 
BRANCH  13  14
ATOM     14  C   UNL     1      28.186 -13.823 -17.115  1.00  0.00    -0.003 C 
ATOM     15  C   UNL     1      29.240 -12.879 -16.545  1.00  0.00     0.004 C 
ENDBRANCH  13  14
ENDBRANCH   1  13
TORSDOF 4
ENDMDL
MODEL 6
REMARK VINA RESULT:    -4.739      1.985      4.958
REMARK INTER + INTRA:          -5.906
REMARK INTER:                  -5.407
REMARK INTRA:                  -0.499
REMARK UNBOUND:                -0.197
REMARK SMILES CCCCc1oc(O)c2ccccc12
REMARK SMILES IDX 4 1 5 2 7 3 6 4 9 5 14 6 10 7 13 8 11 9 12 10 8 11 3 13 2 14
REMARK SMILES IDX 1 15
REMARK H PARENT 8 12
REMARK Flexibility Score: inf
ROOT
ATOM      1  C   UNL     1      32.290 -14.325 -18.093  1.00  0.00     0.076 C 
ENDROOT
BRANCH   1   2
ATOM      2  C   UNL     1      31.039 -15.137 -17.953  1.00  0.00     0.116 A 
ATOM      3  C   UNL     1      29.741 -16.844 -17.923  1.00  0.00     0.290 A 
ATOM      4  O   UNL     1      30.976 -16.442 -18.155  1.00  0.00    -0.430 OA
ATOM      5  C   UNL     1      28.965 -15.771 -17.550  1.00  0.00     0.066 A 
ATOM      6  C   UNL     1      29.792 -14.679 -17.566  1.00  0.00     0.027 A 
ATOM      7  C   UNL     1      27.620 -15.677 -17.198  1.00  0.00     0.016 A 
ATOM      8  C   UNL     1      29.331 -13.407 -17.227  1.00  0.00     0.012 A 
ATOM      9  C   UNL     1      27.125 -14.404 -16.853  1.00  0.00     0.001 A 
ATOM     10  C   UNL     1      27.976 -13.276 -16.866  1.00  0.00     0.001 A 
BRANCH   3  11
ATOM     11  O   UNL     1      29.308 -18.159 -18.038  1.00  0.00    -0.480 OA
ATOM     12  H   UNL     1      29.430 -18.808 -17.272  1.00  0.00     0.297 HD
ENDBRANCH   3  11
ENDBRANCH   1   2
BRANCH   1  13
ATOM     13  C   UNL     1      33.337 -14.774 -17.070  1.00  0.00     0.008 C 
BRANCH  13  14
ATOM     14  C   UNL     1      32.762 -14.747 -15.649  1.00  0.00    -0.003 C 
ATOM     15  C   UNL     1      32.713 -13.324 -15.101  1.00  0.00     0.004 C 
ENDBRANCH  13  14
ENDBRANCH   1  13
TORSDOF 4
ENDMDL
MODEL 7
REMARK VINA RESULT:    -3.681      1.832      2.745
REMARK INTER + INTRA:          -4.632
REMARK INTER:                  -4.442
REMARK INTRA:                  -0.190
REMARK UNBOUND:                -0.197
REMARK SMILES CCCCc1oc(O)c2ccccc12
REMARK SMILES IDX 4 1 5 2 7 3 6 4 9 5 14 6 10 7 13 8 11 9 12 10 8 11 3 13 2 14
REMARK SMILES IDX 1 15
REMARK H PARENT 8 12
REMARK Flexibility Score: inf
ROOT
ATOM      1  C   UNL     1      26.442 -13.896 -17.119  1.00  0.00     0.076 C 
ENDROOT
BRANCH   1   2
ATOM      2  C   UNL     1      27.931 -13.998 -16.985  1.00  0.00     0.116 A 
ATOM      3  C   UNL     1      29.931 -13.538 -16.366  1.00  0.00     0.290 A 
ATOM      4  O   UNL     1      28.673 -13.144 -16.302  1.00  0.00    -0.430 OA
ATOM      5  C   UNL     1      30.020 -14.692 -17.109  1.00  0.00     0.066 A 
ATOM      6  C   UNL     1      28.744 -14.990 -17.504  1.00  0.00     0.027 A 
ATOM      7  C   UNL     1      31.108 -15.491 -17.454  1.00  0.00     0.016 A 
ATOM      8  C   UNL     1      28.460 -16.117 -18.276  1.00  0.00     0.012 A 
ATOM      9  C   UNL     1      30.854 -16.635 -18.235  1.00  0.00     0.001 A 
ATOM     10  C   UNL     1      29.538 -16.947 -18.644  1.00  0.00     0.001 A 
BRANCH   3  11
ATOM     11  O   UNL     1      30.993 -12.875 -15.762  1.00  0.00    -0.480 OA
ATOM     12  H   UNL     1      31.809 -13.388 -15.456  1.00  0.00     0.297 HD
ENDBRANCH   3  11
ENDBRANCH   1   2
BRANCH   1  13
ATOM     13  C   UNL     1      25.758 -15.053 -16.386  1.00  0.00     0.008 C 
BRANCH  13  14
ATOM     14  C   UNL     1      24.282 -14.737 -16.118  1.00  0.00    -0.003 C 
ATOM     15  C   UNL     1      23.977 -13.265 -16.382  1.00  0.00     0.004 C 
ENDBRANCH  13  14
ENDBRANCH   1  13
TORSDOF 4
ENDMDL
