MODEL 1
REMARK VINA RESULT:    -4.542      0.000      0.000
REMARK INTER + INTRA:          -5.072
REMARK INTER:                  -4.808
REMARK INTRA:                  -0.264
REMARK UNBOUND:                -0.264
REMARK SMILES C=C1CC[C@@]2(C(C)C)C[C@@H]12
REMARK SMILES IDX 5 1 4 2 3 3 2 4 1 5 10 6 9 7 6 8 7 9 8 10
REMARK H PARENT
REMARK Flexibility Score: inf
ROOT
ATOM      1  C   UNL     1      57.017  45.138  42.655  1.00  0.00    -0.020 C 
ATOM      2  C   UNL     1      55.731  45.987  42.659  1.00  0.00     0.012 C 
ATOM      3  C   UNL     1      54.551  45.038  42.447  1.00  0.00     0.031 C 
ATOM      4  C   UNL     1      55.149  43.673  42.447  1.00  0.00    -0.074 C 
ATOM      5  C   UNL     1      54.424  42.555  42.359  1.00  0.00     0.008 C 
ATOM      6  C   UNL     1      56.631  43.667  42.561  1.00  0.00     0.021 C 
ATOM      7  C   UNL     1      57.209  44.211  43.861  1.00  0.00     0.016 C 
ENDROOT
BRANCH   1   8
ATOM      8  C   UNL     1      58.222  45.612  41.786  1.00  0.00    -0.011 C 
ATOM      9  C   UNL     1      58.668  44.623  40.698  1.00  0.00     0.008 C 
ATOM     10  C   UNL     1      57.958  46.995  41.169  1.00  0.00     0.008 C 
ENDBRANCH   1   8
TORSDOF 1
ENDMDL
MODEL 2
REMARK VINA RESULT:    -4.383     21.010     22.471
REMARK INTER + INTRA:          -4.903
REMARK INTER:                  -4.563
REMARK INTRA:                  -0.340
REMARK UNBOUND:                -0.264
REMARK SMILES C=C1CC[C@@]2(C(C)C)C[C@@H]12
REMARK SMILES IDX 5 1 4 2 3 3 2 4 1 5 10 6 9 7 6 8 7 9 8 10
REMARK H PARENT
REMARK Flexibility Score: inf
ROOT
ATOM      1  C   UNL     1      55.505  29.589  26.839  1.00  0.00    -0.020 C 
ATOM      2  C   UNL     1      54.703  28.347  27.274  1.00  0.00     0.012 C 
ATOM      3  C   UNL     1      55.520  27.112  26.887  1.00  0.00     0.031 C 
ATOM      4  C   UNL     1      56.804  27.651  26.360  1.00  0.00    -0.074 C 
ATOM      5  C   UNL     1      57.824  26.875  25.981  1.00  0.00     0.008 C 
ATOM      6  C   UNL     1      56.854  29.135  26.298  1.00  0.00     0.021 C 
ATOM      7  C   UNL     1      56.787  29.867  27.632  1.00  0.00     0.016 C 
ENDROOT
BRANCH   1   8
ATOM      8  C   UNL     1      54.768  30.716  26.052  1.00  0.00    -0.011 C 
ATOM      9  C   UNL     1      54.882  30.622  24.523  1.00  0.00     0.008 C 
ATOM     10  C   UNL     1      53.291  30.815  26.468  1.00  0.00     0.008 C 
ENDBRANCH   1   8
TORSDOF 1
ENDMDL
MODEL 3
REMARK VINA RESULT:    -4.371      1.110      3.857
REMARK INTER + INTRA:          -4.890
REMARK INTER:                  -4.842
REMARK INTRA:                  -0.049
REMARK UNBOUND:                -0.264
REMARK SMILES C=C1CC[C@@]2(C(C)C)C[C@@H]12
REMARK SMILES IDX 5 1 4 2 3 3 2 4 1 5 10 6 9 7 6 8 7 9 8 10
REMARK H PARENT
REMARK Flexibility Score: inf
ROOT
ATOM      1  C   UNL     1      56.566  44.154  42.905  1.00  0.00    -0.020 C 
ATOM      2  C   UNL     1      57.381  42.849  42.978  1.00  0.00     0.012 C 
ATOM      3  C   UNL     1      58.459  42.917  41.895  1.00  0.00     0.031 C 
ATOM      4  C   UNL     1      58.331  44.280  41.309  1.00  0.00    -0.074 C 
ATOM      5  C   UNL     1      59.154  44.755  40.370  1.00  0.00     0.008 C 
ATOM      6  C   UNL     1      57.204  45.071  41.869  1.00  0.00     0.021 C 
ATOM      7  C   UNL     1      57.300  45.425  43.347  1.00  0.00     0.016 C 
ENDROOT
BRANCH   1   8
ATOM      8  C   UNL     1      55.009  44.064  42.908  1.00  0.00    -0.011 C 
ATOM      9  C   UNL     1      54.290  45.201  42.168  1.00  0.00     0.008 C 
ATOM     10  C   UNL     1      54.526  42.702  42.383  1.00  0.00     0.008 C 
ENDBRANCH   1   8
TORSDOF 1
ENDMDL
MODEL 4
REMARK VINA RESULT:    -4.250     21.326     22.768
REMARK INTER + INTRA:          -4.762
REMARK INTER:                  -4.425
REMARK INTRA:                  -0.337
REMARK UNBOUND:                -0.264
REMARK SMILES C=C1CC[C@@]2(C(C)C)C[C@@H]12
REMARK SMILES IDX 5 1 4 2 3 3 2 4 1 5 10 6 9 7 6 8 7 9 8 10
REMARK H PARENT
REMARK Flexibility Score: inf
ROOT
ATOM      1  C   UNL     1      55.796  30.046  25.510  1.00  0.00    -0.020 C 
ATOM      2  C   UNL     1      56.298  30.143  26.963  1.00  0.00     0.012 C 
ATOM      3  C   UNL     1      57.007  28.829  27.296  1.00  0.00     0.031 C 
ATOM      4  C   UNL     1      57.010  28.060  26.020  1.00  0.00    -0.074 C 
ATOM      5  C   UNL     1      57.609  26.875  25.880  1.00  0.00     0.008 C 
ATOM      6  C   UNL     1      56.290  28.736  24.910  1.00  0.00     0.021 C 
ATOM      7  C   UNL     1      56.880  30.055  24.427  1.00  0.00     0.016 C 
ENDROOT
BRANCH   1   8
ATOM      8  C   UNL     1      54.324  30.459  25.199  1.00  0.00    -0.011 C 
ATOM      9  C   UNL     1      53.327  29.293  25.112  1.00  0.00     0.008 C 
ATOM     10  C   UNL     1      53.817  31.516  26.193  1.00  0.00     0.008 C 
ENDBRANCH   1   8
TORSDOF 1
ENDMDL
MODEL 5
REMARK VINA RESULT:    -4.193      1.312      2.715
REMARK INTER + INTRA:          -4.702
REMARK INTER:                  -4.483
REMARK INTRA:                  -0.219
REMARK UNBOUND:                -0.264
REMARK SMILES C=C1CC[C@@]2(C(C)C)C[C@@H]12
REMARK SMILES IDX 5 1 4 2 3 3 2 4 1 5 10 6 9 7 6 8 7 9 8 10
REMARK H PARENT
REMARK Flexibility Score: inf
ROOT
ATOM      1  C   UNL     1      55.658  44.211  42.720  1.00  0.00    -0.020 C 
ATOM      2  C   UNL     1      55.814  44.971  44.051  1.00  0.00     0.012 C 
ATOM      3  C   UNL     1      54.692  46.008  44.125  1.00  0.00     0.031 C 
ATOM      4  C   UNL     1      53.853  45.754  42.920  1.00  0.00    -0.074 C 
ATOM      5  C   UNL     1      52.721  46.414  42.662  1.00  0.00     0.008 C 
ATOM      6  C   UNL     1      54.387  44.689  42.031  1.00  0.00     0.021 C 
ATOM      7  C   UNL     1      54.441  43.285  42.618  1.00  0.00     0.016 C 
ENDROOT
BRANCH   1   8
ATOM      8  C   UNL     1      56.918  44.010  41.823  1.00  0.00    -0.011 C 
ATOM      9  C   UNL     1      57.639  45.304  41.414  1.00  0.00     0.008 C 
ATOM     10  C   UNL     1      57.913  43.031  42.467  1.00  0.00     0.008 C 
ENDBRANCH   1   8
TORSDOF 1
ENDMDL
MODEL 6
REMARK VINA RESULT:    -4.104     21.168     22.615
REMARK INTER + INTRA:          -4.608
REMARK INTER:                  -4.271
REMARK INTRA:                  -0.338
REMARK UNBOUND:                -0.264
REMARK SMILES C=C1CC[C@@]2(C(C)C)C[C@@H]12
REMARK SMILES IDX 5 1 4 2 3 3 2 4 1 5 10 6 9 7 6 8 7 9 8 10
REMARK H PARENT
REMARK Flexibility Score: inf
ROOT
ATOM      1  C   UNL     1      56.538  29.137  26.379  1.00  0.00    -0.020 C 
ATOM      2  C   UNL     1      56.826  29.496  24.909  1.00  0.00     0.012 C 
ATOM      3  C   UNL     1      55.684  30.389  24.420  1.00  0.00     0.031 C 
ATOM      4  C   UNL     1      54.839  30.626  25.623  1.00  0.00    -0.074 C 
ATOM      5  C   UNL     1      53.771  31.429  25.622  1.00  0.00     0.008 C 
ATOM      6  C   UNL     1      55.296  29.894  26.832  1.00  0.00     0.021 C 
ATOM      7  C   UNL     1      56.660  30.289  27.383  1.00  0.00     0.016 C 
ENDROOT
BRANCH   1   8
ATOM      8  C   UNL     1      56.661  27.647  26.823  1.00  0.00    -0.011 C 
ATOM      9  C   UNL     1      55.334  26.875  26.885  1.00  0.00     0.008 C 
ATOM     10  C   UNL     1      57.676  26.886  25.954  1.00  0.00     0.008 C 
ENDBRANCH   1   8
TORSDOF 1
ENDMDL
MODEL 7
REMARK VINA RESULT:    -3.954      1.310      3.526
REMARK INTER + INTRA:          -4.449
REMARK INTER:                  -4.323
REMARK INTRA:                  -0.127
REMARK UNBOUND:                -0.264
REMARK SMILES C=C1CC[C@@]2(C(C)C)C[C@@H]12
REMARK SMILES IDX 5 1 4 2 3 3 2 4 1 5 10 6 9 7 6 8 7 9 8 10
REMARK H PARENT
REMARK Flexibility Score: inf
ROOT
ATOM      1  C   UNL     1      55.454  44.496  42.562  1.00  0.00    -0.020 C 
ATOM      2  C   UNL     1      56.593  45.271  41.873  1.00  0.00     0.012 C 
ATOM      3  C   UNL     1      57.911  44.811  42.499  1.00  0.00     0.031 C 
ATOM      4  C   UNL     1      57.530  43.715  43.433  1.00  0.00    -0.074 C 
ATOM      5  C   UNL     1      58.421  42.998  44.125  1.00  0.00     0.008 C 
ATOM      6  C   UNL     1      56.065  43.482  43.522  1.00  0.00     0.021 C 
ATOM      7  C   UNL     1      55.382  42.997  42.250  1.00  0.00     0.016 C 
ENDROOT
BRANCH   1   8
ATOM      8  C   UNL     1      54.210  45.289  43.066  1.00  0.00    -0.011 C 
ATOM      9  C   UNL     1      54.528  46.592  43.816  1.00  0.00     0.008 C 
ATOM     10  C   UNL     1      53.220  45.564  41.923  1.00  0.00     0.008 C 
ENDBRANCH   1   8
TORSDOF 1
ENDMDL
MODEL 8
REMARK VINA RESULT:    -3.954      1.436      2.774
REMARK INTER + INTRA:          -4.449
REMARK INTER:                  -4.166
REMARK INTRA:                  -0.283
REMARK UNBOUND:                -0.264
REMARK SMILES C=C1CC[C@@]2(C(C)C)C[C@@H]12
REMARK SMILES IDX 5 1 4 2 3 3 2 4 1 5 10 6 9 7 6 8 7 9 8 10
REMARK H PARENT
REMARK Flexibility Score: inf
ROOT
ATOM      1  C   UNL     1      57.334  44.297  42.219  1.00  0.00    -0.020 C 
ATOM      2  C   UNL     1      56.129  43.373  41.961  1.00  0.00     0.012 C 
ATOM      3  C   UNL     1      54.953  43.909  42.781  1.00  0.00     0.031 C 
ATOM      4  C   UNL     1      55.453  45.174  43.388  1.00  0.00    -0.074 C 
ATOM      5  C   UNL     1      54.689  45.985  44.125  1.00  0.00     0.008 C 
ATOM      6  C   UNL     1      56.881  45.459  43.094  1.00  0.00     0.021 C 
ATOM      7  C   UNL     1      57.231  45.709  41.632  1.00  0.00     0.016 C 
ENDROOT
BRANCH   1   8
ATOM      8  C   UNL     1      58.712  43.649  42.558  1.00  0.00    -0.011 C 
ATOM      9  C   UNL     1      58.783  42.948  43.923  1.00  0.00     0.008 C 
ATOM     10  C   UNL     1      59.169  42.691  41.446  1.00  0.00     0.008 C 
ENDBRANCH   1   8
TORSDOF 1
ENDMDL
