MODEL 1
REMARK VINA RESULT:    -7.040      0.000      0.000
REMARK INTER + INTRA:          -8.991
REMARK INTER:                  -8.686
REMARK INTRA:                  -0.304
REMARK UNBOUND:                -0.304
REMARK SMILES O=c1c(O)c(-c2cc(O)c(O)c(O)c2)oc2cc(O)cc(O)c12
REMARK SMILES IDX 5 1 3 2 2 3 1 4 23 5 21 6 20 7 18 8 17 9 16 10 15 11 6 12
REMARK SMILES IDX 7 13 8 14 14 15 10 16 12 17 9 18 11 20 13 22 4 24 22 26
REMARK SMILES IDX 19 28
REMARK H PARENT 9 19 11 21 13 23 4 25 22 27 19 29
REMARK Flexibility Score: inf
ROOT
ATOM      1  C   UNL     1      59.869  -1.641   4.302  1.00  0.00     0.180 A 
ATOM      2  C   UNL     1      59.593  -2.304   3.094  1.00  0.00     0.208 A 
ATOM      3  C   UNL     1      58.324  -2.874   2.904  1.00  0.00     0.238 A 
ATOM      4  O   UNL     1      58.101  -3.513   1.844  1.00  0.00    -0.285 OA
ATOM      5  C   UNL     1      57.342  -2.762   3.919  1.00  0.00     0.111 A 
ATOM      6  C   UNL     1      56.011  -3.267   3.818  1.00  0.00     0.134 A 
ATOM      7  C   UNL     1      55.166  -3.214   4.933  1.00  0.00     0.093 A 
ATOM      8  C   UNL     1      55.580  -2.617   6.123  1.00  0.00     0.123 A 
ATOM      9  C   UNL     1      56.859  -2.066   6.213  1.00  0.00     0.094 A 
ATOM     10  C   UNL     1      57.738  -2.136   5.130  1.00  0.00     0.146 A 
ATOM     11  O   UNL     1      58.950  -1.609   5.260  1.00  0.00    -0.452 OA
ENDROOT
BRANCH   1  12
ATOM     12  C   UNL     1      61.174  -0.993   4.565  1.00  0.00     0.029 A 
ATOM     13  C   UNL     1      61.294   0.397   4.433  1.00  0.00     0.062 A 
ATOM     14  C   UNL     1      62.518   1.040   4.653  1.00  0.00     0.162 A 
ATOM     15  C   UNL     1      62.312  -1.748   4.889  1.00  0.00     0.062 A 
ATOM     16  C   UNL     1      63.656   0.274   5.002  1.00  0.00     0.200 A 
ATOM     17  C   UNL     1      63.543  -1.119   5.113  1.00  0.00     0.162 A 
BRANCH  14  18
ATOM     18  O   UNL     1      62.557   2.428   4.515  1.00  0.00    -0.504 OA
ATOM     19  H   UNL     1      63.206   2.919   3.916  1.00  0.00     0.293 HD
ENDBRANCH  14  18
BRANCH  16  20
ATOM     20  O   UNL     1      64.905   0.852   5.243  1.00  0.00    -0.502 OA
ATOM     21  H   UNL     1      65.037   1.761   5.661  1.00  0.00     0.293 HD
ENDBRANCH  16  20
BRANCH  17  22
ATOM     22  O   UNL     1      64.667  -1.876   5.441  1.00  0.00    -0.504 OA
ATOM     23  H   UNL     1      64.709  -2.871   5.257  1.00  0.00     0.293 HD
ENDBRANCH  17  22
ENDBRANCH   1  12
BRANCH   2  24
ATOM     24  O   UNL     1      60.583  -2.422   2.114  1.00  0.00    -0.502 OA
ATOM     25  H   UNL     1      61.097  -1.625   1.761  1.00  0.00     0.293 HD
ENDBRANCH   2  24
BRANCH   6  26
ATOM     26  O   UNL     1      55.466  -3.802   2.646  1.00  0.00    -0.507 OA
ATOM     27  H   UNL     1      55.916  -4.496   2.069  1.00  0.00     0.293 HD
ENDBRANCH   6  26
BRANCH   8  28
ATOM     28  O   UNL     1      54.707  -2.568   7.207  1.00  0.00    -0.508 OA
ATOM     29  H   UNL     1      54.124  -3.359   7.455  1.00  0.00     0.293 HD
ENDBRANCH   8  28
TORSDOF 7
ENDMDL
MODEL 2
REMARK VINA RESULT:    -6.885      2.531      3.732
REMARK INTER + INTRA:          -8.799
REMARK INTER:                  -8.459
REMARK INTRA:                  -0.340
REMARK UNBOUND:                -0.304
REMARK SMILES O=c1c(O)c(-c2cc(O)c(O)c(O)c2)oc2cc(O)cc(O)c12
REMARK SMILES IDX 5 1 3 2 2 3 1 4 23 5 21 6 20 7 18 8 17 9 16 10 15 11 6 12
REMARK SMILES IDX 7 13 8 14 14 15 10 16 12 17 9 18 11 20 13 22 4 24 22 26
REMARK SMILES IDX 19 28
REMARK H PARENT 9 19 11 21 13 23 4 25 22 27 19 29
REMARK Flexibility Score: inf
ROOT
ATOM      1  C   UNL     1      59.856  -2.273   2.968  1.00  0.00     0.180 A 
ATOM      2  C   UNL     1      59.985  -2.112   4.357  1.00  0.00     0.208 A 
ATOM      3  C   UNL     1      58.854  -2.282   5.171  1.00  0.00     0.238 A 
ATOM      4  O   UNL     1      58.963  -2.083   6.409  1.00  0.00    -0.285 OA
ATOM      5  C   UNL     1      57.610  -2.626   4.586  1.00  0.00     0.111 A 
ATOM      6  C   UNL     1      56.408  -2.861   5.318  1.00  0.00     0.134 A 
ATOM      7  C   UNL     1      55.208  -3.067   4.626  1.00  0.00     0.093 A 
ATOM      8  C   UNL     1      55.178  -3.110   3.234  1.00  0.00     0.123 A 
ATOM      9  C   UNL     1      56.358  -2.941   2.509  1.00  0.00     0.094 A 
ATOM     10  C   UNL     1      57.565  -2.698   3.169  1.00  0.00     0.146 A 
ATOM     11  O   UNL     1      58.664  -2.531   2.443  1.00  0.00    -0.452 OA
ENDROOT
BRANCH   1  12
ATOM     12  C   UNL     1      61.008  -2.135   2.048  1.00  0.00     0.029 A 
ATOM     13  C   UNL     1      61.385  -0.861   1.599  1.00  0.00     0.062 A 
ATOM     14  C   UNL     1      62.456  -0.695   0.713  1.00  0.00     0.162 A 
ATOM     15  C   UNL     1      61.698  -3.258   1.568  1.00  0.00     0.062 A 
ATOM     16  C   UNL     1      63.162  -1.833   0.250  1.00  0.00     0.200 A 
ATOM     17  C   UNL     1      62.772  -3.108   0.680  1.00  0.00     0.162 A 
BRANCH  14  18
ATOM     18  O   UNL     1      62.780   0.604   0.320  1.00  0.00    -0.504 OA
ATOM     19  H   UNL     1      63.253   1.273   0.910  1.00  0.00     0.293 HD
ENDBRANCH  14  18
BRANCH  16  20
ATOM     20  O   UNL     1      64.243  -1.739  -0.628  1.00  0.00    -0.502 OA
ATOM     21  H   UNL     1      64.538  -0.882  -1.073  1.00  0.00     0.293 HD
ENDBRANCH  16  20
BRANCH  17  22
ATOM     22  O   UNL     1      63.456  -4.230   0.214  1.00  0.00    -0.504 OA
ATOM     23  H   UNL     1      64.193  -4.154  -0.476  1.00  0.00     0.293 HD
ENDBRANCH  17  22
ENDBRANCH   1  12
BRANCH   2  24
ATOM     24  O   UNL     1      61.216  -1.751   4.912  1.00  0.00    -0.502 OA
ATOM     25  H   UNL     1      61.947  -2.426   5.102  1.00  0.00     0.293 HD
ENDBRANCH   2  24
BRANCH   6  26
ATOM     26  O   UNL     1      56.344  -2.930   6.714  1.00  0.00    -0.507 OA
ATOM     27  H   UNL     1      55.700  -3.509   7.230  1.00  0.00     0.293 HD
ENDBRANCH   6  26
BRANCH   8  28
ATOM     28  O   UNL     1      53.968  -3.332   2.579  1.00  0.00    -0.508 OA
ATOM     29  H   UNL     1      53.936  -3.644   1.615  1.00  0.00     0.293 HD
ENDBRANCH   8  28
TORSDOF 7
ENDMDL
MODEL 3
REMARK VINA RESULT:    -6.724      4.471      6.709
REMARK INTER + INTRA:          -8.601
REMARK INTER:                  -8.233
REMARK INTRA:                  -0.369
REMARK UNBOUND:                -0.304
REMARK SMILES O=c1c(O)c(-c2cc(O)c(O)c(O)c2)oc2cc(O)cc(O)c12
REMARK SMILES IDX 5 1 3 2 2 3 1 4 23 5 21 6 20 7 18 8 17 9 16 10 15 11 6 12
REMARK SMILES IDX 7 13 8 14 14 15 10 16 12 17 9 18 11 20 13 22 4 24 22 26
REMARK SMILES IDX 19 28
REMARK H PARENT 9 19 11 21 13 23 4 25 22 27 19 29
REMARK Flexibility Score: inf
ROOT
ATOM      1  C   UNL     1      62.391   1.630   3.723  1.00  0.00     0.180 A 
ATOM      2  C   UNL     1      61.781   0.389   3.472  1.00  0.00     0.208 A 
ATOM      3  C   UNL     1      61.719  -0.085   2.153  1.00  0.00     0.238 A 
ATOM      4  O   UNL     1      61.123  -1.171   1.927  1.00  0.00    -0.285 OA
ATOM      5  C   UNL     1      62.281   0.680   1.102  1.00  0.00     0.111 A 
ATOM      6  C   UNL     1      62.309   0.277  -0.267  1.00  0.00     0.134 A 
ATOM      7  C   UNL     1      62.775   1.172  -1.240  1.00  0.00     0.093 A 
ATOM      8  C   UNL     1      63.270   2.426  -0.887  1.00  0.00     0.123 A 
ATOM      9  C   UNL     1      63.303   2.806   0.455  1.00  0.00     0.094 A 
ATOM     10  C   UNL     1      62.813   1.950   1.445  1.00  0.00     0.146 A 
ATOM     11  O   UNL     1      62.851   2.353   2.709  1.00  0.00    -0.452 OA
ENDROOT
BRANCH   1  12
ATOM     12  C   UNL     1      62.518   2.184   5.090  1.00  0.00     0.029 A 
ATOM     13  C   UNL     1      61.551   3.083   5.564  1.00  0.00     0.062 A 
ATOM     14  C   UNL     1      61.651   3.642   6.843  1.00  0.00     0.162 A 
ATOM     15  C   UNL     1      63.618   1.874   5.905  1.00  0.00     0.062 A 
ATOM     16  C   UNL     1      62.752   3.307   7.668  1.00  0.00     0.200 A 
ATOM     17  C   UNL     1      63.731   2.426   7.187  1.00  0.00     0.162 A 
BRANCH  14  18
ATOM     18  O   UNL     1      60.645   4.520   7.249  1.00  0.00    -0.504 OA
ATOM     19  H   UNL     1      59.701   4.236   7.469  1.00  0.00     0.293 HD
ENDBRANCH  14  18
BRANCH  16  20
ATOM     20  O   UNL     1      62.909   3.823   8.956  1.00  0.00    -0.502 OA
ATOM     21  H   UNL     1      62.166   3.882   9.637  1.00  0.00     0.293 HD
ENDBRANCH  16  20
BRANCH  17  22
ATOM     22  O   UNL     1      64.823   2.107   7.993  1.00  0.00    -0.504 OA
ATOM     23  H   UNL     1      64.704   1.731   8.926  1.00  0.00     0.293 HD
ENDBRANCH  17  22
ENDBRANCH   1  12
BRANCH   2  24
ATOM     24  O   UNL     1      61.213  -0.340   4.521  1.00  0.00    -0.502 OA
ATOM     25  H   UNL     1      60.270  -0.706   4.482  1.00  0.00     0.293 HD
ENDBRANCH   2  24
BRANCH   6  26
ATOM     26  O   UNL     1      61.922  -0.988  -0.718  1.00  0.00    -0.507 OA
ATOM     27  H   UNL     1      62.427  -1.842  -0.536  1.00  0.00     0.293 HD
ENDBRANCH   6  26
BRANCH   8  28
ATOM     28  O   UNL     1      63.739   3.283  -1.879  1.00  0.00    -0.508 OA
ATOM     29  H   UNL     1      63.811   4.283  -1.726  1.00  0.00     0.293 HD
ENDBRANCH   8  28
TORSDOF 7
ENDMDL
MODEL 4
REMARK VINA RESULT:    -6.699      3.169      6.986
REMARK INTER + INTRA:          -8.570
REMARK INTER:                  -8.296
REMARK INTRA:                  -0.274
REMARK UNBOUND:                -0.304
REMARK SMILES O=c1c(O)c(-c2cc(O)c(O)c(O)c2)oc2cc(O)cc(O)c12
REMARK SMILES IDX 5 1 3 2 2 3 1 4 23 5 21 6 20 7 18 8 17 9 16 10 15 11 6 12
REMARK SMILES IDX 7 13 8 14 14 15 10 16 12 17 9 18 11 20 13 22 4 24 22 26
REMARK SMILES IDX 19 28
REMARK H PARENT 9 19 11 21 13 23 4 25 22 27 19 29
REMARK Flexibility Score: inf
ROOT
ATOM      1  C   UNL     1      60.762  -1.707   2.285  1.00  0.00     0.180 A 
ATOM      2  C   UNL     1      61.502  -2.634   1.531  1.00  0.00     0.208 A 
ATOM      3  C   UNL     1      62.427  -2.162   0.587  1.00  0.00     0.238 A 
ATOM      4  O   UNL     1      63.045  -2.996  -0.123  1.00  0.00    -0.285 OA
ATOM      5  C   UNL     1      62.612  -0.768   0.418  1.00  0.00     0.111 A 
ATOM      6  C   UNL     1      63.550  -0.179  -0.482  1.00  0.00     0.134 A 
ATOM      7  C   UNL     1      63.556   1.210  -0.660  1.00  0.00     0.093 A 
ATOM      8  C   UNL     1      62.705   2.035   0.073  1.00  0.00     0.123 A 
ATOM      9  C   UNL     1      61.825   1.474   1.000  1.00  0.00     0.094 A 
ATOM     10  C   UNL     1      61.770   0.089   1.174  1.00  0.00     0.146 A 
ATOM     11  O   UNL     1      60.912  -0.407   2.058  1.00  0.00    -0.452 OA
ENDROOT
BRANCH   1  12
ATOM     12  C   UNL     1      59.788  -2.127   3.317  1.00  0.00     0.029 A 
ATOM     13  C   UNL     1      58.550  -2.655   2.924  1.00  0.00     0.062 A 
ATOM     14  C   UNL     1      57.597  -3.044   3.872  1.00  0.00     0.162 A 
ATOM     15  C   UNL     1      60.053  -1.956   4.685  1.00  0.00     0.062 A 
ATOM     16  C   UNL     1      57.880  -2.889   5.251  1.00  0.00     0.200 A 
ATOM     17  C   UNL     1      59.109  -2.340   5.645  1.00  0.00     0.162 A 
BRANCH  14  18
ATOM     18  O   UNL     1      56.392  -3.572   3.405  1.00  0.00    -0.504 OA
ATOM     19  H   UNL     1      56.269  -3.975   2.488  1.00  0.00     0.293 HD
ENDBRANCH  14  18
BRANCH  16  20
ATOM     20  O   UNL     1      56.978  -3.262   6.249  1.00  0.00    -0.502 OA
ATOM     21  H   UNL     1      57.249  -3.649   7.142  1.00  0.00     0.293 HD
ENDBRANCH  16  20
BRANCH  17  22
ATOM     22  O   UNL     1      59.383  -2.173   7.002  1.00  0.00    -0.504 OA
ATOM     23  H   UNL     1      60.214  -1.688   7.321  1.00  0.00     0.293 HD
ENDBRANCH  17  22
ENDBRANCH   1  12
BRANCH   2  24
ATOM     24  O   UNL     1      61.288  -4.005   1.698  1.00  0.00    -0.502 OA
ATOM     25  H   UNL     1      61.364  -4.665   0.934  1.00  0.00     0.293 HD
ENDBRANCH   2  24
BRANCH   6  26
ATOM     26  O   UNL     1      64.508  -0.904  -1.198  1.00  0.00    -0.507 OA
ATOM     27  H   UNL     1      64.511  -1.908  -1.297  1.00  0.00     0.293 HD
ENDBRANCH   6  26
BRANCH   8  28
ATOM     28  O   UNL     1      62.749   3.414  -0.119  1.00  0.00    -0.508 OA
ATOM     29  H   UNL     1      63.466   3.847  -0.689  1.00  0.00     0.293 HD
ENDBRANCH   8  28
TORSDOF 7
ENDMDL
MODEL 5
REMARK VINA RESULT:    -6.656      4.446      6.883
REMARK INTER + INTRA:          -8.516
REMARK INTER:                  -8.160
REMARK INTRA:                  -0.356
REMARK UNBOUND:                -0.304
REMARK SMILES O=c1c(O)c(-c2cc(O)c(O)c(O)c2)oc2cc(O)cc(O)c12
REMARK SMILES IDX 5 1 3 2 2 3 1 4 23 5 21 6 20 7 18 8 17 9 16 10 15 11 6 12
REMARK SMILES IDX 7 13 8 14 14 15 10 16 12 17 9 18 11 20 13 22 4 24 22 26
REMARK SMILES IDX 19 28
REMARK H PARENT 9 19 11 21 13 23 4 25 22 27 19 29
REMARK Flexibility Score: inf
ROOT
ATOM      1  C   UNL     1      62.393   1.612   3.667  1.00  0.00     0.180 A 
ATOM      2  C   UNL     1      61.759   0.376   3.456  1.00  0.00     0.208 A 
ATOM      3  C   UNL     1      61.703  -0.149   2.155  1.00  0.00     0.238 A 
ATOM      4  O   UNL     1      61.087  -1.229   1.964  1.00  0.00    -0.285 OA
ATOM      5  C   UNL     1      62.297   0.562   1.083  1.00  0.00     0.111 A 
ATOM      6  C   UNL     1      62.335   0.106  -0.268  1.00  0.00     0.134 A 
ATOM      7  C   UNL     1      62.833   0.951  -1.268  1.00  0.00     0.093 A 
ATOM      8  C   UNL     1      63.352   2.206  -0.957  1.00  0.00     0.123 A 
ATOM      9  C   UNL     1      63.375   2.638   0.369  1.00  0.00     0.094 A 
ATOM     10  C   UNL     1      62.852   1.833   1.384  1.00  0.00     0.146 A 
ATOM     11  O   UNL     1      62.882   2.285   2.633  1.00  0.00    -0.452 OA
ENDROOT
BRANCH   1  12
ATOM     12  C   UNL     1      62.513   2.217   5.014  1.00  0.00     0.029 A 
ATOM     13  C   UNL     1      63.588   1.858   5.839  1.00  0.00     0.062 A 
ATOM     14  C   UNL     1      63.721   2.395   7.125  1.00  0.00     0.162 A 
ATOM     15  C   UNL     1      61.540   3.101   5.506  1.00  0.00     0.062 A 
ATOM     16  C   UNL     1      62.747   3.303   7.606  1.00  0.00     0.200 A 
ATOM     17  C   UNL     1      61.660   3.645   6.791  1.00  0.00     0.162 A 
BRANCH  14  18
ATOM     18  O   UNL     1      64.824   2.000   7.883  1.00  0.00    -0.504 OA
ATOM     19  H   UNL     1      65.058   1.038   8.084  1.00  0.00     0.293 HD
ENDBRANCH  14  18
BRANCH  16  20
ATOM     20  O   UNL     1      62.823   3.881   8.876  1.00  0.00    -0.502 OA
ATOM     21  H   UNL     1      62.073   4.403   9.306  1.00  0.00     0.293 HD
ENDBRANCH  16  20
BRANCH  17  22
ATOM     22  O   UNL     1      60.692   4.528   7.270  1.00  0.00    -0.504 OA
ATOM     23  H   UNL     1      60.730   4.898   8.212  1.00  0.00     0.293 HD
ENDBRANCH  17  22
ENDBRANCH   1  12
BRANCH   2  24
ATOM     24  O   UNL     1      61.160  -0.299   4.525  1.00  0.00    -0.502 OA
ATOM     25  H   UNL     1      61.342  -0.058   5.491  1.00  0.00     0.293 HD
ENDBRANCH   2  24
BRANCH   6  26
ATOM     26  O   UNL     1      61.925  -1.168  -0.674  1.00  0.00    -0.507 OA
ATOM     27  H   UNL     1      61.076  -1.363  -1.182  1.00  0.00     0.293 HD
ENDBRANCH   6  26
BRANCH   8  28
ATOM     28  O   UNL     1      63.853   3.014  -1.975  1.00  0.00    -0.508 OA
ATOM     29  H   UNL     1      63.273   3.311  -2.752  1.00  0.00     0.293 HD
ENDBRANCH   8  28
TORSDOF 7
ENDMDL
MODEL 6
REMARK VINA RESULT:    -6.630      2.570      7.391
REMARK INTER + INTRA:          -8.485
REMARK INTER:                  -8.174
REMARK INTRA:                  -0.311
REMARK UNBOUND:                -0.304
REMARK SMILES O=c1c(O)c(-c2cc(O)c(O)c(O)c2)oc2cc(O)cc(O)c12
REMARK SMILES IDX 5 1 3 2 2 3 1 4 23 5 21 6 20 7 18 8 17 9 16 10 15 11 6 12
REMARK SMILES IDX 7 13 8 14 14 15 10 16 12 17 9 18 11 20 13 22 4 24 22 26
REMARK SMILES IDX 19 28
REMARK H PARENT 9 19 11 21 13 23 4 25 22 27 19 29
REMARK Flexibility Score: inf
ROOT
ATOM      1  C   UNL     1      61.433  -0.928   3.411  1.00  0.00     0.180 A 
ATOM      2  C   UNL     1      62.707  -1.409   3.758  1.00  0.00     0.208 A 
ATOM      3  C   UNL     1      63.843  -0.774   3.231  1.00  0.00     0.238 A 
ATOM      4  O   UNL     1      64.979  -1.243   3.501  1.00  0.00    -0.285 OA
ATOM      5  C   UNL     1      63.691   0.345   2.376  1.00  0.00     0.111 A 
ATOM      6  C   UNL     1      64.772   1.090   1.817  1.00  0.00     0.134 A 
ATOM      7  C   UNL     1      64.505   2.097   0.882  1.00  0.00     0.093 A 
ATOM      8  C   UNL     1      63.197   2.429   0.533  1.00  0.00     0.123 A 
ATOM      9  C   UNL     1      62.130   1.747   1.119  1.00  0.00     0.094 A 
ATOM     10  C   UNL     1      62.365   0.713   2.029  1.00  0.00     0.146 A 
ATOM     11  O   UNL     1      61.323   0.082   2.556  1.00  0.00    -0.452 OA
ENDROOT
BRANCH   1  12
ATOM     12  C   UNL     1      60.191  -1.530   3.946  1.00  0.00     0.029 A 
ATOM     13  C   UNL     1      59.371  -2.290   3.100  1.00  0.00     0.062 A 
ATOM     14  C   UNL     1      58.179  -2.856   3.566  1.00  0.00     0.162 A 
ATOM     15  C   UNL     1      59.783  -1.308   5.271  1.00  0.00     0.062 A 
ATOM     16  C   UNL     1      57.786  -2.646   4.911  1.00  0.00     0.200 A 
ATOM     17  C   UNL     1      58.593  -1.867   5.752  1.00  0.00     0.162 A 
BRANCH  14  18
ATOM     18  O   UNL     1      57.422  -3.610   2.669  1.00  0.00    -0.504 OA
ATOM     19  H   UNL     1      56.872  -4.416   2.929  1.00  0.00     0.293 HD
ENDBRANCH  14  18
BRANCH  16  20
ATOM     20  O   UNL     1      56.614  -3.187   5.443  1.00  0.00    -0.502 OA
ATOM     21  H   UNL     1      55.890  -2.642   5.888  1.00  0.00     0.293 HD
ENDBRANCH  16  20
BRANCH  17  22
ATOM     22  O   UNL     1      58.199  -1.647   7.071  1.00  0.00    -0.504 OA
ATOM     23  H   UNL     1      57.245  -1.799   7.374  1.00  0.00     0.293 HD
ENDBRANCH  17  22
ENDBRANCH   1  12
BRANCH   2  24
ATOM     24  O   UNL     1      62.835  -2.529   4.586  1.00  0.00    -0.502 OA
ATOM     25  H   UNL     1      62.142  -3.266   4.615  1.00  0.00     0.293 HD
ENDBRANCH   2  24
BRANCH   6  26
ATOM     26  O   UNL     1      66.113   0.901   2.166  1.00  0.00    -0.507 OA
ATOM     27  H   UNL     1      66.499   0.037   2.514  1.00  0.00     0.293 HD
ENDBRANCH   6  26
BRANCH   8  28
ATOM     28  O   UNL     1      62.968   3.447  -0.390  1.00  0.00    -0.508 OA
ATOM     29  H   UNL     1      62.724   3.245  -1.353  1.00  0.00     0.293 HD
ENDBRANCH   8  28
TORSDOF 7
ENDMDL
MODEL 7
REMARK VINA RESULT:    -6.547      4.587      6.096
REMARK INTER + INTRA:          -8.382
REMARK INTER:                  -8.264
REMARK INTRA:                  -0.118
REMARK UNBOUND:                -0.304
REMARK SMILES O=c1c(O)c(-c2cc(O)c(O)c(O)c2)oc2cc(O)cc(O)c12
REMARK SMILES IDX 5 1 3 2 2 3 1 4 23 5 21 6 20 7 18 8 17 9 16 10 15 11 6 12
REMARK SMILES IDX 7 13 8 14 14 15 10 16 12 17 9 18 11 20 13 22 4 24 22 26
REMARK SMILES IDX 19 28
REMARK H PARENT 9 19 11 21 13 23 4 25 22 27 19 29
REMARK Flexibility Score: inf
ROOT
ATOM      1  C   UNL     1      62.288   1.684   4.038  1.00  0.00     0.180 A 
ATOM      2  C   UNL     1      62.174   2.413   2.842  1.00  0.00     0.208 A 
ATOM      3  C   UNL     1      62.030   1.718   1.631  1.00  0.00     0.238 A 
ATOM      4  O   UNL     1      61.984   2.374   0.558  1.00  0.00    -0.285 OA
ATOM      5  C   UNL     1      61.984   0.302   1.633  1.00  0.00     0.111 A 
ATOM      6  C   UNL     1      61.801  -0.503   0.469  1.00  0.00     0.134 A 
ATOM      7  C   UNL     1      61.903  -1.896   0.571  1.00  0.00     0.093 A 
ATOM      8  C   UNL     1      62.117  -2.515   1.802  1.00  0.00     0.123 A 
ATOM      9  C   UNL     1      62.238  -1.739   2.956  1.00  0.00     0.094 A 
ATOM     10  C   UNL     1      62.177  -0.346   2.881  1.00  0.00     0.146 A 
ATOM     11  O   UNL     1      62.307   0.357   4.000  1.00  0.00    -0.452 OA
ENDROOT
BRANCH   1  12
ATOM     12  C   UNL     1      62.418   2.347   5.356  1.00  0.00     0.029 A 
ATOM     13  C   UNL     1      63.473   1.990   6.207  1.00  0.00     0.062 A 
ATOM     14  C   UNL     1      63.614   2.581   7.468  1.00  0.00     0.162 A 
ATOM     15  C   UNL     1      61.472   3.285   5.798  1.00  0.00     0.062 A 
ATOM     16  C   UNL     1      62.669   3.544   7.898  1.00  0.00     0.200 A 
ATOM     17  C   UNL     1      61.600   3.884   7.057  1.00  0.00     0.162 A 
BRANCH  14  18
ATOM     18  O   UNL     1      64.697   2.185   8.254  1.00  0.00    -0.504 OA
ATOM     19  H   UNL     1      65.482   2.779   8.478  1.00  0.00     0.293 HD
ENDBRANCH  14  18
BRANCH  16  20
ATOM     20  O   UNL     1      62.754   4.176   9.140  1.00  0.00    -0.502 OA
ATOM     21  H   UNL     1      61.968   4.589   9.620  1.00  0.00     0.293 HD
ENDBRANCH  16  20
BRANCH  17  22
ATOM     22  O   UNL     1      60.660   4.820   7.486  1.00  0.00    -0.504 OA
ATOM     23  H   UNL     1      60.070   4.651   8.292  1.00  0.00     0.293 HD
ENDBRANCH  17  22
ENDBRANCH   1  12
BRANCH   2  24
ATOM     24  O   UNL     1      62.243   3.809   2.860  1.00  0.00    -0.502 OA
ATOM     25  H   UNL     1      61.502   4.386   3.238  1.00  0.00     0.293 HD
ENDBRANCH   2  24
BRANCH   6  26
ATOM     26  O   UNL     1      61.492   0.009  -0.795  1.00  0.00    -0.507 OA
ATOM     27  H   UNL     1      62.101  -0.039  -1.598  1.00  0.00     0.293 HD
ENDBRANCH   6  26
BRANCH   8  28
ATOM     28  O   UNL     1      62.197  -3.904   1.868  1.00  0.00    -0.508 OA
ATOM     29  H   UNL     1      63.071  -4.393   1.709  1.00  0.00     0.293 HD
ENDBRANCH   8  28
TORSDOF 7
ENDMDL
MODEL 8
REMARK VINA RESULT:    -6.239      4.670      7.191
REMARK INTER + INTRA:          -8.002
REMARK INTER:                  -7.734
REMARK INTRA:                  -0.268
REMARK UNBOUND:                -0.304
REMARK SMILES O=c1c(O)c(-c2cc(O)c(O)c(O)c2)oc2cc(O)cc(O)c12
REMARK SMILES IDX 5 1 3 2 2 3 1 4 23 5 21 6 20 7 18 8 17 9 16 10 15 11 6 12
REMARK SMILES IDX 7 13 8 14 14 15 10 16 12 17 9 18 11 20 13 22 4 24 22 26
REMARK SMILES IDX 19 28
REMARK H PARENT 9 19 11 21 13 23 4 25 22 27 19 29
REMARK Flexibility Score: inf
ROOT
ATOM      1  C   UNL     1      63.159   0.077   3.584  1.00  0.00     0.180 A 
ATOM      2  C   UNL     1      64.355  -0.105   4.298  1.00  0.00     0.208 A 
ATOM      3  C   UNL     1      64.575   0.646   5.463  1.00  0.00     0.238 A 
ATOM      4  O   UNL     1      65.671   0.519   6.068  1.00  0.00    -0.285 OA
ATOM      5  C   UNL     1      63.589   1.561   5.908  1.00  0.00     0.111 A 
ATOM      6  C   UNL     1      63.690   2.345   7.096  1.00  0.00     0.134 A 
ATOM      7  C   UNL     1      62.713   3.311   7.369  1.00  0.00     0.093 A 
ATOM      8  C   UNL     1      61.610   3.477   6.534  1.00  0.00     0.123 A 
ATOM      9  C   UNL     1      61.471   2.673   5.402  1.00  0.00     0.094 A 
ATOM     10  C   UNL     1      62.446   1.726   5.083  1.00  0.00     0.146 A 
ATOM     11  O   UNL     1      62.283   0.988   3.991  1.00  0.00    -0.452 OA
ENDROOT
BRANCH   1  12
ATOM     12  C   UNL     1      62.844  -0.697   2.362  1.00  0.00     0.029 A 
ATOM     13  C   UNL     1      62.535  -2.061   2.468  1.00  0.00     0.062 A 
ATOM     14  C   UNL     1      62.253  -2.827   1.331  1.00  0.00     0.162 A 
ATOM     15  C   UNL     1      62.905  -0.109   1.089  1.00  0.00     0.062 A 
ATOM     16  C   UNL     1      62.294  -2.221   0.052  1.00  0.00     0.200 A 
ATOM     17  C   UNL     1      62.626  -0.863  -0.057  1.00  0.00     0.162 A 
BRANCH  14  18
ATOM     18  O   UNL     1      61.942  -4.175   1.517  1.00  0.00    -0.504 OA
ATOM     19  H   UNL     1      61.494  -4.544   2.343  1.00  0.00     0.293 HD
ENDBRANCH  14  18
BRANCH  16  20
ATOM     20  O   UNL     1      62.017  -2.925  -1.121  1.00  0.00    -0.502 OA
ATOM     21  H   UNL     1      61.238  -2.725  -1.731  1.00  0.00     0.293 HD
ENDBRANCH  16  20
BRANCH  17  22
ATOM     22  O   UNL     1      62.682  -0.269  -1.317  1.00  0.00    -0.504 OA
ATOM     23  H   UNL     1      63.548   0.096  -1.694  1.00  0.00     0.293 HD
ENDBRANCH  17  22
ENDBRANCH   1  12
BRANCH   2  24
ATOM     24  O   UNL     1      65.325  -0.997   3.830  1.00  0.00    -0.502 OA
ATOM     25  H   UNL     1      66.286  -0.971   4.145  1.00  0.00     0.293 HD
ENDBRANCH   2  24
BRANCH   6  26
ATOM     26  O   UNL     1      64.705   2.198   8.046  1.00  0.00    -0.507 OA
ATOM     27  H   UNL     1      65.234   1.352   8.194  1.00  0.00     0.293 HD
ENDBRANCH   6  26
BRANCH   8  28
ATOM     28  O   UNL     1      60.650   4.437   6.845  1.00  0.00    -0.508 OA
ATOM     29  H   UNL     1      60.600   5.319   6.347  1.00  0.00     0.293 HD
ENDBRANCH   8  28
TORSDOF 7
ENDMDL
MODEL 9
REMARK VINA RESULT:    -6.154      5.528      7.933
REMARK INTER + INTRA:          -7.897
REMARK INTER:                  -7.665
REMARK INTRA:                  -0.233
REMARK UNBOUND:                -0.304
REMARK SMILES O=c1c(O)c(-c2cc(O)c(O)c(O)c2)oc2cc(O)cc(O)c12
REMARK SMILES IDX 5 1 3 2 2 3 1 4 23 5 21 6 20 7 18 8 17 9 16 10 15 11 6 12
REMARK SMILES IDX 7 13 8 14 14 15 10 16 12 17 9 18 11 20 13 22 4 24 22 26
REMARK SMILES IDX 19 28
REMARK H PARENT 9 19 11 21 13 23 4 25 22 27 19 29
REMARK Flexibility Score: inf
ROOT
ATOM      1  C   UNL     1      62.930   2.550   2.978  1.00  0.00     0.180 A 
ATOM      2  C   UNL     1      62.305   1.407   2.452  1.00  0.00     0.208 A 
ATOM      3  C   UNL     1      62.366   1.171   1.069  1.00  0.00     0.238 A 
ATOM      4  O   UNL     1      61.759   0.176   0.597  1.00  0.00    -0.285 OA
ATOM      5  C   UNL     1      63.066   2.074   0.231  1.00  0.00     0.111 A 
ATOM      6  C   UNL     1      63.226   1.913  -1.178  1.00  0.00     0.134 A 
ATOM      7  C   UNL     1      63.825   2.935  -1.925  1.00  0.00     0.093 A 
ATOM      8  C   UNL     1      64.326   4.079  -1.309  1.00  0.00     0.123 A 
ATOM      9  C   UNL     1      64.229   4.220   0.076  1.00  0.00     0.094 A 
ATOM     10  C   UNL     1      63.604   3.235   0.845  1.00  0.00     0.146 A 
ATOM     11  O   UNL     1      63.522   3.411   2.159  1.00  0.00    -0.452 OA
ENDROOT
BRANCH   1  12
ATOM     12  C   UNL     1      62.930   2.852   4.427  1.00  0.00     0.029 A 
ATOM     13  C   UNL     1      64.119   2.727   5.159  1.00  0.00     0.062 A 
ATOM     14  C   UNL     1      64.150   2.985   6.535  1.00  0.00     0.162 A 
ATOM     15  C   UNL     1      61.749   3.207   5.099  1.00  0.00     0.062 A 
ATOM     16  C   UNL     1      62.959   3.364   7.201  1.00  0.00     0.200 A 
ATOM     17  C   UNL     1      61.765   3.468   6.475  1.00  0.00     0.162 A 
BRANCH  14  18
ATOM     18  O   UNL     1      65.373   2.851   7.194  1.00  0.00    -0.504 OA
ATOM     19  H   UNL     1      65.754   1.969   7.507  1.00  0.00     0.293 HD
ENDBRANCH  14  18
BRANCH  16  20
ATOM     20  O   UNL     1      62.922   3.643   8.569  1.00  0.00    -0.502 OA
ATOM     21  H   UNL     1      63.239   4.508   8.980  1.00  0.00     0.293 HD
ENDBRANCH  16  20
BRANCH  17  22
ATOM     22  O   UNL     1      60.589   3.826   7.133  1.00  0.00    -0.504 OA
ATOM     23  H   UNL     1      60.153   4.729   6.987  1.00  0.00     0.293 HD
ENDBRANCH  17  22
ENDBRANCH   1  12
BRANCH   2  24
ATOM     24  O   UNL     1      61.601   0.540   3.293  1.00  0.00    -0.502 OA
ATOM     25  H   UNL     1      61.088   0.865   4.104  1.00  0.00     0.293 HD
ENDBRANCH   2  24
BRANCH   6  26
ATOM     26  O   UNL     1      62.842   0.767  -1.882  1.00  0.00    -0.507 OA
ATOM     27  H   UNL     1      62.154   0.750  -2.618  1.00  0.00     0.293 HD
ENDBRANCH   6  26
BRANCH   8  28
ATOM     28  O   UNL     1      64.930   5.068  -2.082  1.00  0.00    -0.508 OA
ATOM     29  H   UNL     1      65.938   5.140  -2.159  1.00  0.00     0.293 HD
ENDBRANCH   8  28
TORSDOF 7
ENDMDL
