MODEL 1
REMARK VINA RESULT:    -6.982      0.000      0.000
REMARK INTER + INTRA:          -8.469
REMARK INTER:                  -8.206
REMARK INTRA:                  -0.263
REMARK UNBOUND:                -0.263
REMARK SMILES O=c1cc(-c2ccc(O)c(O)c2)oc2cc(O)cc(O)c12
REMARK SMILES IDX 4 1 3 2 2 3 1 4 21 5 19 6 18 7 16 8 15 9 14 10 13 11 5 12
REMARK SMILES IDX 6 13 7 14 8 15 12 16 10 17 9 18 11 20 20 22 17 24
REMARK H PARENT 9 19 11 21 20 23 17 25
REMARK Flexibility Score: inf
ROOT
ATOM      1  C   UNL     1      54.145  11.305  90.189  1.00  0.00     0.138 A 
ATOM      2  C   UNL     1      54.929  12.377  90.637  1.00  0.00     0.100 A 
ATOM      3  C   UNL     1      54.961  13.563  89.902  1.00  0.00     0.197 A 
ATOM      4  O   UNL     1      55.722  14.485  90.296  1.00  0.00    -0.289 OA
ATOM      5  C   UNL     1      54.179  13.686  88.729  1.00  0.00     0.107 A 
ATOM      6  C   UNL     1      54.101  14.860  87.923  1.00  0.00     0.134 A 
ATOM      7  C   UNL     1      53.384  14.826  86.721  1.00  0.00     0.093 A 
ATOM      8  C   UNL     1      52.693  13.682  86.325  1.00  0.00     0.123 A 
ATOM      9  C   UNL     1      52.719  12.543  87.132  1.00  0.00     0.094 A 
ATOM     10  C   UNL     1      53.453  12.535  88.321  1.00  0.00     0.146 A 
ATOM     11  O   UNL     1      53.463  11.427  89.054  1.00  0.00    -0.456 OA
ENDROOT
BRANCH   1  12
ATOM     12  C   UNL     1      54.074  10.022  90.931  1.00  0.00     0.021 A 
ATOM     13  C   UNL     1      54.988   8.978  90.693  1.00  0.00     0.016 A 
ATOM     14  C   UNL     1      54.903   7.784  91.415  1.00  0.00     0.051 A 
ATOM     15  C   UNL     1      53.915   7.612  92.389  1.00  0.00     0.157 A 
ATOM     16  C   UNL     1      53.091   9.848  91.922  1.00  0.00     0.062 A 
ATOM     17  C   UNL     1      53.005   8.650  92.646  1.00  0.00     0.158 A 
BRANCH  15  18
ATOM     18  O   UNL     1      53.856   6.409  93.091  1.00  0.00    -0.504 OA
ATOM     19  H   UNL     1      54.383   6.257  93.942  1.00  0.00     0.293 HD
ENDBRANCH  15  18
BRANCH  17  20
ATOM     20  O   UNL     1      52.020   8.489  93.619  1.00  0.00    -0.504 OA
ATOM     21  H   UNL     1      51.378   7.704  93.601  1.00  0.00     0.293 HD
ENDBRANCH  17  20
ENDBRANCH   1  12
BRANCH   6  22
ATOM     22  O   UNL     1      54.684  16.084  88.267  1.00  0.00    -0.507 OA
ATOM     23  H   UNL     1      55.575  16.189  88.728  1.00  0.00     0.293 HD
ENDBRANCH   6  22
BRANCH   8  24
ATOM     24  O   UNL     1      51.978  13.689  85.130  1.00  0.00    -0.508 OA
ATOM     25  H   UNL     1      51.321  12.951  84.901  1.00  0.00     0.293 HD
ENDBRANCH   8  24
TORSDOF 5
ENDMDL
MODEL 2
REMARK VINA RESULT:    -6.652      2.016      7.253
REMARK INTER + INTRA:          -8.082
REMARK INTER:                  -7.768
REMARK INTRA:                  -0.314
REMARK UNBOUND:                -0.263
REMARK SMILES O=c1cc(-c2ccc(O)c(O)c2)oc2cc(O)cc(O)c12
REMARK SMILES IDX 4 1 3 2 2 3 1 4 21 5 19 6 18 7 16 8 15 9 14 10 13 11 5 12
REMARK SMILES IDX 6 13 7 14 8 15 12 16 10 17 9 18 11 20 20 22 17 24
REMARK H PARENT 9 19 11 21 20 23 17 25
REMARK Flexibility Score: inf
ROOT
ATOM      1  C   UNL     1      53.055  12.306  88.347  1.00  0.00     0.138 A 
ATOM      2  C   UNL     1      53.647  11.074  88.036  1.00  0.00     0.100 A 
ATOM      3  C   UNL     1      53.814  10.116  89.036  1.00  0.00     0.197 A 
ATOM      4  O   UNL     1      54.405   9.045  88.740  1.00  0.00    -0.289 OA
ATOM      5  C   UNL     1      53.357  10.382  90.349  1.00  0.00     0.107 A 
ATOM      6  C   UNL     1      53.436   9.465  91.440  1.00  0.00     0.134 A 
ATOM      7  C   UNL     1      53.057   9.882  92.721  1.00  0.00     0.093 A 
ATOM      8  C   UNL     1      52.545  11.160  92.942  1.00  0.00     0.123 A 
ATOM      9  C   UNL     1      52.412  12.047  91.873  1.00  0.00     0.094 A 
ATOM     10  C   UNL     1      52.814  11.673  90.588  1.00  0.00     0.146 A 
ATOM     11  O   UNL     1      52.684  12.552  89.601  1.00  0.00    -0.456 OA
ENDROOT
BRANCH   1  12
ATOM     12  C   UNL     1      52.853  13.361  87.322  1.00  0.00     0.021 A 
ATOM     13  C   UNL     1      52.879  13.068  85.946  1.00  0.00     0.016 A 
ATOM     14  C   UNL     1      52.675  14.079  85.002  1.00  0.00     0.051 A 
ATOM     15  C   UNL     1      52.434  15.393  85.412  1.00  0.00     0.157 A 
ATOM     16  C   UNL     1      52.597  14.683  87.729  1.00  0.00     0.062 A 
ATOM     17  C   UNL     1      52.393  15.697  86.782  1.00  0.00     0.158 A 
BRANCH  15  18
ATOM     18  O   UNL     1      52.236  16.380  84.447  1.00  0.00    -0.504 OA
ATOM     19  H   UNL     1      52.955  17.051  84.209  1.00  0.00     0.293 HD
ENDBRANCH  15  18
BRANCH  17  20
ATOM     20  O   UNL     1      52.149  17.005  87.200  1.00  0.00    -0.504 OA
ATOM     21  H   UNL     1      51.221  17.411  87.162  1.00  0.00     0.293 HD
ENDBRANCH  17  20
ENDBRANCH   1  12
BRANCH   6  22
ATOM     22  O   UNL     1      53.854   8.136  91.313  1.00  0.00    -0.507 OA
ATOM     23  H   UNL     1      54.040   7.514  92.085  1.00  0.00     0.293 HD
ENDBRANCH   6  22
BRANCH   8  24
ATOM     24  O   UNL     1      52.163  11.534  94.228  1.00  0.00    -0.508 OA
ATOM     25  H   UNL     1      51.697  10.885  94.853  1.00  0.00     0.293 HD
ENDBRANCH   8  24
TORSDOF 5
ENDMDL
MODEL 3
REMARK VINA RESULT:    -6.605      0.834      1.400
REMARK INTER + INTRA:          -8.027
REMARK INTER:                  -7.753
REMARK INTRA:                  -0.273
REMARK UNBOUND:                -0.263
REMARK SMILES O=c1cc(-c2ccc(O)c(O)c2)oc2cc(O)cc(O)c12
REMARK SMILES IDX 4 1 3 2 2 3 1 4 21 5 19 6 18 7 16 8 15 9 14 10 13 11 5 12
REMARK SMILES IDX 6 13 7 14 8 15 12 16 10 17 9 18 11 20 20 22 17 24
REMARK H PARENT 9 19 11 21 20 23 17 25
REMARK Flexibility Score: inf
ROOT
ATOM      1  C   UNL     1      53.777  11.105  90.045  1.00  0.00     0.138 A 
ATOM      2  C   UNL     1      54.593  12.128  90.548  1.00  0.00     0.100 A 
ATOM      3  C   UNL     1      54.723  13.320  89.836  1.00  0.00     0.197 A 
ATOM      4  O   UNL     1      55.512  14.194  90.280  1.00  0.00    -0.289 OA
ATOM      5  C   UNL     1      54.007  13.500  88.628  1.00  0.00     0.107 A 
ATOM      6  C   UNL     1      54.030  14.688  87.838  1.00  0.00     0.134 A 
ATOM      7  C   UNL     1      53.372  14.709  86.603  1.00  0.00     0.093 A 
ATOM      8  C   UNL     1      52.643  13.608  86.155  1.00  0.00     0.123 A 
ATOM      9  C   UNL     1      52.569  12.459  86.944  1.00  0.00     0.094 A 
ATOM     10  C   UNL     1      53.243  12.395  88.167  1.00  0.00     0.146 A 
ATOM     11  O   UNL     1      53.158  11.278  88.881  1.00  0.00    -0.456 OA
ENDROOT
BRANCH   1  12
ATOM     12  C   UNL     1      53.602   9.817  90.763  1.00  0.00     0.021 A 
ATOM     13  C   UNL     1      52.332   9.237  90.941  1.00  0.00     0.016 A 
ATOM     14  C   UNL     1      52.198   8.018  91.612  1.00  0.00     0.051 A 
ATOM     15  C   UNL     1      53.323   7.354  92.108  1.00  0.00     0.157 A 
ATOM     16  C   UNL     1      54.732   9.137  91.252  1.00  0.00     0.062 A 
ATOM     17  C   UNL     1      54.598   7.915  91.926  1.00  0.00     0.158 A 
BRANCH  15  18
ATOM     18  O   UNL     1      53.156   6.140  92.774  1.00  0.00    -0.504 OA
ATOM     19  H   UNL     1      53.551   5.276  92.423  1.00  0.00     0.293 HD
ENDBRANCH  15  18
BRANCH  17  20
ATOM     20  O   UNL     1      55.725   7.256  92.414  1.00  0.00    -0.504 OA
ATOM     21  H   UNL     1      56.061   6.396  91.996  1.00  0.00     0.293 HD
ENDBRANCH  17  20
ENDBRANCH   1  12
BRANCH   6  22
ATOM     22  O   UNL     1      54.659  15.874  88.231  1.00  0.00    -0.507 OA
ATOM     23  H   UNL     1      54.901  16.632  87.610  1.00  0.00     0.293 HD
ENDBRANCH   6  22
BRANCH   8  24
ATOM     24  O   UNL     1      51.989  13.670  84.928  1.00  0.00    -0.508 OA
ATOM     25  H   UNL     1      51.143  13.138  84.750  1.00  0.00     0.293 HD
ENDBRANCH   8  24
TORSDOF 5
ENDMDL
MODEL 4
REMARK VINA RESULT:    -6.544      1.138      2.732
REMARK INTER + INTRA:          -7.955
REMARK INTER:                  -7.691
REMARK INTRA:                  -0.263
REMARK UNBOUND:                -0.263
REMARK SMILES O=c1cc(-c2ccc(O)c(O)c2)oc2cc(O)cc(O)c12
REMARK SMILES IDX 4 1 3 2 2 3 1 4 21 5 19 6 18 7 16 8 15 9 14 10 13 11 5 12
REMARK SMILES IDX 6 13 7 14 8 15 12 16 10 17 9 18 11 20 20 22 17 24
REMARK H PARENT 9 19 11 21 20 23 17 25
REMARK Flexibility Score: inf
ROOT
ATOM      1  C   UNL     1      53.392  10.756  89.180  1.00  0.00     0.138 A 
ATOM      2  C   UNL     1      52.590  10.449  88.072  1.00  0.00     0.100 A 
ATOM      3  C   UNL     1      52.298  11.440  87.135  1.00  0.00     0.197 A 
ATOM      4  O   UNL     1      51.524  11.151  86.185  1.00  0.00    -0.289 OA
ATOM      5  C   UNL     1      52.838  12.739  87.292  1.00  0.00     0.107 A 
ATOM      6  C   UNL     1      52.642  13.818  86.379  1.00  0.00     0.134 A 
ATOM      7  C   UNL     1      53.131  15.090  86.700  1.00  0.00     0.093 A 
ATOM      8  C   UNL     1      53.859  15.311  87.868  1.00  0.00     0.123 A 
ATOM      9  C   UNL     1      54.103  14.251  88.743  1.00  0.00     0.094 A 
ATOM     10  C   UNL     1      53.599  12.977  88.468  1.00  0.00     0.146 A 
ATOM     11  O   UNL     1      53.842  11.998  89.333  1.00  0.00    -0.456 OA
ENDROOT
BRANCH   1  12
ATOM     12  C   UNL     1      53.734   9.740  90.206  1.00  0.00     0.021 A 
ATOM     13  C   UNL     1      54.869   8.916  90.081  1.00  0.00     0.016 A 
ATOM     14  C   UNL     1      55.172   7.974  91.067  1.00  0.00     0.051 A 
ATOM     15  C   UNL     1      54.359   7.842  92.196  1.00  0.00     0.157 A 
ATOM     16  C   UNL     1      52.928   9.612  91.351  1.00  0.00     0.062 A 
ATOM     17  C   UNL     1      53.232   8.666  92.341  1.00  0.00     0.158 A 
BRANCH  15  18
ATOM     18  O   UNL     1      54.688   6.892  93.163  1.00  0.00    -0.504 OA
ATOM     19  H   UNL     1      55.626   6.808  93.537  1.00  0.00     0.293 HD
ENDBRANCH  15  18
BRANCH  17  20
ATOM     20  O   UNL     1      52.418   8.544  93.466  1.00  0.00    -0.504 OA
ATOM     21  H   UNL     1      51.644   7.890  93.495  1.00  0.00     0.293 HD
ENDBRANCH  17  20
ENDBRANCH   1  12
BRANCH   6  22
ATOM     22  O   UNL     1      52.002  13.688  85.143  1.00  0.00    -0.507 OA
ATOM     23  H   UNL     1      52.435  13.857  84.248  1.00  0.00     0.293 HD
ENDBRANCH   6  22
BRANCH   8  24
ATOM     24  O   UNL     1      54.342  16.587  88.146  1.00  0.00    -0.508 OA
ATOM     25  H   UNL     1      53.828  17.419  87.877  1.00  0.00     0.293 HD
ENDBRANCH   8  24
TORSDOF 5
ENDMDL
MODEL 5
REMARK VINA RESULT:    -6.375      1.812      7.264
REMARK INTER + INTRA:          -7.756
REMARK INTER:                  -7.492
REMARK INTRA:                  -0.264
REMARK UNBOUND:                -0.263
REMARK SMILES O=c1cc(-c2ccc(O)c(O)c2)oc2cc(O)cc(O)c12
REMARK SMILES IDX 4 1 3 2 2 3 1 4 21 5 19 6 18 7 16 8 15 9 14 10 13 11 5 12
REMARK SMILES IDX 6 13 7 14 8 15 12 16 10 17 9 18 11 20 20 22 17 24
REMARK H PARENT 9 19 11 21 20 23 17 25
REMARK Flexibility Score: inf
ROOT
ATOM      1  C   UNL     1      53.371  11.393  91.802  1.00  0.00     0.138 A 
ATOM      2  C   UNL     1      52.441  11.811  92.764  1.00  0.00     0.100 A 
ATOM      3  C   UNL     1      51.846  10.870  93.604  1.00  0.00     0.197 A 
ATOM      4  O   UNL     1      50.969  11.268  94.415  1.00  0.00    -0.289 OA
ATOM      5  C   UNL     1      52.207   9.506  93.500  1.00  0.00     0.107 A 
ATOM      6  C   UNL     1      51.697   8.463  94.331  1.00  0.00     0.134 A 
ATOM      7  C   UNL     1      52.040   7.133  94.059  1.00  0.00     0.093 A 
ATOM      8  C   UNL     1      52.921   6.812  93.028  1.00  0.00     0.123 A 
ATOM      9  C   UNL     1      53.469   7.828  92.242  1.00  0.00     0.094 A 
ATOM     10  C   UNL     1      53.119   9.162  92.466  1.00  0.00     0.146 A 
ATOM     11  O   UNL     1      53.652  10.098  91.688  1.00  0.00    -0.456 OA
ENDROOT
BRANCH   1  12
ATOM     12  C   UNL     1      54.035  12.351  90.883  1.00  0.00     0.021 A 
ATOM     13  C   UNL     1      55.218  13.023  91.245  1.00  0.00     0.016 A 
ATOM     14  C   UNL     1      55.827  13.913  90.356  1.00  0.00     0.051 A 
ATOM     15  C   UNL     1      55.275  14.143  89.093  1.00  0.00     0.157 A 
ATOM     16  C   UNL     1      53.492  12.576  89.605  1.00  0.00     0.062 A 
ATOM     17  C   UNL     1      54.102  13.470  88.714  1.00  0.00     0.158 A 
BRANCH  15  18
ATOM     18  O   UNL     1      55.906  15.037  88.229  1.00  0.00    -0.504 OA
ATOM     19  H   UNL     1      56.840  14.874  87.875  1.00  0.00     0.293 HD
ENDBRANCH  15  18
BRANCH  17  20
ATOM     20  O   UNL     1      53.548  13.690  87.453  1.00  0.00    -0.504 OA
ATOM     21  H   UNL     1      53.817  13.133  86.650  1.00  0.00     0.293 HD
ENDBRANCH  17  20
ENDBRANCH   1  12
BRANCH   6  22
ATOM     22  O   UNL     1      50.875   8.682  95.441  1.00  0.00    -0.507 OA
ATOM     23  H   UNL     1      50.284   7.985  95.868  1.00  0.00     0.293 HD
ENDBRANCH   6  22
BRANCH   8  24
ATOM     24  O   UNL     1      53.252   5.479  92.796  1.00  0.00    -0.508 OA
ATOM     25  H   UNL     1      54.147   5.217  92.398  1.00  0.00     0.293 HD
ENDBRANCH   8  24
TORSDOF 5
ENDMDL
MODEL 6
REMARK VINA RESULT:    -6.374      3.090      7.502
REMARK INTER + INTRA:          -7.755
REMARK INTER:                  -7.486
REMARK INTRA:                  -0.269
REMARK UNBOUND:                -0.263
REMARK SMILES O=c1cc(-c2ccc(O)c(O)c2)oc2cc(O)cc(O)c12
REMARK SMILES IDX 4 1 3 2 2 3 1 4 21 5 19 6 18 7 16 8 15 9 14 10 13 11 5 12
REMARK SMILES IDX 6 13 7 14 8 15 12 16 10 17 9 18 11 20 20 22 17 24
REMARK H PARENT 9 19 11 21 20 23 17 25
REMARK Flexibility Score: inf
ROOT
ATOM      1  C   UNL     1      52.467  15.083  88.568  1.00  0.00     0.138 A 
ATOM      2  C   UNL     1      52.409  14.827  87.191  1.00  0.00     0.100 A 
ATOM      3  C   UNL     1      52.738  13.559  86.710  1.00  0.00     0.197 A 
ATOM      4  O   UNL     1      52.738  13.378  85.465  1.00  0.00    -0.289 OA
ATOM      5  C   UNL     1      53.096  12.533  87.618  1.00  0.00     0.107 A 
ATOM      6  C   UNL     1      53.411  11.192  87.246  1.00  0.00     0.134 A 
ATOM      7  C   UNL     1      53.864  10.294  88.220  1.00  0.00     0.093 A 
ATOM      8  C   UNL     1      53.956  10.669  89.560  1.00  0.00     0.123 A 
ATOM      9  C   UNL     1      53.599  11.963  89.943  1.00  0.00     0.094 A 
ATOM     10  C   UNL     1      53.176  12.893  88.990  1.00  0.00     0.146 A 
ATOM     11  O   UNL     1      52.859  14.118  89.394  1.00  0.00    -0.456 OA
ENDROOT
BRANCH   1  12
ATOM     12  C   UNL     1      52.126  16.413  89.133  1.00  0.00     0.021 A 
ATOM     13  C   UNL     1      51.179  16.558  90.164  1.00  0.00     0.016 A 
ATOM     14  C   UNL     1      50.885  17.821  90.684  1.00  0.00     0.051 A 
ATOM     15  C   UNL     1      51.534  18.958  90.193  1.00  0.00     0.157 A 
ATOM     16  C   UNL     1      52.786  17.559  88.654  1.00  0.00     0.062 A 
ATOM     17  C   UNL     1      52.491  18.827  89.174  1.00  0.00     0.158 A 
BRANCH  15  18
ATOM     18  O   UNL     1      51.219  20.205  90.732  1.00  0.00    -0.504 OA
ATOM     19  H   UNL     1      50.654  20.303  91.567  1.00  0.00     0.293 HD
ENDBRANCH  15  18
BRANCH  17  20
ATOM     20  O   UNL     1      53.146  19.956  88.683  1.00  0.00    -0.504 OA
ATOM     21  H   UNL     1      53.141  20.835  89.187  1.00  0.00     0.293 HD
ENDBRANCH  17  20
ENDBRANCH   1  12
BRANCH   6  22
ATOM     22  O   UNL     1      53.274  10.689  85.949  1.00  0.00    -0.507 OA
ATOM     23  H   UNL     1      53.396  11.228  85.105  1.00  0.00     0.293 HD
ENDBRANCH   6  22
BRANCH   8  24
ATOM     24  O   UNL     1      54.396   9.745  90.504  1.00  0.00    -0.508 OA
ATOM     25  H   UNL     1      54.635   8.794  90.243  1.00  0.00     0.293 HD
ENDBRANCH   8  24
TORSDOF 5
ENDMDL
MODEL 7
REMARK VINA RESULT:    -6.145      2.144      7.016
REMARK INTER + INTRA:          -7.486
REMARK INTER:                  -7.218
REMARK INTRA:                  -0.268
REMARK UNBOUND:                -0.263
REMARK SMILES O=c1cc(-c2ccc(O)c(O)c2)oc2cc(O)cc(O)c12
REMARK SMILES IDX 4 1 3 2 2 3 1 4 21 5 19 6 18 7 16 8 15 9 14 10 13 11 5 12
REMARK SMILES IDX 6 13 7 14 8 15 12 16 10 17 9 18 11 20 20 22 17 24
REMARK H PARENT 9 19 11 21 20 23 17 25
REMARK Flexibility Score: inf
ROOT
ATOM      1  C   UNL     1      53.259  12.270  88.149  1.00  0.00     0.138 A 
ATOM      2  C   UNL     1      54.254  12.398  89.128  1.00  0.00     0.100 A 
ATOM      3  C   UNL     1      54.466  11.360  90.037  1.00  0.00     0.197 A 
ATOM      4  O   UNL     1      55.322  11.529  90.943  1.00  0.00    -0.289 OA
ATOM      5  C   UNL     1      53.698  10.174  89.942  1.00  0.00     0.107 A 
ATOM      6  C   UNL     1      53.854   9.035  90.787  1.00  0.00     0.134 A 
ATOM      7  C   UNL     1      52.959   7.964  90.674  1.00  0.00     0.093 A 
ATOM      8  C   UNL     1      51.953   7.964  89.710  1.00  0.00     0.123 A 
ATOM      9  C   UNL     1      51.823   9.050  88.843  1.00  0.00     0.094 A 
ATOM     10  C   UNL     1      52.679  10.149  88.952  1.00  0.00     0.146 A 
ATOM     11  O   UNL     1      52.514  11.168  88.117  1.00  0.00    -0.456 OA
ENDROOT
BRANCH   1  12
ATOM     12  C   UNL     1      52.992  13.342  87.158  1.00  0.00     0.021 A 
ATOM     13  C   UNL     1      52.988  13.086  85.774  1.00  0.00     0.016 A 
ATOM     14  C   UNL     1      52.723  14.113  84.864  1.00  0.00     0.051 A 
ATOM     15  C   UNL     1      52.451  15.407  85.315  1.00  0.00     0.157 A 
ATOM     16  C   UNL     1      52.703  14.644  87.606  1.00  0.00     0.062 A 
ATOM     17  C   UNL     1      52.438  15.675  86.693  1.00  0.00     0.158 A 
BRANCH  15  18
ATOM     18  O   UNL     1      52.191  16.411  84.382  1.00  0.00    -0.504 OA
ATOM     19  H   UNL     1      52.843  17.167  84.211  1.00  0.00     0.293 HD
ENDBRANCH  15  18
BRANCH  17  20
ATOM     20  O   UNL     1      52.162  16.962  87.152  1.00  0.00    -0.504 OA
ATOM     21  H   UNL     1      52.597  17.333  87.989  1.00  0.00     0.293 HD
ENDBRANCH  17  20
ENDBRANCH   1  12
BRANCH   6  22
ATOM     22  O   UNL     1      54.880   8.895  91.728  1.00  0.00    -0.507 OA
ATOM     23  H   UNL     1      55.160   8.024  92.151  1.00  0.00     0.293 HD
ENDBRANCH   6  22
BRANCH   8  24
ATOM     24  O   UNL     1      51.090   6.875  89.617  1.00  0.00    -0.508 OA
ATOM     25  H   UNL     1      50.864   6.307  90.427  1.00  0.00     0.293 HD
ENDBRANCH   8  24
TORSDOF 5
ENDMDL
MODEL 8
REMARK VINA RESULT:    -6.134      1.805      2.668
REMARK INTER + INTRA:          -7.473
REMARK INTER:                  -7.158
REMARK INTRA:                  -0.315
REMARK UNBOUND:                -0.263
REMARK SMILES O=c1cc(-c2ccc(O)c(O)c2)oc2cc(O)cc(O)c12
REMARK SMILES IDX 4 1 3 2 2 3 1 4 21 5 19 6 18 7 16 8 15 9 14 10 13 11 5 12
REMARK SMILES IDX 6 13 7 14 8 15 12 16 10 17 9 18 11 20 20 22 17 24
REMARK H PARENT 9 19 11 21 20 23 17 25
REMARK Flexibility Score: inf
ROOT
ATOM      1  C   UNL     1      53.408  12.440  88.963  1.00  0.00     0.138 A 
ATOM      2  C   UNL     1      53.123  13.606  89.686  1.00  0.00     0.100 A 
ATOM      3  C   UNL     1      52.801  14.780  89.004  1.00  0.00     0.197 A 
ATOM      4  O   UNL     1      52.612  15.826  89.678  1.00  0.00    -0.289 OA
ATOM      5  C   UNL     1      52.733  14.776  87.590  1.00  0.00     0.107 A 
ATOM      6  C   UNL     1      52.374  15.902  86.790  1.00  0.00     0.134 A 
ATOM      7  C   UNL     1      52.454  15.811  85.395  1.00  0.00     0.093 A 
ATOM      8  C   UNL     1      52.819  14.621  84.770  1.00  0.00     0.123 A 
ATOM      9  C   UNL     1      53.120  13.497  85.541  1.00  0.00     0.094 A 
ATOM     10  C   UNL     1      53.084  13.565  86.936  1.00  0.00     0.146 A 
ATOM     11  O   UNL     1      53.390  12.477  87.634  1.00  0.00    -0.456 OA
ENDROOT
BRANCH   1  12
ATOM     12  C   UNL     1      53.755  11.164  89.638  1.00  0.00     0.021 A 
ATOM     13  C   UNL     1      53.485  10.952  91.003  1.00  0.00     0.016 A 
ATOM     14  C   UNL     1      53.814   9.737  91.610  1.00  0.00     0.051 A 
ATOM     15  C   UNL     1      54.408   8.712  90.868  1.00  0.00     0.157 A 
ATOM     16  C   UNL     1      54.341  10.124  88.894  1.00  0.00     0.062 A 
ATOM     17  C   UNL     1      54.672   8.905  89.503  1.00  0.00     0.158 A 
BRANCH  15  18
ATOM     18  O   UNL     1      54.726   7.512  91.503  1.00  0.00    -0.504 OA
ATOM     19  H   UNL     1      55.502   6.934  91.204  1.00  0.00     0.293 HD
ENDBRANCH  15  18
BRANCH  17  20
ATOM     20  O   UNL     1      55.261   7.886  88.756  1.00  0.00    -0.504 OA
ATOM     21  H   UNL     1      54.850   7.556  87.890  1.00  0.00     0.293 HD
ENDBRANCH  17  20
ENDBRANCH   1  12
BRANCH   6  22
ATOM     22  O   UNL     1      51.913  17.115  87.312  1.00  0.00    -0.507 OA
ATOM     23  H   UNL     1      52.256  17.547  88.157  1.00  0.00     0.293 HD
ENDBRANCH   6  22
BRANCH   8  24
ATOM     24  O   UNL     1      52.873  14.563  83.379  1.00  0.00    -0.508 OA
ATOM     25  H   UNL     1      53.681  14.187  82.895  1.00  0.00     0.293 HD
ENDBRANCH   8  24
TORSDOF 5
ENDMDL
