MODEL 1
REMARK VINA RESULT:    -4.312      0.000      0.000
REMARK INTER + INTRA:          -7.418
REMARK INTER:                  -6.580
REMARK INTRA:                  -0.838
REMARK UNBOUND:                -0.838
REMARK SMILES CCCCCCCCCCC(=O)[O-]
REMARK SMILES IDX 7 1 8 2 9 3 10 4 11 5 12 6 13 7 6 8 5 9 4 10 3 11 2 12 1 13
REMARK H PARENT
REMARK Flexibility Score: inf
ROOT
ATOM      1  C   UNL     1     -20.671  11.308  18.116  1.00  0.00     0.000 C 
ENDROOT
BRANCH   1   2
ATOM      2  C   UNL     1     -20.679   9.779  17.952  1.00  0.00     0.000 C 
BRANCH   2   3
ATOM      3  C   UNL     1     -19.251   9.221  17.947  1.00  0.00     0.006 C 
BRANCH   3   4
ATOM      4  C   UNL     1     -19.237   7.744  18.353  1.00  0.00     0.053 C 
BRANCH   4   5
ATOM      5  C   UNL     1     -17.898   7.367  18.907  1.00  0.00     0.041 C 
ATOM      6  O   UNL     1     -16.846   7.695  18.299  1.00  0.00    -0.550 OA
ATOM      7  O   UNL     1     -17.814   6.611  20.069  1.00  0.00    -0.550 OA
ENDBRANCH   4   5
ENDBRANCH   3   4
ENDBRANCH   2   3
ENDBRANCH   1   2
BRANCH   1   8
ATOM      8  C   UNL     1     -19.342  11.833  18.679  1.00  0.00     0.000 C 
BRANCH   8   9
ATOM      9  C   UNL     1     -18.844  13.092  17.947  1.00  0.00    -0.000 C 
BRANCH   9  10
ATOM     10  C   UNL     1     -19.399  13.204  16.519  1.00  0.00    -0.000 C 
BRANCH  10  11
ATOM     11  C   UNL     1     -18.361  12.825  15.451  1.00  0.00    -0.000 C 
BRANCH  11  12
ATOM     12  C   UNL     1     -18.621  11.413  14.911  1.00  0.00    -0.003 C 
ATOM     13  C   UNL     1     -17.665  11.074  13.771  1.00  0.00     0.004 C 
ENDBRANCH  11  12
ENDBRANCH  10  11
ENDBRANCH   9  10
ENDBRANCH   8   9
ENDBRANCH   1   8
TORSDOF 9
ENDMDL
MODEL 2
REMARK VINA RESULT:    -4.031      2.794      4.908
REMARK INTER + INTRA:          -6.990
REMARK INTER:                  -5.946
REMARK INTRA:                  -1.044
REMARK UNBOUND:                -0.838
REMARK SMILES CCCCCCCCCCC(=O)[O-]
REMARK SMILES IDX 7 1 8 2 9 3 10 4 11 5 12 6 13 7 6 8 5 9 4 10 3 11 2 12 1 13
REMARK H PARENT
REMARK Flexibility Score: inf
ROOT
ATOM      1  C   UNL     1     -18.349  13.208  16.237  1.00  0.00     0.000 C 
ENDROOT
BRANCH   1   2
ATOM      2  C   UNL     1     -19.023  13.162  14.856  1.00  0.00     0.000 C 
BRANCH   2   3
ATOM      3  C   UNL     1     -19.845  11.878  14.691  1.00  0.00     0.006 C 
BRANCH   3   4
ATOM      4  C   UNL     1     -18.933  10.650  14.608  1.00  0.00     0.053 C 
BRANCH   4   5
ATOM      5  C   UNL     1     -18.072  10.719  13.386  1.00  0.00     0.041 C 
ATOM      6  O   UNL     1     -16.818  10.756  13.497  1.00  0.00    -0.550 OA
ATOM      7  O   UNL     1     -18.655  10.790  12.128  1.00  0.00    -0.550 OA
ENDBRANCH   4   5
ENDBRANCH   3   4
ENDBRANCH   2   3
ENDBRANCH   1   2
BRANCH   1   8
ATOM      8  C   UNL     1     -19.365  13.240  17.389  1.00  0.00     0.000 C 
BRANCH   8   9
ATOM      9  C   UNL     1     -19.048  12.211  18.487  1.00  0.00    -0.000 C 
BRANCH   9  10
ATOM     10  C   UNL     1     -20.264  11.348  18.859  1.00  0.00    -0.000 C 
BRANCH  10  11
ATOM     11  C   UNL     1     -20.393  10.098  17.975  1.00  0.00    -0.000 C 
BRANCH  11  12
ATOM     12  C   UNL     1     -19.120   9.246  18.040  1.00  0.00    -0.003 C 
ATOM     13  C   UNL     1     -19.454   7.766  18.196  1.00  0.00     0.004 C 
ENDBRANCH  11  12
ENDBRANCH  10  11
ENDBRANCH   9  10
ENDBRANCH   8   9
ENDBRANCH   1   8
TORSDOF 9
ENDMDL
MODEL 3
REMARK VINA RESULT:    -4.023      1.209      2.005
REMARK INTER + INTRA:          -6.977
REMARK INTER:                  -6.337
REMARK INTRA:                  -0.641
REMARK UNBOUND:                -0.838
REMARK SMILES CCCCCCCCCCC(=O)[O-]
REMARK SMILES IDX 7 1 8 2 9 3 10 4 11 5 12 6 13 7 6 8 5 9 4 10 3 11 2 12 1 13
REMARK H PARENT
REMARK Flexibility Score: inf
ROOT
ATOM      1  C   UNL     1     -20.501   9.709  17.396  1.00  0.00     0.000 C 
ENDROOT
BRANCH   1   2
ATOM      2  C   UNL     1     -19.051   9.198  17.398  1.00  0.00     0.000 C 
BRANCH   2   3
ATOM      3  C   UNL     1     -18.873   8.061  18.411  1.00  0.00     0.006 C 
BRANCH   3   4
ATOM      4  C   UNL     1     -17.389   7.802  18.690  1.00  0.00     0.053 C 
BRANCH   4   5
ATOM      5  C   UNL     1     -17.159   6.356  18.999  1.00  0.00     0.041 C 
ATOM      6  O   UNL     1     -17.195   5.949  20.189  1.00  0.00    -0.550 OA
ATOM      7  O   UNL     1     -16.859   5.466  17.975  1.00  0.00    -0.550 OA
ENDBRANCH   4   5
ENDBRANCH   3   4
ENDBRANCH   2   3
ENDBRANCH   1   2
BRANCH   1   8
ATOM      8  C   UNL     1     -20.655  11.051  18.128  1.00  0.00     0.000 C 
BRANCH   8   9
ATOM      9  C   UNL     1     -19.306  11.636  18.582  1.00  0.00    -0.000 C 
BRANCH   9  10
ATOM     10  C   UNL     1     -19.039  13.031  17.996  1.00  0.00    -0.000 C 
BRANCH  10  11
ATOM     11  C   UNL     1     -19.840  13.295  16.712  1.00  0.00    -0.000 C 
BRANCH  11  12
ATOM     12  C   UNL     1     -18.964  13.966  15.648  1.00  0.00    -0.003 C 
ATOM     13  C   UNL     1     -17.716  13.137  15.357  1.00  0.00     0.004 C 
ENDBRANCH  11  12
ENDBRANCH  10  11
ENDBRANCH   9  10
ENDBRANCH   8   9
ENDBRANCH   1   8
TORSDOF 9
ENDMDL
MODEL 4
REMARK VINA RESULT:    -3.985      0.930      2.571
REMARK INTER + INTRA:          -6.920
REMARK INTER:                  -5.898
REMARK INTRA:                  -1.022
REMARK UNBOUND:                -0.838
REMARK SMILES CCCCCCCCCCC(=O)[O-]
REMARK SMILES IDX 7 1 8 2 9 3 10 4 11 5 12 6 13 7 6 8 5 9 4 10 3 11 2 12 1 13
REMARK H PARENT
REMARK Flexibility Score: inf
ROOT
ATOM      1  C   UNL     1     -19.921   9.530  15.398  1.00  0.00     0.000 C 
ENDROOT
BRANCH   1   2
ATOM      2  C   UNL     1     -20.410   9.750  16.839  1.00  0.00     0.000 C 
BRANCH   2   3
ATOM      3  C   UNL     1     -19.322   9.369  17.850  1.00  0.00     0.006 C 
BRANCH   3   4
ATOM      4  C   UNL     1     -19.381   7.875  18.183  1.00  0.00     0.053 C 
BRANCH   4   5
ATOM      5  C   UNL     1     -18.118   7.440  18.860  1.00  0.00     0.041 C 
ATOM      6  O   UNL     1     -17.004   7.631  18.305  1.00  0.00    -0.550 OA
ATOM      7  O   UNL     1     -18.175   6.782  20.081  1.00  0.00    -0.550 OA
ENDBRANCH   4   5
ENDBRANCH   3   4
ENDBRANCH   2   3
ENDBRANCH   1   2
BRANCH   1   8
ATOM      8  C   UNL     1     -18.483  10.025  15.181  1.00  0.00     0.000 C 
BRANCH   8   9
ATOM      9  C   UNL     1     -18.357  10.967  13.971  1.00  0.00    -0.000 C 
BRANCH   9  10
ATOM     10  C   UNL     1     -18.870  12.384  14.268  1.00  0.00    -0.000 C 
BRANCH  10  11
ATOM     11  C   UNL     1     -18.234  12.990  15.529  1.00  0.00    -0.000 C 
BRANCH  11  12
ATOM     12  C   UNL     1     -19.312  13.462  16.512  1.00  0.00    -0.003 C 
ATOM     13  C   UNL     1     -18.971  13.052  17.942  1.00  0.00     0.004 C 
ENDBRANCH  11  12
ENDBRANCH  10  11
ENDBRANCH   9  10
ENDBRANCH   8   9
ENDBRANCH   1   8
TORSDOF 9
ENDMDL
MODEL 5
REMARK VINA RESULT:    -3.954      7.453      9.430
REMARK INTER + INTRA:          -6.873
REMARK INTER:                  -6.235
REMARK INTRA:                  -0.638
REMARK UNBOUND:                -0.838
REMARK SMILES CCCCCCCCCCC(=O)[O-]
REMARK SMILES IDX 7 1 8 2 9 3 10 4 11 5 12 6 13 7 6 8 5 9 4 10 3 11 2 12 1 13
REMARK H PARENT
REMARK Flexibility Score: inf
ROOT
ATOM      1  C   UNL     1     -14.398   4.453  16.832  1.00  0.00     0.000 C 
ENDROOT
BRANCH   1   2
ATOM      2  C   UNL     1     -13.393   4.168  15.704  1.00  0.00     0.000 C 
BRANCH   2   3
ATOM      3  C   UNL     1     -13.891   4.739  14.370  1.00  0.00     0.006 C 
BRANCH   3   4
ATOM      4  C   UNL     1     -13.956   3.648  13.297  1.00  0.00     0.053 C 
BRANCH   4   5
ATOM      5  C   UNL     1     -12.811   3.784  12.343  1.00  0.00     0.041 C 
ATOM      6  O   UNL     1     -12.592   2.890  11.485  1.00  0.00    -0.550 OA
ATOM      7  O   UNL     1     -11.958   4.877  12.432  1.00  0.00    -0.550 OA
ENDBRANCH   4   5
ENDBRANCH   3   4
ENDBRANCH   2   3
ENDBRANCH   1   2
BRANCH   1   8
ATOM      8  C   UNL     1     -15.728   3.707  16.639  1.00  0.00     0.000 C 
BRANCH   8   9
ATOM      9  C   UNL     1     -16.713   3.945  17.797  1.00  0.00    -0.000 C 
BRANCH   9  10
ATOM     10  C   UNL     1     -16.221   5.015  18.783  1.00  0.00    -0.000 C 
BRANCH  10  11
ATOM     11  C   UNL     1     -16.322   4.561  20.247  1.00  0.00    -0.000 C 
BRANCH  11  12
ATOM     12  C   UNL     1     -14.992   3.971  20.730  1.00  0.00    -0.003 C 
ATOM     13  C   UNL     1     -15.037   2.446  20.743  1.00  0.00     0.004 C 
ENDBRANCH  11  12
ENDBRANCH  10  11
ENDBRANCH   9  10
ENDBRANCH   8   9
ENDBRANCH   1   8
TORSDOF 9
ENDMDL
MODEL 6
REMARK VINA RESULT:    -3.860      3.654      4.576
REMARK INTER + INTRA:          -6.729
REMARK INTER:                  -5.575
REMARK INTRA:                  -1.154
REMARK UNBOUND:                -0.838
REMARK SMILES CCCCCCCCCCC(=O)[O-]
REMARK SMILES IDX 7 1 8 2 9 3 10 4 11 5 12 6 13 7 6 8 5 9 4 10 3 11 2 12 1 13
REMARK H PARENT
REMARK Flexibility Score: inf
ROOT
ATOM      1  C   UNL     1     -20.649   9.935  16.695  1.00  0.00     0.000 C 
ENDROOT
BRANCH   1   2
ATOM      2  C   UNL     1     -19.176   9.608  16.406  1.00  0.00     0.000 C 
BRANCH   2   3
ATOM      3  C   UNL     1     -18.751  10.158  15.039  1.00  0.00     0.006 C 
BRANCH   3   4
ATOM      4  C   UNL     1     -19.922  10.137  14.051  1.00  0.00     0.053 C 
BRANCH   4   5
ATOM      5  C   UNL     1     -19.639  11.034  12.887  1.00  0.00     0.041 C 
ATOM      6  O   UNL     1     -19.966  12.249  12.930  1.00  0.00    -0.550 OA
ATOM      7  O   UNL     1     -19.058  10.518  11.736  1.00  0.00    -0.550 OA
ENDBRANCH   4   5
ENDBRANCH   3   4
ENDBRANCH   2   3
ENDBRANCH   1   2
BRANCH   1   8
ATOM      8  C   UNL     1     -20.813  11.150  17.621  1.00  0.00     0.000 C 
BRANCH   8   9
ATOM      9  C   UNL     1     -19.496  11.558  18.303  1.00  0.00    -0.000 C 
BRANCH   9  10
ATOM     10  C   UNL     1     -19.009  12.949  17.869  1.00  0.00    -0.000 C 
BRANCH  10  11
ATOM     11  C   UNL     1     -19.907  13.579  16.793  1.00  0.00    -0.000 C 
BRANCH  11  12
ATOM     12  C   UNL     1     -19.066  14.270  15.713  1.00  0.00    -0.003 C 
ATOM     13  C   UNL     1     -17.780  13.498  15.438  1.00  0.00     0.004 C 
ENDBRANCH  11  12
ENDBRANCH  10  11
ENDBRANCH   9  10
ENDBRANCH   8   9
ENDBRANCH   1   8
TORSDOF 9
ENDMDL
MODEL 7
REMARK VINA RESULT:    -3.839      5.671      8.459
REMARK INTER + INTRA:          -6.697
REMARK INTER:                  -6.183
REMARK INTRA:                  -0.514
REMARK UNBOUND:                -0.838
REMARK SMILES CCCCCCCCCCC(=O)[O-]
REMARK SMILES IDX 7 1 8 2 9 3 10 4 11 5 12 6 13 7 6 8 5 9 4 10 3 11 2 12 1 13
REMARK H PARENT
REMARK Flexibility Score: inf
ROOT
ATOM      1  C   UNL     1     -15.157   4.440  17.486  1.00  0.00     0.000 C 
ENDROOT
BRANCH   1   2
ATOM      2  C   UNL     1     -14.921   4.000  16.032  1.00  0.00     0.000 C 
BRANCH   2   3
ATOM      3  C   UNL     1     -13.505   4.367  15.572  1.00  0.00     0.006 C 
BRANCH   3   4
ATOM      4  C   UNL     1     -13.537   5.091  14.223  1.00  0.00     0.053 C 
BRANCH   4   5
ATOM      5  C   UNL     1     -12.888   4.254  13.165  1.00  0.00     0.041 C 
ATOM      6  O   UNL     1     -12.003   4.750  12.419  1.00  0.00    -0.550 OA
ATOM      7  O   UNL     1     -13.294   2.940  12.971  1.00  0.00    -0.550 OA
ENDBRANCH   4   5
ENDBRANCH   3   4
ENDBRANCH   2   3
ENDBRANCH   1   2
BRANCH   1   8
ATOM      8  C   UNL     1     -15.734   3.313  18.357  1.00  0.00     0.000 C 
BRANCH   8   9
ATOM      9  C   UNL     1     -15.747   3.669  19.854  1.00  0.00    -0.000 C 
BRANCH   9  10
ATOM     10  C   UNL     1     -16.399   5.032  20.133  1.00  0.00    -0.000 C 
BRANCH  10  11
ATOM     11  C   UNL     1     -17.912   5.029  19.865  1.00  0.00    -0.000 C 
BRANCH  11  12
ATOM     12  C   UNL     1     -18.450   6.460  19.749  1.00  0.00    -0.003 C 
ATOM     13  C   UNL     1     -17.610   7.289  18.781  1.00  0.00     0.004 C 
ENDBRANCH  11  12
ENDBRANCH  10  11
ENDBRANCH   9  10
ENDBRANCH   8   9
ENDBRANCH   1   8
TORSDOF 9
ENDMDL
MODEL 8
REMARK VINA RESULT:    -3.836      1.545      2.590
REMARK INTER + INTRA:          -6.692
REMARK INTER:                  -5.351
REMARK INTRA:                  -1.341
REMARK UNBOUND:                -0.838
REMARK SMILES CCCCCCCCCCC(=O)[O-]
REMARK SMILES IDX 7 1 8 2 9 3 10 4 11 5 12 6 13 7 6 8 5 9 4 10 3 11 2 12 1 13
REMARK H PARENT
REMARK Flexibility Score: inf
ROOT
ATOM      1  C   UNL     1     -19.124  13.032  17.649  1.00  0.00     0.000 C 
ENDROOT
BRANCH   1   2
ATOM      2  C   UNL     1     -20.197  11.963  17.911  1.00  0.00     0.000 C 
BRANCH   2   3
ATOM      3  C   UNL     1     -19.557  10.648  18.373  1.00  0.00     0.006 C 
BRANCH   3   4
ATOM      4  C   UNL     1     -20.421   9.447  17.973  1.00  0.00     0.053 C 
BRANCH   4   5
ATOM      5  C   UNL     1     -19.562   8.326  17.480  1.00  0.00     0.041 C 
ATOM      6  O   UNL     1     -20.006   7.516  16.625  1.00  0.00    -0.550 OA
ATOM      7  O   UNL     1     -18.286   8.147  18.000  1.00  0.00    -0.550 OA
ENDBRANCH   4   5
ENDBRANCH   3   4
ENDBRANCH   2   3
ENDBRANCH   1   2
BRANCH   1   8
ATOM      8  C   UNL     1     -19.156  13.559  16.206  1.00  0.00     0.000 C 
BRANCH   8   9
ATOM      9  C   UNL     1     -17.942  13.099  15.381  1.00  0.00    -0.000 C 
BRANCH   9  10
ATOM     10  C   UNL     1     -18.322  12.111  14.268  1.00  0.00    -0.000 C 
BRANCH  10  11
ATOM     11  C   UNL     1     -18.467  10.670  14.782  1.00  0.00    -0.000 C 
BRANCH  11  12
ATOM     12  C   UNL     1     -19.670   9.975  14.134  1.00  0.00    -0.003 C 
ATOM     13  C   UNL     1     -20.974  10.682  14.492  1.00  0.00     0.004 C 
ENDBRANCH  11  12
ENDBRANCH  10  11
ENDBRANCH   9  10
ENDBRANCH   8   9
ENDBRANCH   1   8
TORSDOF 9
ENDMDL
MODEL 9
REMARK VINA RESULT:    -3.768      2.736      5.067
REMARK INTER + INTRA:          -6.589
REMARK INTER:                  -5.181
REMARK INTRA:                  -1.408
REMARK UNBOUND:                -0.838
REMARK SMILES CCCCCCCCCCC(=O)[O-]
REMARK SMILES IDX 7 1 8 2 9 3 10 4 11 5 12 6 13 7 6 8 5 9 4 10 3 11 2 12 1 13
REMARK H PARENT
REMARK Flexibility Score: inf
ROOT
ATOM      1  C   UNL     1     -18.740  12.970  18.019  1.00  0.00     0.000 C 
ENDROOT
BRANCH   1   2
ATOM      2  C   UNL     1     -19.696  13.880  17.231  1.00  0.00     0.000 C 
BRANCH   2   3
ATOM      3  C   UNL     1     -19.518  13.685  15.720  1.00  0.00     0.006 C 
BRANCH   3   4
ATOM      4  C   UNL     1     -18.269  12.850  15.419  1.00  0.00     0.053 C 
BRANCH   4   5
ATOM      5  C   UNL     1     -18.581  11.786  14.413  1.00  0.00     0.041 C 
ATOM      6  O   UNL     1     -18.385  10.574  14.692  1.00  0.00    -0.550 OA
ATOM      7  O   UNL     1     -19.045  12.136  13.152  1.00  0.00    -0.550 OA
ENDBRANCH   4   5
ENDBRANCH   3   4
ENDBRANCH   2   3
ENDBRANCH   1   2
BRANCH   1   8
ATOM      8  C   UNL     1     -19.482  11.892  18.824  1.00  0.00     0.000 C 
BRANCH   8   9
ATOM      9  C   UNL     1     -19.582  10.554  18.071  1.00  0.00    -0.000 C 
BRANCH   9  10
ATOM     10  C   UNL     1     -21.035  10.134  17.804  1.00  0.00    -0.000 C 
BRANCH  10  11
ATOM     11  C   UNL     1     -21.550  10.622  16.440  1.00  0.00    -0.000 C 
BRANCH  11  12
ATOM     12  C   UNL     1     -22.626  11.699  16.615  1.00  0.00    -0.003 C 
ATOM     13  C   UNL     1     -23.159  11.720  18.044  1.00  0.00     0.004 C 
ENDBRANCH  11  12
ENDBRANCH  10  11
ENDBRANCH   9  10
ENDBRANCH   8   9
ENDBRANCH   1   8
TORSDOF 9
ENDMDL
