MODEL 1
REMARK VINA RESULT:    -2.779      0.000      0.000
REMARK INTER + INTRA:          -3.510
REMARK INTER:                  -3.429
REMARK INTRA:                  -0.081
REMARK UNBOUND:                -0.081
REMARK SMILES CCCCCC(=O)[O-]
REMARK SMILES IDX 4 1 5 2 6 3 7 4 8 5 3 6 2 7 1 8
REMARK H PARENT
REMARK Flexibility Score: inf
ROOT
ATOM      1  C   UNL     1      31.097  17.083  51.960  1.00  0.00     0.006 C 
ENDROOT
BRANCH   1   2
ATOM      2  C   UNL     1      29.921  17.615  51.138  1.00  0.00     0.053 C 
BRANCH   2   3
ATOM      3  C   UNL     1      28.698  17.742  51.990  1.00  0.00     0.041 C 
ATOM      4  O   UNL     1      28.701  18.501  52.994  1.00  0.00    -0.550 OA
ATOM      5  O   UNL     1      27.538  17.059  51.647  1.00  0.00    -0.550 OA
ENDBRANCH   2   3
ENDBRANCH   1   2
BRANCH   1   6
ATOM      6  C   UNL     1      32.353  16.928  51.089  1.00  0.00     0.000 C 
BRANCH   6   7
ATOM      7  C   UNL     1      33.123  15.633  51.387  1.00  0.00    -0.003 C 
ATOM      8  C   UNL     1      32.876  15.112  52.802  1.00  0.00     0.004 C 
ENDBRANCH   6   7
ENDBRANCH   1   6
TORSDOF 4
ENDMDL
MODEL 2
REMARK VINA RESULT:    -2.676     11.654     12.239
REMARK INTER + INTRA:          -3.383
REMARK INTER:                  -3.319
REMARK INTRA:                  -0.064
REMARK UNBOUND:                -0.081
REMARK SMILES CCCCCC(=O)[O-]
REMARK SMILES IDX 4 1 5 2 6 3 7 4 8 5 3 6 2 7 1 8
REMARK H PARENT
REMARK Flexibility Score: inf
ROOT
ATOM      1  C   UNL     1      22.803  17.965  42.132  1.00  0.00     0.006 C 
ENDROOT
BRANCH   1   2
ATOM      2  C   UNL     1      22.546  17.093  43.364  1.00  0.00     0.053 C 
BRANCH   2   3
ATOM      3  C   UNL     1      22.960  15.680  43.102  1.00  0.00     0.041 C 
ATOM      4  O   UNL     1      22.966  15.228  41.927  1.00  0.00    -0.550 OA
ATOM      5  O   UNL     1      23.388  14.875  44.151  1.00  0.00    -0.550 OA
ENDBRANCH   2   3
ENDBRANCH   1   2
BRANCH   1   6
ATOM      6  C   UNL     1      23.921  18.982  42.402  1.00  0.00     0.000 C 
BRANCH   6   7
ATOM      7  C   UNL     1      24.541  19.537  41.110  1.00  0.00    -0.003 C 
ATOM      8  C   UNL     1      25.689  20.509  41.376  1.00  0.00     0.004 C 
ENDBRANCH   6   7
ENDBRANCH   1   6
TORSDOF 4
ENDMDL
MODEL 3
REMARK VINA RESULT:    -2.654     18.062     19.069
REMARK INTER + INTRA:          -3.356
REMARK INTER:                  -3.151
REMARK INTRA:                  -0.205
REMARK UNBOUND:                -0.081
REMARK SMILES CCCCCC(=O)[O-]
REMARK SMILES IDX 4 1 5 2 6 3 7 4 8 5 3 6 2 7 1 8
REMARK H PARENT
REMARK Flexibility Score: inf
ROOT
ATOM      1  C   UNL     1      15.847  29.312  55.026  1.00  0.00     0.006 C 
ENDROOT
BRANCH   1   2
ATOM      2  C   UNL     1      15.096  28.009  54.741  1.00  0.00     0.053 C 
BRANCH   2   3
ATOM      3  C   UNL     1      14.586  27.994  53.335  1.00  0.00     0.041 C 
ATOM      4  O   UNL     1      13.349  28.049  53.108  1.00  0.00    -0.550 OA
ATOM      5  O   UNL     1      15.480  27.970  52.271  1.00  0.00    -0.550 OA
ENDBRANCH   2   3
ENDBRANCH   1   2
BRANCH   1   6
ATOM      6  C   UNL     1      17.264  29.027  55.547  1.00  0.00     0.000 C 
BRANCH   6   7
ATOM      7  C   UNL     1      18.358  29.561  54.609  1.00  0.00    -0.003 C 
ATOM      8  C   UNL     1      17.798  30.435  53.487  1.00  0.00     0.004 C 
ENDBRANCH   6   7
ENDBRANCH   1   6
TORSDOF 4
ENDMDL
MODEL 4
REMARK VINA RESULT:    -2.633     12.041     13.582
REMARK INTER + INTRA:          -3.331
REMARK INTER:                  -3.103
REMARK INTRA:                  -0.228
REMARK UNBOUND:                -0.081
REMARK SMILES CCCCCC(=O)[O-]
REMARK SMILES IDX 4 1 5 2 6 3 7 4 8 5 3 6 2 7 1 8
REMARK H PARENT
REMARK Flexibility Score: inf
ROOT
ATOM      1  C   UNL     1      16.626  17.531  53.034  1.00  0.00     0.006 C 
ENDROOT
BRANCH   1   2
ATOM      2  C   UNL     1      16.226  18.450  54.190  1.00  0.00     0.053 C 
BRANCH   2   3
ATOM      3  C   UNL     1      17.433  18.867  54.970  1.00  0.00     0.041 C 
ATOM      4  O   UNL     1      17.577  18.493  56.164  1.00  0.00    -0.550 OA
ATOM      5  O   UNL     1      18.424  19.629  54.364  1.00  0.00    -0.550 OA
ENDBRANCH   2   3
ENDBRANCH   1   2
BRANCH   1   6
ATOM      6  C   UNL     1      16.469  18.245  51.683  1.00  0.00     0.000 C 
BRANCH   6   7
ATOM      7  C   UNL     1      17.763  18.233  50.854  1.00  0.00    -0.003 C 
ATOM      8  C   UNL     1      18.921  17.548  51.578  1.00  0.00     0.004 C 
ENDBRANCH   6   7
ENDBRANCH   1   6
TORSDOF 4
ENDMDL
MODEL 5
REMARK VINA RESULT:    -2.630     16.707     17.731
REMARK INTER + INTRA:          -3.327
REMARK INTER:                  -3.270
REMARK INTRA:                  -0.056
REMARK UNBOUND:                -0.081
REMARK SMILES CCCCCC(=O)[O-]
REMARK SMILES IDX 4 1 5 2 6 3 7 4 8 5 3 6 2 7 1 8
REMARK H PARENT
REMARK Flexibility Score: inf
ROOT
ATOM      1  C   UNL     1      20.007  29.891  55.365  1.00  0.00     0.006 C 
ENDROOT
BRANCH   1   2
ATOM      2  C   UNL     1      20.597  29.281  56.639  1.00  0.00     0.053 C 
BRANCH   2   3
ATOM      3  C   UNL     1      21.676  30.158  57.190  1.00  0.00     0.041 C 
ATOM      4  O   UNL     1      21.653  30.510  58.398  1.00  0.00    -0.550 OA
ATOM      5  O   UNL     1      22.736  30.548  56.380  1.00  0.00    -0.550 OA
ENDBRANCH   2   3
ENDBRANCH   1   2
BRANCH   1   6
ATOM      6  C   UNL     1      18.818  29.061  54.858  1.00  0.00     0.000 C 
BRANCH   6   7
ATOM      7  C   UNL     1      17.702  29.930  54.257  1.00  0.00    -0.003 C 
ATOM      8  C   UNL     1      16.318  29.569  54.795  1.00  0.00     0.004 C 
ENDBRANCH   6   7
ENDBRANCH   1   6
TORSDOF 4
ENDMDL
MODEL 6
REMARK VINA RESULT:    -2.619      1.315      2.126
REMARK INTER + INTRA:          -3.313
REMARK INTER:                  -3.267
REMARK INTRA:                  -0.046
REMARK UNBOUND:                -0.081
REMARK SMILES CCCCCC(=O)[O-]
REMARK SMILES IDX 4 1 5 2 6 3 7 4 8 5 3 6 2 7 1 8
REMARK H PARENT
REMARK Flexibility Score: inf
ROOT
ATOM      1  C   UNL     1      29.246  17.138  51.477  1.00  0.00     0.006 C 
ENDROOT
BRANCH   1   2
ATOM      2  C   UNL     1      28.422  18.338  51.953  1.00  0.00     0.053 C 
BRANCH   2   3
ATOM      3  C   UNL     1      27.016  17.923  52.251  1.00  0.00     0.041 C 
ATOM      4  O   UNL     1      26.384  17.197  51.440  1.00  0.00    -0.550 OA
ATOM      5  O   UNL     1      26.421  18.297  53.449  1.00  0.00    -0.550 OA
ENDBRANCH   2   3
ENDBRANCH   1   2
BRANCH   1   6
ATOM      6  C   UNL     1      30.695  17.551  51.177  1.00  0.00     0.000 C 
BRANCH   6   7
ATOM      7  C   UNL     1      31.722  16.705  51.945  1.00  0.00    -0.003 C 
ATOM      8  C   UNL     1      32.754  16.051  51.027  1.00  0.00     0.004 C 
ENDBRANCH   6   7
ENDBRANCH   1   6
TORSDOF 4
ENDMDL
MODEL 7
REMARK VINA RESULT:    -2.613     16.820     18.124
REMARK INTER + INTRA:          -3.306
REMARK INTER:                  -3.177
REMARK INTRA:                  -0.128
REMARK UNBOUND:                -0.081
REMARK SMILES CCCCCC(=O)[O-]
REMARK SMILES IDX 4 1 5 2 6 3 7 4 8 5 3 6 2 7 1 8
REMARK H PARENT
REMARK Flexibility Score: inf
ROOT
ATOM      1  C   UNL     1      18.770  29.884  54.556  1.00  0.00     0.006 C 
ENDROOT
BRANCH   1   2
ATOM      2  C   UNL     1      18.948  28.729  55.545  1.00  0.00     0.053 C 
BRANCH   2   3
ATOM      3  C   UNL     1      20.015  29.052  56.542  1.00  0.00     0.041 C 
ATOM      4  O   UNL     1      20.099  28.399  57.615  1.00  0.00    -0.550 OA
ATOM      5  O   UNL     1      20.950  30.041  56.264  1.00  0.00    -0.550 OA
ENDBRANCH   2   3
ENDBRANCH   1   2
BRANCH   1   6
ATOM      6  C   UNL     1      17.322  29.955  54.048  1.00  0.00     0.000 C 
BRANCH   6   7
ATOM      7  C   UNL     1      16.299  29.530  55.114  1.00  0.00    -0.003 C 
ATOM      8  C   UNL     1      15.219  28.602  54.559  1.00  0.00     0.004 C 
ENDBRANCH   6   7
ENDBRANCH   1   6
TORSDOF 4
ENDMDL
MODEL 8
REMARK VINA RESULT:    -2.571     13.361     14.143
REMARK INTER + INTRA:          -3.254
REMARK INTER:                  -3.177
REMARK INTRA:                  -0.077
REMARK UNBOUND:                -0.081
REMARK SMILES CCCCCC(=O)[O-]
REMARK SMILES IDX 4 1 5 2 6 3 7 4 8 5 3 6 2 7 1 8
REMARK H PARENT
REMARK Flexibility Score: inf
ROOT
ATOM      1  C   UNL     1      17.017  18.780  50.000  1.00  0.00     0.006 C 
ENDROOT
BRANCH   1   2
ATOM      2  C   UNL     1      17.625  18.607  48.605  1.00  0.00     0.053 C 
BRANCH   2   3
ATOM      3  C   UNL     1      16.554  18.612  47.562  1.00  0.00     0.041 C 
ATOM      4  O   UNL     1      16.799  18.199  46.398  1.00  0.00    -0.550 OA
ATOM      5  O   UNL     1      15.268  19.027  47.887  1.00  0.00    -0.550 OA
ENDBRANCH   2   3
ENDBRANCH   1   2
BRANCH   1   6
ATOM      6  C   UNL     1      18.106  18.743  51.083  1.00  0.00     0.000 C 
BRANCH   6   7
ATOM      7  C   UNL     1      17.925  17.575  52.064  1.00  0.00    -0.003 C 
ATOM      8  C   UNL     1      16.514  17.506  52.647  1.00  0.00     0.004 C 
ENDBRANCH   6   7
ENDBRANCH   1   6
TORSDOF 4
ENDMDL
MODEL 9
REMARK VINA RESULT:    -2.563     13.087     13.908
REMARK INTER + INTRA:          -3.244
REMARK INTER:                  -3.162
REMARK INTRA:                  -0.082
REMARK UNBOUND:                -0.081
REMARK SMILES CCCCCC(=O)[O-]
REMARK SMILES IDX 4 1 5 2 6 3 7 4 8 5 3 6 2 7 1 8
REMARK H PARENT
REMARK Flexibility Score: inf
ROOT
ATOM      1  C   UNL     1      16.495  18.284  51.482  1.00  0.00     0.006 C 
ENDROOT
BRANCH   1   2
ATOM      2  C   UNL     1      16.679  17.463  52.762  1.00  0.00     0.053 C 
BRANCH   2   3
ATOM      3  C   UNL     1      16.836  18.364  53.945  1.00  0.00     0.041 C 
ATOM      4  O   UNL     1      17.945  18.912  54.181  1.00  0.00    -0.550 OA
ATOM      5  O   UNL     1      15.745  18.639  54.760  1.00  0.00    -0.550 OA
ENDBRANCH   2   3
ENDBRANCH   1   2
BRANCH   1   6
ATOM      6  C   UNL     1      17.773  18.265  50.629  1.00  0.00     0.000 C 
BRANCH   6   7
ATOM      7  C   UNL     1      17.695  19.218  49.427  1.00  0.00    -0.003 C 
ATOM      8  C   UNL     1      17.432  18.487  48.110  1.00  0.00     0.004 C 
ENDBRANCH   6   7
ENDBRANCH   1   6
TORSDOF 4
ENDMDL
