MODEL 1
REMARK VINA RESULT:    -6.682      0.000      0.000
REMARK INTER + INTRA:          -8.310
REMARK INTER:                  -8.049
REMARK INTRA:                  -0.261
REMARK UNBOUND:                -0.261
REMARK SMILES O=c1c(O)c(-c2ccc(O)c(O)c2)oc2cc(O)cc(O)c12
REMARK SMILES IDX 5 1 3 2 2 3 1 4 22 5 20 6 19 7 17 8 16 9 15 10 14 11 6 12
REMARK SMILES IDX 7 13 8 14 9 15 13 16 11 17 10 18 12 20 4 22 21 24 18 26
REMARK H PARENT 10 19 12 21 4 23 21 25 18 27
REMARK Flexibility Score: inf
ROOT
ATOM      1  C   UNL     1      18.739  -1.572 -17.060  1.00  0.00     0.180 A 
ATOM      2  C   UNL     1      18.139  -0.853 -16.013  1.00  0.00     0.208 A 
ATOM      3  C   UNL     1      17.485  -1.557 -14.989  1.00  0.00     0.238 A 
ATOM      4  O   UNL     1      16.903  -0.905 -14.083  1.00  0.00    -0.285 OA
ATOM      5  C   UNL     1      17.452  -2.972 -15.017  1.00  0.00     0.111 A 
ATOM      6  C   UNL     1      16.852  -3.789 -14.013  1.00  0.00     0.134 A 
ATOM      7  C   UNL     1      16.766  -5.173 -14.209  1.00  0.00     0.093 A 
ATOM      8  C   UNL     1      17.315  -5.776 -15.344  1.00  0.00     0.123 A 
ATOM      9  C   UNL     1      17.955  -4.993 -16.302  1.00  0.00     0.094 A 
ATOM     10  C   UNL     1      18.025  -3.606 -16.151  1.00  0.00     0.146 A 
ATOM     11  O   UNL     1      18.635  -2.896 -17.093  1.00  0.00    -0.452 OA
ENDROOT
BRANCH   1  12
ATOM     12  C   UNL     1      19.468  -0.902 -18.161  1.00  0.00     0.025 A 
ATOM     13  C   UNL     1      20.730  -0.317 -17.953  1.00  0.00     0.016 A 
ATOM     14  C   UNL     1      21.410   0.289 -19.013  1.00  0.00     0.051 A 
ATOM     15  C   UNL     1      20.850   0.310 -20.293  1.00  0.00     0.157 A 
ATOM     16  C   UNL     1      18.919  -0.898 -19.453  1.00  0.00     0.062 A 
ATOM     17  C   UNL     1      19.599  -0.289 -20.517  1.00  0.00     0.158 A 
BRANCH  15  18
ATOM     18  O   UNL     1      21.553   0.924 -21.330  1.00  0.00    -0.504 OA
ATOM     19  H   UNL     1      21.491   1.920 -21.505  1.00  0.00     0.293 HD
ENDBRANCH  15  18
BRANCH  17  20
ATOM     20  O   UNL     1      19.039  -0.279 -21.793  1.00  0.00    -0.504 OA
ATOM     21  H   UNL     1      19.476   0.216 -22.562  1.00  0.00     0.293 HD
ENDBRANCH  17  20
ENDBRANCH   1  12
BRANCH   2  22
ATOM     22  O   UNL     1      18.164   0.545 -16.015  1.00  0.00    -0.502 OA
ATOM     23  H   UNL     1      17.655   1.098 -16.694  1.00  0.00     0.293 HD
ENDBRANCH   2  22
BRANCH   6  24
ATOM     24  O   UNL     1      16.356  -3.299 -12.801  1.00  0.00    -0.507 OA
ATOM     25  H   UNL     1      16.212  -2.322 -12.592  1.00  0.00     0.293 HD
ENDBRANCH   6  24
BRANCH   8  26
ATOM     26  O   UNL     1      17.237  -7.155 -15.524  1.00  0.00    -0.508 OA
ATOM     27  H   UNL     1      16.913  -7.558 -16.394  1.00  0.00     0.293 HD
ENDBRANCH   8  26
TORSDOF 6
ENDMDL
MODEL 2
REMARK VINA RESULT:    -6.144      1.209      2.837
REMARK INTER + INTRA:          -7.663
REMARK INTER:                  -7.549
REMARK INTRA:                  -0.114
REMARK UNBOUND:                -0.261
REMARK SMILES O=c1c(O)c(-c2ccc(O)c(O)c2)oc2cc(O)cc(O)c12
REMARK SMILES IDX 5 1 3 2 2 3 1 4 22 5 20 6 19 7 17 8 16 9 15 10 14 11 6 12
REMARK SMILES IDX 7 13 8 14 9 15 13 16 11 17 10 18 12 20 4 22 21 24 18 26
REMARK H PARENT 10 19 12 21 4 23 21 25 18 27
REMARK Flexibility Score: inf
ROOT
ATOM      1  C   UNL     1      18.747  -2.150 -17.279  1.00  0.00     0.180 A 
ATOM      2  C   UNL     1      18.565  -3.523 -17.515  1.00  0.00     0.208 A 
ATOM      3  C   UNL     1      17.893  -4.297 -16.554  1.00  0.00     0.238 A 
ATOM      4  O   UNL     1      17.781  -5.535 -16.745  1.00  0.00    -0.285 OA
ATOM      5  C   UNL     1      17.398  -3.684 -15.377  1.00  0.00     0.111 A 
ATOM      6  C   UNL     1      16.669  -4.362 -14.355  1.00  0.00     0.134 A 
ATOM      7  C   UNL     1      16.342  -3.685 -13.175  1.00  0.00     0.093 A 
ATOM      8  C   UNL     1      16.661  -2.335 -13.006  1.00  0.00     0.123 A 
ATOM      9  C   UNL     1      17.321  -1.648 -14.023  1.00  0.00     0.094 A 
ATOM     10  C   UNL     1      17.693  -2.307 -15.197  1.00  0.00     0.146 A 
ATOM     11  O   UNL     1      18.330  -1.617 -16.136  1.00  0.00    -0.452 OA
ENDROOT
BRANCH   1  12
ATOM     12  C   UNL     1      19.423  -1.265 -18.256  1.00  0.00     0.025 A 
ATOM     13  C   UNL     1      20.621  -0.604 -17.936  1.00  0.00     0.016 A 
ATOM     14  C   UNL     1      21.254   0.207 -18.882  1.00  0.00     0.051 A 
ATOM     15  C   UNL     1      20.709   0.359 -20.161  1.00  0.00     0.157 A 
ATOM     16  C   UNL     1      18.890  -1.126 -19.547  1.00  0.00     0.062 A 
ATOM     17  C   UNL     1      19.523  -0.312 -20.498  1.00  0.00     0.158 A 
BRANCH  15  18
ATOM     18  O   UNL     1      21.363   1.177 -21.083  1.00  0.00    -0.504 OA
ATOM     19  H   UNL     1      22.373   1.254 -21.111  1.00  0.00     0.293 HD
ENDBRANCH  15  18
BRANCH  17  20
ATOM     20  O   UNL     1      18.978  -0.171 -21.773  1.00  0.00    -0.504 OA
ATOM     21  H   UNL     1      18.961   0.725 -22.247  1.00  0.00     0.293 HD
ENDBRANCH  17  20
ENDBRANCH   1  12
BRANCH   2  22
ATOM     22  O   UNL     1      19.079  -4.113 -18.673  1.00  0.00    -0.502 OA
ATOM     23  H   UNL     1      19.669  -3.609 -19.324  1.00  0.00     0.293 HD
ENDBRANCH   2  22
BRANCH   6  24
ATOM     24  O   UNL     1      16.221  -5.683 -14.462  1.00  0.00    -0.507 OA
ATOM     25  H   UNL     1      15.580  -6.126 -13.819  1.00  0.00     0.293 HD
ENDBRANCH   6  24
BRANCH   8  26
ATOM     26  O   UNL     1      16.318  -1.664 -11.834  1.00  0.00    -0.508 OA
ATOM     27  H   UNL     1      15.368  -1.362 -11.655  1.00  0.00     0.293 HD
ENDBRANCH   8  26
TORSDOF 6
ENDMDL
MODEL 3
REMARK VINA RESULT:    -6.133      7.729     11.139
REMARK INTER + INTRA:          -7.649
REMARK INTER:                  -7.320
REMARK INTRA:                  -0.329
REMARK UNBOUND:                -0.261
REMARK SMILES O=c1c(O)c(-c2ccc(O)c(O)c2)oc2cc(O)cc(O)c12
REMARK SMILES IDX 5 1 3 2 2 3 1 4 22 5 20 6 19 7 17 8 16 9 15 10 14 11 6 12
REMARK SMILES IDX 7 13 8 14 9 15 13 16 11 17 10 18 12 20 4 22 21 24 18 26
REMARK H PARENT 10 19 12 21 4 23 21 25 18 27
REMARK Flexibility Score: inf
ROOT
ATOM      1  C   UNL     1      11.204  -6.336 -10.799  1.00  0.00     0.180 A 
ATOM      2  C   UNL     1      10.913  -6.583  -9.446  1.00  0.00     0.208 A 
ATOM      3  C   UNL     1       9.750  -7.298  -9.119  1.00  0.00     0.238 A 
ATOM      4  O   UNL     1       9.467  -7.469  -7.905  1.00  0.00    -0.285 OA
ATOM      5  C   UNL     1       8.900  -7.770 -10.148  1.00  0.00     0.111 A 
ATOM      6  C   UNL     1       7.717  -8.538  -9.934  1.00  0.00     0.134 A 
ATOM      7  C   UNL     1       6.884  -8.841 -11.018  1.00  0.00     0.093 A 
ATOM      8  C   UNL     1       7.225  -8.457 -12.317  1.00  0.00     0.123 A 
ATOM      9  C   UNL     1       8.407  -7.758 -12.545  1.00  0.00     0.094 A 
ATOM     10  C   UNL     1       9.241  -7.410 -11.479  1.00  0.00     0.146 A 
ATOM     11  O   UNL     1      10.354  -6.734 -11.738  1.00  0.00    -0.452 OA
ENDROOT
BRANCH   1  12
ATOM     12  C   UNL     1      12.424  -5.611 -11.224  1.00  0.00     0.025 A 
ATOM     13  C   UNL     1      13.648  -6.279 -11.396  1.00  0.00     0.016 A 
ATOM     14  C   UNL     1      14.781  -5.580 -11.821  1.00  0.00     0.051 A 
ATOM     15  C   UNL     1      14.706  -4.210 -12.092  1.00  0.00     0.157 A 
ATOM     16  C   UNL     1      12.347  -4.240 -11.517  1.00  0.00     0.062 A 
ATOM     17  C   UNL     1      13.483  -3.536 -11.943  1.00  0.00     0.158 A 
BRANCH  15  18
ATOM     18  O   UNL     1      15.854  -3.538 -12.513  1.00  0.00    -0.504 OA
ATOM     19  H   UNL     1      16.520  -3.960 -13.148  1.00  0.00     0.293 HD
ENDBRANCH  15  18
BRANCH  17  20
ATOM     20  O   UNL     1      13.399  -2.172 -12.219  1.00  0.00    -0.504 OA
ATOM     21  H   UNL     1      12.655  -1.791 -12.792  1.00  0.00     0.293 HD
ENDBRANCH  17  20
ENDBRANCH   1  12
BRANCH   2  22
ATOM     22  O   UNL     1      11.754  -6.090  -8.445  1.00  0.00    -0.502 OA
ATOM     23  H   UNL     1      12.698  -6.432  -8.308  1.00  0.00     0.293 HD
ENDBRANCH   2  22
BRANCH   6  24
ATOM     24  O   UNL     1       7.333  -9.050  -8.690  1.00  0.00    -0.507 OA
ATOM     25  H   UNL     1       7.695  -9.899  -8.281  1.00  0.00     0.293 HD
ENDBRANCH   6  24
BRANCH   8  26
ATOM     26  O   UNL     1       6.397  -8.775 -13.392  1.00  0.00    -0.508 OA
ATOM     27  H   UNL     1       6.670  -8.578 -14.347  1.00  0.00     0.293 HD
ENDBRANCH   8  26
TORSDOF 6
ENDMDL
MODEL 4
REMARK VINA RESULT:    -5.959      7.684     12.722
REMARK INTER + INTRA:          -7.439
REMARK INTER:                  -7.137
REMARK INTRA:                  -0.302
REMARK UNBOUND:                -0.261
REMARK SMILES O=c1c(O)c(-c2ccc(O)c(O)c2)oc2cc(O)cc(O)c12
REMARK SMILES IDX 5 1 3 2 2 3 1 4 22 5 20 6 19 7 17 8 16 9 15 10 14 11 6 12
REMARK SMILES IDX 7 13 8 14 9 15 13 16 11 17 10 18 12 20 4 22 21 24 18 26
REMARK H PARENT 10 19 12 21 4 23 21 25 18 27
REMARK Flexibility Score: inf
ROOT
ATOM      1  C   UNL     1      10.976  -6.573  -9.736  1.00  0.00     0.180 A 
ATOM      2  C   UNL     1      10.855  -7.759 -10.480  1.00  0.00     0.208 A 
ATOM      3  C   UNL     1      11.858  -8.089 -11.406  1.00  0.00     0.238 A 
ATOM      4  O   UNL     1      11.718  -9.124 -12.107  1.00  0.00    -0.285 OA
ATOM      5  C   UNL     1      12.977  -7.236 -11.565  1.00  0.00     0.111 A 
ATOM      6  C   UNL     1      14.072  -7.490 -12.445  1.00  0.00     0.134 A 
ATOM      7  C   UNL     1      15.061  -6.515 -12.618  1.00  0.00     0.093 A 
ATOM      8  C   UNL     1      15.028  -5.320 -11.894  1.00  0.00     0.123 A 
ATOM      9  C   UNL     1      13.996  -5.087 -10.988  1.00  0.00     0.094 A 
ATOM     10  C   UNL     1      12.975  -6.027 -10.822  1.00  0.00     0.146 A 
ATOM     11  O   UNL     1      12.004  -5.760  -9.956  1.00  0.00    -0.452 OA
ENDROOT
BRANCH   1  12
ATOM     12  C   UNL     1       9.973  -6.171  -8.724  1.00  0.00     0.025 A 
ATOM     13  C   UNL     1      10.187  -6.395  -7.353  1.00  0.00     0.016 A 
ATOM     14  C   UNL     1       9.237  -5.985  -6.414  1.00  0.00     0.051 A 
ATOM     15  C   UNL     1       8.069  -5.337  -6.826  1.00  0.00     0.157 A 
ATOM     16  C   UNL     1       8.809  -5.501  -9.133  1.00  0.00     0.062 A 
ATOM     17  C   UNL     1       7.853  -5.090  -8.191  1.00  0.00     0.158 A 
BRANCH  15  18
ATOM     18  O   UNL     1       7.138  -4.941  -5.865  1.00  0.00    -0.504 OA
ATOM     19  H   UNL     1       6.952  -5.495  -5.037  1.00  0.00     0.293 HD
ENDBRANCH  15  18
BRANCH  17  20
ATOM     20  O   UNL     1       6.695  -4.437  -8.609  1.00  0.00    -0.504 OA
ATOM     21  H   UNL     1       6.102  -3.936  -7.956  1.00  0.00     0.293 HD
ENDBRANCH  17  20
ENDBRANCH   1  12
BRANCH   2  22
ATOM     22  O   UNL     1       9.733  -8.577 -10.322  1.00  0.00    -0.502 OA
ATOM     23  H   UNL     1       9.799  -9.542 -10.024  1.00  0.00     0.293 HD
ENDBRANCH   2  22
BRANCH   6  24
ATOM     24  O   UNL     1      14.248  -8.688 -13.145  1.00  0.00    -0.507 OA
ATOM     25  H   UNL     1      15.051  -9.293 -13.056  1.00  0.00     0.293 HD
ENDBRANCH   6  24
BRANCH   8  26
ATOM     26  O   UNL     1      16.025  -4.360 -12.061  1.00  0.00    -0.508 OA
ATOM     27  H   UNL     1      16.202  -3.652 -11.359  1.00  0.00     0.293 HD
ENDBRANCH   8  26
TORSDOF 6
ENDMDL
MODEL 5
REMARK VINA RESULT:    -5.917      7.903     10.081
REMARK INTER + INTRA:          -7.389
REMARK INTER:                  -7.103
REMARK INTRA:                  -0.285
REMARK UNBOUND:                -0.261
REMARK SMILES O=c1c(O)c(-c2ccc(O)c(O)c2)oc2cc(O)cc(O)c12
REMARK SMILES IDX 5 1 3 2 2 3 1 4 22 5 20 6 19 7 17 8 16 9 15 10 14 11 6 12
REMARK SMILES IDX 7 13 8 14 9 15 13 16 11 17 10 18 12 20 4 22 21 24 18 26
REMARK H PARENT 10 19 12 21 4 23 21 25 18 27
REMARK Flexibility Score: inf
ROOT
ATOM      1  C   UNL     1      19.097  -2.137  -8.190  1.00  0.00     0.180 A 
ATOM      2  C   UNL     1      19.038  -2.703  -6.905  1.00  0.00     0.208 A 
ATOM      3  C   UNL     1      20.232  -3.091  -6.276  1.00  0.00     0.238 A 
ATOM      4  O   UNL     1      20.169  -3.646  -5.148  1.00  0.00    -0.285 OA
ATOM      5  C   UNL     1      21.471  -2.894  -6.933  1.00  0.00     0.111 A 
ATOM      6  C   UNL     1      22.745  -3.213  -6.374  1.00  0.00     0.134 A 
ATOM      7  C   UNL     1      23.895  -3.096  -7.164  1.00  0.00     0.093 A 
ATOM      8  C   UNL     1      23.823  -2.611  -8.473  1.00  0.00     0.123 A 
ATOM      9  C   UNL     1      22.592  -2.242  -9.008  1.00  0.00     0.094 A 
ATOM     10  C   UNL     1      21.423  -2.381  -8.256  1.00  0.00     0.146 A 
ATOM     11  O   UNL     1      20.268  -2.027  -8.807  1.00  0.00    -0.452 OA
ENDROOT
BRANCH   1  12
ATOM     12  C   UNL     1      17.884  -1.681  -8.907  1.00  0.00     0.025 A 
ATOM     13  C   UNL     1      17.556  -0.317  -8.993  1.00  0.00     0.016 A 
ATOM     14  C   UNL     1      16.419   0.092  -9.696  1.00  0.00     0.051 A 
ATOM     15  C   UNL     1      15.603  -0.850 -10.331  1.00  0.00     0.157 A 
ATOM     16  C   UNL     1      17.075  -2.622  -9.564  1.00  0.00     0.062 A 
ATOM     17  C   UNL     1      15.933  -2.213 -10.269  1.00  0.00     0.158 A 
BRANCH  15  18
ATOM     18  O   UNL     1      14.474  -0.410 -11.023  1.00  0.00    -0.504 OA
ATOM     19  H   UNL     1      13.566  -0.342 -10.581  1.00  0.00     0.293 HD
ENDBRANCH  15  18
BRANCH  17  20
ATOM     20  O   UNL     1      15.128  -3.156 -10.907  1.00  0.00    -0.504 OA
ATOM     21  H   UNL     1      14.275  -3.501 -10.483  1.00  0.00     0.293 HD
ENDBRANCH  17  20
ENDBRANCH   1  12
BRANCH   2  22
ATOM     22  O   UNL     1      17.804  -2.908  -6.283  1.00  0.00    -0.502 OA
ATOM     23  H   UNL     1      17.650  -3.649  -5.610  1.00  0.00     0.293 HD
ENDBRANCH   2  22
BRANCH   6  24
ATOM     24  O   UNL     1      22.937  -3.617  -5.049  1.00  0.00    -0.507 OA
ATOM     25  H   UNL     1      22.212  -3.984  -4.450  1.00  0.00     0.293 HD
ENDBRANCH   6  24
BRANCH   8  26
ATOM     26  O   UNL     1      24.975  -2.485  -9.247  1.00  0.00    -0.508 OA
ATOM     27  H   UNL     1      25.797  -3.049  -9.070  1.00  0.00     0.293 HD
ENDBRANCH   8  26
TORSDOF 6
ENDMDL
MODEL 6
REMARK VINA RESULT:    -5.693      5.337      7.679
REMARK INTER + INTRA:          -7.119
REMARK INTER:                  -6.802
REMARK INTRA:                  -0.317
REMARK UNBOUND:                -0.261
REMARK SMILES O=c1c(O)c(-c2ccc(O)c(O)c2)oc2cc(O)cc(O)c12
REMARK SMILES IDX 5 1 3 2 2 3 1 4 22 5 20 6 19 7 17 8 16 9 15 10 14 11 6 12
REMARK SMILES IDX 7 13 8 14 9 15 13 16 11 17 10 18 12 20 4 22 21 24 18 26
REMARK H PARENT 10 19 12 21 4 23 21 25 18 27
REMARK Flexibility Score: inf
ROOT
ATOM      1  C   UNL     1      15.900  -1.259 -11.394  1.00  0.00     0.180 A 
ATOM      2  C   UNL     1      15.833  -2.644 -11.162  1.00  0.00     0.208 A 
ATOM      3  C   UNL     1      16.548  -3.189 -10.083  1.00  0.00     0.238 A 
ATOM      4  O   UNL     1      16.528  -4.435  -9.913  1.00  0.00    -0.285 OA
ATOM      5  C   UNL     1      17.309  -2.341  -9.242  1.00  0.00     0.111 A 
ATOM      6  C   UNL     1      18.041  -2.779  -8.098  1.00  0.00     0.134 A 
ATOM      7  C   UNL     1      18.862  -1.874  -7.415  1.00  0.00     0.093 A 
ATOM      8  C   UNL     1      18.928  -0.531  -7.797  1.00  0.00     0.123 A 
ATOM      9  C   UNL     1      18.172  -0.081  -8.876  1.00  0.00     0.094 A 
ATOM     10  C   UNL     1      17.371  -0.969  -9.599  1.00  0.00     0.146 A 
ATOM     11  O   UNL     1      16.674  -0.500 -10.628  1.00  0.00    -0.452 OA
ENDROOT
BRANCH   1  12
ATOM     12  C   UNL     1      15.154  -0.608 -12.495  1.00  0.00     0.025 A 
ATOM     13  C   UNL     1      13.793  -0.280 -12.363  1.00  0.00     0.016 A 
ATOM     14  C   UNL     1      13.116   0.356 -13.407  1.00  0.00     0.051 A 
ATOM     15  C   UNL     1      13.786   0.686 -14.589  1.00  0.00     0.157 A 
ATOM     16  C   UNL     1      15.829  -0.257 -13.675  1.00  0.00     0.062 A 
ATOM     17  C   UNL     1      15.151   0.381 -14.724  1.00  0.00     0.158 A 
BRANCH  15  18
ATOM     18  O   UNL     1      13.082   1.319 -15.613  1.00  0.00    -0.504 OA
ATOM     19  H   UNL     1      13.514   2.012 -16.212  1.00  0.00     0.293 HD
ENDBRANCH  15  18
BRANCH  17  20
ATOM     20  O   UNL     1      15.827   0.714 -15.896  1.00  0.00    -0.504 OA
ATOM     21  H   UNL     1      16.486   1.484 -15.930  1.00  0.00     0.293 HD
ENDBRANCH  17  20
ENDBRANCH   1  12
BRANCH   2  22
ATOM     22  O   UNL     1      15.094  -3.465 -12.017  1.00  0.00    -0.502 OA
ATOM     23  H   UNL     1      14.610  -3.108 -12.832  1.00  0.00     0.293 HD
ENDBRANCH   2  22
BRANCH   6  24
ATOM     24  O   UNL     1      17.973  -4.076  -7.578  1.00  0.00    -0.507 OA
ATOM     25  H   UNL     1      18.550  -4.847  -7.881  1.00  0.00     0.293 HD
ENDBRANCH   6  24
BRANCH   8  26
ATOM     26  O   UNL     1      19.737   0.366  -7.102  1.00  0.00    -0.508 OA
ATOM     27  H   UNL     1      19.858   1.321  -7.415  1.00  0.00     0.293 HD
ENDBRANCH   8  26
TORSDOF 6
ENDMDL
MODEL 7
REMARK VINA RESULT:    -5.679      6.413      9.237
REMARK INTER + INTRA:          -7.102
REMARK INTER:                  -6.817
REMARK INTRA:                  -0.285
REMARK UNBOUND:                -0.261
REMARK SMILES O=c1c(O)c(-c2ccc(O)c(O)c2)oc2cc(O)cc(O)c12
REMARK SMILES IDX 5 1 3 2 2 3 1 4 22 5 20 6 19 7 17 8 16 9 15 10 14 11 6 12
REMARK SMILES IDX 7 13 8 14 9 15 13 16 11 17 10 18 12 20 4 22 21 24 18 26
REMARK H PARENT 10 19 12 21 4 23 21 25 18 27
REMARK Flexibility Score: inf
ROOT
ATOM      1  C   UNL     1      17.946  -2.112  -9.180  1.00  0.00     0.180 A 
ATOM      2  C   UNL     1      17.164  -0.947  -9.101  1.00  0.00     0.208 A 
ATOM      3  C   UNL     1      16.098  -0.780  -9.999  1.00  0.00     0.238 A 
ATOM      4  O   UNL     1      15.435   0.289  -9.959  1.00  0.00    -0.285 OA
ATOM      5  C   UNL     1      15.816  -1.787 -10.954  1.00  0.00     0.111 A 
ATOM      6  C   UNL     1      14.737  -1.742 -11.886  1.00  0.00     0.134 A 
ATOM      7  C   UNL     1      14.632  -2.732 -12.870  1.00  0.00     0.093 A 
ATOM      8  C   UNL     1      15.531  -3.801 -12.915  1.00  0.00     0.123 A 
ATOM      9  C   UNL     1      16.553  -3.886 -11.973  1.00  0.00     0.094 A 
ATOM     10  C   UNL     1      16.705  -2.894 -11.002  1.00  0.00     0.146 A 
ATOM     11  O   UNL     1      17.699  -3.008 -10.129  1.00  0.00    -0.452 OA
ENDROOT
BRANCH   1  12
ATOM     12  C   UNL     1      19.071  -2.371  -8.252  1.00  0.00     0.025 A 
ATOM     13  C   UNL     1      20.404  -2.139  -8.636  1.00  0.00     0.016 A 
ATOM     14  C   UNL     1      21.448  -2.368  -7.736  1.00  0.00     0.051 A 
ATOM     15  C   UNL     1      21.178  -2.816  -6.439  1.00  0.00     0.157 A 
ATOM     16  C   UNL     1      18.803  -2.801  -6.943  1.00  0.00     0.062 A 
ATOM     17  C   UNL     1      19.850  -3.032  -6.038  1.00  0.00     0.158 A 
BRANCH  15  18
ATOM     18  O   UNL     1      22.242  -3.036  -5.564  1.00  0.00    -0.504 OA
ATOM     19  H   UNL     1      23.198  -2.816  -5.814  1.00  0.00     0.293 HD
ENDBRANCH  15  18
BRANCH  17  20
ATOM     20  O   UNL     1      19.574  -3.471  -4.744  1.00  0.00    -0.504 OA
ATOM     21  H   UNL     1      19.103  -2.878  -4.071  1.00  0.00     0.293 HD
ENDBRANCH  17  20
ENDBRANCH   1  12
BRANCH   2  22
ATOM     22  O   UNL     1      17.472   0.044  -8.165  1.00  0.00    -0.502 OA
ATOM     23  H   UNL     1      18.382   0.115  -7.726  1.00  0.00     0.293 HD
ENDBRANCH   2  22
BRANCH   6  24
ATOM     24  O   UNL     1      13.732  -0.769 -11.870  1.00  0.00    -0.507 OA
ATOM     25  H   UNL     1      12.889  -0.804 -12.424  1.00  0.00     0.293 HD
ENDBRANCH   6  24
BRANCH   8  26
ATOM     26  O   UNL     1      15.410  -4.790 -13.890  1.00  0.00    -0.508 OA
ATOM     27  H   UNL     1      14.773  -5.570 -13.776  1.00  0.00     0.293 HD
ENDBRANCH   8  26
TORSDOF 6
ENDMDL
MODEL 8
REMARK VINA RESULT:    -5.665      8.319     10.584
REMARK INTER + INTRA:          -7.085
REMARK INTER:                  -6.785
REMARK INTRA:                  -0.300
REMARK UNBOUND:                -0.261
REMARK SMILES O=c1c(O)c(-c2ccc(O)c(O)c2)oc2cc(O)cc(O)c12
REMARK SMILES IDX 5 1 3 2 2 3 1 4 22 5 20 6 19 7 17 8 16 9 15 10 14 11 6 12
REMARK SMILES IDX 7 13 8 14 9 15 13 16 11 17 10 18 12 20 4 22 21 24 18 26
REMARK H PARENT 10 19 12 21 4 23 21 25 18 27
REMARK Flexibility Score: inf
ROOT
ATOM      1  C   UNL     1      12.541   4.013 -18.286  1.00  0.00     0.180 A 
ATOM      2  C   UNL     1      13.237   3.129 -17.442  1.00  0.00     0.208 A 
ATOM      3  C   UNL     1      14.415   3.569 -16.819  1.00  0.00     0.238 A 
ATOM      4  O   UNL     1      15.063   2.757 -16.108  1.00  0.00    -0.285 OA
ATOM      5  C   UNL     1      14.875   4.891 -17.033  1.00  0.00     0.111 A 
ATOM      6  C   UNL     1      16.035   5.455 -16.422  1.00  0.00     0.134 A 
ATOM      7  C   UNL     1      16.468   6.729 -16.807  1.00  0.00     0.093 A 
ATOM      8  C   UNL     1      15.747   7.485 -17.735  1.00  0.00     0.123 A 
ATOM      9  C   UNL     1      14.581   6.967 -18.294  1.00  0.00     0.094 A 
ATOM     10  C   UNL     1      14.144   5.684 -17.956  1.00  0.00     0.146 A 
ATOM     11  O   UNL     1      13.033   5.224 -18.520  1.00  0.00    -0.452 OA
ENDROOT
BRANCH   1  12
ATOM     12  C   UNL     1      11.279   3.630 -18.959  1.00  0.00     0.025 A 
ATOM     13  C   UNL     1      11.268   3.173 -20.288  1.00  0.00     0.016 A 
ATOM     14  C   UNL     1      10.068   2.794 -20.895  1.00  0.00     0.051 A 
ATOM     15  C   UNL     1       8.866   2.854 -20.183  1.00  0.00     0.157 A 
ATOM     16  C   UNL     1      10.073   3.669 -18.241  1.00  0.00     0.062 A 
ATOM     17  C   UNL     1       8.867   3.290 -18.848  1.00  0.00     0.158 A 
BRANCH  15  18
ATOM     18  O   UNL     1       7.683   2.471 -20.817  1.00  0.00    -0.504 OA
ATOM     19  H   UNL     1       6.916   3.117 -20.957  1.00  0.00     0.293 HD
ENDBRANCH  15  18
BRANCH  17  20
ATOM     20  O   UNL     1       7.673   3.345 -18.130  1.00  0.00    -0.504 OA
ATOM     21  H   UNL     1       7.289   2.525 -17.676  1.00  0.00     0.293 HD
ENDBRANCH  17  20
ENDBRANCH   1  12
BRANCH   2  22
ATOM     22  O   UNL     1      12.777   1.822 -17.261  1.00  0.00    -0.502 OA
ATOM     23  H   UNL     1      13.358   1.011 -17.437  1.00  0.00     0.293 HD
ENDBRANCH   2  22
BRANCH   6  24
ATOM     24  O   UNL     1      16.774   4.822 -15.417  1.00  0.00    -0.507 OA
ATOM     25  H   UNL     1      17.453   5.281 -14.828  1.00  0.00     0.293 HD
ENDBRANCH   6  24
BRANCH   8  26
ATOM     26  O   UNL     1      16.178   8.759 -18.102  1.00  0.00    -0.508 OA
ATOM     27  H   UNL     1      15.584   9.387 -18.629  1.00  0.00     0.293 HD
ENDBRANCH   8  26
TORSDOF 6
ENDMDL
MODEL 9
REMARK VINA RESULT:    -5.547      7.245     12.563
REMARK INTER + INTRA:          -6.943
REMARK INTER:                  -6.707
REMARK INTRA:                  -0.236
REMARK UNBOUND:                -0.261
REMARK SMILES O=c1c(O)c(-c2ccc(O)c(O)c2)oc2cc(O)cc(O)c12
REMARK SMILES IDX 5 1 3 2 2 3 1 4 22 5 20 6 19 7 17 8 16 9 15 10 14 11 6 12
REMARK SMILES IDX 7 13 8 14 9 15 13 16 11 17 10 18 12 20 4 22 21 24 18 26
REMARK H PARENT 10 19 12 21 4 23 21 25 18 27
REMARK Flexibility Score: inf
ROOT
ATOM      1  C   UNL     1      11.546  -6.884 -10.261  1.00  0.00     0.180 A 
ATOM      2  C   UNL     1      11.731  -7.817 -11.295  1.00  0.00     0.208 A 
ATOM      3  C   UNL     1      12.882  -7.728 -12.095  1.00  0.00     0.238 A 
ATOM      4  O   UNL     1      13.016  -8.533 -13.054  1.00  0.00    -0.285 OA
ATOM      5  C   UNL     1      13.840  -6.717 -11.842  1.00  0.00     0.111 A 
ATOM      6  C   UNL     1      15.060  -6.557 -12.564  1.00  0.00     0.134 A 
ATOM      7  C   UNL     1      15.871  -5.444 -12.313  1.00  0.00     0.093 A 
ATOM      8  C   UNL     1      15.537  -4.519 -11.320  1.00  0.00     0.123 A 
ATOM      9  C   UNL     1      14.378  -4.698 -10.569  1.00  0.00     0.094 A 
ATOM     10  C   UNL     1      13.530  -5.779 -10.822  1.00  0.00     0.146 A 
ATOM     11  O   UNL     1      12.429  -5.907 -10.090  1.00  0.00    -0.452 OA
ENDROOT
BRANCH   1  12
ATOM     12  C   UNL     1      10.372  -6.928  -9.360  1.00  0.00     0.025 A 
ATOM     13  C   UNL     1       9.328  -5.994  -9.473  1.00  0.00     0.016 A 
ATOM     14  C   UNL     1       8.217  -6.070  -8.627  1.00  0.00     0.051 A 
ATOM     15  C   UNL     1       8.127  -7.083  -7.668  1.00  0.00     0.157 A 
ATOM     16  C   UNL     1      10.268  -7.957  -8.410  1.00  0.00     0.062 A 
ATOM     17  C   UNL     1       9.155  -8.034  -7.559  1.00  0.00     0.158 A 
BRANCH  15  18
ATOM     18  O   UNL     1       7.007  -7.132  -6.838  1.00  0.00    -0.504 OA
ATOM     19  H   UNL     1       6.569  -8.007  -6.578  1.00  0.00     0.293 HD
ENDBRANCH  15  18
BRANCH  17  20
ATOM     20  O   UNL     1       9.067  -9.052  -6.611  1.00  0.00    -0.504 OA
ATOM     21  H   UNL     1       8.838  -8.858  -5.643  1.00  0.00     0.293 HD
ENDBRANCH  17  20
ENDBRANCH   1  12
BRANCH   2  22
ATOM     22  O   UNL     1      10.763  -8.794 -11.542  1.00  0.00    -0.502 OA
ATOM     23  H   UNL     1      10.545  -9.526 -10.876  1.00  0.00     0.293 HD
ENDBRANCH   2  22
BRANCH   6  24
ATOM     24  O   UNL     1      15.533  -7.472 -13.511  1.00  0.00    -0.507 OA
ATOM     25  H   UNL     1      15.711  -8.448 -13.327  1.00  0.00     0.293 HD
ENDBRANCH   6  24
BRANCH   8  26
ATOM     26  O   UNL     1      16.358  -3.421 -11.066  1.00  0.00    -0.508 OA
ATOM     27  H   UNL     1      17.097  -3.155 -11.705  1.00  0.00     0.293 HD
ENDBRANCH   8  26
TORSDOF 6
ENDMDL
