MODEL 1
REMARK VINA RESULT:    -3.934      0.000      0.000
REMARK INTER + INTRA:          -5.649
REMARK INTER:                  -5.544
REMARK INTRA:                  -0.105
REMARK UNBOUND:                -0.105
REMARK SMILES CC1=CCC(=C(C)C)C(=O)CC(C)=CCC1
REMARK SMILES IDX 12 1 14 2 13 3 15 4 16 5 2 6 1 7 3 8 11 10 9 11 10 12 5 13
REMARK SMILES IDX 6 14 7 15 8 16 4 17
REMARK H PARENT
REMARK Flexibility Score: 60.00
ROOT
ATOM      1  C   UNL     1      49.488  22.257  19.684  1.00  0.00    -0.070 C 
ATOM      2  C   UNL     1      49.050  22.814  20.836  1.00  0.00    -0.027 C 
ATOM      3  C   UNL     1      49.655  20.759  19.638  1.00  0.00     0.039 C 
ENDROOT
BRANCH   2   4
ATOM      4  C   UNL     1      48.689  24.267  21.010  1.00  0.00     0.032 C 
BRANCH   4   5
ATOM      5  C   UNL     1      49.778  24.980  21.821  1.00  0.00     0.034 C 
BRANCH   5   6
ATOM      6  C   UNL     1      50.161  26.319  21.225  1.00  0.00    -0.077 C 
ATOM      7  C   UNL     1      49.359  27.537  21.610  1.00  0.00     0.039 C 
ATOM      8  C   UNL     1      51.144  26.477  20.304  1.00  0.00    -0.023 CG0
ATOM      9  G   UNL     1      52.118  25.425  19.805  1.00  0.00     0.000 G0
ENDBRANCH   5   6
ENDBRANCH   4   5
ENDBRANCH   2   4
BRANCH   1  10
ATOM     10  C   UNL     1      49.840  23.063  18.449  1.00  0.00     0.111 C 
BRANCH  10  11
ATOM     11  C   UNL     1      51.308  23.412  18.403  1.00  0.00     0.163 C 
ATOM     12  O   UNL     1      52.124  22.452  18.351  1.00  0.00    -0.294 OA
BRANCH  11  13
ATOM     13  C   UNL     1      51.833  24.817  18.440  1.00  0.00    -0.002 C 
ATOM     14  C   UNL     1      52.191  25.457  17.284  1.00  0.00    -0.069 C 
ATOM     15  C   UNL     1      51.813  24.905  15.927  1.00  0.00     0.039 C 
ATOM     16  C   UNL     1      52.936  26.773  17.292  1.00  0.00     0.039 C 
BRANCH  13  17
ATOM     17  C   UNL     1      52.126  25.433  19.804  1.00  0.00     0.066 CG0
ATOM     18  G   UNL     1      51.131  26.462  20.310  1.00  0.00     0.000 G0
ENDBRANCH  13  17
ENDBRANCH  11  13
ENDBRANCH  10  11
ENDBRANCH   1  10
TORSDOF 0
ENDMDL
MODEL 2
REMARK VINA RESULT:    -3.785      1.852      3.909
REMARK INTER + INTRA:          -5.438
REMARK INTER:                  -5.410
REMARK INTRA:                  -0.029
REMARK UNBOUND:                -0.105
REMARK SMILES CC1=CCC(=C(C)C)C(=O)CC(C)=CCC1
REMARK SMILES IDX 12 1 14 2 13 3 15 4 16 5 2 6 1 7 3 8 11 10 9 11 10 12 5 13
REMARK SMILES IDX 6 14 7 15 8 16 4 17
REMARK H PARENT
REMARK Flexibility Score: 60.00
ROOT
ATOM      1  C   UNL     1      49.993  22.659  19.948  1.00  0.00    -0.070 C 
ATOM      2  C   UNL     1      50.270  22.398  18.650  1.00  0.00    -0.027 C 
ATOM      3  C   UNL     1      49.017  21.758  20.660  1.00  0.00     0.039 C 
ENDROOT
BRANCH   2   4
ATOM      4  C   UNL     1      51.324  23.100  17.833  1.00  0.00     0.032 C 
BRANCH   4   5
ATOM      5  C   UNL     1      50.680  24.211  16.995  1.00  0.00     0.034 C 
BRANCH   5   6
ATOM      6  C   UNL     1      51.577  25.423  16.850  1.00  0.00    -0.077 C 
ATOM      7  C   UNL     1      52.730  25.356  15.879  1.00  0.00     0.039 C 
ATOM      8  C   UNL     1      51.449  26.546  17.599  1.00  0.00    -0.023 CG0
ATOM      9  G   UNL     1      50.347  26.872  18.591  1.00  0.00     0.000 G0
ENDBRANCH   5   6
ENDBRANCH   4   5
ENDBRANCH   2   4
BRANCH   1  10
ATOM     10  C   UNL     1      50.596  23.821  20.712  1.00  0.00     0.111 C 
BRANCH  10  11
ATOM     11  C   UNL     1      49.866  25.114  20.438  1.00  0.00     0.163 C 
ATOM     12  O   UNL     1      48.610  25.100  20.558  1.00  0.00    -0.294 OA
BRANCH  11  13
ATOM     13  C   UNL     1      50.545  26.384  20.018  1.00  0.00    -0.002 C 
ATOM     14  C   UNL     1      51.190  27.167  20.938  1.00  0.00    -0.069 C 
ATOM     15  C   UNL     1      51.492  26.661  22.330  1.00  0.00     0.039 C 
ATOM     16  C   UNL     1      51.683  28.557  20.604  1.00  0.00     0.039 C 
BRANCH  13  17
ATOM     17  C   UNL     1      50.338  26.862  18.584  1.00  0.00     0.066 CG0
ATOM     18  G   UNL     1      51.450  26.550  17.599  1.00  0.00     0.000 G0
ENDBRANCH  13  17
ENDBRANCH  11  13
ENDBRANCH  10  11
ENDBRANCH   1  10
TORSDOF 0
ENDMDL
MODEL 3
REMARK VINA RESULT:    -3.447      1.983      4.339
REMARK INTER + INTRA:          -4.962
REMARK INTER:                  -5.372
REMARK INTRA:                   0.410
REMARK UNBOUND:                -0.105
REMARK SMILES CC1=CCC(=C(C)C)C(=O)CC(C)=CCC1
REMARK SMILES IDX 12 1 14 2 13 3 15 4 16 5 2 6 1 7 3 8 11 10 9 11 10 12 5 13
REMARK SMILES IDX 6 14 7 15 8 16 4 17
REMARK H PARENT
REMARK Flexibility Score: 60.00
ROOT
ATOM      1  C   UNL     1      51.372  25.836  17.628  1.00  0.00    -0.070 C 
ATOM      2  C   UNL     1      51.346  24.492  17.486  1.00  0.00    -0.027 C 
ATOM      3  C   UNL     1      52.640  26.565  17.261  1.00  0.00     0.039 C 
ENDROOT
BRANCH   2   4
ATOM      4  C   UNL     1      50.125  23.627  17.663  1.00  0.00     0.032 C 
BRANCH   4   5
ATOM      5  C   UNL     1      50.448  22.456  18.599  1.00  0.00     0.034 C 
BRANCH   5   6
ATOM      6  C   UNL     1      49.747  22.573  19.937  1.00  0.00    -0.077 C 
ATOM      7  C   UNL     1      48.579  21.661  20.223  1.00  0.00     0.039 C 
ATOM      8  C   UNL     1      50.063  23.504  20.871  1.00  0.00    -0.023 CG0
ATOM      9  G   UNL     1      51.221  24.485  20.841  1.00  0.00     0.000 G0
ENDBRANCH   5   6
ENDBRANCH   4   5
ENDBRANCH   2   4
BRANCH   1  10
ATOM     10  C   UNL     1      50.201  26.641  18.157  1.00  0.00     0.111 C 
BRANCH  10  11
ATOM     11  C   UNL     1      49.867  26.277  19.584  1.00  0.00     0.163 C 
ATOM     12  O   UNL     1      48.648  26.271  19.904  1.00  0.00    -0.294 OA
BRANCH  11  13
ATOM     13  C   UNL     1      50.898  25.950  20.625  1.00  0.00    -0.002 C 
ATOM     14  C   UNL     1      51.627  26.944  21.219  1.00  0.00    -0.069 C 
ATOM     15  C   UNL     1      51.242  28.399  21.075  1.00  0.00     0.039 C 
ATOM     16  C   UNL     1      52.825  26.648  22.093  1.00  0.00     0.039 C 
BRANCH  13  17
ATOM     17  C   UNL     1      51.230  24.480  20.862  1.00  0.00     0.066 CG0
ATOM     18  G   UNL     1      50.058  23.515  20.875  1.00  0.00     0.000 G0
ENDBRANCH  13  17
ENDBRANCH  11  13
ENDBRANCH  10  11
ENDBRANCH   1  10
TORSDOF 0
ENDMDL
MODEL 4
REMARK VINA RESULT:    -3.381      1.678      2.057
REMARK INTER + INTRA:          -4.870
REMARK INTER:                  -4.899
REMARK INTRA:                   0.029
REMARK UNBOUND:                -0.105
REMARK SMILES CC1=CCC(=C(C)C)C(=O)CC(C)=CCC1
REMARK SMILES IDX 12 1 14 2 13 3 15 4 16 5 2 6 1 7 3 8 11 10 9 11 10 12 5 13
REMARK SMILES IDX 6 14 7 15 8 16 4 17
REMARK H PARENT
REMARK Flexibility Score: 60.00
ROOT
ATOM      1  C   UNL     1      49.942  24.158  20.054  1.00  0.00    -0.070 C 
ATOM      2  C   UNL     1      50.034  24.285  21.397  1.00  0.00    -0.027 C 
ATOM      3  C   UNL     1      49.840  22.769  19.477  1.00  0.00     0.039 C 
ENDROOT
BRANCH   2   4
ATOM      4  C   UNL     1      49.995  25.593  22.146  1.00  0.00     0.032 C 
BRANCH   4   5
ATOM      5  C   UNL     1      51.390  26.229  22.154  1.00  0.00     0.034 C 
BRANCH   5   6
ATOM      6  C   UNL     1      51.360  27.695  21.771  1.00  0.00    -0.077 C 
ATOM      7  C   UNL     1      50.625  28.661  22.667  1.00  0.00     0.039 C 
ATOM      8  C   UNL     1      51.898  28.182  20.626  1.00  0.00    -0.023 CG0
ATOM      9  G   UNL     1      52.729  27.428  19.603  1.00  0.00     0.000 G0
ENDBRANCH   5   6
ENDBRANCH   4   5
ENDBRANCH   2   4
BRANCH   1  10
ATOM     10  C   UNL     1      49.958  25.337  19.101  1.00  0.00     0.111 C 
BRANCH  10  11
ATOM     11  C   UNL     1      51.322  25.546  18.488  1.00  0.00     0.163 C 
ATOM     12  O   UNL     1      51.930  24.519  18.079  1.00  0.00    -0.294 OA
BRANCH  11  13
ATOM     13  C   UNL     1      51.986  26.886  18.364  1.00  0.00    -0.002 C 
ATOM     14  C   UNL     1      52.061  27.516  17.151  1.00  0.00    -0.069 C 
ATOM     15  C   UNL     1      51.249  27.046  15.966  1.00  0.00     0.039 C 
ATOM     16  C   UNL     1      52.916  28.746  16.938  1.00  0.00     0.039 C 
BRANCH  13  17
ATOM     17  C   UNL     1      52.727  27.429  19.582  1.00  0.00     0.066 CG0
ATOM     18  G   UNL     1      51.888  28.160  20.614  1.00  0.00     0.000 G0
ENDBRANCH  13  17
ENDBRANCH  11  13
ENDBRANCH  10  11
ENDBRANCH   1  10
TORSDOF 0
ENDMDL
MODEL 5
REMARK VINA RESULT:    -3.366      1.660      2.276
REMARK INTER + INTRA:          -4.849
REMARK INTER:                  -5.082
REMARK INTRA:                   0.233
REMARK UNBOUND:                -0.105
REMARK SMILES CC1=CCC(=C(C)C)C(=O)CC(C)=CCC1
REMARK SMILES IDX 12 1 14 2 13 3 15 4 16 5 2 6 1 7 3 8 11 10 9 11 10 12 5 13
REMARK SMILES IDX 6 14 7 15 8 16 4 17
REMARK H PARENT
REMARK Flexibility Score: 60.00
ROOT
ATOM      1  C   UNL     1      49.185  23.876  20.791  1.00  0.00    -0.070 C 
ATOM      2  C   UNL     1      48.093  24.644  21.011  1.00  0.00    -0.027 C 
ATOM      3  C   UNL     1      49.019  22.626  19.964  1.00  0.00     0.039 C 
ENDROOT
BRANCH   2   4
ATOM      4  C   UNL     1      48.106  25.992  21.685  1.00  0.00     0.032 C 
BRANCH   4   5
ATOM      5  C   UNL     1      48.191  27.100  20.629  1.00  0.00     0.034 C 
BRANCH   5   6
ATOM      6  C   UNL     1      49.571  27.721  20.551  1.00  0.00    -0.077 C 
ATOM      7  C   UNL     1      49.931  28.808  21.533  1.00  0.00     0.039 C 
ATOM      8  C   UNL     1      50.483  27.406  19.597  1.00  0.00    -0.023 CG0
ATOM      9  G   UNL     1      50.379  26.317  18.545  1.00  0.00     0.000 G0
ENDBRANCH   5   6
ENDBRANCH   4   5
ENDBRANCH   2   4
BRANCH   1  10
ATOM     10  C   UNL     1      50.557  24.198  21.350  1.00  0.00     0.111 C 
BRANCH  10  11
ATOM     11  C   UNL     1      51.486  24.734  20.288  1.00  0.00     0.163 C 
ATOM     12  O   UNL     1      52.668  24.996  20.639  1.00  0.00    -0.294 OA
BRANCH  11  13
ATOM     13  C   UNL     1      51.072  24.987  18.868  1.00  0.00    -0.002 C 
ATOM     14  C   UNL     1      51.438  24.122  17.872  1.00  0.00    -0.069 C 
ATOM     15  C   UNL     1      52.009  22.757  18.182  1.00  0.00     0.039 C 
ATOM     16  C   UNL     1      51.245  24.454  16.409  1.00  0.00     0.039 C 
BRANCH  13  17
ATOM     17  C   UNL     1      50.399  26.318  18.548  1.00  0.00     0.066 CG0
ATOM     18  G   UNL     1      50.473  27.389  19.620  1.00  0.00     0.000 G0
ENDBRANCH  13  17
ENDBRANCH  11  13
ENDBRANCH  10  11
ENDBRANCH   1  10
TORSDOF 0
ENDMDL
MODEL 6
REMARK VINA RESULT:    -3.319      8.532     10.777
REMARK INTER + INTRA:          -4.782
REMARK INTER:                  -4.676
REMARK INTRA:                  -0.107
REMARK UNBOUND:                -0.105
REMARK SMILES CC1=CCC(=C(C)C)C(=O)CC(C)=CCC1
REMARK SMILES IDX 12 1 14 2 13 3 15 4 16 5 2 6 1 7 3 8 11 10 9 11 10 12 5 13
REMARK SMILES IDX 6 14 7 15 8 16 4 17
REMARK H PARENT
REMARK Flexibility Score: 60.00
ROOT
ATOM      1  C   UNL     1      43.523  22.473  21.360  1.00  0.00    -0.070 C 
ATOM      2  C   UNL     1      43.749  23.585  20.624  1.00  0.00    -0.027 C 
ATOM      3  C   UNL     1      43.952  21.145  20.790  1.00  0.00     0.039 C 
ENDROOT
BRANCH   2   4
ATOM      4  C   UNL     1      43.520  24.997  21.100  1.00  0.00     0.032 C 
BRANCH   4   5
ATOM      5  C   UNL     1      42.141  25.484  20.639  1.00  0.00     0.034 C 
BRANCH   5   6
ATOM      6  C   UNL     1      41.369  26.170  21.748  1.00  0.00    -0.077 C 
ATOM      7  C   UNL     1      41.760  27.573  22.140  1.00  0.00     0.039 C 
ATOM      8  C   UNL     1      40.386  25.566  22.462  1.00  0.00    -0.023 CG0
ATOM      9  G   UNL     1      39.781  24.195  22.222  1.00  0.00     0.000 G0
ENDBRANCH   5   6
ENDBRANCH   4   5
ENDBRANCH   2   4
BRANCH   1  10
ATOM     10  C   UNL     1      42.842  22.493  22.715  1.00  0.00     0.111 C 
BRANCH  10  11
ATOM     11  C   UNL     1      41.370  22.174  22.610  1.00  0.00     0.163 C 
ATOM     12  O   UNL     1      41.056  21.103  22.024  1.00  0.00    -0.294 OA
BRANCH  11  13
ATOM     13  C   UNL     1      40.284  23.064  23.139  1.00  0.00    -0.002 C 
ATOM     14  C   UNL     1      39.658  22.772  24.321  1.00  0.00    -0.069 C 
ATOM     15  C   UNL     1      40.212  21.734  25.271  1.00  0.00     0.039 C 
ATOM     16  C   UNL     1      38.413  23.502  24.772  1.00  0.00     0.039 C 
BRANCH  13  17
ATOM     17  C   UNL     1      39.779  24.186  22.237  1.00  0.00     0.066 CG0
ATOM     18  G   UNL     1      40.386  25.559  22.459  1.00  0.00     0.000 G0
ENDBRANCH  13  17
ENDBRANCH  11  13
ENDBRANCH  10  11
ENDBRANCH   1  10
TORSDOF 0
ENDMDL
MODEL 7
REMARK VINA RESULT:    -3.287      8.245     10.247
REMARK INTER + INTRA:          -4.737
REMARK INTER:                  -4.629
REMARK INTRA:                  -0.107
REMARK UNBOUND:                -0.105
REMARK SMILES CC1=CCC(=C(C)C)C(=O)CC(C)=CCC1
REMARK SMILES IDX 12 1 14 2 13 3 15 4 16 5 2 6 1 7 3 8 11 10 9 11 10 12 5 13
REMARK SMILES IDX 6 14 7 15 8 16 4 17
REMARK H PARENT
REMARK Flexibility Score: 60.00
ROOT
ATOM      1  C   UNL     1      39.686  21.980  23.095  1.00  0.00    -0.070 C 
ATOM      2  C   UNL     1      40.408  20.900  22.720  1.00  0.00    -0.027 C 
ATOM      3  C   UNL     1      38.207  21.798  23.330  1.00  0.00     0.039 C 
ENDROOT
BRANCH   2   4
ATOM      4  C   UNL     1      41.909  20.869  22.586  1.00  0.00     0.032 C 
BRANCH   4   5
ATOM      5  C   UNL     1      42.313  21.249  21.157  1.00  0.00     0.034 C 
BRANCH   5   6
ATOM      6  C   UNL     1      43.535  22.144  21.118  1.00  0.00    -0.077 C 
ATOM      7  C   UNL     1      44.873  21.558  21.494  1.00  0.00     0.039 C 
ATOM      8  C   UNL     1      43.485  23.470  20.834  1.00  0.00    -0.023 CG0
ATOM      9  G   UNL     1      42.280  24.270  20.375  1.00  0.00     0.000 G0
ENDBRANCH   5   6
ENDBRANCH   4   5
ENDBRANCH   2   4
BRANCH   1  10
ATOM     10  C   UNL     1      40.282  23.363  23.269  1.00  0.00     0.111 C 
BRANCH  10  11
ATOM     11  C   UNL     1      40.246  24.157  21.986  1.00  0.00     0.163 C 
ATOM     12  O   UNL     1      39.166  24.146  21.335  1.00  0.00    -0.294 OA
BRANCH  11  13
ATOM     13  C   UNL     1      41.417  24.924  21.445  1.00  0.00    -0.002 C 
ATOM     14  C   UNL     1      41.610  26.234  21.790  1.00  0.00    -0.069 C 
ATOM     15  C   UNL     1      40.843  26.872  22.927  1.00  0.00     0.039 C 
ATOM     16  C   UNL     1      42.632  27.105  21.096  1.00  0.00     0.039 C 
BRANCH  13  17
ATOM     17  C   UNL     1      42.269  24.259  20.369  1.00  0.00     0.066 CG0
ATOM     18  G   UNL     1      43.486  23.490  20.848  1.00  0.00     0.000 G0
ENDBRANCH  13  17
ENDBRANCH  11  13
ENDBRANCH  10  11
ENDBRANCH   1  10
TORSDOF 0
ENDMDL
MODEL 8
REMARK VINA RESULT:    -3.267      1.961      2.489
REMARK INTER + INTRA:          -4.709
REMARK INTER:                  -4.955
REMARK INTRA:                   0.246
REMARK UNBOUND:                -0.105
REMARK SMILES CC1=CCC(=C(C)C)C(=O)CC(C)=CCC1
REMARK SMILES IDX 12 1 14 2 13 3 15 4 16 5 2 6 1 7 3 8 11 10 9 11 10 12 5 13
REMARK SMILES IDX 6 14 7 15 8 16 4 17
REMARK H PARENT
REMARK Flexibility Score: 60.00
ROOT
ATOM      1  C   UNL     1      51.288  23.897  19.618  1.00  0.00    -0.070 C 
ATOM      2  C   UNL     1      50.082  23.646  20.178  1.00  0.00    -0.027 C 
ATOM      3  C   UNL     1      51.689  23.096  18.406  1.00  0.00     0.039 C 
ENDROOT
BRANCH   2   4
ATOM      4  C   UNL     1      49.464  24.446  21.295  1.00  0.00     0.032 C 
BRANCH   4   5
ATOM      5  C   UNL     1      48.413  25.407  20.727  1.00  0.00     0.034 C 
BRANCH   5   6
ATOM      6  C   UNL     1      48.914  26.836  20.654  1.00  0.00    -0.077 C 
ATOM      7  C   UNL     1      48.663  27.750  21.827  1.00  0.00     0.039 C 
ATOM      8  C   UNL     1      49.515  27.366  19.559  1.00  0.00    -0.023 CG0
ATOM      9  G   UNL     1      49.925  26.640  18.291  1.00  0.00     0.000 G0
ENDBRANCH   5   6
ENDBRANCH   4   5
ENDBRANCH   2   4
BRANCH   1  10
ATOM     10  C   UNL     1      52.261  24.925  20.162  1.00  0.00     0.111 C 
BRANCH  10  11
ATOM     11  C   UNL     1      52.273  26.184  19.328  1.00  0.00     0.163 C 
ATOM     12  O   UNL     1      53.029  27.118  19.710  1.00  0.00    -0.294 OA
BRANCH  11  13
ATOM     13  C   UNL     1      51.430  26.381  18.102  1.00  0.00    -0.002 C 
ATOM     14  C   UNL     1      52.011  26.494  16.868  1.00  0.00    -0.069 C 
ATOM     15  C   UNL     1      53.465  26.144  16.645  1.00  0.00     0.039 C 
ATOM     16  C   UNL     1      51.227  26.923  15.648  1.00  0.00     0.039 C 
BRANCH  13  17
ATOM     17  C   UNL     1      49.938  26.635  18.297  1.00  0.00     0.066 CG0
ATOM     18  G   UNL     1      49.536  27.362  19.567  1.00  0.00     0.000 G0
ENDBRANCH  13  17
ENDBRANCH  11  13
ENDBRANCH  10  11
ENDBRANCH   1  10
TORSDOF 0
ENDMDL
MODEL 9
REMARK VINA RESULT:    -3.207      1.991      4.148
REMARK INTER + INTRA:          -4.624
REMARK INTER:                  -4.716
REMARK INTRA:                   0.092
REMARK UNBOUND:                -0.105
REMARK SMILES CC1=CCC(=C(C)C)C(=O)CC(C)=CCC1
REMARK SMILES IDX 12 1 14 2 13 3 15 4 16 5 2 6 1 7 3 8 11 10 9 11 10 12 5 13
REMARK SMILES IDX 6 14 7 15 8 16 4 17
REMARK H PARENT
REMARK Flexibility Score: 60.00
ROOT
ATOM      1  C   UNL     1      49.567  25.062  20.769  1.00  0.00    -0.070 C 
ATOM      2  C   UNL     1      50.060  23.917  20.245  1.00  0.00    -0.027 C 
ATOM      3  C   UNL     1      49.708  25.282  22.254  1.00  0.00     0.039 C 
ENDROOT
BRANCH   2   4
ATOM      4  C   UNL     1      50.136  23.603  18.773  1.00  0.00     0.032 C 
BRANCH   4   5
ATOM      5  C   UNL     1      51.592  23.686  18.298  1.00  0.00     0.034 C 
BRANCH   5   6
ATOM      6  C   UNL     1      51.830  24.852  17.361  1.00  0.00    -0.077 C 
ATOM      7  C   UNL     1      51.700  24.624  15.875  1.00  0.00     0.039 C 
ATOM      8  C   UNL     1      52.227  26.081  17.777  1.00  0.00    -0.023 CG0
ATOM      9  G   UNL     1      52.370  26.568  19.208  1.00  0.00     0.000 G0
ENDBRANCH   5   6
ENDBRANCH   4   5
ENDBRANCH   2   4
BRANCH   1  10
ATOM     10  C   UNL     1      48.862  26.121  19.945  1.00  0.00     0.111 C 
BRANCH  10  11
ATOM     11  C   UNL     1      49.840  27.069  19.293  1.00  0.00     0.163 C 
ATOM     12  O   UNL     1      49.465  27.640  18.232  1.00  0.00    -0.294 OA
BRANCH  11  13
ATOM     13  C   UNL     1      51.217  27.344  19.823  1.00  0.00    -0.002 C 
ATOM     14  C   UNL     1      51.434  28.374  20.697  1.00  0.00    -0.069 C 
ATOM     15  C   UNL     1      50.287  29.084  21.380  1.00  0.00     0.039 C 
ATOM     16  C   UNL     1      52.826  28.829  21.073  1.00  0.00     0.039 C 
BRANCH  13  17
ATOM     17  C   UNL     1      52.381  26.564  19.220  1.00  0.00     0.066 CG0
ATOM     18  G   UNL     1      52.210  26.092  17.787  1.00  0.00     0.000 G0
ENDBRANCH  13  17
ENDBRANCH  11  13
ENDBRANCH  10  11
ENDBRANCH   1  10
TORSDOF 0
ENDMDL
