MODEL 1
REMARK VINA RESULT:    -3.795      0.000      0.000
REMARK INTER + INTRA:          -6.884
REMARK INTER:                  -5.791
REMARK INTRA:                  -1.093
REMARK UNBOUND:                -1.093
REMARK SMILES O=C([O-])CCCCCCCCC(=O)[O-]
REMARK SMILES IDX 7 1 6 2 5 3 4 4 2 5 1 6 3 7 8 8 9 9 10 10 11 11 12 12 13 13
REMARK SMILES IDX 14 14
REMARK H PARENT
REMARK Flexibility Score: inf
ROOT
ATOM      1  C   UNL     1     -26.492 -21.522 -28.442  1.00  0.00     0.000 C 
ENDROOT
BRANCH   1   2
ATOM      2  C   UNL     1     -26.128 -22.615 -29.463  1.00  0.00     0.000 C 
BRANCH   2   3
ATOM      3  C   UNL     1     -24.803 -22.337 -30.193  1.00  0.00     0.006 C 
BRANCH   3   4
ATOM      4  C   UNL     1     -24.983 -21.377 -31.375  1.00  0.00     0.053 C 
BRANCH   4   5
ATOM      5  C   UNL     1     -24.416 -20.021 -31.082  1.00  0.00     0.041 C 
ATOM      6  O   UNL     1     -23.568 -19.873 -30.163  1.00  0.00    -0.550 OA
ATOM      7  O   UNL     1     -24.804 -18.925 -31.842  1.00  0.00    -0.550 OA
ENDBRANCH   4   5
ENDBRANCH   3   4
ENDBRANCH   2   3
ENDBRANCH   1   2
BRANCH   1   8
ATOM      8  C   UNL     1     -27.856 -20.843 -28.671  1.00  0.00     0.000 C 
BRANCH   8   9
ATOM      9  C   UNL     1     -27.753 -19.557 -29.503  1.00  0.00     0.000 C 
BRANCH   9  10
ATOM     10  C   UNL     1     -28.390 -19.744 -30.885  1.00  0.00     0.006 C 
BRANCH  10  11
ATOM     11  C   UNL     1     -29.100 -21.097 -30.983  1.00  0.00     0.053 C 
BRANCH  11  12
ATOM     12  C   UNL     1     -28.682 -21.819 -32.225  1.00  0.00     0.041 C 
ATOM     13  O   UNL     1     -28.305 -21.173 -33.238  1.00  0.00    -0.550 OA
ATOM     14  O   UNL     1     -28.660 -23.208 -32.248  1.00  0.00    -0.550 OA
ENDBRANCH  11  12
ENDBRANCH  10  11
ENDBRANCH   9  10
ENDBRANCH   8   9
ENDBRANCH   1   8
TORSDOF 9
ENDMDL
MODEL 2
REMARK VINA RESULT:    -3.767     19.729     21.877
REMARK INTER + INTRA:          -6.842
REMARK INTER:                  -5.993
REMARK INTRA:                  -0.849
REMARK UNBOUND:                -1.093
REMARK SMILES O=C([O-])CCCCCCCCC(=O)[O-]
REMARK SMILES IDX 7 1 6 2 5 3 4 4 2 5 1 6 3 7 8 8 9 9 10 10 11 11 12 12 13 13
REMARK SMILES IDX 14 14
REMARK H PARENT
REMARK Flexibility Score: inf
ROOT
ATOM      1  C   UNL     1      -8.885 -35.754 -28.017  1.00  0.00     0.000 C 
ENDROOT
BRANCH   1   2
ATOM      2  C   UNL     1      -8.976 -37.269 -27.757  1.00  0.00     0.000 C 
BRANCH   2   3
ATOM      3  C   UNL     1      -9.797 -37.614 -26.503  1.00  0.00     0.006 C 
BRANCH   3   4
ATOM      4  C   UNL     1     -10.850 -36.545 -26.187  1.00  0.00     0.053 C 
BRANCH   4   5
ATOM      5  C   UNL     1     -10.950 -36.279 -24.716  1.00  0.00     0.041 C 
ATOM      6  O   UNL     1     -10.554 -37.141 -23.887  1.00  0.00    -0.550 OA
ATOM      7  O   UNL     1     -11.456 -35.068 -24.261  1.00  0.00    -0.550 OA
ENDBRANCH   4   5
ENDBRANCH   3   4
ENDBRANCH   2   3
ENDBRANCH   1   2
BRANCH   1   8
ATOM      8  C   UNL     1      -9.159 -35.323 -29.470  1.00  0.00     0.000 C 
BRANCH   8   9
ATOM      9  C   UNL     1     -10.637 -35.453 -29.865  1.00  0.00     0.000 C 
BRANCH   9  10
ATOM     10  C   UNL     1     -11.491 -34.399 -29.150  1.00  0.00     0.006 C 
BRANCH  10  11
ATOM     11  C   UNL     1     -12.940 -34.873 -29.004  1.00  0.00     0.053 C 
BRANCH  11  12
ATOM     12  C   UNL     1     -13.512 -34.413 -27.701  1.00  0.00     0.041 C 
ATOM     13  O   UNL     1     -12.846 -33.654 -26.949  1.00  0.00    -0.550 OA
ATOM     14  O   UNL     1     -14.801 -34.782 -27.338  1.00  0.00    -0.550 OA
ENDBRANCH  11  12
ENDBRANCH  10  11
ENDBRANCH   9  10
ENDBRANCH   8   9
ENDBRANCH   1   8
TORSDOF 9
ENDMDL
MODEL 3
REMARK VINA RESULT:    -3.762     19.481     21.842
REMARK INTER + INTRA:          -6.834
REMARK INTER:                  -5.801
REMARK INTRA:                  -1.033
REMARK UNBOUND:                -1.093
REMARK SMILES O=C([O-])CCCCCCCCC(=O)[O-]
REMARK SMILES IDX 7 1 6 2 5 3 4 4 2 5 1 6 3 7 8 8 9 9 10 10 11 11 12 12 13 13
REMARK SMILES IDX 14 14
REMARK H PARENT
REMARK Flexibility Score: inf
ROOT
ATOM      1  C   UNL     1      -9.203 -35.114 -29.248  1.00  0.00     0.000 C 
ENDROOT
BRANCH   1   2
ATOM      2  C   UNL     1     -10.638 -35.254 -29.792  1.00  0.00     0.000 C 
BRANCH   2   3
ATOM      3  C   UNL     1     -11.614 -34.238 -29.175  1.00  0.00     0.006 C 
BRANCH   3   4
ATOM      4  C   UNL     1     -12.998 -34.848 -28.916  1.00  0.00     0.053 C 
BRANCH   4   5
ATOM      5  C   UNL     1     -13.499 -34.525 -27.541  1.00  0.00     0.041 C 
ATOM      6  O   UNL     1     -12.913 -33.661 -26.838  1.00  0.00    -0.550 OA
ATOM      7  O   UNL     1     -14.631 -35.162 -27.047  1.00  0.00    -0.550 OA
ENDBRANCH   4   5
ENDBRANCH   3   4
ENDBRANCH   2   3
ENDBRANCH   1   2
BRANCH   1   8
ATOM      8  C   UNL     1      -8.907 -35.923 -27.972  1.00  0.00     0.000 C 
BRANCH   8   9
ATOM      9  C   UNL     1      -9.747 -37.204 -27.866  1.00  0.00     0.000 C 
BRANCH   9  10
ATOM     10  C   UNL     1     -10.742 -37.114 -26.703  1.00  0.00     0.006 C 
BRANCH  10  11
ATOM     11  C   UNL     1     -10.465 -35.881 -25.837  1.00  0.00     0.053 C 
BRANCH  11  12
ATOM     12  C   UNL     1     -11.301 -35.914 -24.597  1.00  0.00     0.041 C 
ATOM     13  O   UNL     1     -10.882 -35.380 -23.536  1.00  0.00    -0.550 OA
ATOM     14  O   UNL     1     -12.564 -36.491 -24.625  1.00  0.00    -0.550 OA
ENDBRANCH  11  12
ENDBRANCH  10  11
ENDBRANCH   9  10
ENDBRANCH   8   9
ENDBRANCH   1   8
TORSDOF 9
ENDMDL
MODEL 4
REMARK VINA RESULT:    -3.745     13.212     15.371
REMARK INTER + INTRA:          -6.808
REMARK INTER:                  -6.480
REMARK INTRA:                  -0.328
REMARK UNBOUND:                -1.093
REMARK SMILES O=C([O-])CCCCCCCCC(=O)[O-]
REMARK SMILES IDX 7 1 6 2 5 3 4 4 2 5 1 6 3 7 8 8 9 9 10 10 11 11 12 12 13 13
REMARK SMILES IDX 14 14
REMARK H PARENT
REMARK Flexibility Score: inf
ROOT
ATOM      1  C   UNL     1     -21.719 -24.468 -18.580  1.00  0.00     0.000 C 
ENDROOT
BRANCH   1   2
ATOM      2  C   UNL     1     -22.865 -25.494 -18.658  1.00  0.00     0.000 C 
BRANCH   2   3
ATOM      3  C   UNL     1     -24.134 -25.032 -17.922  1.00  0.00     0.006 C 
BRANCH   3   4
ATOM      4  C   UNL     1     -25.406 -25.649 -18.519  1.00  0.00     0.053 C 
BRANCH   4   5
ATOM      5  C   UNL     1     -26.613 -24.804 -18.249  1.00  0.00     0.041 C 
ATOM      6  O   UNL     1     -26.481 -23.605 -17.888  1.00  0.00    -0.550 OA
ATOM      7  O   UNL     1     -27.886 -25.334 -18.421  1.00  0.00    -0.550 OA
ENDBRANCH   4   5
ENDBRANCH   3   4
ENDBRANCH   2   3
ENDBRANCH   1   2
BRANCH   1   8
ATOM      8  C   UNL     1     -20.348 -24.984 -19.055  1.00  0.00     0.000 C 
BRANCH   8   9
ATOM      9  C   UNL     1     -20.313 -26.508 -19.243  1.00  0.00     0.000 C 
BRANCH   9  10
ATOM     10  C   UNL     1     -18.921 -27.068 -18.929  1.00  0.00     0.006 C 
BRANCH  10  11
ATOM     11  C   UNL     1     -17.878 -25.948 -18.868  1.00  0.00     0.053 C 
BRANCH  11  12
ATOM     12  C   UNL     1     -16.582 -26.467 -18.332  1.00  0.00     0.041 C 
ATOM     13  O   UNL     1     -15.659 -26.803 -19.120  1.00  0.00    -0.550 OA
ATOM     14  O   UNL     1     -16.374 -26.535 -16.960  1.00  0.00    -0.550 OA
ENDBRANCH  11  12
ENDBRANCH  10  11
ENDBRANCH   9  10
ENDBRANCH   8   9
ENDBRANCH   1   8
TORSDOF 9
ENDMDL
MODEL 5
REMARK VINA RESULT:    -3.734     19.986     21.815
REMARK INTER + INTRA:          -6.792
REMARK INTER:                  -5.915
REMARK INTRA:                  -0.877
REMARK UNBOUND:                -1.093
REMARK SMILES O=C([O-])CCCCCCCCC(=O)[O-]
REMARK SMILES IDX 7 1 6 2 5 3 4 4 2 5 1 6 3 7 8 8 9 9 10 10 11 11 12 12 13 13
REMARK SMILES IDX 14 14
REMARK H PARENT
REMARK Flexibility Score: inf
ROOT
ATOM      1  C   UNL     1     -12.724 -33.937 -26.778  1.00  0.00     0.000 C 
ENDROOT
BRANCH   1   2
ATOM      2  C   UNL     1     -12.247 -34.408 -25.392  1.00  0.00     0.000 C 
BRANCH   2   3
ATOM      3  C   UNL     1     -10.884 -35.121 -25.437  1.00  0.00     0.006 C 
BRANCH   3   4
ATOM      4  C   UNL     1     -11.029 -36.648 -25.435  1.00  0.00     0.053 C 
BRANCH   4   5
ATOM      5  C   UNL     1     -11.391 -37.171 -24.078  1.00  0.00     0.041 C 
ATOM      6  O   UNL     1     -12.555 -37.594 -23.851  1.00  0.00    -0.550 OA
ATOM      7  O   UNL     1     -10.435 -37.215 -23.072  1.00  0.00    -0.550 OA
ENDBRANCH   4   5
ENDBRANCH   3   4
ENDBRANCH   2   3
ENDBRANCH   1   2
BRANCH   1   8
ATOM      8  C   UNL     1     -13.875 -34.758 -27.386  1.00  0.00     0.000 C 
BRANCH   8   9
ATOM      9  C   UNL     1     -13.510 -35.395 -28.735  1.00  0.00     0.000 C 
BRANCH   9  10
ATOM     10  C   UNL     1     -12.253 -34.746 -29.326  1.00  0.00     0.006 C 
BRANCH  10  11
ATOM     11  C   UNL     1     -11.146 -35.783 -29.535  1.00  0.00     0.053 C 
BRANCH  11  12
ATOM     12  C   UNL     1      -9.808 -35.191 -29.222  1.00  0.00     0.041 C 
ATOM     13  O   UNL     1      -9.053 -35.743 -28.379  1.00  0.00    -0.550 OA
ATOM     14  O   UNL     1      -9.374 -34.058 -29.898  1.00  0.00    -0.550 OA
ENDBRANCH  11  12
ENDBRANCH  10  11
ENDBRANCH   9  10
ENDBRANCH   8   9
ENDBRANCH   1   8
TORSDOF 9
ENDMDL
MODEL 6
REMARK VINA RESULT:    -3.727     15.369     17.049
REMARK INTER + INTRA:          -6.781
REMARK INTER:                  -6.299
REMARK INTRA:                  -0.482
REMARK UNBOUND:                -1.093
REMARK SMILES O=C([O-])CCCCCCCCC(=O)[O-]
REMARK SMILES IDX 7 1 6 2 5 3 4 4 2 5 1 6 3 7 8 8 9 9 10 10 11 11 12 12 13 13
REMARK SMILES IDX 14 14
REMARK H PARENT
REMARK Flexibility Score: inf
ROOT
ATOM      1  C   UNL     1     -16.207 -26.127 -17.360  1.00  0.00     0.000 C 
ENDROOT
BRANCH   1   2
ATOM      2  C   UNL     1     -15.677 -27.495 -17.829  1.00  0.00     0.000 C 
BRANCH   2   3
ATOM      3  C   UNL     1     -14.452 -27.379 -18.752  1.00  0.00     0.006 C 
BRANCH   3   4
ATOM      4  C   UNL     1     -13.421 -26.374 -18.222  1.00  0.00     0.053 C 
BRANCH   4   5
ATOM      5  C   UNL     1     -12.195 -27.060 -17.699  1.00  0.00     0.041 C 
ATOM      6  O   UNL     1     -12.296 -27.958 -16.821  1.00  0.00    -0.550 OA
ATOM      7  O   UNL     1     -10.944 -26.725 -18.200  1.00  0.00    -0.550 OA
ENDBRANCH   4   5
ENDBRANCH   3   4
ENDBRANCH   2   3
ENDBRANCH   1   2
BRANCH   1   8
ATOM      8  C   UNL     1     -17.628 -25.777 -17.841  1.00  0.00     0.000 C 
BRANCH   8   9
ATOM      9  C   UNL     1     -17.865 -26.132 -19.316  1.00  0.00     0.000 C 
BRANCH   9  10
ATOM     10  C   UNL     1     -19.237 -25.634 -19.786  1.00  0.00     0.006 C 
BRANCH  10  11
ATOM     11  C   UNL     1     -20.306 -26.715 -19.604  1.00  0.00     0.053 C 
BRANCH  11  12
ATOM     12  C   UNL     1     -21.377 -26.242 -18.672  1.00  0.00     0.041 C 
ATOM     13  O   UNL     1     -21.197 -26.283 -17.427  1.00  0.00    -0.550 OA
ATOM     14  O   UNL     1     -22.554 -25.708 -19.180  1.00  0.00    -0.550 OA
ENDBRANCH  11  12
ENDBRANCH  10  11
ENDBRANCH   9  10
ENDBRANCH   8   9
ENDBRANCH   1   8
TORSDOF 9
ENDMDL
MODEL 7
REMARK VINA RESULT:    -3.696      2.333      4.591
REMARK INTER + INTRA:          -6.733
REMARK INTER:                  -5.696
REMARK INTRA:                  -1.037
REMARK UNBOUND:                -1.093
REMARK SMILES O=C([O-])CCCCCCCCC(=O)[O-]
REMARK SMILES IDX 7 1 6 2 5 3 4 4 2 5 1 6 3 7 8 8 9 9 10 10 11 11 12 12 13 13
REMARK SMILES IDX 14 14
REMARK H PARENT
REMARK Flexibility Score: inf
ROOT
ATOM      1  C   UNL     1     -27.889 -21.031 -32.605  1.00  0.00     0.000 C 
ENDROOT
BRANCH   1   2
ATOM      2  C   UNL     1     -28.027 -19.709 -31.826  1.00  0.00     0.000 C 
BRANCH   2   3
ATOM      3  C   UNL     1     -28.665 -19.894 -30.439  1.00  0.00     0.006 C 
BRANCH   3   4
ATOM      4  C   UNL     1     -28.142 -18.875 -29.420  1.00  0.00     0.053 C 
BRANCH   4   5
ATOM      5  C   UNL     1     -28.061 -19.458 -28.042  1.00  0.00     0.041 C 
ATOM      6  O   UNL     1     -27.653 -20.638 -27.874  1.00  0.00    -0.550 OA
ATOM      7  O   UNL     1     -28.411 -18.689 -26.939  1.00  0.00    -0.550 OA
ENDBRANCH   4   5
ENDBRANCH   3   4
ENDBRANCH   2   3
ENDBRANCH   1   2
BRANCH   1   8
ATOM      8  C   UNL     1     -28.116 -22.306 -31.772  1.00  0.00     0.000 C 
BRANCH   8   9
ATOM      9  C   UNL     1     -26.835 -23.130 -31.577  1.00  0.00     0.000 C 
BRANCH   9  10
ATOM     10  C   UNL     1     -26.235 -22.892 -30.187  1.00  0.00     0.006 C 
BRANCH  10  11
ATOM     11  C   UNL     1     -24.764 -22.481 -30.287  1.00  0.00     0.053 C 
BRANCH  11  12
ATOM     12  C   UNL     1     -24.647 -21.058 -30.734  1.00  0.00     0.041 C 
ATOM     13  O   UNL     1     -24.878 -20.119 -29.927  1.00  0.00    -0.550 OA
ATOM     14  O   UNL     1     -24.235 -20.768 -32.028  1.00  0.00    -0.550 OA
ENDBRANCH  11  12
ENDBRANCH  10  11
ENDBRANCH   9  10
ENDBRANCH   8   9
ENDBRANCH   1   8
TORSDOF 9
ENDMDL
MODEL 8
REMARK VINA RESULT:    -3.686      1.664      3.735
REMARK INTER + INTRA:          -6.718
REMARK INTER:                  -5.599
REMARK INTRA:                  -1.118
REMARK UNBOUND:                -1.093
REMARK SMILES O=C([O-])CCCCCCCCC(=O)[O-]
REMARK SMILES IDX 7 1 6 2 5 3 4 4 2 5 1 6 3 7 8 8 9 9 10 10 11 11 12 12 13 13
REMARK SMILES IDX 14 14
REMARK H PARENT
REMARK Flexibility Score: inf
ROOT
ATOM      1  C   UNL     1     -28.740 -19.724 -30.723  1.00  0.00     0.000 C 
ENDROOT
BRANCH   1   2
ATOM      2  C   UNL     1     -29.125 -21.188 -31.006  1.00  0.00     0.000 C 
BRANCH   2   3
ATOM      3  C   UNL     1     -28.446 -21.755 -32.264  1.00  0.00     0.006 C 
BRANCH   3   4
ATOM      4  C   UNL     1     -27.850 -20.651 -33.147  1.00  0.00     0.053 C 
BRANCH   4   5
ATOM      5  C   UNL     1     -26.546 -21.069 -33.756  1.00  0.00     0.041 C 
ATOM      6  O   UNL     1     -25.871 -20.252 -34.434  1.00  0.00    -0.550 OA
ATOM      7  O   UNL     1     -26.064 -22.356 -33.551  1.00  0.00    -0.550 OA
ENDBRANCH   4   5
ENDBRANCH   3   4
ENDBRANCH   2   3
ENDBRANCH   1   2
BRANCH   1   8
ATOM      8  C   UNL     1     -28.269 -19.439 -29.285  1.00  0.00     0.000 C 
BRANCH   8   9
ATOM      9  C   UNL     1     -28.057 -20.716 -28.459  1.00  0.00     0.000 C 
BRANCH   9  10
ATOM     10  C   UNL     1     -26.564 -21.007 -28.271  1.00  0.00     0.006 C 
BRANCH  10  11
ATOM     11  C   UNL     1     -26.127 -22.210 -29.112  1.00  0.00     0.053 C 
BRANCH  11  12
ATOM     12  C   UNL     1     -25.179 -21.781 -30.186  1.00  0.00     0.041 C 
ATOM     13  O   UNL     1     -25.144 -20.578 -30.558  1.00  0.00    -0.550 OA
ATOM     14  O   UNL     1     -24.298 -22.699 -30.744  1.00  0.00    -0.550 OA
ENDBRANCH  11  12
ENDBRANCH  10  11
ENDBRANCH   9  10
ENDBRANCH   8   9
ENDBRANCH   1   8
TORSDOF 9
ENDMDL
MODEL 9
REMARK VINA RESULT:    -3.648     19.196     21.447
REMARK INTER + INTRA:          -6.660
REMARK INTER:                  -5.772
REMARK INTRA:                  -0.888
REMARK UNBOUND:                -1.093
REMARK SMILES O=C([O-])CCCCCCCCC(=O)[O-]
REMARK SMILES IDX 7 1 6 2 5 3 4 4 2 5 1 6 3 7 8 8 9 9 10 10 11 11 12 12 13 13
REMARK SMILES IDX 14 14
REMARK H PARENT
REMARK Flexibility Score: inf
ROOT
ATOM      1  C   UNL     1     -10.877 -35.126 -25.672  1.00  0.00     0.000 C 
ENDROOT
BRANCH   1   2
ATOM      2  C   UNL     1     -12.244 -34.421 -25.605  1.00  0.00     0.000 C 
BRANCH   2   3
ATOM      3  C   UNL     1     -12.786 -34.031 -26.990  1.00  0.00     0.006 C 
BRANCH   3   4
ATOM      4  C   UNL     1     -13.468 -35.209 -27.698  1.00  0.00     0.053 C 
BRANCH   4   5
ATOM      5  C   UNL     1     -14.961 -35.124 -27.605  1.00  0.00     0.041 C 
ATOM      6  O   UNL     1     -15.625 -36.090 -27.145  1.00  0.00    -0.550 OA
ATOM      7  O   UNL     1     -15.618 -33.966 -28.002  1.00  0.00    -0.550 OA
ENDBRANCH   4   5
ENDBRANCH   3   4
ENDBRANCH   2   3
ENDBRANCH   1   2
BRANCH   1   8
ATOM      8  C   UNL     1     -10.903 -36.633 -25.353  1.00  0.00     0.000 C 
BRANCH   8   9
ATOM      9  C   UNL     1     -10.095 -37.471 -26.354  1.00  0.00     0.000 C 
BRANCH   9  10
ATOM     10  C   UNL     1      -9.612 -36.611 -27.527  1.00  0.00     0.006 C 
BRANCH  10  11
ATOM     11  C   UNL     1     -10.216 -37.096 -28.848  1.00  0.00     0.053 C 
BRANCH  11  12
ATOM     12  C   UNL     1     -10.238 -35.987 -29.852  1.00  0.00     0.041 C 
ATOM     13  O   UNL     1     -10.338 -36.246 -31.081  1.00  0.00    -0.550 OA
ATOM     14  O   UNL     1     -10.197 -34.665 -29.429  1.00  0.00    -0.550 OA
ENDBRANCH  11  12
ENDBRANCH  10  11
ENDBRANCH   9  10
ENDBRANCH   8   9
ENDBRANCH   1   8
TORSDOF 9
ENDMDL
