MODEL 1
REMARK VINA RESULT:    -3.416      0.000      0.000
REMARK INTER + INTRA:          -5.231
REMARK INTER:                  -4.814
REMARK INTRA:                  -0.417
REMARK UNBOUND:                -0.417
REMARK SMILES CCCCCCCCC(=O)[O-]
REMARK SMILES IDX 6 1 7 2 8 3 9 4 10 5 11 6 5 7 4 8 3 9 2 10 1 11
REMARK H PARENT
REMARK Flexibility Score: inf
ROOT
ATOM      1  C   UNL     1      57.754  28.807  51.798  1.00  0.00     0.000 C 
ENDROOT
BRANCH   1   2
ATOM      2  C   UNL     1      58.125  28.913  50.311  1.00  0.00     0.006 C 
BRANCH   2   3
ATOM      3  C   UNL     1      59.631  29.109  50.101  1.00  0.00     0.053 C 
BRANCH   3   4
ATOM      4  C   UNL     1      60.325  27.812  49.811  1.00  0.00     0.041 C 
ATOM      5  O   UNL     1      61.575  27.780  49.669  1.00  0.00    -0.550 OA
ATOM      6  O   UNL     1      59.584  26.646  49.666  1.00  0.00    -0.550 OA
ENDBRANCH   3   4
ENDBRANCH   2   3
ENDBRANCH   1   2
BRANCH   1   7
ATOM      7  C   UNL     1      56.319  28.292  51.972  1.00  0.00     0.000 C 
BRANCH   7   8
ATOM      8  C   UNL     1      55.379  28.928  50.937  1.00  0.00    -0.000 C 
BRANCH   8   9
ATOM      9  C   UNL     1      54.395  27.914  50.331  1.00  0.00    -0.000 C 
BRANCH   9  10
ATOM     10  C   UNL     1      55.013  26.516  50.168  1.00  0.00    -0.003 C 
ATOM     11  C   UNL     1      54.027  25.555  49.511  1.00  0.00     0.004 C 
ENDBRANCH   9  10
ENDBRANCH   8   9
ENDBRANCH   7   8
ENDBRANCH   1   7
TORSDOF 7
ENDMDL
MODEL 2
REMARK VINA RESULT:    -3.410     11.693     13.638
REMARK INTER + INTRA:          -5.222
REMARK INTER:                  -4.912
REMARK INTRA:                  -0.310
REMARK UNBOUND:                -0.417
REMARK SMILES CCCCCCCCC(=O)[O-]
REMARK SMILES IDX 6 1 7 2 8 3 9 4 10 5 11 6 5 7 4 8 3 9 2 10 1 11
REMARK H PARENT
REMARK Flexibility Score: inf
ROOT
ATOM      1  C   UNL     1      62.151  32.707  60.508  1.00  0.00     0.000 C 
ENDROOT
BRANCH   1   2
ATOM      2  C   UNL     1      61.044  31.641  60.525  1.00  0.00     0.006 C 
BRANCH   2   3
ATOM      3  C   UNL     1      61.275  30.582  61.609  1.00  0.00     0.053 C 
BRANCH   3   4
ATOM      4  C   UNL     1      61.844  29.318  61.039  1.00  0.00     0.041 C 
ATOM      5  O   UNL     1      61.146  28.594  60.282  1.00  0.00    -0.550 OA
ATOM      6  O   UNL     1      63.135  28.926  61.370  1.00  0.00    -0.550 OA
ENDBRANCH   3   4
ENDBRANCH   2   3
ENDBRANCH   1   2
BRANCH   1   7
ATOM      7  C   UNL     1      61.556  34.115  60.381  1.00  0.00     0.000 C 
BRANCH   7   8
ATOM      8  C   UNL     1      62.565  35.180  60.838  1.00  0.00    -0.000 C 
BRANCH   8   9
ATOM      9  C   UNL     1      63.933  34.580  61.201  1.00  0.00    -0.000 C 
BRANCH   9  10
ATOM     10  C   UNL     1      64.932  35.640  61.690  1.00  0.00    -0.003 C 
ATOM     11  C   UNL     1      64.223  36.952  62.017  1.00  0.00     0.004 C 
ENDBRANCH   9  10
ENDBRANCH   8   9
ENDBRANCH   7   8
ENDBRANCH   1   7
TORSDOF 7
ENDMDL
MODEL 3
REMARK VINA RESULT:    -3.386      0.715      1.432
REMARK INTER + INTRA:          -5.189
REMARK INTER:                  -4.782
REMARK INTRA:                  -0.406
REMARK UNBOUND:                -0.417
REMARK SMILES CCCCCCCCC(=O)[O-]
REMARK SMILES IDX 6 1 7 2 8 3 9 4 10 5 11 6 5 7 4 8 3 9 2 10 1 11
REMARK H PARENT
REMARK Flexibility Score: inf
ROOT
ATOM      1  C   UNL     1      57.309  28.462  51.668  1.00  0.00     0.000 C 
ENDROOT
BRANCH   1   2
ATOM      2  C   UNL     1      58.640  29.132  51.295  1.00  0.00     0.006 C 
BRANCH   2   3
ATOM      3  C   UNL     1      59.040  28.858  49.840  1.00  0.00     0.053 C 
BRANCH   3   4
ATOM      4  C   UNL     1      59.951  27.674  49.728  1.00  0.00     0.041 C 
ATOM      5  O   UNL     1      59.475  26.509  49.695  1.00  0.00    -0.550 OA
ATOM      6  O   UNL     1      61.328  27.857  49.694  1.00  0.00    -0.550 OA
ENDBRANCH   3   4
ENDBRANCH   2   3
ENDBRANCH   1   2
BRANCH   1   7
ATOM      7  C   UNL     1      56.189  28.894  50.712  1.00  0.00     0.000 C 
BRANCH   7   8
ATOM      8  C   UNL     1      55.046  27.868  50.707  1.00  0.00    -0.000 C 
BRANCH   8   9
ATOM      9  C   UNL     1      55.504  26.475  50.248  1.00  0.00    -0.000 C 
BRANCH   9  10
ATOM     10  C   UNL     1      54.374  25.668  49.591  1.00  0.00    -0.003 C 
ATOM     11  C   UNL     1      53.053  26.429  49.646  1.00  0.00     0.004 C 
ENDBRANCH   9  10
ENDBRANCH   8   9
ENDBRANCH   7   8
ENDBRANCH   1   7
TORSDOF 7
ENDMDL
MODEL 4
REMARK VINA RESULT:    -3.319      1.391      1.981
REMARK INTER + INTRA:          -5.094
REMARK INTER:                  -4.730
REMARK INTRA:                  -0.363
REMARK UNBOUND:                -0.417
REMARK SMILES CCCCCCCCC(=O)[O-]
REMARK SMILES IDX 6 1 7 2 8 3 9 4 10 5 11 6 5 7 4 8 3 9 2 10 1 11
REMARK H PARENT
REMARK Flexibility Score: inf
ROOT
ATOM      1  C   UNL     1      57.805  28.665  50.783  1.00  0.00     0.000 C 
ENDROOT
BRANCH   1   2
ATOM      2  C   UNL     1      58.957  29.141  49.884  1.00  0.00     0.006 C 
BRANCH   2   3
ATOM      3  C   UNL     1      59.906  27.998  49.503  1.00  0.00     0.053 C 
BRANCH   3   4
ATOM      4  C   UNL     1      61.210  28.090  50.235  1.00  0.00     0.041 C 
ATOM      5  O   UNL     1      62.194  27.398  49.867  1.00  0.00    -0.550 OA
ATOM      6  O   UNL     1      61.326  28.918  51.345  1.00  0.00    -0.550 OA
ENDBRANCH   3   4
ENDBRANCH   2   3
ENDBRANCH   1   2
BRANCH   1   7
ATOM      7  C   UNL     1      57.627  27.144  50.690  1.00  0.00     0.000 C 
BRANCH   7   8
ATOM      8  C   UNL     1      56.141  26.773  50.573  1.00  0.00    -0.000 C 
BRANCH   8   9
ATOM      9  C   UNL     1      55.218  28.001  50.637  1.00  0.00    -0.000 C 
BRANCH   9  10
ATOM     10  C   UNL     1      53.788  27.691  50.167  1.00  0.00    -0.003 C 
ATOM     11  C   UNL     1      52.875  28.898  50.357  1.00  0.00     0.004 C 
ENDBRANCH   9  10
ENDBRANCH   8   9
ENDBRANCH   7   8
ENDBRANCH   1   7
TORSDOF 7
ENDMDL
MODEL 5
REMARK VINA RESULT:    -3.274      2.551      5.275
REMARK INTER + INTRA:          -5.031
REMARK INTER:                  -4.651
REMARK INTRA:                  -0.380
REMARK UNBOUND:                -0.417
REMARK SMILES CCCCCCCCC(=O)[O-]
REMARK SMILES IDX 6 1 7 2 8 3 9 4 10 5 11 6 5 7 4 8 3 9 2 10 1 11
REMARK H PARENT
REMARK Flexibility Score: inf
ROOT
ATOM      1  C   UNL     1      58.152  29.207  50.729  1.00  0.00     0.000 C 
ENDROOT
BRANCH   1   2
ATOM      2  C   UNL     1      57.311  27.921  50.692  1.00  0.00     0.006 C 
BRANCH   2   3
ATOM      3  C   UNL     1      55.844  28.176  51.061  1.00  0.00     0.053 C 
BRANCH   3   4
ATOM      4  C   UNL     1      54.915  27.292  50.286  1.00  0.00     0.041 C 
ATOM      5  O   UNL     1      55.293  26.152  49.909  1.00  0.00    -0.550 OA
ATOM      6  O   UNL     1      53.643  27.742  49.954  1.00  0.00    -0.550 OA
ENDBRANCH   3   4
ENDBRANCH   2   3
ENDBRANCH   1   2
BRANCH   1   7
ATOM      7  C   UNL     1      59.239  29.184  49.647  1.00  0.00     0.000 C 
BRANCH   7   8
ATOM      8  C   UNL     1      59.889  27.796  49.552  1.00  0.00    -0.000 C 
BRANCH   8   9
ATOM      9  C   UNL     1      61.346  27.791  50.042  1.00  0.00    -0.000 C 
BRANCH   9  10
ATOM     10  C   UNL     1      61.823  26.393  50.464  1.00  0.00    -0.003 C 
ATOM     11  C   UNL     1      60.660  25.407  50.507  1.00  0.00     0.004 C 
ENDBRANCH   9  10
ENDBRANCH   8   9
ENDBRANCH   7   8
ENDBRANCH   1   7
TORSDOF 7
ENDMDL
MODEL 6
REMARK VINA RESULT:    -3.272     12.431     13.215
REMARK INTER + INTRA:          -5.028
REMARK INTER:                  -4.597
REMARK INTRA:                  -0.430
REMARK UNBOUND:                -0.417
REMARK SMILES CCCCCCCCC(=O)[O-]
REMARK SMILES IDX 6 1 7 2 8 3 9 4 10 5 11 6 5 7 4 8 3 9 2 10 1 11
REMARK H PARENT
REMARK Flexibility Score: inf
ROOT
ATOM      1  C   UNL     1      62.074  32.172  60.026  1.00  0.00     0.000 C 
ENDROOT
BRANCH   1   2
ATOM      2  C   UNL     1      62.326  33.611  60.502  1.00  0.00     0.006 C 
BRANCH   2   3
ATOM      3  C   UNL     1      63.803  33.865  60.826  1.00  0.00     0.053 C 
BRANCH   3   4
ATOM      4  C   UNL     1      64.035  35.268  61.299  1.00  0.00     0.041 C 
ATOM      5  O   UNL     1      63.066  36.061  61.429  1.00  0.00    -0.550 OA
ATOM      6  O   UNL     1      65.326  35.707  61.564  1.00  0.00    -0.550 OA
ENDBRANCH   3   4
ENDBRANCH   2   3
ENDBRANCH   1   2
BRANCH   1   7
ATOM      7  C   UNL     1      60.973  31.502  60.858  1.00  0.00     0.000 C 
BRANCH   7   8
ATOM      8  C   UNL     1      61.514  30.261  61.584  1.00  0.00    -0.000 C 
BRANCH   8   9
ATOM      9  C   UNL     1      63.013  30.035  61.332  1.00  0.00    -0.000 C 
BRANCH   9  10
ATOM     10  C   UNL     1      63.327  28.600  60.882  1.00  0.00    -0.003 C 
ATOM     11  C   UNL     1      62.146  27.671  61.150  1.00  0.00     0.004 C 
ENDBRANCH   9  10
ENDBRANCH   8   9
ENDBRANCH   7   8
ENDBRANCH   1   7
TORSDOF 7
ENDMDL
MODEL 7
REMARK VINA RESULT:    -3.266     11.545     13.325
REMARK INTER + INTRA:          -5.019
REMARK INTER:                  -4.437
REMARK INTRA:                  -0.582
REMARK UNBOUND:                -0.417
REMARK SMILES CCCCCCCCC(=O)[O-]
REMARK SMILES IDX 6 1 7 2 8 3 9 4 10 5 11 6 5 7 4 8 3 9 2 10 1 11
REMARK H PARENT
REMARK Flexibility Score: inf
ROOT
ATOM      1  C   UNL     1      61.373  33.561  58.937  1.00  0.00     0.000 C 
ENDROOT
BRANCH   1   2
ATOM      2  C   UNL     1      61.307  32.908  60.326  1.00  0.00     0.006 C 
BRANCH   2   3
ATOM      3  C   UNL     1      62.266  31.718  60.455  1.00  0.00     0.053 C 
BRANCH   3   4
ATOM      4  C   UNL     1      61.692  30.632  61.313  1.00  0.00     0.041 C 
ATOM      5  O   UNL     1      60.554  30.770  61.832  1.00  0.00    -0.550 OA
ATOM      6  O   UNL     1      62.431  29.483  61.565  1.00  0.00    -0.550 OA
ENDBRANCH   3   4
ENDBRANCH   2   3
ENDBRANCH   1   2
BRANCH   1   7
ATOM      7  C   UNL     1      61.517  35.084  59.051  1.00  0.00     0.000 C 
BRANCH   7   8
ATOM      8  C   UNL     1      61.166  35.563  60.468  1.00  0.00    -0.000 C 
BRANCH   8   9
ATOM      9  C   UNL     1      62.350  36.244  61.172  1.00  0.00    -0.000 C 
BRANCH   9  10
ATOM     10  C   UNL     1      63.707  35.814  60.595  1.00  0.00    -0.003 C 
ATOM     11  C   UNL     1      64.545  35.091  61.646  1.00  0.00     0.004 C 
ENDBRANCH   9  10
ENDBRANCH   8   9
ENDBRANCH   7   8
ENDBRANCH   1   7
TORSDOF 7
ENDMDL
MODEL 8
REMARK VINA RESULT:    -3.245      1.474      2.393
REMARK INTER + INTRA:          -4.990
REMARK INTER:                  -4.494
REMARK INTRA:                  -0.495
REMARK UNBOUND:                -0.417
REMARK SMILES CCCCCCCCC(=O)[O-]
REMARK SMILES IDX 6 1 7 2 8 3 9 4 10 5 11 6 5 7 4 8 3 9 2 10 1 11
REMARK H PARENT
REMARK Flexibility Score: inf
ROOT
ATOM      1  C   UNL     1      59.199  29.171  49.778  1.00  0.00     0.000 C 
ENDROOT
BRANCH   1   2
ATOM      2  C   UNL     1      59.906  27.828  49.541  1.00  0.00     0.006 C 
BRANCH   2   3
ATOM      3  C   UNL     1      60.250  27.113  50.853  1.00  0.00     0.053 C 
BRANCH   3   4
ATOM      4  C   UNL     1      60.136  25.625  50.721  1.00  0.00     0.041 C 
ATOM      5  O   UNL     1      59.014  25.064  50.826  1.00  0.00    -0.550 OA
ATOM      6  O   UNL     1      61.275  24.856  50.515  1.00  0.00    -0.550 OA
ENDBRANCH   3   4
ENDBRANCH   2   3
ENDBRANCH   1   2
BRANCH   1   7
ATOM      7  C   UNL     1      58.370  29.136  51.068  1.00  0.00     0.000 C 
BRANCH   7   8
ATOM      8  C   UNL     1      56.893  28.843  50.763  1.00  0.00    -0.000 C 
BRANCH   8   9
ATOM      9  C   UNL     1      56.469  27.431  51.196  1.00  0.00    -0.000 C 
BRANCH   9  10
ATOM     10  C   UNL     1      55.363  26.846  50.304  1.00  0.00    -0.003 C 
ATOM     11  C   UNL     1      54.152  27.774  50.252  1.00  0.00     0.004 C 
ENDBRANCH   9  10
ENDBRANCH   8   9
ENDBRANCH   7   8
ENDBRANCH   1   7
TORSDOF 7
ENDMDL
MODEL 9
REMARK VINA RESULT:    -3.189     11.624     13.455
REMARK INTER + INTRA:          -4.910
REMARK INTER:                  -4.167
REMARK INTRA:                  -0.744
REMARK UNBOUND:                -0.417
REMARK SMILES CCCCCCCCC(=O)[O-]
REMARK SMILES IDX 6 1 7 2 8 3 9 4 10 5 11 6 5 7 4 8 3 9 2 10 1 11
REMARK H PARENT
REMARK Flexibility Score: inf
ROOT
ATOM      1  C   UNL     1      63.528  33.630  59.341  1.00  0.00     0.000 C 
ENDROOT
BRANCH   1   2
ATOM      2  C   UNL     1      62.246  32.805  59.146  1.00  0.00     0.006 C 
BRANCH   2   3
ATOM      3  C   UNL     1      61.428  32.691  60.438  1.00  0.00     0.053 C 
BRANCH   3   4
ATOM      4  C   UNL     1      61.167  31.261  60.805  1.00  0.00     0.041 C 
ATOM      5  O   UNL     1      61.673  30.330  60.126  1.00  0.00    -0.550 OA
ATOM      6  O   UNL     1      60.336  30.960  61.877  1.00  0.00    -0.550 OA
ENDBRANCH   3   4
ENDBRANCH   2   3
ENDBRANCH   1   2
BRANCH   1   7
ATOM      7  C   UNL     1      64.077  33.466  60.764  1.00  0.00     0.000 C 
BRANCH   7   8
ATOM      8  C   UNL     1      64.388  34.833  61.392  1.00  0.00    -0.000 C 
BRANCH   8   9
ATOM      9  C   UNL     1      63.756  35.999  60.615  1.00  0.00    -0.000 C 
BRANCH   9  10
ATOM     10  C   UNL     1      62.580  36.642  61.366  1.00  0.00    -0.003 C 
ATOM     11  C   UNL     1      61.263  36.393  60.638  1.00  0.00     0.004 C 
ENDBRANCH   9  10
ENDBRANCH   8   9
ENDBRANCH   7   8
ENDBRANCH   1   7
TORSDOF 7
ENDMDL
