MODEL 1
REMARK VINA RESULT:    -5.402      0.000      0.000
REMARK INTER + INTRA:         -14.480
REMARK INTER:                 -11.719
REMARK INTRA:                  -2.762
REMARK UNBOUND:                -2.762
REMARK SMILES CCCCCCCCCCCCCCCCCCCCCC(=O)[O-]
REMARK SMILES IDX 12 1 11 2 10 3 9 4 8 5 7 6 6 7 5 8 4 9 3 10 2 11 1 12 13 13
REMARK SMILES IDX 14 14 15 15 16 16 17 17 18 18 19 19 20 20 21 21 22 22 23 23
REMARK SMILES IDX 24 24
REMARK H PARENT
REMARK Flexibility Score: inf
ROOT
ATOM      1  C   UNL     1     -15.589  -7.697   8.498  1.00  0.00     0.000 C 
ENDROOT
BRANCH   1   2
ATOM      2  C   UNL     1     -15.294  -6.229   8.138  1.00  0.00     0.000 C 
BRANCH   2   3
ATOM      3  C   UNL     1     -13.795  -5.890   8.171  1.00  0.00     0.000 C 
BRANCH   3   4
ATOM      4  C   UNL     1     -13.278  -5.808   9.612  1.00  0.00    -0.000 C 
BRANCH   4   5
ATOM      5  C   UNL     1     -12.109  -6.780   9.833  1.00  0.00    -0.000 C 
BRANCH   5   6
ATOM      6  C   UNL     1     -11.790  -7.622   8.585  1.00  0.00    -0.000 C 
BRANCH   6   7
ATOM      7  C   UNL     1     -11.117  -8.977   8.874  1.00  0.00    -0.000 C 
BRANCH   7   8
ATOM      8  C   UNL     1     -11.353 -10.038   7.774  1.00  0.00    -0.000 C 
BRANCH   8   9
ATOM      9  C   UNL     1     -10.072 -10.773   7.331  1.00  0.00    -0.000 C 
BRANCH   9  10
ATOM     10  C   UNL     1      -8.804 -10.412   8.135  1.00  0.00    -0.000 C 
BRANCH  10  11
ATOM     11  C   UNL     1      -7.758  -9.582   7.370  1.00  0.00    -0.003 C 
ATOM     12  C   UNL     1      -8.242  -8.171   7.034  1.00  0.00     0.004 C 
ENDBRANCH  10  11
ENDBRANCH   9  10
ENDBRANCH   8   9
ENDBRANCH   7   8
ENDBRANCH   6   7
ENDBRANCH   5   6
ENDBRANCH   4   5
ENDBRANCH   3   4
ENDBRANCH   2   3
ENDBRANCH   1   2
BRANCH   1  13
ATOM     13  C   UNL     1     -15.858  -7.964   9.991  1.00  0.00     0.000 C 
BRANCH  13  14
ATOM     14  C   UNL     1     -15.618  -9.429  10.389  1.00  0.00     0.000 C 
BRANCH  14  15
ATOM     15  C   UNL     1     -14.123  -9.800  10.435  1.00  0.00     0.000 C 
BRANCH  15  16
ATOM     16  C   UNL     1     -13.736 -10.826  11.516  1.00  0.00     0.000 C 
BRANCH  16  17
ATOM     17  C   UNL     1     -12.296 -11.345  11.364  1.00  0.00     0.000 C 
BRANCH  17  18
ATOM     18  C   UNL     1     -12.218 -12.576  10.436  1.00  0.00     0.000 C 
BRANCH  18  19
ATOM     19  C   UNL     1     -10.781 -13.000  10.088  1.00  0.00     0.000 C 
BRANCH  19  20
ATOM     20  C   UNL     1     -10.711 -13.957   8.889  1.00  0.00     0.006 C 
BRANCH  20  21
ATOM     21  C   UNL     1     -10.387 -15.384   9.343  1.00  0.00     0.053 C 
BRANCH  21  22
ATOM     22  C   UNL     1     -11.500 -16.321   8.989  1.00  0.00     0.041 C 
ATOM     23  O   UNL     1     -12.557 -15.878   8.464  1.00  0.00    -0.550 OA
ATOM     24  O   UNL     1     -11.375 -17.681   9.253  1.00  0.00    -0.550 OA
ENDBRANCH  21  22
ENDBRANCH  20  21
ENDBRANCH  19  20
ENDBRANCH  18  19
ENDBRANCH  17  18
ENDBRANCH  16  17
ENDBRANCH  15  16
ENDBRANCH  14  15
ENDBRANCH  13  14
ENDBRANCH   1  13
TORSDOF 20
ENDMDL
MODEL 2
REMARK VINA RESULT:    -5.338      2.496      5.702
REMARK INTER + INTRA:         -14.340
REMARK INTER:                 -11.351
REMARK INTRA:                  -2.989
REMARK UNBOUND:                -2.762
REMARK SMILES CCCCCCCCCCCCCCCCCCCCCC(=O)[O-]
REMARK SMILES IDX 12 1 11 2 10 3 9 4 8 5 7 6 6 7 5 8 4 9 3 10 2 11 1 12 13 13
REMARK SMILES IDX 14 14 15 15 16 16 17 17 18 18 19 19 20 20 21 21 22 22 23 23
REMARK SMILES IDX 24 24
REMARK H PARENT
REMARK Flexibility Score: inf
ROOT
ATOM      1  C   UNL     1     -15.567  -9.516  10.651  1.00  0.00     0.000 C 
ENDROOT
BRANCH   1   2
ATOM      2  C   UNL     1     -14.105  -9.995  10.585  1.00  0.00     0.000 C 
BRANCH   2   3
ATOM      3  C   UNL     1     -13.486 -10.234  11.971  1.00  0.00     0.000 C 
BRANCH   3   4
ATOM      4  C   UNL     1     -12.147 -10.974  11.858  1.00  0.00    -0.000 C 
BRANCH   4   5
ATOM      5  C   UNL     1     -12.245 -12.138  10.860  1.00  0.00    -0.000 C 
BRANCH   5   6
ATOM      6  C   UNL     1     -10.887 -12.502  10.234  1.00  0.00    -0.000 C 
BRANCH   6   7
ATOM      7  C   UNL     1     -10.930 -12.798   8.723  1.00  0.00    -0.000 C 
BRANCH   7   8
ATOM      8  C   UNL     1     -12.332 -13.195   8.206  1.00  0.00    -0.000 C 
BRANCH   8   9
ATOM      9  C   UNL     1     -12.416 -14.643   7.679  1.00  0.00    -0.000 C 
BRANCH   9  10
ATOM     10  C   UNL     1     -12.572 -15.723   8.772  1.00  0.00    -0.000 C 
BRANCH  10  11
ATOM     11  C   UNL     1     -11.404 -16.720   8.879  1.00  0.00    -0.003 C 
ATOM     12  C   UNL     1     -10.222 -16.172   9.678  1.00  0.00     0.004 C 
ENDBRANCH  10  11
ENDBRANCH   9  10
ENDBRANCH   8   9
ENDBRANCH   7   8
ENDBRANCH   6   7
ENDBRANCH   5   6
ENDBRANCH   4   5
ENDBRANCH   3   4
ENDBRANCH   2   3
ENDBRANCH   1   2
BRANCH   1  13
ATOM     13  C   UNL     1     -15.935  -8.393   9.663  1.00  0.00     0.000 C 
BRANCH  13  14
ATOM     14  C   UNL     1     -15.939  -7.001  10.314  1.00  0.00     0.000 C 
BRANCH  14  15
ATOM     15  C   UNL     1     -14.679  -6.179   9.977  1.00  0.00     0.000 C 
BRANCH  15  16
ATOM     16  C   UNL     1     -14.132  -6.374   8.552  1.00  0.00     0.000 C 
BRANCH  16  17
ATOM     17  C   UNL     1     -12.803  -7.147   8.518  1.00  0.00     0.000 C 
BRANCH  17  18
ATOM     18  C   UNL     1     -12.138  -7.219   9.909  1.00  0.00     0.000 C 
BRANCH  18  19
ATOM     19  C   UNL     1     -10.669  -7.675   9.871  1.00  0.00     0.000 C 
BRANCH  19  20
ATOM     20  C   UNL     1     -10.489  -9.065   9.243  1.00  0.00     0.006 C 
BRANCH  20  21
ATOM     21  C   UNL     1      -9.009  -9.460   9.197  1.00  0.00     0.053 C 
BRANCH  21  22
ATOM     22  C   UNL     1      -8.523  -9.535   7.783  1.00  0.00     0.041 C 
ATOM     23  O   UNL     1      -8.576 -10.625   7.152  1.00  0.00    -0.550 OA
ATOM     24  O   UNL     1      -7.996  -8.404   7.167  1.00  0.00    -0.550 OA
ENDBRANCH  21  22
ENDBRANCH  20  21
ENDBRANCH  19  20
ENDBRANCH  18  19
ENDBRANCH  17  18
ENDBRANCH  16  17
ENDBRANCH  15  16
ENDBRANCH  14  15
ENDBRANCH  13  14
ENDBRANCH   1  13
TORSDOF 20
ENDMDL
MODEL 3
REMARK VINA RESULT:    -5.337      2.632      5.415
REMARK INTER + INTRA:         -14.338
REMARK INTER:                 -11.643
REMARK INTRA:                  -2.695
REMARK UNBOUND:                -2.762
REMARK SMILES CCCCCCCCCCCCCCCCCCCCCC(=O)[O-]
REMARK SMILES IDX 12 1 11 2 10 3 9 4 8 5 7 6 6 7 5 8 4 9 3 10 2 11 1 12 13 13
REMARK SMILES IDX 14 14 15 15 16 16 17 17 18 18 19 19 20 20 21 21 22 22 23 23
REMARK SMILES IDX 24 24
REMARK H PARENT
REMARK Flexibility Score: inf
ROOT
ATOM      1  C   UNL     1     -16.044  -7.983   9.148  1.00  0.00     0.000 C 
ENDROOT
BRANCH   1   2
ATOM      2  C   UNL     1     -16.125  -8.424  10.621  1.00  0.00     0.000 C 
BRANCH   2   3
ATOM      3  C   UNL     1     -15.607  -9.853  10.851  1.00  0.00     0.000 C 
BRANCH   3   4
ATOM      4  C   UNL     1     -14.094  -9.936  10.615  1.00  0.00    -0.000 C 
BRANCH   4   5
ATOM      5  C   UNL     1     -13.447 -10.968  11.551  1.00  0.00    -0.000 C 
BRANCH   5   6
ATOM      6  C   UNL     1     -12.272 -11.714  10.894  1.00  0.00    -0.000 C 
BRANCH   6   7
ATOM      7  C   UNL     1     -12.680 -12.759   9.838  1.00  0.00    -0.000 C 
BRANCH   7   8
ATOM      8  C   UNL     1     -11.830 -12.706   8.548  1.00  0.00    -0.000 C 
BRANCH   8   9
ATOM      9  C   UNL     1     -11.182 -14.054   8.171  1.00  0.00    -0.000 C 
BRANCH   9  10
ATOM     10  C   UNL     1     -10.396 -14.739   9.310  1.00  0.00    -0.000 C 
BRANCH  10  11
ATOM     11  C   UNL     1     -10.260 -16.267   9.186  1.00  0.00    -0.003 C 
ATOM     12  C   UNL     1     -11.600 -16.971   8.972  1.00  0.00     0.004 C 
ENDBRANCH  10  11
ENDBRANCH   9  10
ENDBRANCH   8   9
ENDBRANCH   7   8
ENDBRANCH   6   7
ENDBRANCH   5   6
ENDBRANCH   4   5
ENDBRANCH   3   4
ENDBRANCH   2   3
ENDBRANCH   1   2
BRANCH   1  13
ATOM     13  C   UNL     1     -15.771  -6.483   8.927  1.00  0.00     0.000 C 
BRANCH  13  14
ATOM     14  C   UNL     1     -14.737  -5.912   9.910  1.00  0.00     0.000 C 
BRANCH  14  15
ATOM     15  C   UNL     1     -13.344  -5.731   9.276  1.00  0.00     0.000 C 
BRANCH  15  16
ATOM     16  C   UNL     1     -12.421  -6.960   9.362  1.00  0.00     0.000 C 
BRANCH  16  17
ATOM     17  C   UNL     1     -12.574  -7.911   8.163  1.00  0.00     0.000 C 
BRANCH  17  18
ATOM     18  C   UNL     1     -11.499  -9.020   8.161  1.00  0.00     0.000 C 
BRANCH  18  19
ATOM     19  C   UNL     1     -10.353  -8.773   9.157  1.00  0.00     0.000 C 
BRANCH  19  20
ATOM     20  C   UNL     1      -9.369  -9.948   9.241  1.00  0.00     0.006 C 
BRANCH  20  21
ATOM     21  C   UNL     1      -8.993 -10.453   7.844  1.00  0.00     0.053 C 
BRANCH  21  22
ATOM     22  C   UNL     1      -7.833  -9.683   7.294  1.00  0.00     0.041 C 
ATOM     23  O   UNL     1      -6.750 -10.271   7.032  1.00  0.00    -0.550 OA
ATOM     24  O   UNL     1      -7.944  -8.312   7.086  1.00  0.00    -0.550 OA
ENDBRANCH  21  22
ENDBRANCH  20  21
ENDBRANCH  19  20
ENDBRANCH  18  19
ENDBRANCH  17  18
ENDBRANCH  16  17
ENDBRANCH  15  16
ENDBRANCH  14  15
ENDBRANCH  13  14
ENDBRANCH   1  13
TORSDOF 20
ENDMDL
MODEL 4
REMARK VINA RESULT:    -5.319      4.122      7.485
REMARK INTER + INTRA:         -14.298
REMARK INTER:                 -11.944
REMARK INTRA:                  -2.354
REMARK UNBOUND:                -2.762
REMARK SMILES CCCCCCCCCCCCCCCCCCCCCC(=O)[O-]
REMARK SMILES IDX 12 1 11 2 10 3 9 4 8 5 7 6 6 7 5 8 4 9 3 10 2 11 1 12 13 13
REMARK SMILES IDX 14 14 15 15 16 16 17 17 18 18 19 19 20 20 21 21 22 22 23 23
REMARK SMILES IDX 24 24
REMARK H PARENT
REMARK Flexibility Score: inf
ROOT
ATOM      1  C   UNL     1     -10.697  -7.817   8.574  1.00  0.00     0.000 C 
ENDROOT
BRANCH   1   2
ATOM      2  C   UNL     1      -9.584  -8.340   7.648  1.00  0.00     0.000 C 
BRANCH   2   3
ATOM      3  C   UNL     1      -8.677  -9.382   8.323  1.00  0.00     0.000 C 
BRANCH   3   4
ATOM      4  C   UNL     1      -8.390 -10.557   7.381  1.00  0.00    -0.000 C 
BRANCH   4   5
ATOM      5  C   UNL     1      -9.550 -11.563   7.388  1.00  0.00    -0.000 C 
BRANCH   5   6
ATOM      6  C   UNL     1     -10.163 -11.757   8.786  1.00  0.00    -0.000 C 
BRANCH   6   7
ATOM      7  C   UNL     1     -11.697 -11.625   8.843  1.00  0.00    -0.000 C 
BRANCH   7   8
ATOM      8  C   UNL     1     -12.430 -12.967   9.074  1.00  0.00    -0.000 C 
BRANCH   8   9
ATOM      9  C   UNL     1     -12.069 -14.060   8.047  1.00  0.00    -0.000 C 
BRANCH   9  10
ATOM     10  C   UNL     1     -12.496 -15.490   8.445  1.00  0.00    -0.000 C 
BRANCH  10  11
ATOM     11  C   UNL     1     -11.341 -16.440   8.809  1.00  0.00    -0.003 C 
ATOM     12  C   UNL     1     -10.169 -15.727   9.482  1.00  0.00     0.004 C 
ENDBRANCH  10  11
ENDBRANCH   9  10
ENDBRANCH   8   9
ENDBRANCH   7   8
ENDBRANCH   6   7
ENDBRANCH   5   6
ENDBRANCH   4   5
ENDBRANCH   3   4
ENDBRANCH   2   3
ENDBRANCH   1   2
BRANCH   1  13
ATOM     13  C   UNL     1     -10.517  -8.149  10.067  1.00  0.00     0.000 C 
BRANCH  13  14
ATOM     14  C   UNL     1     -11.821  -8.601  10.742  1.00  0.00     0.000 C 
BRANCH  14  15
ATOM     15  C   UNL     1     -13.079  -8.031  10.057  1.00  0.00     0.000 C 
BRANCH  15  16
ATOM     16  C   UNL     1     -14.272  -9.000   9.968  1.00  0.00     0.000 C 
BRANCH  16  17
ATOM     17  C   UNL     1     -15.633  -8.285  10.028  1.00  0.00     0.000 C 
BRANCH  17  18
ATOM     18  C   UNL     1     -15.655  -7.006   9.164  1.00  0.00     0.000 C 
BRANCH  18  19
ATOM     19  C   UNL     1     -15.490  -7.273   7.658  1.00  0.00     0.000 C 
BRANCH  19  20
ATOM     20  C   UNL     1     -14.409  -6.395   7.009  1.00  0.00     0.006 C 
BRANCH  20  21
ATOM     21  C   UNL     1     -14.346  -5.017   7.677  1.00  0.00     0.053 C 
BRANCH  21  22
ATOM     22  C   UNL     1     -14.304  -3.929   6.649  1.00  0.00     0.041 C 
ATOM     23  O   UNL     1     -14.760  -4.133   5.492  1.00  0.00    -0.550 OA
ATOM     24  O   UNL     1     -13.747  -2.695   6.965  1.00  0.00    -0.550 OA
ENDBRANCH  21  22
ENDBRANCH  20  21
ENDBRANCH  19  20
ENDBRANCH  18  19
ENDBRANCH  17  18
ENDBRANCH  16  17
ENDBRANCH  15  16
ENDBRANCH  14  15
ENDBRANCH  13  14
ENDBRANCH   1  13
TORSDOF 20
ENDMDL
MODEL 5
REMARK VINA RESULT:    -5.268      3.925      7.598
REMARK INTER + INTRA:         -14.189
REMARK INTER:                 -11.241
REMARK INTRA:                  -2.948
REMARK UNBOUND:                -2.762
REMARK SMILES CCCCCCCCCCCCCCCCCCCCCC(=O)[O-]
REMARK SMILES IDX 12 1 11 2 10 3 9 4 8 5 7 6 6 7 5 8 4 9 3 10 2 11 1 12 13 13
REMARK SMILES IDX 14 14 15 15 16 16 17 17 18 18 19 19 20 20 21 21 22 22 23 23
REMARK SMILES IDX 24 24
REMARK H PARENT
REMARK Flexibility Score: inf
ROOT
ATOM      1  C   UNL     1     -12.153  -8.379   7.878  1.00  0.00     0.000 C 
ENDROOT
BRANCH   1   2
ATOM      2  C   UNL     1     -10.614  -8.439   7.865  1.00  0.00     0.000 C 
BRANCH   2   3
ATOM      3  C   UNL     1     -10.010  -8.720   9.251  1.00  0.00     0.000 C 
BRANCH   3   4
ATOM      4  C   UNL     1      -9.032  -9.900   9.198  1.00  0.00    -0.000 C 
BRANCH   4   5
ATOM      5  C   UNL     1      -8.650 -10.233   7.748  1.00  0.00    -0.000 C 
BRANCH   5   6
ATOM      6  C   UNL     1      -8.948 -11.696   7.375  1.00  0.00    -0.000 C 
BRANCH   6   7
ATOM      7  C   UNL     1     -10.393 -12.153   7.655  1.00  0.00    -0.000 C 
BRANCH   7   8
ATOM      8  C   UNL     1     -10.503 -13.227   8.761  1.00  0.00    -0.000 C 
BRANCH   8   9
ATOM      9  C   UNL     1     -11.732 -13.055   9.678  1.00  0.00    -0.000 C 
BRANCH   9  10
ATOM     10  C   UNL     1     -12.367 -11.647   9.655  1.00  0.00    -0.000 C 
BRANCH  10  11
ATOM     11  C   UNL     1     -12.986 -11.186  10.987  1.00  0.00    -0.003 C 
ATOM     12  C   UNL     1     -11.960 -10.590  11.949  1.00  0.00     0.004 C 
ENDBRANCH  10  11
ENDBRANCH   9  10
ENDBRANCH   8   9
ENDBRANCH   7   8
ENDBRANCH   6   7
ENDBRANCH   5   6
ENDBRANCH   4   5
ENDBRANCH   3   4
ENDBRANCH   2   3
ENDBRANCH   1   2
BRANCH   1  13
ATOM     13  C   UNL     1     -12.757  -7.232   8.709  1.00  0.00     0.000 C 
BRANCH  13  14
ATOM     14  C   UNL     1     -13.433  -7.719  10.000  1.00  0.00     0.000 C 
BRANCH  14  15
ATOM     15  C   UNL     1     -14.934  -8.014   9.817  1.00  0.00     0.000 C 
BRANCH  15  16
ATOM     16  C   UNL     1     -15.837  -6.772   9.705  1.00  0.00     0.000 C 
BRANCH  16  17
ATOM     17  C   UNL     1     -15.404  -5.628  10.638  1.00  0.00     0.000 C 
BRANCH  17  18
ATOM     18  C   UNL     1     -15.330  -4.274   9.901  1.00  0.00     0.000 C 
BRANCH  18  19
ATOM     19  C   UNL     1     -15.524  -4.386   8.379  1.00  0.00     0.000 C 
BRANCH  19  20
ATOM     20  C   UNL     1     -14.221  -4.181   7.592  1.00  0.00     0.006 C 
BRANCH  20  21
ATOM     21  C   UNL     1     -14.448  -3.268   6.382  1.00  0.00     0.053 C 
BRANCH  21  22
ATOM     22  C   UNL     1     -14.421  -4.056   5.109  1.00  0.00     0.041 C 
ATOM     23  O   UNL     1     -14.584  -5.306   5.135  1.00  0.00    -0.550 OA
ATOM     24  O   UNL     1     -14.200  -3.412   3.897  1.00  0.00    -0.550 OA
ENDBRANCH  21  22
ENDBRANCH  20  21
ENDBRANCH  19  20
ENDBRANCH  18  19
ENDBRANCH  17  18
ENDBRANCH  16  17
ENDBRANCH  15  16
ENDBRANCH  14  15
ENDBRANCH  13  14
ENDBRANCH   1  13
TORSDOF 20
ENDMDL
MODEL 6
REMARK VINA RESULT:    -5.164      3.465      6.795
REMARK INTER + INTRA:         -13.963
REMARK INTER:                 -11.209
REMARK INTRA:                  -2.754
REMARK UNBOUND:                -2.762
REMARK SMILES CCCCCCCCCCCCCCCCCCCCCC(=O)[O-]
REMARK SMILES IDX 12 1 11 2 10 3 9 4 8 5 7 6 6 7 5 8 4 9 3 10 2 11 1 12 13 13
REMARK SMILES IDX 14 14 15 15 16 16 17 17 18 18 19 19 20 20 21 21 22 22 23 23
REMARK SMILES IDX 24 24
REMARK H PARENT
REMARK Flexibility Score: inf
ROOT
ATOM      1  C   UNL     1      -9.332  -7.747   7.380  1.00  0.00     0.000 C 
ENDROOT
BRANCH   1   2
ATOM      2  C   UNL     1      -8.231  -8.823   7.367  1.00  0.00     0.000 C 
BRANCH   2   3
ATOM      3  C   UNL     1      -8.589 -10.063   8.202  1.00  0.00     0.000 C 
BRANCH   3   4
ATOM      4  C   UNL     1      -8.453 -11.345   7.372  1.00  0.00    -0.000 C 
BRANCH   4   5
ATOM      5  C   UNL     1      -9.832 -11.879   6.955  1.00  0.00    -0.000 C 
BRANCH   5   6
ATOM      6  C   UNL     1     -10.886 -11.739   8.066  1.00  0.00    -0.000 C 
BRANCH   6   7
ATOM      7  C   UNL     1     -10.492 -12.371   9.415  1.00  0.00    -0.000 C 
BRANCH   7   8
ATOM      8  C   UNL     1     -11.612 -13.225  10.053  1.00  0.00    -0.000 C 
BRANCH   8   9
ATOM      9  C   UNL     1     -12.657 -13.741   9.042  1.00  0.00    -0.000 C 
BRANCH   9  10
ATOM     10  C   UNL     1     -12.229 -14.994   8.248  1.00  0.00    -0.000 C 
BRANCH  10  11
ATOM     11  C   UNL     1     -11.065 -15.792   8.862  1.00  0.00    -0.003 C 
ATOM     12  C   UNL     1     -11.441 -17.234   9.201  1.00  0.00     0.004 C 
ENDBRANCH  10  11
ENDBRANCH   9  10
ENDBRANCH   8   9
ENDBRANCH   7   8
ENDBRANCH   6   7
ENDBRANCH   5   6
ENDBRANCH   4   5
ENDBRANCH   3   4
ENDBRANCH   2   3
ENDBRANCH   1   2
BRANCH   1  13
ATOM     13  C   UNL     1     -10.737  -8.252   7.757  1.00  0.00     0.000 C 
BRANCH  13  14
ATOM     14  C   UNL     1     -11.451  -7.339   8.767  1.00  0.00     0.000 C 
BRANCH  14  15
ATOM     15  C   UNL     1     -11.058  -7.637  10.227  1.00  0.00     0.000 C 
BRANCH  15  16
ATOM     16  C   UNL     1     -11.108  -9.123  10.627  1.00  0.00     0.000 C 
BRANCH  16  17
ATOM     17  C   UNL     1     -12.435  -9.522  11.293  1.00  0.00     0.000 C 
BRANCH  17  18
ATOM     18  C   UNL     1     -13.513  -9.905  10.257  1.00  0.00     0.000 C 
BRANCH  18  19
ATOM     19  C   UNL     1     -14.949  -9.845  10.805  1.00  0.00     0.000 C 
BRANCH  19  20
ATOM     20  C   UNL     1     -15.769  -8.691  10.211  1.00  0.00     0.006 C 
BRANCH  20  21
ATOM     21  C   UNL     1     -14.989  -7.975   9.102  1.00  0.00     0.053 C 
BRANCH  21  22
ATOM     22  C   UNL     1     -15.045  -6.491   9.285  1.00  0.00     0.041 C 
ATOM     23  O   UNL     1     -15.682  -5.775   8.466  1.00  0.00    -0.550 OA
ATOM     24  O   UNL     1     -14.380  -5.895  10.352  1.00  0.00    -0.550 OA
ENDBRANCH  21  22
ENDBRANCH  20  21
ENDBRANCH  19  20
ENDBRANCH  18  19
ENDBRANCH  17  18
ENDBRANCH  16  17
ENDBRANCH  15  16
ENDBRANCH  14  15
ENDBRANCH  13  14
ENDBRANCH   1  13
TORSDOF 20
ENDMDL
MODEL 7
REMARK VINA RESULT:    -5.095      2.830      5.422
REMARK INTER + INTRA:         -13.814
REMARK INTER:                 -10.402
REMARK INTRA:                  -3.412
REMARK UNBOUND:                -2.762
REMARK SMILES CCCCCCCCCCCCCCCCCCCCCC(=O)[O-]
REMARK SMILES IDX 12 1 11 2 10 3 9 4 8 5 7 6 6 7 5 8 4 9 3 10 2 11 1 12 13 13
REMARK SMILES IDX 14 14 15 15 16 16 17 17 18 18 19 19 20 20 21 21 22 22 23 23
REMARK SMILES IDX 24 24
REMARK H PARENT
REMARK Flexibility Score: inf
ROOT
ATOM      1  C   UNL     1     -13.775  -6.979   7.355  1.00  0.00     0.000 C 
ENDROOT
BRANCH   1   2
ATOM      2  C   UNL     1     -15.224  -7.272   7.789  1.00  0.00     0.000 C 
BRANCH   2   3
ATOM      3  C   UNL     1     -15.864  -6.115   8.573  1.00  0.00     0.000 C 
BRANCH   3   4
ATOM      4  C   UNL     1     -15.384  -6.103  10.029  1.00  0.00    -0.000 C 
BRANCH   4   5
ATOM      5  C   UNL     1     -14.911  -4.701  10.442  1.00  0.00    -0.000 C 
BRANCH   5   6
ATOM      6  C   UNL     1     -13.614  -4.277   9.730  1.00  0.00    -0.000 C 
BRANCH   6   7
ATOM      7  C   UNL     1     -13.670  -2.893   9.057  1.00  0.00    -0.000 C 
BRANCH   7   8
ATOM      8  C   UNL     1     -15.064  -2.528   8.497  1.00  0.00    -0.000 C 
BRANCH   8   9
ATOM      9  C   UNL     1     -15.129  -2.494   6.956  1.00  0.00    -0.000 C 
BRANCH   9  10
ATOM     10  C   UNL     1     -14.139  -3.442   6.243  1.00  0.00    -0.000 C 
BRANCH  10  11
ATOM     11  C   UNL     1     -14.483  -3.767   4.779  1.00  0.00    -0.003 C 
ATOM     12  C   UNL     1     -15.399  -4.981   4.634  1.00  0.00     0.004 C 
ENDBRANCH  10  11
ENDBRANCH   9  10
ENDBRANCH   8   9
ENDBRANCH   7   8
ENDBRANCH   6   7
ENDBRANCH   5   6
ENDBRANCH   4   5
ENDBRANCH   3   4
ENDBRANCH   2   3
ENDBRANCH   1   2
BRANCH   1  13
ATOM     13  C   UNL     1     -12.715  -7.944   7.917  1.00  0.00     0.000 C 
BRANCH  13  14
ATOM     14  C   UNL     1     -12.105  -7.459   9.242  1.00  0.00     0.000 C 
BRANCH  14  15
ATOM     15  C   UNL     1     -12.335  -8.445  10.404  1.00  0.00     0.000 C 
BRANCH  15  16
ATOM     16  C   UNL     1     -13.495  -9.436  10.202  1.00  0.00     0.000 C 
BRANCH  16  17
ATOM     17  C   UNL     1     -13.498 -10.577  11.233  1.00  0.00     0.000 C 
BRANCH  17  18
ATOM     18  C   UNL     1     -12.109 -11.237  11.373  1.00  0.00     0.000 C 
BRANCH  18  19
ATOM     19  C   UNL     1     -11.873 -12.396  10.389  1.00  0.00     0.000 C 
BRANCH  19  20
ATOM     20  C   UNL     1     -10.482 -12.357   9.739  1.00  0.00     0.006 C 
BRANCH  20  21
ATOM     21  C   UNL     1      -9.824 -10.987   9.933  1.00  0.00     0.053 C 
BRANCH  21  22
ATOM     22  C   UNL     1      -9.705 -10.264   8.627  1.00  0.00     0.041 C 
ATOM     23  O   UNL     1      -9.001  -9.222   8.542  1.00  0.00    -0.550 OA
ATOM     24  O   UNL     1     -10.387 -10.732   7.509  1.00  0.00    -0.550 OA
ENDBRANCH  21  22
ENDBRANCH  20  21
ENDBRANCH  19  20
ENDBRANCH  18  19
ENDBRANCH  17  18
ENDBRANCH  16  17
ENDBRANCH  15  16
ENDBRANCH  14  15
ENDBRANCH  13  14
ENDBRANCH   1  13
TORSDOF 20
ENDMDL
MODEL 8
REMARK VINA RESULT:    -5.093      1.760      5.137
REMARK INTER + INTRA:         -13.808
REMARK INTER:                 -11.185
REMARK INTRA:                  -2.623
REMARK UNBOUND:                -2.762
REMARK SMILES CCCCCCCCCCCCCCCCCCCCCC(=O)[O-]
REMARK SMILES IDX 12 1 11 2 10 3 9 4 8 5 7 6 6 7 5 8 4 9 3 10 2 11 1 12 13 13
REMARK SMILES IDX 14 14 15 15 16 16 17 17 18 18 19 19 20 20 21 21 22 22 23 23
REMARK SMILES IDX 24 24
REMARK H PARENT
REMARK Flexibility Score: inf
ROOT
ATOM      1  C   UNL     1     -12.974  -9.366   9.812  1.00  0.00     0.000 C 
ENDROOT
BRANCH   1   2
ATOM      2  C   UNL     1     -14.419  -8.931  10.116  1.00  0.00     0.000 C 
BRANCH   2   3
ATOM      3  C   UNL     1     -14.862  -7.702   9.306  1.00  0.00     0.000 C 
BRANCH   3   4
ATOM      4  C   UNL     1     -15.889  -6.869  10.082  1.00  0.00    -0.000 C 
BRANCH   4   5
ATOM      5  C   UNL     1     -15.350  -5.460  10.369  1.00  0.00    -0.000 C 
BRANCH   5   6
ATOM      6  C   UNL     1     -13.871  -5.297   9.979  1.00  0.00    -0.000 C 
BRANCH   6   7
ATOM      7  C   UNL     1     -13.524  -3.953   9.310  1.00  0.00    -0.000 C 
BRANCH   7   8
ATOM      8  C   UNL     1     -14.760  -3.161   8.824  1.00  0.00    -0.000 C 
BRANCH   8   9
ATOM      9  C   UNL     1     -14.718  -2.793   7.326  1.00  0.00    -0.000 C 
BRANCH   9  10
ATOM     10  C   UNL     1     -15.800  -3.474   6.460  1.00  0.00    -0.000 C 
BRANCH  10  11
ATOM     11  C   UNL     1     -15.932  -4.995   6.653  1.00  0.00    -0.003 C 
ATOM     12  C   UNL     1     -14.720  -5.771   6.139  1.00  0.00     0.004 C 
ENDBRANCH  10  11
ENDBRANCH   9  10
ENDBRANCH   8   9
ENDBRANCH   7   8
ENDBRANCH   6   7
ENDBRANCH   5   6
ENDBRANCH   4   5
ENDBRANCH   3   4
ENDBRANCH   2   3
ENDBRANCH   1   2
BRANCH   1  13
ATOM     13  C   UNL     1     -11.897  -8.736  10.715  1.00  0.00     0.000 C 
BRANCH  13  14
ATOM     14  C   UNL     1     -11.103  -7.622  10.014  1.00  0.00     0.000 C 
BRANCH  14  15
ATOM     15  C   UNL     1     -10.338  -8.122   8.773  1.00  0.00     0.000 C 
BRANCH  15  16
ATOM     16  C   UNL     1      -9.330  -9.254   9.038  1.00  0.00     0.000 C 
BRANCH  16  17
ATOM     17  C   UNL     1      -8.688  -9.802   7.752  1.00  0.00     0.000 C 
BRANCH  17  18
ATOM     18  C   UNL     1      -8.901 -11.324   7.599  1.00  0.00     0.000 C 
BRANCH  18  19
ATOM     19  C   UNL     1     -10.367 -11.724   7.365  1.00  0.00     0.000 C 
BRANCH  19  20
ATOM     20  C   UNL     1     -11.001 -12.418   8.579  1.00  0.00     0.006 C 
BRANCH  20  21
ATOM     21  C   UNL     1     -10.416 -13.821   8.778  1.00  0.00     0.053 C 
BRANCH  21  22
ATOM     22  C   UNL     1     -11.457 -14.870   8.542  1.00  0.00     0.041 C 
ATOM     23  O   UNL     1     -12.579 -14.552   8.064  1.00  0.00    -0.550 OA
ATOM     24  O   UNL     1     -11.194 -16.197   8.866  1.00  0.00    -0.550 OA
ENDBRANCH  21  22
ENDBRANCH  20  21
ENDBRANCH  19  20
ENDBRANCH  18  19
ENDBRANCH  17  18
ENDBRANCH  16  17
ENDBRANCH  15  16
ENDBRANCH  14  15
ENDBRANCH  13  14
ENDBRANCH   1  13
TORSDOF 20
ENDMDL
MODEL 9
REMARK VINA RESULT:    -5.053      3.116      5.690
REMARK INTER + INTRA:         -13.723
REMARK INTER:                 -11.081
REMARK INTRA:                  -2.641
REMARK UNBOUND:                -2.762
REMARK SMILES CCCCCCCCCCCCCCCCCCCCCC(=O)[O-]
REMARK SMILES IDX 12 1 11 2 10 3 9 4 8 5 7 6 6 7 5 8 4 9 3 10 2 11 1 12 13 13
REMARK SMILES IDX 14 14 15 15 16 16 17 17 18 18 19 19 20 20 21 21 22 22 23 23
REMARK SMILES IDX 24 24
REMARK H PARENT
REMARK Flexibility Score: inf
ROOT
ATOM      1  C   UNL     1     -11.298  -7.555   9.033  1.00  0.00     0.000 C 
ENDROOT
BRANCH   1   2
ATOM      2  C   UNL     1     -12.563  -6.713   9.284  1.00  0.00     0.000 C 
BRANCH   2   3
ATOM      3  C   UNL     1     -13.648  -6.922   8.215  1.00  0.00     0.000 C 
BRANCH   3   4
ATOM      4  C   UNL     1     -15.044  -6.975   8.848  1.00  0.00    -0.000 C 
BRANCH   4   5
ATOM      5  C   UNL     1     -14.995  -6.552  10.324  1.00  0.00    -0.000 C 
BRANCH   5   6
ATOM      6  C   UNL     1     -15.764  -5.247  10.595  1.00  0.00    -0.000 C 
BRANCH   6   7
ATOM      7  C   UNL     1     -15.636  -4.180   9.491  1.00  0.00    -0.000 C 
BRANCH   7   8
ATOM      8  C   UNL     1     -14.291  -3.418   9.515  1.00  0.00    -0.000 C 
BRANCH   8   9
ATOM      9  C   UNL     1     -13.786  -3.000   8.118  1.00  0.00    -0.000 C 
BRANCH   9  10
ATOM     10  C   UNL     1     -14.603  -3.564   6.936  1.00  0.00    -0.000 C 
BRANCH  10  11
ATOM     11  C   UNL     1     -14.210  -3.022   5.550  1.00  0.00    -0.003 C 
ATOM     12  C   UNL     1     -14.246  -4.090   4.458  1.00  0.00     0.004 C 
ENDBRANCH  10  11
ENDBRANCH   9  10
ENDBRANCH   8   9
ENDBRANCH   7   8
ENDBRANCH   6   7
ENDBRANCH   5   6
ENDBRANCH   4   5
ENDBRANCH   3   4
ENDBRANCH   2   3
ENDBRANCH   1   2
BRANCH   1  13
ATOM     13  C   UNL     1     -11.007  -8.631  10.095  1.00  0.00     0.000 C 
BRANCH  13  14
ATOM     14  C   UNL     1     -12.211  -8.915  11.007  1.00  0.00     0.000 C 
BRANCH  14  15
ATOM     15  C   UNL     1     -13.074 -10.092  10.512  1.00  0.00     0.000 C 
BRANCH  15  16
ATOM     16  C   UNL     1     -12.355 -11.083   9.579  1.00  0.00     0.000 C 
BRANCH  16  17
ATOM     17  C   UNL     1     -11.583 -12.174  10.340  1.00  0.00     0.000 C 
BRANCH  17  18
ATOM     18  C   UNL     1     -10.380 -12.705   9.531  1.00  0.00     0.000 C 
BRANCH  18  19
ATOM     19  C   UNL     1     -10.518 -12.505   8.012  1.00  0.00     0.000 C 
BRANCH  19  20
ATOM     20  C   UNL     1      -9.304 -11.802   7.388  1.00  0.00     0.006 C 
BRANCH  20  21
ATOM     21  C   UNL     1      -9.081 -10.424   8.020  1.00  0.00     0.053 C 
BRANCH  21  22
ATOM     22  C   UNL     1      -7.916  -9.730   7.387  1.00  0.00     0.041 C 
ATOM     23  O   UNL     1      -7.961  -8.490   7.165  1.00  0.00    -0.550 OA
ATOM     24  O   UNL     1      -6.786 -10.456   7.026  1.00  0.00    -0.550 OA
ENDBRANCH  21  22
ENDBRANCH  20  21
ENDBRANCH  19  20
ENDBRANCH  18  19
ENDBRANCH  17  18
ENDBRANCH  16  17
ENDBRANCH  15  16
ENDBRANCH  14  15
ENDBRANCH  13  14
ENDBRANCH   1  13
TORSDOF 20
ENDMDL
