MODEL 1
REMARK VINA RESULT:    -6.159      0.000      0.000
REMARK INTER + INTRA:          -7.316
REMARK INTER:                  -7.059
REMARK INTRA:                  -0.257
REMARK UNBOUND:                -0.257
REMARK SMILES COc1ccc(C=O)c(O)c1
REMARK SMILES IDX 3 1 11 2 9 3 6 4 5 5 4 6 2 7 1 8 10 9 7 11 8 12
REMARK H PARENT 10 10
REMARK Flexibility Score: inf
ROOT
ATOM      1  C   UNL     1     -12.437   0.155 -10.347  1.00  0.00     0.122 A 
ATOM      2  C   UNL     1     -11.358   0.812  -9.748  1.00  0.00     0.093 A 
ATOM      3  C   UNL     1     -11.522   2.071  -9.153  1.00  0.00     0.129 A 
ATOM      4  C   UNL     1     -12.787   2.689  -9.155  1.00  0.00     0.056 A 
ATOM      5  C   UNL     1     -13.872   2.029  -9.758  1.00  0.00     0.019 A 
ATOM      6  C   UNL     1     -13.700   0.774 -10.348  1.00  0.00     0.047 A 
ENDROOT
BRANCH   1   7
ATOM      7  O   UNL     1     -12.215  -1.102 -10.927  1.00  0.00    -0.497 OA
ATOM      8  C   UNL     1     -13.212  -2.109 -11.073  1.00  0.00     0.278 C 
ENDBRANCH   1   7
BRANCH   3   9
ATOM      9  O   UNL     1     -10.430   2.706  -8.561  1.00  0.00    -0.507 OA
ATOM     10  H   UNL     1      -9.605   2.190  -8.277  1.00  0.00     0.293 HD
ENDBRANCH   3   9
BRANCH   4  11
ATOM     11  C   UNL     1     -12.972   4.017  -8.531  1.00  0.00     0.263 C 
ATOM     12  O   UNL     1     -12.448   4.289  -7.418  1.00  0.00    -0.298 OA
ENDBRANCH   4  11
TORSDOF 3
ENDMDL
MODEL 2
REMARK VINA RESULT:    -5.745      1.622      1.830
REMARK INTER + INTRA:          -6.842
REMARK INTER:                  -6.581
REMARK INTRA:                  -0.260
REMARK UNBOUND:                -0.257
REMARK SMILES COc1ccc(C=O)c(O)c1
REMARK SMILES IDX 3 1 11 2 9 3 6 4 5 5 4 6 2 7 1 8 10 9 7 11 8 12
REMARK H PARENT 10 10
REMARK Flexibility Score: inf
ROOT
ATOM      1  C   UNL     1     -11.356  -1.017 -10.058  1.00  0.00     0.122 A 
ATOM      2  C   UNL     1     -10.676   0.029  -9.426  1.00  0.00     0.093 A 
ATOM      3  C   UNL     1     -11.284   1.281  -9.251  1.00  0.00     0.129 A 
ATOM      4  C   UNL     1     -12.597   1.494  -9.713  1.00  0.00     0.056 A 
ATOM      5  C   UNL     1     -13.280   0.443 -10.348  1.00  0.00     0.019 A 
ATOM      6  C   UNL     1     -12.667  -0.802 -10.519  1.00  0.00     0.047 A 
ENDROOT
BRANCH   1   7
ATOM      7  O   UNL     1     -10.699  -2.247 -10.207  1.00  0.00    -0.497 OA
ATOM      8  C   UNL     1     -10.006  -2.921  -9.162  1.00  0.00     0.278 C 
ENDBRANCH   1   7
BRANCH   3   9
ATOM      9  O   UNL     1     -10.585   2.308  -8.618  1.00  0.00    -0.507 OA
ATOM     10  H   UNL     1     -10.869   2.667  -7.714  1.00  0.00     0.293 HD
ENDBRANCH   3   9
BRANCH   4  11
ATOM     11  C   UNL     1     -13.248   2.810  -9.533  1.00  0.00     0.263 C 
ATOM     12  O   UNL     1     -13.188   3.419  -8.433  1.00  0.00    -0.298 OA
ENDBRANCH   4  11
TORSDOF 3
ENDMDL
MODEL 3
REMARK VINA RESULT:    -5.672      1.285      4.434
REMARK INTER + INTRA:          -6.758
REMARK INTER:                  -6.486
REMARK INTRA:                  -0.272
REMARK UNBOUND:                -0.257
REMARK SMILES COc1ccc(C=O)c(O)c1
REMARK SMILES IDX 3 1 11 2 9 3 6 4 5 5 4 6 2 7 1 8 10 9 7 11 8 12
REMARK H PARENT 10 10
REMARK Flexibility Score: inf
ROOT
ATOM      1  C   UNL     1     -12.183   2.102  -9.228  1.00  0.00     0.122 A 
ATOM      2  C   UNL     1     -11.099   1.225  -9.333  1.00  0.00     0.093 A 
ATOM      3  C   UNL     1     -11.243  -0.027  -9.947  1.00  0.00     0.129 A 
ATOM      4  C   UNL     1     -12.493  -0.413 -10.469  1.00  0.00     0.056 A 
ATOM      5  C   UNL     1     -13.582   0.469 -10.364  1.00  0.00     0.019 A 
ATOM      6  C   UNL     1     -13.430   1.716  -9.750  1.00  0.00     0.047 A 
ENDROOT
BRANCH   1   7
ATOM      7  O   UNL     1     -11.981   3.342  -8.604  1.00  0.00    -0.497 OA
ATOM      8  C   UNL     1     -10.714   3.832  -8.178  1.00  0.00     0.278 C 
ENDBRANCH   1   7
BRANCH   3   9
ATOM      9  O   UNL     1     -10.147  -0.885 -10.038  1.00  0.00    -0.507 OA
ATOM     10  H   UNL     1      -9.202  -0.561  -9.867  1.00  0.00     0.293 HD
ENDBRANCH   3   9
BRANCH   4  11
ATOM     11  C   UNL     1     -12.657  -1.732 -11.118  1.00  0.00     0.263 C 
ATOM     12  O   UNL     1     -12.296  -2.790 -10.539  1.00  0.00    -0.298 OA
ENDBRANCH   4  11
TORSDOF 3
ENDMDL
MODEL 4
REMARK VINA RESULT:    -5.554      1.216      2.067
REMARK INTER + INTRA:          -6.623
REMARK INTER:                  -6.372
REMARK INTRA:                  -0.250
REMARK UNBOUND:                -0.257
REMARK SMILES COc1ccc(C=O)c(O)c1
REMARK SMILES IDX 3 1 11 2 9 3 6 4 5 5 4 6 2 7 1 8 10 9 7 11 8 12
REMARK H PARENT 10 10
REMARK Flexibility Score: inf
ROOT
ATOM      1  C   UNL     1     -12.459  -0.029 -10.390  1.00  0.00     0.122 A 
ATOM      2  C   UNL     1     -13.625   0.736 -10.286  1.00  0.00     0.093 A 
ATOM      3  C   UNL     1     -13.608   1.993  -9.666  1.00  0.00     0.129 A 
ATOM      4  C   UNL     1     -12.405   2.500  -9.138  1.00  0.00     0.056 A 
ATOM      5  C   UNL     1     -11.233   1.731  -9.243  1.00  0.00     0.019 A 
ATOM      6  C   UNL     1     -11.258   0.478  -9.863  1.00  0.00     0.047 A 
ENDROOT
BRANCH   1   7
ATOM      7  O   UNL     1     -12.534  -1.280 -11.020  1.00  0.00    -0.497 OA
ATOM      8  C   UNL     1     -12.136  -2.508 -10.422  1.00  0.00     0.278 C 
ENDBRANCH   1   7
BRANCH   3   9
ATOM      9  O   UNL     1     -14.785   2.736  -9.575  1.00  0.00    -0.507 OA
ATOM     10  H   UNL     1     -15.267   3.074 -10.400  1.00  0.00     0.293 HD
ENDBRANCH   3   9
BRANCH   4  11
ATOM     11  C   UNL     1     -12.376   3.824  -8.482  1.00  0.00     0.263 C 
ATOM     12  O   UNL     1     -13.299   4.184  -7.705  1.00  0.00    -0.298 OA
ENDBRANCH   4  11
TORSDOF 3
ENDMDL
MODEL 5
REMARK VINA RESULT:    -5.138      1.417      4.807
REMARK INTER + INTRA:          -6.146
REMARK INTER:                  -5.886
REMARK INTRA:                  -0.260
REMARK UNBOUND:                -0.257
REMARK SMILES COc1ccc(C=O)c(O)c1
REMARK SMILES IDX 3 1 11 2 9 3 6 4 5 5 4 6 2 7 1 8 10 9 7 11 8 12
REMARK H PARENT 10 10
REMARK Flexibility Score: inf
ROOT
ATOM      1  C   UNL     1     -13.106   2.269  -9.319  1.00  0.00     0.122 A 
ATOM      2  C   UNL     1     -13.984   1.359  -9.916  1.00  0.00     0.093 A 
ATOM      3  C   UNL     1     -13.517   0.142 -10.432  1.00  0.00     0.129 A 
ATOM      4  C   UNL     1     -12.147  -0.175 -10.352  1.00  0.00     0.056 A 
ATOM      5  C   UNL     1     -11.265   0.740  -9.752  1.00  0.00     0.019 A 
ATOM      6  C   UNL     1     -11.739   1.951  -9.240  1.00  0.00     0.047 A 
ENDROOT
BRANCH   1   7
ATOM      7  O   UNL     1     -13.629   3.471  -8.820  1.00  0.00    -0.497 OA
ATOM      8  C   UNL     1     -12.839   4.560  -8.354  1.00  0.00     0.278 C 
ENDBRANCH   1   7
BRANCH   3   9
ATOM      9  O   UNL     1     -14.412  -0.750 -11.024  1.00  0.00    -0.507 OA
ATOM     10  H   UNL     1     -14.139  -1.343 -11.798  1.00  0.00     0.293 HD
ENDBRANCH   3   9
BRANCH   4  11
ATOM     11  C   UNL     1     -11.643  -1.456 -10.894  1.00  0.00     0.263 C 
ATOM     12  O   UNL     1     -12.043  -2.557 -10.432  1.00  0.00    -0.298 OA
ENDBRANCH   4  11
TORSDOF 3
ENDMDL
MODEL 6
REMARK VINA RESULT:    -4.762      1.939      3.120
REMARK INTER + INTRA:          -5.715
REMARK INTER:                  -5.664
REMARK INTRA:                  -0.051
REMARK UNBOUND:                -0.257
REMARK SMILES COc1ccc(C=O)c(O)c1
REMARK SMILES IDX 3 1 11 2 9 3 6 4 5 5 4 6 2 7 1 8 10 9 7 11 8 12
REMARK H PARENT 10 10
REMARK Flexibility Score: inf
ROOT
ATOM      1  C   UNL     1     -10.837  -0.890 -10.070  1.00  0.00     0.122 A 
ATOM      2  C   UNL     1     -12.087  -1.195 -10.617  1.00  0.00     0.093 A 
ATOM      3  C   UNL     1     -13.139  -0.269 -10.572  1.00  0.00     0.129 A 
ATOM      4  C   UNL     1     -12.941   0.988  -9.969  1.00  0.00     0.056 A 
ATOM      5  C   UNL     1     -11.685   1.295  -9.419  1.00  0.00     0.019 A 
ATOM      6  C   UNL     1     -10.641   0.366  -9.468  1.00  0.00     0.047 A 
ENDROOT
BRANCH   1   7
ATOM      7  O   UNL     1      -9.822  -1.854 -10.143  1.00  0.00    -0.497 OA
ATOM      8  C   UNL     1      -9.903  -3.155  -9.569  1.00  0.00     0.278 C 
ENDBRANCH   1   7
BRANCH   3   9
ATOM      9  O   UNL     1     -14.376  -0.598 -11.125  1.00  0.00    -0.507 OA
ATOM     10  H   UNL     1     -14.576  -0.450 -12.107  1.00  0.00     0.293 HD
ENDBRANCH   3   9
BRANCH   4  11
ATOM     11  C   UNL     1     -14.043   1.973  -9.915  1.00  0.00     0.263 C 
ATOM     12  O   UNL     1     -13.986   2.969  -9.147  1.00  0.00    -0.298 OA
ENDBRANCH   4  11
TORSDOF 3
ENDMDL
MODEL 7
REMARK VINA RESULT:    -4.655     15.072     16.902
REMARK INTER + INTRA:          -5.593
REMARK INTER:                  -5.381
REMARK INTRA:                  -0.212
REMARK UNBOUND:                -0.257
REMARK SMILES COc1ccc(C=O)c(O)c1
REMARK SMILES IDX 3 1 11 2 9 3 6 4 5 5 4 6 2 7 1 8 10 9 7 11 8 12
REMARK H PARENT 10 10
REMARK Flexibility Score: inf
ROOT
ATOM      1  C   UNL     1     -13.096   5.841   5.400  1.00  0.00     0.122 A 
ATOM      2  C   UNL     1     -13.027   4.700   6.207  1.00  0.00     0.093 A 
ATOM      3  C   UNL     1     -12.153   4.645   7.301  1.00  0.00     0.129 A 
ATOM      4  C   UNL     1     -11.329   5.748   7.599  1.00  0.00     0.056 A 
ATOM      5  C   UNL     1     -11.399   6.894   6.788  1.00  0.00     0.019 A 
ATOM      6  C   UNL     1     -12.273   6.942   5.699  1.00  0.00     0.047 A 
ENDROOT
BRANCH   1   7
ATOM      7  O   UNL     1     -13.989   5.841   4.319  1.00  0.00    -0.497 OA
ATOM      8  C   UNL     1     -13.623   6.128   2.973  1.00  0.00     0.278 C 
ENDBRANCH   1   7
BRANCH   3   9
ATOM      9  O   UNL     1     -12.103   3.496   8.090  1.00  0.00    -0.507 OA
ATOM     10  H   UNL     1     -12.832   2.793   8.054  1.00  0.00     0.293 HD
ENDBRANCH   3   9
BRANCH   4  11
ATOM     11  C   UNL     1     -10.403   5.700   8.751  1.00  0.00     0.263 C 
ATOM     12  O   UNL     1      -9.880   4.614   9.118  1.00  0.00    -0.298 OA
ENDBRANCH   4  11
TORSDOF 3
ENDMDL
MODEL 8
REMARK VINA RESULT:    -4.475     16.141     17.233
REMARK INTER + INTRA:          -5.386
REMARK INTER:                  -5.119
REMARK INTRA:                  -0.267
REMARK UNBOUND:                -0.257
REMARK SMILES COc1ccc(C=O)c(O)c1
REMARK SMILES IDX 3 1 11 2 9 3 6 4 5 5 4 6 2 7 1 8 10 9 7 11 8 12
REMARK H PARENT 10 10
REMARK Flexibility Score: inf
ROOT
ATOM      1  C   UNL     1     -12.649   6.971   5.762  1.00  0.00     0.122 A 
ATOM      2  C   UNL     1     -11.418   7.208   6.382  1.00  0.00     0.093 A 
ATOM      3  C   UNL     1     -10.766   6.194   7.097  1.00  0.00     0.129 A 
ATOM      4  C   UNL     1     -11.352   4.917   7.197  1.00  0.00     0.056 A 
ATOM      5  C   UNL     1     -12.589   4.679   6.574  1.00  0.00     0.019 A 
ATOM      6  C   UNL     1     -13.233   5.696   5.863  1.00  0.00     0.047 A 
ENDROOT
BRANCH   1   7
ATOM      7  O   UNL     1     -13.256   8.023   5.060  1.00  0.00    -0.497 OA
ATOM      8  C   UNL     1     -14.663   8.223   4.969  1.00  0.00     0.278 C 
ENDBRANCH   1   7
BRANCH   3   9
ATOM      9  O   UNL     1      -9.539   6.455   7.707  1.00  0.00    -0.507 OA
ATOM     10  H   UNL     1      -8.966   7.245   7.433  1.00  0.00     0.293 HD
ENDBRANCH   3   9
BRANCH   4  11
ATOM     11  C   UNL     1     -10.673   3.840   7.949  1.00  0.00     0.263 C 
ATOM     12  O   UNL     1     -10.263   4.028   9.125  1.00  0.00    -0.298 OA
ENDBRANCH   4  11
TORSDOF 3
ENDMDL
MODEL 9
REMARK VINA RESULT:    -4.095     16.173     16.956
REMARK INTER + INTRA:          -4.951
REMARK INTER:                  -4.687
REMARK INTRA:                  -0.264
REMARK UNBOUND:                -0.257
REMARK SMILES COc1ccc(C=O)c(O)c1
REMARK SMILES IDX 3 1 11 2 9 3 6 4 5 5 4 6 2 7 1 8 10 9 7 11 8 12
REMARK H PARENT 10 10
REMARK Flexibility Score: inf
ROOT
ATOM      1  C   UNL     1     -11.264   5.121   7.001  1.00  0.00     0.122 A 
ATOM      2  C   UNL     1     -10.965   6.487   6.965  1.00  0.00     0.093 A 
ATOM      3  C   UNL     1     -11.790   7.386   6.276  1.00  0.00     0.129 A 
ATOM      4  C   UNL     1     -12.937   6.916   5.608  1.00  0.00     0.056 A 
ATOM      5  C   UNL     1     -13.237   5.543   5.644  1.00  0.00     0.019 A 
ATOM      6  C   UNL     1     -12.410   4.653   6.334  1.00  0.00     0.047 A 
ENDROOT
BRANCH   1   7
ATOM      7  O   UNL     1     -10.403   4.267   7.706  1.00  0.00    -0.497 OA
ATOM      8  C   UNL     1     -10.358   4.161   9.125  1.00  0.00     0.278 C 
ENDBRANCH   1   7
BRANCH   3   9
ATOM      9  O   UNL     1     -11.471   8.744   6.255  1.00  0.00    -0.507 OA
ATOM     10  H   UNL     1     -10.977   9.162   5.474  1.00  0.00     0.293 HD
ENDBRANCH   3   9
BRANCH   4  11
ATOM     11  C   UNL     1     -13.815   7.855   4.877  1.00  0.00     0.263 C 
ATOM     12  O   UNL     1     -14.263   8.891   5.435  1.00  0.00    -0.298 OA
ENDBRANCH   4  11
TORSDOF 3
ENDMDL
