MODEL 1
REMARK VINA RESULT:    -2.616      0.000      0.000
REMARK INTER + INTRA:         -12.274
REMARK INTER:                  -6.592
REMARK INTRA:                  -5.682
REMARK UNBOUND:                -5.682
REMARK SMILES CCCCCCCCCCCCCCCCCCCCCCCCCCCC(=O)[O-]
REMARK SMILES IDX 15 1 16 2 17 3 18 4 19 5 20 6 21 7 22 8 23 9 24 10 25 11
REMARK SMILES IDX 26 12 27 13 28 14 29 15 30 16 14 17 13 18 12 19 11 20 10 21
REMARK SMILES IDX 9 22 8 23 7 24 6 25 5 26 4 27 3 28 2 29 1 30
REMARK H PARENT
REMARK Flexibility Score: inf
ROOT
ATOM      1  C   UNL     1    -107.584 -48.266 -57.370  1.00  0.00     0.000 C 
ENDROOT
BRANCH   1   2
ATOM      2  C   UNL     1    -108.221 -47.754 -58.676  1.00  0.00     0.000 C 
BRANCH   2   3
ATOM      3  C   UNL     1    -108.995 -46.428 -58.524  1.00  0.00     0.000 C 
BRANCH   3   4
ATOM      4  C   UNL     1    -109.543 -45.887 -59.862  1.00  0.00     0.000 C 
BRANCH   4   5
ATOM      5  C   UNL     1    -109.106 -46.696 -61.097  1.00  0.00     0.000 C 
BRANCH   5   6
ATOM      6  C   UNL     1    -110.231 -46.954 -62.122  1.00  0.00     0.000 C 
BRANCH   6   7
ATOM      7  C   UNL     1    -111.416 -47.791 -61.600  1.00  0.00     0.000 C 
BRANCH   7   8
ATOM      8  C   UNL     1    -111.307 -49.318 -61.806  1.00  0.00     0.000 C 
BRANCH   8   9
ATOM      9  C   UNL     1    -110.839 -50.120 -60.580  1.00  0.00     0.000 C 
BRANCH   9  10
ATOM     10  C   UNL     1    -109.329 -50.412 -60.601  1.00  0.00     0.000 C 
BRANCH  10  11
ATOM     11  C   UNL     1    -108.800 -50.723 -62.012  1.00  0.00     0.000 C 
BRANCH  11  12
ATOM     12  C   UNL     1    -107.701 -49.771 -62.525  1.00  0.00     0.006 C 
BRANCH  12  13
ATOM     13  C   UNL     1    -107.805 -49.419 -64.018  1.00  0.00     0.053 C 
BRANCH  13  14
ATOM     14  C   UNL     1    -106.817 -50.184 -64.844  1.00  0.00     0.041 C 
ATOM     15  O   UNL     1    -106.536 -49.799 -66.010  1.00  0.00    -0.550 OA
ATOM     16  O   UNL     1    -106.176 -51.296 -64.312  1.00  0.00    -0.550 OA
ENDBRANCH  13  14
ENDBRANCH  12  13
ENDBRANCH  11  12
ENDBRANCH  10  11
ENDBRANCH   9  10
ENDBRANCH   8   9
ENDBRANCH   7   8
ENDBRANCH   6   7
ENDBRANCH   5   6
ENDBRANCH   4   5
ENDBRANCH   3   4
ENDBRANCH   2   3
ENDBRANCH   1   2
BRANCH   1  17
ATOM     17  C   UNL     1    -107.513 -47.218 -56.238  1.00  0.00     0.000 C 
BRANCH  17  18
ATOM     18  C   UNL     1    -108.131 -47.656 -54.893  1.00  0.00     0.000 C 
BRANCH  18  19
ATOM     19  C   UNL     1    -109.385 -46.879 -54.450  1.00  0.00     0.000 C 
BRANCH  19  20
ATOM     20  C   UNL     1    -109.405 -45.424 -54.948  1.00  0.00     0.000 C 
BRANCH  20  21
ATOM     21  C   UNL     1    -110.697 -45.089 -55.713  1.00  0.00     0.000 C 
BRANCH  21  22
ATOM     22  C   UNL     1    -111.699 -46.256 -55.715  1.00  0.00    -0.000 C 
BRANCH  22  23
ATOM     23  C   UNL     1    -112.283 -46.539 -57.111  1.00  0.00    -0.000 C 
BRANCH  23  24
ATOM     24  C   UNL     1    -112.107 -47.986 -57.611  1.00  0.00    -0.000 C 
BRANCH  24  25
ATOM     25  C   UNL     1    -111.697 -48.956 -56.492  1.00  0.00    -0.000 C 
BRANCH  25  26
ATOM     26  C   UNL     1    -110.742 -50.062 -56.976  1.00  0.00    -0.000 C 
BRANCH  26  27
ATOM     27  C   UNL     1    -109.876 -50.713 -55.878  1.00  0.00    -0.000 C 
BRANCH  27  28
ATOM     28  C   UNL     1    -109.307 -52.100 -56.230  1.00  0.00    -0.000 C 
BRANCH  28  29
ATOM     29  C   UNL     1    -108.022 -52.021 -57.066  1.00  0.00    -0.003 C 
ATOM     30  C   UNL     1    -108.184 -52.759 -58.392  1.00  0.00     0.004 C 
ENDBRANCH  28  29
ENDBRANCH  27  28
ENDBRANCH  26  27
ENDBRANCH  25  26
ENDBRANCH  24  25
ENDBRANCH  23  24
ENDBRANCH  22  23
ENDBRANCH  21  22
ENDBRANCH  20  21
ENDBRANCH  19  20
ENDBRANCH  18  19
ENDBRANCH  17  18
ENDBRANCH   1  17
TORSDOF 26
ENDMDL
MODEL 2
REMARK VINA RESULT:    -2.580      1.293      2.259
REMARK INTER + INTRA:         -12.183
REMARK INTER:                  -6.497
REMARK INTRA:                  -5.687
REMARK UNBOUND:                -5.682
REMARK SMILES CCCCCCCCCCCCCCCCCCCCCCCCCCCC(=O)[O-]
REMARK SMILES IDX 15 1 16 2 17 3 18 4 19 5 20 6 21 7 22 8 23 9 24 10 25 11
REMARK SMILES IDX 26 12 27 13 28 14 29 15 30 16 14 17 13 18 12 19 11 20 10 21
REMARK SMILES IDX 9 22 8 23 7 24 6 25 5 26 4 27 3 28 2 29 1 30
REMARK H PARENT
REMARK Flexibility Score: inf
ROOT
ATOM      1  C   UNL     1    -107.207 -47.613 -57.642  1.00  0.00     0.000 C 
ENDROOT
BRANCH   1   2
ATOM      2  C   UNL     1    -108.424 -47.419 -58.566  1.00  0.00     0.000 C 
BRANCH   2   3
ATOM      3  C   UNL     1    -108.982 -48.730 -59.160  1.00  0.00     0.000 C 
BRANCH   3   4
ATOM      4  C   UNL     1    -110.499 -48.673 -59.440  1.00  0.00     0.000 C 
BRANCH   4   5
ATOM      5  C   UNL     1    -111.183 -47.382 -58.955  1.00  0.00     0.000 C 
BRANCH   5   6
ATOM      6  C   UNL     1    -111.669 -46.452 -60.088  1.00  0.00     0.000 C 
BRANCH   6   7
ATOM      7  C   UNL     1    -110.768 -45.231 -60.366  1.00  0.00     0.000 C 
BRANCH   7   8
ATOM      8  C   UNL     1    -109.693 -45.421 -61.459  1.00  0.00     0.000 C 
BRANCH   8   9
ATOM      9  C   UNL     1    -110.108 -46.302 -62.649  1.00  0.00     0.000 C 
BRANCH   9  10
ATOM     10  C   UNL     1    -109.254 -47.575 -62.775  1.00  0.00     0.000 C 
BRANCH  10  11
ATOM     11  C   UNL     1    -110.101 -48.849 -62.938  1.00  0.00     0.000 C 
BRANCH  11  12
ATOM     12  C   UNL     1    -109.327 -50.175 -62.793  1.00  0.00     0.006 C 
BRANCH  12  13
ATOM     13  C   UNL     1    -107.802 -50.016 -62.689  1.00  0.00     0.053 C 
BRANCH  13  14
ATOM     14  C   UNL     1    -107.098 -50.559 -63.895  1.00  0.00     0.041 C 
ATOM     15  O   UNL     1    -106.833 -51.788 -63.973  1.00  0.00    -0.550 OA
ATOM     16  O   UNL     1    -106.773 -49.716 -64.950  1.00  0.00    -0.550 OA
ENDBRANCH  13  14
ENDBRANCH  12  13
ENDBRANCH  11  12
ENDBRANCH  10  11
ENDBRANCH   9  10
ENDBRANCH   8   9
ENDBRANCH   7   8
ENDBRANCH   6   7
ENDBRANCH   5   6
ENDBRANCH   4   5
ENDBRANCH   3   4
ENDBRANCH   2   3
ENDBRANCH   1   2
BRANCH   1  17
ATOM     17  C   UNL     1    -107.354 -48.764 -56.623  1.00  0.00     0.000 C 
BRANCH  17  18
ATOM     18  C   UNL     1    -107.460 -48.328 -55.146  1.00  0.00     0.000 C 
BRANCH  18  19
ATOM     19  C   UNL     1    -107.273 -46.823 -54.879  1.00  0.00     0.000 C 
BRANCH  19  20
ATOM     20  C   UNL     1    -108.539 -46.142 -54.332  1.00  0.00     0.000 C 
BRANCH  20  21
ATOM     21  C   UNL     1    -109.451 -45.620 -55.455  1.00  0.00     0.000 C 
BRANCH  21  22
ATOM     22  C   UNL     1    -110.767 -46.411 -55.560  1.00  0.00    -0.000 C 
BRANCH  22  23
ATOM     23  C   UNL     1    -110.960 -47.405 -54.401  1.00  0.00    -0.000 C 
BRANCH  23  24
ATOM     24  C   UNL     1    -111.603 -48.748 -54.794  1.00  0.00    -0.000 C 
BRANCH  24  25
ATOM     25  C   UNL     1    -110.806 -49.495 -55.875  1.00  0.00    -0.000 C 
BRANCH  25  26
ATOM     26  C   UNL     1    -111.616 -50.619 -56.549  1.00  0.00    -0.000 C 
BRANCH  26  27
ATOM     27  C   UNL     1    -110.788 -51.826 -57.038  1.00  0.00    -0.000 C 
BRANCH  27  28
ATOM     28  C   UNL     1    -109.311 -51.825 -56.602  1.00  0.00    -0.000 C 
BRANCH  28  29
ATOM     29  C   UNL     1    -108.357 -52.229 -57.735  1.00  0.00    -0.003 C 
ATOM     30  C   UNL     1    -109.109 -52.390 -59.053  1.00  0.00     0.004 C 
ENDBRANCH  28  29
ENDBRANCH  27  28
ENDBRANCH  26  27
ENDBRANCH  25  26
ENDBRANCH  24  25
ENDBRANCH  23  24
ENDBRANCH  22  23
ENDBRANCH  21  22
ENDBRANCH  20  21
ENDBRANCH  19  20
ENDBRANCH  18  19
ENDBRANCH  17  18
ENDBRANCH   1  17
TORSDOF 26
ENDMDL
MODEL 3
REMARK VINA RESULT:    -2.481      1.475      4.830
REMARK INTER + INTRA:         -11.935
REMARK INTER:                  -6.331
REMARK INTRA:                  -5.604
REMARK UNBOUND:                -5.682
REMARK SMILES CCCCCCCCCCCCCCCCCCCCCCCCCCCC(=O)[O-]
REMARK SMILES IDX 15 1 16 2 17 3 18 4 19 5 20 6 21 7 22 8 23 9 24 10 25 11
REMARK SMILES IDX 26 12 27 13 28 14 29 15 30 16 14 17 13 18 12 19 11 20 10 21
REMARK SMILES IDX 9 22 8 23 7 24 6 25 5 26 4 27 3 28 2 29 1 30
REMARK H PARENT
REMARK Flexibility Score: inf
ROOT
ATOM      1  C   UNL     1    -111.765 -50.462 -59.595  1.00  0.00     0.000 C 
ENDROOT
BRANCH   1   2
ATOM      2  C   UNL     1    -110.744 -49.318 -59.442  1.00  0.00     0.000 C 
BRANCH   2   3
ATOM      3  C   UNL     1    -109.429 -49.536 -60.219  1.00  0.00     0.000 C 
BRANCH   3   4
ATOM      4  C   UNL     1    -108.466 -48.332 -60.136  1.00  0.00     0.000 C 
BRANCH   4   5
ATOM      5  C   UNL     1    -108.452 -47.449 -61.398  1.00  0.00     0.000 C 
BRANCH   5   6
ATOM      6  C   UNL     1    -109.554 -46.368 -61.433  1.00  0.00     0.000 C 
BRANCH   6   7
ATOM      7  C   UNL     1    -110.603 -46.535 -62.552  1.00  0.00     0.000 C 
BRANCH   7   8
ATOM      8  C   UNL     1    -111.860 -47.352 -62.182  1.00  0.00     0.000 C 
BRANCH   8   9
ATOM      9  C   UNL     1    -112.113 -48.603 -63.041  1.00  0.00     0.000 C 
BRANCH   9  10
ATOM     10  C   UNL     1    -110.857 -49.073 -63.793  1.00  0.00     0.000 C 
BRANCH  10  11
ATOM     11  C   UNL     1    -110.563 -50.570 -63.586  1.00  0.00     0.000 C 
BRANCH  11  12
ATOM     12  C   UNL     1    -109.173 -51.037 -64.065  1.00  0.00     0.006 C 
BRANCH  12  13
ATOM     13  C   UNL     1    -108.101 -49.936 -64.088  1.00  0.00     0.053 C 
BRANCH  13  14
ATOM     14  C   UNL     1    -106.838 -50.398 -64.747  1.00  0.00     0.041 C 
ATOM     15  O   UNL     1    -106.139 -51.300 -64.212  1.00  0.00    -0.550 OA
ATOM     16  O   UNL     1    -106.455 -49.864 -65.971  1.00  0.00    -0.550 OA
ENDBRANCH  13  14
ENDBRANCH  12  13
ENDBRANCH  11  12
ENDBRANCH  10  11
ENDBRANCH   9  10
ENDBRANCH   8   9
ENDBRANCH   7   8
ENDBRANCH   6   7
ENDBRANCH   5   6
ENDBRANCH   4   5
ENDBRANCH   3   4
ENDBRANCH   2   3
ENDBRANCH   1   2
BRANCH   1  17
ATOM     17  C   UNL     1    -111.265 -51.657 -60.437  1.00  0.00     0.000 C 
BRANCH  17  18
ATOM     18  C   UNL     1    -111.484 -53.048 -59.803  1.00  0.00     0.000 C 
BRANCH  18  19
ATOM     19  C   UNL     1    -110.656 -53.342 -58.538  1.00  0.00     0.000 C 
BRANCH  19  20
ATOM     20  C   UNL     1    -109.167 -52.990 -58.692  1.00  0.00     0.000 C 
BRANCH  20  21
ATOM     21  C   UNL     1    -108.598 -52.307 -57.436  1.00  0.00     0.000 C 
BRANCH  21  22
ATOM     22  C   UNL     1    -109.691 -51.646 -56.579  1.00  0.00    -0.000 C 
BRANCH  22  23
ATOM     23  C   UNL     1    -109.367 -50.184 -56.223  1.00  0.00    -0.000 C 
BRANCH  23  24
ATOM     24  C   UNL     1    -107.993 -49.683 -56.706  1.00  0.00    -0.000 C 
BRANCH  24  25
ATOM     25  C   UNL     1    -107.425 -48.561 -55.822  1.00  0.00    -0.000 C 
BRANCH  25  26
ATOM     26  C   UNL     1    -107.547 -47.168 -56.469  1.00  0.00    -0.000 C 
BRANCH  26  27
ATOM     27  C   UNL     1    -108.577 -46.225 -55.814  1.00  0.00    -0.000 C 
BRANCH  27  28
ATOM     28  C   UNL     1    -110.029 -46.410 -56.291  1.00  0.00    -0.000 C 
BRANCH  28  29
ATOM     29  C   UNL     1    -110.199 -46.148 -57.794  1.00  0.00    -0.003 C 
ATOM     30  C   UNL     1    -110.421 -44.664 -58.070  1.00  0.00     0.004 C 
ENDBRANCH  28  29
ENDBRANCH  27  28
ENDBRANCH  26  27
ENDBRANCH  25  26
ENDBRANCH  24  25
ENDBRANCH  23  24
ENDBRANCH  22  23
ENDBRANCH  21  22
ENDBRANCH  20  21
ENDBRANCH  19  20
ENDBRANCH  18  19
ENDBRANCH  17  18
ENDBRANCH   1  17
TORSDOF 26
ENDMDL
MODEL 4
REMARK VINA RESULT:    -2.478      1.440      3.281
REMARK INTER + INTRA:         -11.926
REMARK INTER:                  -6.344
REMARK INTRA:                  -5.581
REMARK UNBOUND:                -5.682
REMARK SMILES CCCCCCCCCCCCCCCCCCCCCCCCCCCC(=O)[O-]
REMARK SMILES IDX 15 1 16 2 17 3 18 4 19 5 20 6 21 7 22 8 23 9 24 10 25 11
REMARK SMILES IDX 26 12 27 13 28 14 29 15 30 16 14 17 13 18 12 19 11 20 10 21
REMARK SMILES IDX 9 22 8 23 7 24 6 25 5 26 4 27 3 28 2 29 1 30
REMARK H PARENT
REMARK Flexibility Score: inf
ROOT
ATOM      1  C   UNL     1    -110.107 -49.051 -55.118  1.00  0.00     0.000 C 
ENDROOT
BRANCH   1   2
ATOM      2  C   UNL     1    -110.862 -47.712 -55.227  1.00  0.00     0.000 C 
BRANCH   2   3
ATOM      3  C   UNL     1    -110.086 -46.502 -54.666  1.00  0.00     0.000 C 
BRANCH   3   4
ATOM      4  C   UNL     1    -109.801 -45.417 -55.727  1.00  0.00     0.000 C 
BRANCH   4   5
ATOM      5  C   UNL     1    -110.789 -45.414 -56.908  1.00  0.00     0.000 C 
BRANCH   5   6
ATOM      6  C   UNL     1    -110.381 -44.495 -58.079  1.00  0.00     0.000 C 
BRANCH   6   7
ATOM      7  C   UNL     1    -110.740 -45.023 -59.484  1.00  0.00     0.000 C 
BRANCH   7   8
ATOM      8  C   UNL     1    -109.734 -44.690 -60.607  1.00  0.00     0.000 C 
BRANCH   8   9
ATOM      9  C   UNL     1    -109.250 -45.890 -61.439  1.00  0.00     0.000 C 
BRANCH   9  10
ATOM     10  C   UNL     1    -110.388 -46.858 -61.805  1.00  0.00     0.000 C 
BRANCH  10  11
ATOM     11  C   UNL     1    -109.880 -48.165 -62.439  1.00  0.00     0.000 C 
BRANCH  11  12
ATOM     12  C   UNL     1    -108.348 -48.347 -62.430  1.00  0.00     0.006 C 
BRANCH  12  13
ATOM     13  C   UNL     1    -107.878 -49.810 -62.458  1.00  0.00     0.053 C 
BRANCH  13  14
ATOM     14  C   UNL     1    -107.373 -50.210 -63.810  1.00  0.00     0.041 C 
ATOM     15  O   UNL     1    -107.770 -49.601 -64.839  1.00  0.00    -0.550 OA
ATOM     16  O   UNL     1    -106.434 -51.226 -63.930  1.00  0.00    -0.550 OA
ENDBRANCH  13  14
ENDBRANCH  12  13
ENDBRANCH  11  12
ENDBRANCH  10  11
ENDBRANCH   9  10
ENDBRANCH   8   9
ENDBRANCH   7   8
ENDBRANCH   6   7
ENDBRANCH   5   6
ENDBRANCH   4   5
ENDBRANCH   3   4
ENDBRANCH   2   3
ENDBRANCH   1   2
BRANCH   1  17
ATOM     17  C   UNL     1    -108.874 -49.017 -54.189  1.00  0.00     0.000 C 
BRANCH  17  18
ATOM     18  C   UNL     1    -107.507 -49.084 -54.904  1.00  0.00     0.000 C 
BRANCH  18  19
ATOM     19  C   UNL     1    -107.562 -49.155 -56.441  1.00  0.00     0.000 C 
BRANCH  19  20
ATOM     20  C   UNL     1    -107.246 -47.812 -57.123  1.00  0.00     0.000 C 
BRANCH  20  21
ATOM     21  C   UNL     1    -108.113 -47.575 -58.371  1.00  0.00     0.000 C 
BRANCH  21  22
ATOM     22  C   UNL     1    -108.923 -48.821 -58.770  1.00  0.00    -0.000 C 
BRANCH  22  23
ATOM     23  C   UNL     1    -110.443 -48.581 -58.736  1.00  0.00    -0.000 C 
BRANCH  23  24
ATOM     24  C   UNL     1    -111.304 -49.787 -59.158  1.00  0.00    -0.000 C 
BRANCH  24  25
ATOM     25  C   UNL     1    -112.356 -50.164 -58.103  1.00  0.00    -0.000 C 
BRANCH  25  26
ATOM     26  C   UNL     1    -112.142 -51.574 -57.519  1.00  0.00    -0.000 C 
BRANCH  26  27
ATOM     27  C   UNL     1    -110.733 -51.847 -56.955  1.00  0.00    -0.000 C 
BRANCH  27  28
ATOM     28  C   UNL     1    -110.247 -53.302 -57.087  1.00  0.00    -0.000 C 
BRANCH  28  29
ATOM     29  C   UNL     1    -109.655 -53.608 -58.469  1.00  0.00    -0.003 C 
ATOM     30  C   UNL     1    -108.692 -52.509 -58.909  1.00  0.00     0.004 C 
ENDBRANCH  28  29
ENDBRANCH  27  28
ENDBRANCH  26  27
ENDBRANCH  25  26
ENDBRANCH  24  25
ENDBRANCH  23  24
ENDBRANCH  22  23
ENDBRANCH  21  22
ENDBRANCH  20  21
ENDBRANCH  19  20
ENDBRANCH  18  19
ENDBRANCH  17  18
ENDBRANCH   1  17
TORSDOF 26
ENDMDL
MODEL 5
REMARK VINA RESULT:    -2.474      8.964     15.188
REMARK INTER + INTRA:         -11.916
REMARK INTER:                  -8.133
REMARK INTRA:                  -3.783
REMARK UNBOUND:                -5.682
REMARK SMILES CCCCCCCCCCCCCCCCCCCCCCCCCCCC(=O)[O-]
REMARK SMILES IDX 15 1 16 2 17 3 18 4 19 5 20 6 21 7 22 8 23 9 24 10 25 11
REMARK SMILES IDX 26 12 27 13 28 14 29 15 30 16 14 17 13 18 12 19 11 20 10 21
REMARK SMILES IDX 9 22 8 23 7 24 6 25 5 26 4 27 3 28 2 29 1 30
REMARK H PARENT
REMARK Flexibility Score: inf
ROOT
ATOM      1  C   UNL     1    -103.747 -46.880 -69.975  1.00  0.00     0.000 C 
ENDROOT
BRANCH   1   2
ATOM      2  C   UNL     1    -104.166 -48.086 -70.838  1.00  0.00     0.000 C 
BRANCH   2   3
ATOM      3  C   UNL     1    -105.190 -47.747 -71.943  1.00  0.00     0.000 C 
BRANCH   3   4
ATOM      4  C   UNL     1    -105.005 -48.590 -73.223  1.00  0.00     0.000 C 
BRANCH   4   5
ATOM      5  C   UNL     1    -103.973 -49.725 -73.087  1.00  0.00     0.000 C 
BRANCH   5   6
ATOM      6  C   UNL     1    -104.490 -51.114 -73.522  1.00  0.00     0.000 C 
BRANCH   6   7
ATOM      7  C   UNL     1    -104.194 -52.263 -72.536  1.00  0.00     0.000 C 
BRANCH   7   8
ATOM      8  C   UNL     1    -105.382 -52.727 -71.665  1.00  0.00     0.000 C 
BRANCH   8   9
ATOM      9  C   UNL     1    -106.433 -51.648 -71.350  1.00  0.00     0.000 C 
BRANCH   9  10
ATOM     10  C   UNL     1    -106.225 -50.998 -69.973  1.00  0.00     0.000 C 
BRANCH  10  11
ATOM     11  C   UNL     1    -107.245 -49.883 -69.678  1.00  0.00     0.000 C 
BRANCH  11  12
ATOM     12  C   UNL     1    -106.935 -49.021 -68.438  1.00  0.00     0.006 C 
BRANCH  12  13
ATOM     13  C   UNL     1    -108.021 -49.053 -67.350  1.00  0.00     0.053 C 
BRANCH  13  14
ATOM     14  C   UNL     1    -107.469 -49.465 -66.020  1.00  0.00     0.041 C 
ATOM     15  O   UNL     1    -106.303 -49.935 -65.937  1.00  0.00    -0.550 OA
ATOM     16  O   UNL     1    -108.224 -49.290 -64.867  1.00  0.00    -0.550 OA
ENDBRANCH  13  14
ENDBRANCH  12  13
ENDBRANCH  11  12
ENDBRANCH  10  11
ENDBRANCH   9  10
ENDBRANCH   8   9
ENDBRANCH   7   8
ENDBRANCH   6   7
ENDBRANCH   5   6
ENDBRANCH   4   5
ENDBRANCH   3   4
ENDBRANCH   2   3
ENDBRANCH   1   2
BRANCH   1  17
ATOM     17  C   UNL     1    -103.513 -45.576 -70.768  1.00  0.00     0.000 C 
BRANCH  17  18
ATOM     18  C   UNL     1    -102.136 -45.461 -71.457  1.00  0.00     0.000 C 
BRANCH  18  19
ATOM     19  C   UNL     1    -102.163 -45.393 -72.995  1.00  0.00     0.000 C 
BRANCH  19  20
ATOM     20  C   UNL     1    -101.750 -46.713 -73.668  1.00  0.00     0.000 C 
BRANCH  20  21
ATOM     21  C   UNL     1    -100.995 -47.646 -72.706  1.00  0.00     0.000 C 
BRANCH  21  22
ATOM     22  C   UNL     1     -99.515 -47.815 -73.090  1.00  0.00    -0.000 C 
BRANCH  22  23
ATOM     23  C   UNL     1     -98.557 -47.145 -72.089  1.00  0.00    -0.000 C 
BRANCH  23  24
ATOM     24  C   UNL     1     -98.982 -47.246 -70.611  1.00  0.00    -0.000 C 
BRANCH  24  25
ATOM     25  C   UNL     1     -98.845 -45.912 -69.861  1.00  0.00    -0.000 C 
BRANCH  25  26
ATOM     26  C   UNL     1     -97.724 -45.929 -68.806  1.00  0.00    -0.000 C 
BRANCH  26  27
ATOM     27  C   UNL     1     -96.295 -46.097 -69.364  1.00  0.00    -0.000 C 
BRANCH  27  28
ATOM     28  C   UNL     1     -95.165 -45.920 -68.332  1.00  0.00    -0.000 C 
BRANCH  28  29
ATOM     29  C   UNL     1     -94.013 -46.913 -68.536  1.00  0.00    -0.003 C 
ATOM     30  C   UNL     1     -93.875 -47.298 -70.007  1.00  0.00     0.004 C 
ENDBRANCH  28  29
ENDBRANCH  27  28
ENDBRANCH  26  27
ENDBRANCH  25  26
ENDBRANCH  24  25
ENDBRANCH  23  24
ENDBRANCH  22  23
ENDBRANCH  21  22
ENDBRANCH  20  21
ENDBRANCH  19  20
ENDBRANCH  18  19
ENDBRANCH  17  18
ENDBRANCH   1  17
TORSDOF 26
ENDMDL
MODEL 6
REMARK VINA RESULT:    -2.450      2.748      6.806
REMARK INTER + INTRA:         -11.856
REMARK INTER:                  -6.359
REMARK INTRA:                  -5.496
REMARK UNBOUND:                -5.682
REMARK SMILES CCCCCCCCCCCCCCCCCCCCCCCCCCCC(=O)[O-]
REMARK SMILES IDX 15 1 16 2 17 3 18 4 19 5 20 6 21 7 22 8 23 9 24 10 25 11
REMARK SMILES IDX 26 12 27 13 28 14 29 15 30 16 14 17 13 18 12 19 11 20 10 21
REMARK SMILES IDX 9 22 8 23 7 24 6 25 5 26 4 27 3 28 2 29 1 30
REMARK H PARENT
REMARK Flexibility Score: inf
ROOT
ATOM      1  C   UNL     1    -109.648 -45.535 -59.357  1.00  0.00     0.000 C 
ENDROOT
BRANCH   1   2
ATOM      2  C   UNL     1    -109.241 -46.371 -58.128  1.00  0.00     0.000 C 
BRANCH   2   3
ATOM      3  C   UNL     1    -108.193 -47.464 -58.426  1.00  0.00     0.000 C 
BRANCH   3   4
ATOM      4  C   UNL     1    -107.154 -47.636 -57.298  1.00  0.00     0.000 C 
BRANCH   4   5
ATOM      5  C   UNL     1    -107.594 -47.054 -55.942  1.00  0.00     0.000 C 
BRANCH   5   6
ATOM      6  C   UNL     1    -107.568 -48.064 -54.775  1.00  0.00     0.000 C 
BRANCH   6   7
ATOM      7  C   UNL     1    -108.953 -48.497 -54.250  1.00  0.00     0.000 C 
BRANCH   7   8
ATOM      8  C   UNL     1    -110.158 -47.687 -54.778  1.00  0.00     0.000 C 
BRANCH   8   9
ATOM      9  C   UNL     1    -111.045 -48.413 -55.803  1.00  0.00     0.000 C 
BRANCH   9  10
ATOM     10  C   UNL     1    -110.607 -49.867 -56.048  1.00  0.00     0.000 C 
BRANCH  10  11
ATOM     11  C   UNL     1    -110.438 -50.197 -57.541  1.00  0.00     0.000 C 
BRANCH  11  12
ATOM     12  C   UNL     1    -109.196 -51.043 -57.890  1.00  0.00     0.006 C 
BRANCH  12  13
ATOM     13  C   UNL     1    -108.156 -51.146 -56.764  1.00  0.00     0.053 C 
BRANCH  13  14
ATOM     14  C   UNL     1    -107.997 -52.552 -56.274  1.00  0.00     0.041 C 
ATOM     15  O   UNL     1    -108.607 -53.494 -56.846  1.00  0.00    -0.550 OA
ATOM     16  O   UNL     1    -107.144 -52.828 -55.213  1.00  0.00    -0.550 OA
ENDBRANCH  13  14
ENDBRANCH  12  13
ENDBRANCH  11  12
ENDBRANCH  10  11
ENDBRANCH   9  10
ENDBRANCH   8   9
ENDBRANCH   7   8
ENDBRANCH   6   7
ENDBRANCH   5   6
ENDBRANCH   4   5
ENDBRANCH   3   4
ENDBRANCH   2   3
ENDBRANCH   1   2
BRANCH   1  17
ATOM     17  C   UNL     1    -111.162 -45.546 -59.665  1.00  0.00     0.000 C 
BRANCH  17  18
ATOM     18  C   UNL     1    -111.899 -46.852 -59.298  1.00  0.00     0.000 C 
BRANCH  18  19
ATOM     19  C   UNL     1    -111.701 -48.027 -60.273  1.00  0.00     0.000 C 
BRANCH  19  20
ATOM     20  C   UNL     1    -111.868 -47.626 -61.749  1.00  0.00     0.000 C 
BRANCH  20  21
ATOM     21  C   UNL     1    -110.732 -48.170 -62.632  1.00  0.00     0.000 C 
BRANCH  21  22
ATOM     22  C   UNL     1    -109.408 -47.416 -62.417  1.00  0.00    -0.000 C 
BRANCH  22  23
ATOM     23  C   UNL     1    -108.279 -48.327 -61.901  1.00  0.00    -0.000 C 
BRANCH  23  24
ATOM     24  C   UNL     1    -108.736 -49.706 -61.387  1.00  0.00    -0.000 C 
BRANCH  24  25
ATOM     25  C   UNL     1    -108.211 -50.864 -62.250  1.00  0.00    -0.000 C 
BRANCH  25  26
ATOM     26  C   UNL     1    -107.145 -50.419 -63.269  1.00  0.00    -0.000 C 
BRANCH  26  27
ATOM     27  C   UNL     1    -107.527 -50.613 -64.751  1.00  0.00    -0.000 C 
BRANCH  27  28
ATOM     28  C   UNL     1    -108.985 -50.261 -65.102  1.00  0.00    -0.000 C 
BRANCH  28  29
ATOM     29  C   UNL     1    -109.864 -51.503 -65.306  1.00  0.00    -0.003 C 
ATOM     30  C   UNL     1    -111.175 -51.379 -64.535  1.00  0.00     0.004 C 
ENDBRANCH  28  29
ENDBRANCH  27  28
ENDBRANCH  26  27
ENDBRANCH  25  26
ENDBRANCH  24  25
ENDBRANCH  23  24
ENDBRANCH  22  23
ENDBRANCH  21  22
ENDBRANCH  20  21
ENDBRANCH  19  20
ENDBRANCH  18  19
ENDBRANCH  17  18
ENDBRANCH   1  17
TORSDOF 26
ENDMDL
MODEL 7
REMARK VINA RESULT:    -2.450      1.281      3.888
REMARK INTER + INTRA:         -11.855
REMARK INTER:                  -6.564
REMARK INTRA:                  -5.291
REMARK UNBOUND:                -5.682
REMARK SMILES CCCCCCCCCCCCCCCCCCCCCCCCCCCC(=O)[O-]
REMARK SMILES IDX 15 1 16 2 17 3 18 4 19 5 20 6 21 7 22 8 23 9 24 10 25 11
REMARK SMILES IDX 26 12 27 13 28 14 29 15 30 16 14 17 13 18 12 19 11 20 10 21
REMARK SMILES IDX 9 22 8 23 7 24 6 25 5 26 4 27 3 28 2 29 1 30
REMARK H PARENT
REMARK Flexibility Score: inf
ROOT
ATOM      1  C   UNL     1    -108.134 -52.454 -55.713  1.00  0.00     0.000 C 
ENDROOT
BRANCH   1   2
ATOM      2  C   UNL     1    -108.912 -53.277 -56.758  1.00  0.00     0.000 C 
BRANCH   2   3
ATOM      3  C   UNL     1    -108.514 -52.982 -58.219  1.00  0.00     0.000 C 
BRANCH   3   4
ATOM      4  C   UNL     1    -109.724 -52.694 -59.134  1.00  0.00     0.000 C 
BRANCH   4   5
ATOM      5  C   UNL     1    -109.741 -51.274 -59.730  1.00  0.00     0.000 C 
BRANCH   5   6
ATOM      6  C   UNL     1    -110.870 -50.369 -59.189  1.00  0.00     0.000 C 
BRANCH   6   7
ATOM      7  C   UNL     1    -111.219 -49.155 -60.075  1.00  0.00     0.000 C 
BRANCH   7   8
ATOM      8  C   UNL     1    -110.392 -47.876 -59.822  1.00  0.00     0.000 C 
BRANCH   8   9
ATOM      9  C   UNL     1    -109.562 -47.377 -61.017  1.00  0.00     0.000 C 
BRANCH   9  10
ATOM     10  C   UNL     1    -108.126 -47.928 -61.016  1.00  0.00     0.000 C 
BRANCH  10  11
ATOM     11  C   UNL     1    -107.882 -48.963 -62.128  1.00  0.00     0.000 C 
BRANCH  11  12
ATOM     12  C   UNL     1    -109.085 -49.225 -63.057  1.00  0.00     0.006 C 
BRANCH  12  13
ATOM     13  C   UNL     1    -108.710 -49.561 -64.509  1.00  0.00     0.053 C 
BRANCH  13  14
ATOM     14  C   UNL     1    -107.609 -50.573 -64.584  1.00  0.00     0.041 C 
ATOM     15  O   UNL     1    -106.495 -50.259 -65.081  1.00  0.00    -0.550 OA
ATOM     16  O   UNL     1    -107.798 -51.848 -64.068  1.00  0.00    -0.550 OA
ENDBRANCH  13  14
ENDBRANCH  12  13
ENDBRANCH  11  12
ENDBRANCH  10  11
ENDBRANCH   9  10
ENDBRANCH   8   9
ENDBRANCH   7   8
ENDBRANCH   6   7
ENDBRANCH   5   6
ENDBRANCH   4   5
ENDBRANCH   3   4
ENDBRANCH   2   3
ENDBRANCH   1   2
BRANCH   1  17
ATOM     17  C   UNL     1    -107.158 -51.417 -56.313  1.00  0.00     0.000 C 
BRANCH  17  18
ATOM     18  C   UNL     1    -107.543 -49.940 -56.082  1.00  0.00     0.000 C 
BRANCH  18  19
ATOM     19  C   UNL     1    -107.925 -49.145 -57.345  1.00  0.00     0.000 C 
BRANCH  19  20
ATOM     20  C   UNL     1    -107.470 -47.676 -57.298  1.00  0.00     0.000 C 
BRANCH  20  21
ATOM     21  C   UNL     1    -107.586 -47.077 -55.886  1.00  0.00     0.000 C 
BRANCH  21  22
ATOM     22  C   UNL     1    -108.800 -46.142 -55.741  1.00  0.00    -0.000 C 
BRANCH  22  23
ATOM     23  C   UNL     1    -109.459 -45.806 -57.091  1.00  0.00    -0.000 C 
BRANCH  23  24
ATOM     24  C   UNL     1    -110.816 -45.084 -56.993  1.00  0.00    -0.000 C 
BRANCH  24  25
ATOM     25  C   UNL     1    -111.440 -45.178 -55.591  1.00  0.00    -0.000 C 
BRANCH  25  26
ATOM     26  C   UNL     1    -112.644 -46.136 -55.534  1.00  0.00    -0.000 C 
BRANCH  26  27
ATOM     27  C   UNL     1    -112.807 -47.066 -56.754  1.00  0.00    -0.000 C 
BRANCH  27  28
ATOM     28  C   UNL     1    -112.662 -48.569 -56.454  1.00  0.00    -0.000 C 
BRANCH  28  29
ATOM     29  C   UNL     1    -111.326 -48.915 -55.784  1.00  0.00    -0.003 C 
ATOM     30  C   UNL     1    -111.206 -50.418 -55.545  1.00  0.00     0.004 C 
ENDBRANCH  28  29
ENDBRANCH  27  28
ENDBRANCH  26  27
ENDBRANCH  25  26
ENDBRANCH  24  25
ENDBRANCH  23  24
ENDBRANCH  22  23
ENDBRANCH  21  22
ENDBRANCH  20  21
ENDBRANCH  19  20
ENDBRANCH  18  19
ENDBRANCH  17  18
ENDBRANCH   1  17
TORSDOF 26
ENDMDL
MODEL 8
REMARK VINA RESULT:    -2.430      1.437      2.972
REMARK INTER + INTRA:         -11.805
REMARK INTER:                  -5.847
REMARK INTRA:                  -5.958
REMARK UNBOUND:                -5.682
REMARK SMILES CCCCCCCCCCCCCCCCCCCCCCCCCCCC(=O)[O-]
REMARK SMILES IDX 15 1 16 2 17 3 18 4 19 5 20 6 21 7 22 8 23 9 24 10 25 11
REMARK SMILES IDX 26 12 27 13 28 14 29 15 30 16 14 17 13 18 12 19 11 20 10 21
REMARK SMILES IDX 9 22 8 23 7 24 6 25 5 26 4 27 3 28 2 29 1 30
REMARK H PARENT
REMARK Flexibility Score: inf
ROOT
ATOM      1  C   UNL     1    -107.465 -48.762 -56.373  1.00  0.00     0.000 C 
ENDROOT
BRANCH   1   2
ATOM      2  C   UNL     1    -107.242 -47.639 -57.404  1.00  0.00     0.000 C 
BRANCH   2   3
ATOM      3  C   UNL     1    -108.100 -47.771 -58.679  1.00  0.00     0.000 C 
BRANCH   3   4
ATOM      4  C   UNL     1    -109.056 -46.579 -58.897  1.00  0.00     0.000 C 
BRANCH   4   5
ATOM      5  C   UNL     1    -109.801 -46.129 -57.626  1.00  0.00     0.000 C 
BRANCH   5   6
ATOM      6  C   UNL     1    -111.308 -45.860 -57.832  1.00  0.00     0.000 C 
BRANCH   6   7
ATOM      7  C   UNL     1    -111.819 -46.054 -59.275  1.00  0.00     0.000 C 
BRANCH   7   8
ATOM      8  C   UNL     1    -112.833 -47.199 -59.483  1.00  0.00     0.000 C 
BRANCH   8   9
ATOM      9  C   UNL     1    -112.539 -48.137 -60.667  1.00  0.00     0.000 C 
BRANCH   9  10
ATOM     10  C   UNL     1    -111.422 -47.609 -61.582  1.00  0.00     0.000 C 
BRANCH  10  11
ATOM     11  C   UNL     1    -110.363 -48.677 -61.910  1.00  0.00     0.000 C 
BRANCH  11  12
ATOM     12  C   UNL     1    -108.966 -48.128 -62.265  1.00  0.00     0.006 C 
BRANCH  12  13
ATOM     13  C   UNL     1    -107.836 -49.168 -62.204  1.00  0.00     0.053 C 
BRANCH  13  14
ATOM     14  C   UNL     1    -107.574 -49.790 -63.540  1.00  0.00     0.041 C 
ATOM     15  O   UNL     1    -106.811 -50.789 -63.635  1.00  0.00    -0.550 OA
ATOM     16  O   UNL     1    -108.203 -49.295 -64.675  1.00  0.00    -0.550 OA
ENDBRANCH  13  14
ENDBRANCH  12  13
ENDBRANCH  11  12
ENDBRANCH  10  11
ENDBRANCH   9  10
ENDBRANCH   8   9
ENDBRANCH   7   8
ENDBRANCH   6   7
ENDBRANCH   5   6
ENDBRANCH   4   5
ENDBRANCH   3   4
ENDBRANCH   2   3
ENDBRANCH   1   2
BRANCH   1  17
ATOM     17  C   UNL     1    -107.792 -48.265 -54.947  1.00  0.00     0.000 C 
BRANCH  17  18
ATOM     18  C   UNL     1    -109.294 -48.209 -54.597  1.00  0.00     0.000 C 
BRANCH  18  19
ATOM     19  C   UNL     1    -109.912 -49.527 -54.093  1.00  0.00     0.000 C 
BRANCH  19  20
ATOM     20  C   UNL     1    -111.373 -49.720 -54.535  1.00  0.00     0.000 C 
BRANCH  20  21
ATOM     21  C   UNL     1    -111.709 -48.914 -55.801  1.00  0.00     0.000 C 
BRANCH  21  22
ATOM     22  C   UNL     1    -111.920 -49.812 -57.032  1.00  0.00    -0.000 C 
BRANCH  22  23
ATOM     23  C   UNL     1    -110.717 -49.803 -57.991  1.00  0.00    -0.000 C 
BRANCH  23  24
ATOM     24  C   UNL     1    -110.702 -50.941 -59.030  1.00  0.00    -0.000 C 
BRANCH  24  25
ATOM     25  C   UNL     1    -109.288 -51.256 -59.545  1.00  0.00    -0.000 C 
BRANCH  25  26
ATOM     26  C   UNL     1    -108.661 -52.486 -58.863  1.00  0.00    -0.000 C 
BRANCH  26  27
ATOM     27  C   UNL     1    -109.649 -53.394 -58.101  1.00  0.00    -0.000 C 
BRANCH  27  28
ATOM     28  C   UNL     1    -109.549 -53.326 -56.566  1.00  0.00    -0.000 C 
BRANCH  28  29
ATOM     29  C   UNL     1    -108.679 -52.159 -56.079  1.00  0.00    -0.003 C 
ATOM     30  C   UNL     1    -107.453 -52.666 -55.324  1.00  0.00     0.004 C 
ENDBRANCH  28  29
ENDBRANCH  27  28
ENDBRANCH  26  27
ENDBRANCH  25  26
ENDBRANCH  24  25
ENDBRANCH  23  24
ENDBRANCH  22  23
ENDBRANCH  21  22
ENDBRANCH  20  21
ENDBRANCH  19  20
ENDBRANCH  18  19
ENDBRANCH  17  18
ENDBRANCH   1  17
TORSDOF 26
ENDMDL
MODEL 9
REMARK VINA RESULT:    -2.386      1.931      3.680
REMARK INTER + INTRA:         -11.696
REMARK INTER:                  -5.922
REMARK INTRA:                  -5.774
REMARK UNBOUND:                -5.682
REMARK SMILES CCCCCCCCCCCCCCCCCCCCCCCCCCCC(=O)[O-]
REMARK SMILES IDX 15 1 16 2 17 3 18 4 19 5 20 6 21 7 22 8 23 9 24 10 25 11
REMARK SMILES IDX 26 12 27 13 28 14 29 15 30 16 14 17 13 18 12 19 11 20 10 21
REMARK SMILES IDX 9 22 8 23 7 24 6 25 5 26 4 27 3 28 2 29 1 30
REMARK H PARENT
REMARK Flexibility Score: inf
ROOT
ATOM      1  C   UNL     1    -108.290 -47.489 -61.357  1.00  0.00     0.000 C 
ENDROOT
BRANCH   1   2
ATOM      2  C   UNL     1    -109.469 -46.852 -62.118  1.00  0.00     0.000 C 
BRANCH   2   3
ATOM      3  C   UNL     1    -109.804 -47.542 -63.456  1.00  0.00     0.000 C 
BRANCH   3   4
ATOM      4  C   UNL     1    -111.006 -48.506 -63.360  1.00  0.00     0.000 C 
BRANCH   4   5
ATOM      5  C   UNL     1    -111.654 -48.569 -61.964  1.00  0.00     0.000 C 
BRANCH   5   6
ATOM      6  C   UNL     1    -111.361 -49.868 -61.183  1.00  0.00     0.000 C 
BRANCH   6   7
ATOM      7  C   UNL     1    -110.431 -50.870 -61.899  1.00  0.00     0.000 C 
BRANCH   7   8
ATOM      8  C   UNL     1    -108.995 -50.973 -61.342  1.00  0.00     0.000 C 
BRANCH   8   9
ATOM      9  C   UNL     1    -107.871 -50.878 -62.388  1.00  0.00     0.000 C 
BRANCH   9  10
ATOM     10  C   UNL     1    -108.381 -51.053 -63.828  1.00  0.00     0.000 C 
BRANCH  10  11
ATOM     11  C   UNL     1    -107.651 -50.147 -64.835  1.00  0.00     0.000 C 
BRANCH  11  12
ATOM     12  C   UNL     1    -108.388 -49.922 -66.171  1.00  0.00     0.006 C 
BRANCH  12  13
ATOM     13  C   UNL     1    -108.258 -48.501 -66.742  1.00  0.00     0.053 C 
BRANCH  13  14
ATOM     14  C   UNL     1    -109.586 -47.927 -67.126  1.00  0.00     0.041 C 
ATOM     15  O   UNL     1    -109.751 -46.679 -67.157  1.00  0.00    -0.550 OA
ATOM     16  O   UNL     1    -110.630 -48.769 -67.492  1.00  0.00    -0.550 OA
ENDBRANCH  13  14
ENDBRANCH  12  13
ENDBRANCH  11  12
ENDBRANCH  10  11
ENDBRANCH   9  10
ENDBRANCH   8   9
ENDBRANCH   7   8
ENDBRANCH   6   7
ENDBRANCH   5   6
ENDBRANCH   4   5
ENDBRANCH   3   4
ENDBRANCH   2   3
ENDBRANCH   1   2
BRANCH   1  17
ATOM     17  C   UNL     1    -108.484 -47.566 -59.826  1.00  0.00     0.000 C 
BRANCH  17  18
ATOM     18  C   UNL     1    -109.531 -46.593 -59.244  1.00  0.00     0.000 C 
BRANCH  18  19
ATOM     19  C   UNL     1    -110.755 -47.250 -58.579  1.00  0.00     0.000 C 
BRANCH  19  20
ATOM     20  C   UNL     1    -110.989 -46.776 -57.134  1.00  0.00     0.000 C 
BRANCH  20  21
ATOM     21  C   UNL     1    -110.192 -45.502 -56.805  1.00  0.00     0.000 C 
BRANCH  21  22
ATOM     22  C   UNL     1    -109.306 -45.669 -55.558  1.00  0.00    -0.000 C 
BRANCH  22  23
ATOM     23  C   UNL     1    -108.705 -47.081 -55.436  1.00  0.00    -0.000 C 
BRANCH  23  24
ATOM     24  C   UNL     1    -107.435 -47.325 -56.273  1.00  0.00    -0.000 C 
BRANCH  24  25
ATOM     25  C   UNL     1    -107.216 -48.810 -56.602  1.00  0.00    -0.000 C 
BRANCH  25  26
ATOM     26  C   UNL     1    -108.494 -49.654 -56.445  1.00  0.00    -0.000 C 
BRANCH  26  27
ATOM     27  C   UNL     1    -108.993 -50.342 -57.733  1.00  0.00    -0.000 C 
BRANCH  27  28
ATOM     28  C   UNL     1    -110.434 -50.882 -57.669  1.00  0.00    -0.000 C 
BRANCH  28  29
ATOM     29  C   UNL     1    -110.548 -52.329 -58.170  1.00  0.00    -0.003 C 
ATOM     30  C   UNL     1    -109.175 -52.988 -58.260  1.00  0.00     0.004 C 
ENDBRANCH  28  29
ENDBRANCH  27  28
ENDBRANCH  26  27
ENDBRANCH  25  26
ENDBRANCH  24  25
ENDBRANCH  23  24
ENDBRANCH  22  23
ENDBRANCH  21  22
ENDBRANCH  20  21
ENDBRANCH  19  20
ENDBRANCH  18  19
ENDBRANCH  17  18
ENDBRANCH   1  17
TORSDOF 26
ENDMDL
