MODEL 1
REMARK VINA RESULT:    -6.548      0.000      0.000
REMARK INTER + INTRA:          -9.540
REMARK INTER:                  -8.845
REMARK INTRA:                  -0.695
REMARK UNBOUND:                -0.695
REMARK SMILES COc1ccc(-c2cc(=O)c3c(OC)c(OC)c(OC)c(OC)c3o2)cc1
REMARK SMILES IDX 7 1 8 2 9 3 10 4 11 5 24 6 25 7 21 8 18 9 15 10 12 11 6 12
REMARK SMILES IDX 3 13 4 14 27 15 5 16 26 17 2 18 1 19 22 20 23 21 13 22 14 23
REMARK SMILES IDX 19 24 20 25 16 26 17 27
REMARK H PARENT
REMARK Flexibility Score: inf
ROOT
ATOM      1  C   UNL     1     100.184 104.145 112.763  1.00  0.00     0.138 A 
ATOM      2  C   UNL     1      99.242 105.170 112.915  1.00  0.00     0.100 A 
ATOM      3  C   UNL     1      98.477 105.226 114.076  1.00  0.00     0.197 A 
ATOM      4  O   UNL     1      97.639 106.159 114.203  1.00  0.00    -0.289 OA
ATOM      5  C   UNL     1      98.660 104.253 115.083  1.00  0.00     0.115 A 
ATOM      6  C   UNL     1      99.646 103.259 114.872  1.00  0.00     0.188 A 
ATOM      7  O   UNL     1     100.347 103.257 113.740  1.00  0.00    -0.452 OA
ATOM      8  C   UNL     1      99.867 102.263 115.852  1.00  0.00     0.209 A 
ATOM      9  C   UNL     1      99.127 102.272 117.044  1.00  0.00     0.211 A 
ATOM     10  C   UNL     1      98.157 103.279 117.273  1.00  0.00     0.208 A 
ATOM     11  C   UNL     1      97.889 104.231 116.267  1.00  0.00     0.179 A 
ENDROOT
BRANCH   1  12
ATOM     12  C   UNL     1     101.017 104.030 111.537  1.00  0.00     0.018 A 
ATOM     13  C   UNL     1     102.584 103.758 109.203  1.00  0.00     0.118 A 
ATOM     14  C   UNL     1     102.580 102.747 110.181  1.00  0.00     0.047 A 
ATOM     15  C   UNL     1     101.799 104.898 109.400  1.00  0.00     0.047 A 
ATOM     16  C   UNL     1     101.802 102.884 111.333  1.00  0.00     0.016 A 
ATOM     17  C   UNL     1     101.017 105.034 110.550  1.00  0.00     0.016 A 
BRANCH  13  18
ATOM     18  O   UNL     1     103.347 103.667 108.029  1.00  0.00    -0.497 OA
ATOM     19  C   UNL     1     104.386 104.574 107.673  1.00  0.00     0.278 C 
ENDBRANCH  13  18
ENDBRANCH   1  12
BRANCH   8  20
ATOM     20  O   UNL     1     100.811 101.227 115.707  1.00  0.00    -0.490 OA
ATOM     21  C   UNL     1     100.654 100.036 114.942  1.00  0.00     0.278 C 
ENDBRANCH   8  20
BRANCH  11  22
ATOM     22  O   UNL     1      96.829 105.126 116.423  1.00  0.00    -0.492 OA
ATOM     23  C   UNL     1      95.480 104.704 116.259  1.00  0.00     0.278 C 
ENDBRANCH  11  22
BRANCH   9  24
ATOM     24  O   UNL     1      99.424 101.251 117.969  1.00  0.00    -0.490 OA
ATOM     25  C   UNL     1      98.649 100.086 118.237  1.00  0.00     0.279 C 
ENDBRANCH   9  24
BRANCH  10  26
ATOM     26  O   UNL     1      97.471 103.309 118.497  1.00  0.00    -0.490 OA
ATOM     27  C   UNL     1      97.926 103.999 119.658  1.00  0.00     0.278 C 
ENDBRANCH  10  26
TORSDOF 6
ENDMDL
MODEL 2
REMARK VINA RESULT:    -6.524      1.178      3.366
REMARK INTER + INTRA:          -9.507
REMARK INTER:                  -9.010
REMARK INTRA:                  -0.497
REMARK UNBOUND:                -0.695
REMARK SMILES COc1ccc(-c2cc(=O)c3c(OC)c(OC)c(OC)c(OC)c3o2)cc1
REMARK SMILES IDX 7 1 8 2 9 3 10 4 11 5 24 6 25 7 21 8 18 9 15 10 12 11 6 12
REMARK SMILES IDX 3 13 4 14 27 15 5 16 26 17 2 18 1 19 22 20 23 21 13 22 14 23
REMARK SMILES IDX 19 24 20 25 16 26 17 27
REMARK H PARENT
REMARK Flexibility Score: inf
ROOT
ATOM      1  C   UNL     1     100.743 103.501 112.961  1.00  0.00     0.138 A 
ATOM      2  C   UNL     1     101.416 102.878 114.020  1.00  0.00     0.100 A 
ATOM      3  C   UNL     1     100.806 102.810 115.269  1.00  0.00     0.197 A 
ATOM      4  O   UNL     1     101.419 102.237 116.210  1.00  0.00    -0.289 OA
ATOM      5  C   UNL     1      99.521 103.365 115.453  1.00  0.00     0.115 A 
ATOM      6  C   UNL     1      98.891 103.959 114.333  1.00  0.00     0.188 A 
ATOM      7  O   UNL     1      99.524 103.996 113.162  1.00  0.00    -0.452 OA
ATOM      8  C   UNL     1      97.603 104.529 114.466  1.00  0.00     0.209 A 
ATOM      9  C   UNL     1      96.938 104.485 115.701  1.00  0.00     0.211 A 
ATOM     10  C   UNL     1      97.552 103.869 116.819  1.00  0.00     0.208 A 
ATOM     11  C   UNL     1      98.864 103.362 116.703  1.00  0.00     0.179 A 
ENDROOT
BRANCH   1  12
ATOM     12  C   UNL     1     101.355 103.616 111.611  1.00  0.00     0.018 A 
ATOM     13  C   UNL     1     102.504 103.782 109.036  1.00  0.00     0.118 A 
ATOM     14  C   UNL     1     102.694 102.636 109.829  1.00  0.00     0.047 A 
ATOM     15  C   UNL     1     101.735 104.836 109.538  1.00  0.00     0.047 A 
ATOM     16  C   UNL     1     102.123 102.556 111.102  1.00  0.00     0.016 A 
ATOM     17  C   UNL     1     101.159 104.756 110.809  1.00  0.00     0.016 A 
BRANCH  13  18
ATOM     18  O   UNL     1     103.055 103.909 107.753  1.00  0.00    -0.497 OA
ATOM     19  C   UNL     1     104.403 104.287 107.491  1.00  0.00     0.278 C 
ENDBRANCH  13  18
ENDBRANCH   1  12
BRANCH   8  20
ATOM     20  O   UNL     1      96.919 105.159 113.407  1.00  0.00    -0.490 OA
ATOM     21  C   UNL     1      97.125 106.486 112.934  1.00  0.00     0.278 C 
ENDBRANCH   8  20
BRANCH  11  22
ATOM     22  O   UNL     1      99.531 102.897 117.838  1.00  0.00    -0.492 OA
ATOM     23  C   UNL     1      99.151 101.678 118.467  1.00  0.00     0.278 C 
ENDBRANCH  11  22
BRANCH   9  24
ATOM     24  O   UNL     1      95.653 105.064 115.738  1.00  0.00    -0.490 OA
ATOM     25  C   UNL     1      94.404 104.379 115.712  1.00  0.00     0.279 C 
ENDBRANCH   9  24
BRANCH  10  26
ATOM     26  O   UNL     1      96.848 103.779 118.029  1.00  0.00    -0.490 OA
ATOM     27  C   UNL     1      96.855 104.780 119.043  1.00  0.00     0.278 C 
ENDBRANCH  10  26
TORSDOF 6
ENDMDL
MODEL 3
REMARK VINA RESULT:    -6.470      7.428      9.418
REMARK INTER + INTRA:          -9.434
REMARK INTER:                  -8.743
REMARK INTRA:                  -0.691
REMARK UNBOUND:                -0.695
REMARK SMILES COc1ccc(-c2cc(=O)c3c(OC)c(OC)c(OC)c(OC)c3o2)cc1
REMARK SMILES IDX 7 1 8 2 9 3 10 4 11 5 24 6 25 7 21 8 18 9 15 10 12 11 6 12
REMARK SMILES IDX 3 13 4 14 27 15 5 16 26 17 2 18 1 19 22 20 23 21 13 22 14 23
REMARK SMILES IDX 19 24 20 25 16 26 17 27
REMARK H PARENT
REMARK Flexibility Score: inf
ROOT
ATOM      1  C   UNL     1     107.283 103.082 112.720  1.00  0.00     0.138 A 
ATOM      2  C   UNL     1     108.290 102.110 112.753  1.00  0.00     0.100 A 
ATOM      3  C   UNL     1     109.111 102.015 113.872  1.00  0.00     0.197 A 
ATOM      4  O   UNL     1     110.007 101.128 113.890  1.00  0.00    -0.289 OA
ATOM      5  C   UNL     1     108.920 102.896 114.958  1.00  0.00     0.115 A 
ATOM      6  C   UNL     1     107.868 103.840 114.866  1.00  0.00     0.188 A 
ATOM      7  O   UNL     1     107.115 103.883 113.769  1.00  0.00    -0.452 OA
ATOM      8  C   UNL     1     107.636 104.744 115.929  1.00  0.00     0.209 A 
ATOM      9  C   UNL     1     108.430 104.693 117.084  1.00  0.00     0.211 A 
ATOM     10  C   UNL     1     109.468 103.734 117.194  1.00  0.00     0.208 A 
ATOM     11  C   UNL     1     109.743 102.878 116.106  1.00  0.00     0.179 A 
ENDROOT
BRANCH   1  12
ATOM     12  C   UNL     1     106.388 103.237 111.544  1.00  0.00     0.018 A 
ATOM     13  C   UNL     1     104.702 103.584 109.305  1.00  0.00     0.118 A 
ATOM     14  C   UNL     1     104.760 104.564 110.311  1.00  0.00     0.047 A 
ATOM     15  C   UNL     1     105.492 102.437 109.425  1.00  0.00     0.047 A 
ATOM     16  C   UNL     1     105.597 104.390 111.416  1.00  0.00     0.016 A 
ATOM     17  C   UNL     1     106.333 102.264 110.528  1.00  0.00     0.016 A 
BRANCH  13  18
ATOM     18  O   UNL     1     103.879 103.713 108.175  1.00  0.00    -0.497 OA
ATOM     19  C   UNL     1     103.048 102.675 107.664  1.00  0.00     0.278 C 
ENDBRANCH  13  18
ENDBRANCH   1  12
BRANCH   8  20
ATOM     20  O   UNL     1     106.626 105.728 115.906  1.00  0.00    -0.490 OA
ATOM     21  C   UNL     1     106.696 107.001 115.272  1.00  0.00     0.278 C 
ENDBRANCH   8  20
BRANCH  11  22
ATOM     22  O   UNL     1     110.860 102.041 116.147  1.00  0.00    -0.492 OA
ATOM     23  C   UNL     1     112.177 102.565 116.020  1.00  0.00     0.278 C 
ENDBRANCH  11  22
BRANCH   9  24
ATOM     24  O   UNL     1     108.118 105.621 118.098  1.00  0.00    -0.490 OA
ATOM     25  C   UNL     1     108.804 106.835 118.388  1.00  0.00     0.279 C 
ENDBRANCH   9  24
BRANCH  10  26
ATOM     26  O   UNL     1     110.211 103.654 118.380  1.00  0.00    -0.490 OA
ATOM     27  C   UNL     1     109.886 102.808 119.480  1.00  0.00     0.278 C 
ENDBRANCH  10  26
TORSDOF 6
ENDMDL
MODEL 4
REMARK VINA RESULT:    -6.454      7.378      9.089
REMARK INTER + INTRA:          -9.412
REMARK INTER:                  -8.914
REMARK INTRA:                  -0.498
REMARK UNBOUND:                -0.695
REMARK SMILES COc1ccc(-c2cc(=O)c3c(OC)c(OC)c(OC)c(OC)c3o2)cc1
REMARK SMILES IDX 7 1 8 2 9 3 10 4 11 5 24 6 25 7 21 8 18 9 15 10 12 11 6 12
REMARK SMILES IDX 3 13 4 14 27 15 5 16 26 17 2 18 1 19 22 20 23 21 13 22 14 23
REMARK SMILES IDX 19 24 20 25 16 26 17 27
REMARK H PARENT
REMARK Flexibility Score: inf
ROOT
ATOM      1  C   UNL     1     106.641 103.826 113.004  1.00  0.00     0.138 A 
ATOM      2  C   UNL     1     105.963 104.434 114.068  1.00  0.00     0.100 A 
ATOM      3  C   UNL     1     106.560 104.471 115.325  1.00  0.00     0.197 A 
ATOM      4  O   UNL     1     105.942 105.030 116.271  1.00  0.00    -0.289 OA
ATOM      5  C   UNL     1     107.838 103.900 115.511  1.00  0.00     0.115 A 
ATOM      6  C   UNL     1     108.474 103.322 114.385  1.00  0.00     0.188 A 
ATOM      7  O   UNL     1     107.852 103.316 113.207  1.00  0.00    -0.452 OA
ATOM      8  C   UNL     1     109.755 102.737 114.521  1.00  0.00     0.209 A 
ATOM      9  C   UNL     1     110.407 102.749 115.763  1.00  0.00     0.211 A 
ATOM     10  C   UNL     1     109.787 103.348 116.887  1.00  0.00     0.208 A 
ATOM     11  C   UNL     1     108.481 103.871 116.767  1.00  0.00     0.179 A 
ENDROOT
BRANCH   1  12
ATOM     12  C   UNL     1     106.042 103.745 111.646  1.00  0.00     0.018 A 
ATOM     13  C   UNL     1     104.918 103.643 109.057  1.00  0.00     0.118 A 
ATOM     14  C   UNL     1     104.711 104.765 109.880  1.00  0.00     0.047 A 
ATOM     15  C   UNL     1     105.691 102.581 109.536  1.00  0.00     0.047 A 
ATOM     16  C   UNL     1     105.271 104.812 111.159  1.00  0.00     0.016 A 
ATOM     17  C   UNL     1     106.254 102.629 110.814  1.00  0.00     0.016 A 
BRANCH  13  18
ATOM     18  O   UNL     1     104.380 103.548 107.765  1.00  0.00    -0.497 OA
ATOM     19  C   UNL     1     103.074 103.059 107.472  1.00  0.00     0.278 C 
ENDBRANCH  13  18
ENDBRANCH   1  12
BRANCH   8  20
ATOM     20  O   UNL     1     110.444 102.122 113.456  1.00  0.00    -0.490 OA
ATOM     21  C   UNL     1     110.217 100.814 112.941  1.00  0.00     0.278 C 
ENDBRANCH   8  20
BRANCH  11  22
ATOM     22  O   UNL     1     107.807 104.319 117.905  1.00  0.00    -0.492 OA
ATOM     23  C   UNL     1     108.177 105.533 118.549  1.00  0.00     0.278 C 
ENDBRANCH  11  22
BRANCH   9  24
ATOM     24  O   UNL     1     111.686 102.157 115.802  1.00  0.00    -0.490 OA
ATOM     25  C   UNL     1     112.940 102.831 115.840  1.00  0.00     0.279 C 
ENDBRANCH   9  24
BRANCH  10  26
ATOM     26  O   UNL     1     110.479 103.408 118.106  1.00  0.00    -0.490 OA
ATOM     27  C   UNL     1     110.493 102.364 119.076  1.00  0.00     0.278 C 
ENDBRANCH  10  26
TORSDOF 6
ENDMDL
MODEL 5
REMARK VINA RESULT:    -6.095      6.249      9.115
REMARK INTER + INTRA:          -8.928
REMARK INTER:                  -8.383
REMARK INTRA:                  -0.545
REMARK UNBOUND:                -0.695
REMARK SMILES COc1ccc(-c2cc(=O)c3c(OC)c(OC)c(OC)c(OC)c3o2)cc1
REMARK SMILES IDX 7 1 8 2 9 3 10 4 11 5 24 6 25 7 21 8 18 9 15 10 12 11 6 12
REMARK SMILES IDX 3 13 4 14 27 15 5 16 26 17 2 18 1 19 22 20 23 21 13 22 14 23
REMARK SMILES IDX 19 24 20 25 16 26 17 27
REMARK H PARENT
REMARK Flexibility Score: inf
ROOT
ATOM      1  C   UNL     1     106.952 103.939 114.411  1.00  0.00     0.138 A 
ATOM      2  C   UNL     1     106.842 102.546 114.495  1.00  0.00     0.100 A 
ATOM      3  C   UNL     1     105.935 101.883 113.674  1.00  0.00     0.197 A 
ATOM      4  O   UNL     1     105.855 100.627 113.753  1.00  0.00    -0.289 OA
ATOM      5  C   UNL     1     105.140 102.619 112.769  1.00  0.00     0.115 A 
ATOM      6  C   UNL     1     105.319 104.023 112.723  1.00  0.00     0.188 A 
ATOM      7  O   UNL     1     106.203 104.602 113.534  1.00  0.00    -0.452 OA
ATOM      8  C   UNL     1     104.547 104.805 111.833  1.00  0.00     0.209 A 
ATOM      9  C   UNL     1     103.619 104.191 110.979  1.00  0.00     0.211 A 
ATOM     10  C   UNL     1     103.453 102.784 111.001  1.00  0.00     0.208 A 
ATOM     11  C   UNL     1     104.175 102.011 111.937  1.00  0.00     0.179 A 
ENDROOT
BRANCH   1  12
ATOM     12  C   UNL     1     107.893 104.699 115.276  1.00  0.00     0.018 A 
ATOM     13  C   UNL     1     109.639 106.156 116.950  1.00  0.00     0.118 A 
ATOM     14  C   UNL     1     108.376 106.674 116.616  1.00  0.00     0.047 A 
ATOM     15  C   UNL     1     110.018 104.908 116.446  1.00  0.00     0.047 A 
ATOM     16  C   UNL     1     107.513 105.949 115.789  1.00  0.00     0.016 A 
ATOM     17  C   UNL     1     109.156 104.181 115.623  1.00  0.00     0.016 A 
BRANCH  13  18
ATOM     18  O   UNL     1     110.540 106.843 117.778  1.00  0.00    -0.497 OA
ATOM     19  C   UNL     1     110.381 106.998 119.184  1.00  0.00     0.278 C 
ENDBRANCH  13  18
ENDBRANCH   1  12
BRANCH   8  20
ATOM     20  O   UNL     1     104.648 106.208 111.743  1.00  0.00    -0.490 OA
ATOM     21  C   UNL     1     104.032 107.161 112.603  1.00  0.00     0.278 C 
ENDBRANCH   8  20
BRANCH  11  22
ATOM     22  O   UNL     1     103.900 100.649 112.071  1.00  0.00    -0.492 OA
ATOM     23  C   UNL     1     102.763 100.195 112.797  1.00  0.00     0.278 C 
ENDBRANCH  11  22
BRANCH   9  24
ATOM     24  O   UNL     1     102.904 105.045 110.115  1.00  0.00    -0.490 OA
ATOM     25  C   UNL     1     101.502 105.296 110.126  1.00  0.00     0.279 C 
ENDBRANCH   9  24
BRANCH  10  26
ATOM     26  O   UNL     1     102.567 102.179 110.097  1.00  0.00    -0.490 OA
ATOM     27  C   UNL     1     102.824 102.014 108.705  1.00  0.00     0.278 C 
ENDBRANCH  10  26
TORSDOF 6
ENDMDL
MODEL 6
REMARK VINA RESULT:    -6.058      9.594     11.049
REMARK INTER + INTRA:          -8.877
REMARK INTER:                  -8.212
REMARK INTRA:                  -0.665
REMARK UNBOUND:                -0.695
REMARK SMILES COc1ccc(-c2cc(=O)c3c(OC)c(OC)c(OC)c(OC)c3o2)cc1
REMARK SMILES IDX 7 1 8 2 9 3 10 4 11 5 24 6 25 7 21 8 18 9 15 10 12 11 6 12
REMARK SMILES IDX 3 13 4 14 27 15 5 16 26 17 2 18 1 19 22 20 23 21 13 22 14 23
REMARK SMILES IDX 19 24 20 25 16 26 17 27
REMARK H PARENT
REMARK Flexibility Score: inf
ROOT
ATOM      1  C   UNL     1     109.572 100.075 114.500  1.00  0.00     0.138 A 
ATOM      2  C   UNL     1     108.207 100.259 114.244  1.00  0.00     0.100 A 
ATOM      3  C   UNL     1     107.540 101.327 114.836  1.00  0.00     0.197 A 
ATOM      4  O   UNL     1     106.314 101.485 114.589  1.00  0.00    -0.289 OA
ATOM      5  C   UNL     1     108.244 102.210 115.684  1.00  0.00     0.115 A 
ATOM      6  C   UNL     1     109.627 101.976 115.880  1.00  0.00     0.188 A 
ATOM      7  O   UNL     1     110.211 100.936 115.286  1.00  0.00    -0.452 OA
ATOM      8  C   UNL     1     110.376 102.833 116.720  1.00  0.00     0.209 A 
ATOM      9  C   UNL     1     109.758 103.928 117.341  1.00  0.00     0.211 A 
ATOM     10  C   UNL     1     108.380 104.183 117.128  1.00  0.00     0.208 A 
ATOM     11  C   UNL     1     107.618 103.289 116.345  1.00  0.00     0.179 A 
ENDROOT
BRANCH   1  12
ATOM     12  C   UNL     1     110.329  98.942 113.906  1.00  0.00     0.018 A 
ATOM     13  C   UNL     1     111.808  96.798 112.812  1.00  0.00     0.118 A 
ATOM     14  C   UNL     1     112.448  98.002 113.159  1.00  0.00     0.047 A 
ATOM     15  C   UNL     1     110.431  96.676 113.019  1.00  0.00     0.047 A 
ATOM     16  C   UNL     1     111.713  99.059 113.702  1.00  0.00     0.016 A 
ATOM     17  C   UNL     1     109.696  97.731 113.566  1.00  0.00     0.016 A 
BRANCH  13  18
ATOM     18  O   UNL     1     112.501  95.707 112.266  1.00  0.00    -0.497 OA
ATOM     19  C   UNL     1     113.002  95.659 110.934  1.00  0.00     0.278 C 
ENDBRANCH  13  18
ENDBRANCH   1  12
BRANCH   8  20
ATOM     20  O   UNL     1     111.749 102.654 116.985  1.00  0.00    -0.490 OA
ATOM     21  C   UNL     1     112.830 102.960 116.111  1.00  0.00     0.278 C 
ENDBRANCH   8  20
BRANCH  11  22
ATOM     22  O   UNL     1     106.233 103.447 116.261  1.00  0.00    -0.492 OA
ATOM     23  C   UNL     1     105.395 103.191 117.382  1.00  0.00     0.278 C 
ENDBRANCH  11  22
BRANCH   9  24
ATOM     24  O   UNL     1     110.584 104.736 118.148  1.00  0.00    -0.490 OA
ATOM     25  C   UNL     1     111.198 105.968 117.781  1.00  0.00     0.279 C 
ENDBRANCH   9  24
BRANCH  10  26
ATOM     26  O   UNL     1     107.792 105.318 117.706  1.00  0.00    -0.490 OA
ATOM     27  C   UNL     1     107.544 106.538 117.012  1.00  0.00     0.278 C 
ENDBRANCH  10  26
TORSDOF 6
ENDMDL
MODEL 7
REMARK VINA RESULT:    -6.055      3.560      6.020
REMARK INTER + INTRA:          -8.873
REMARK INTER:                  -8.295
REMARK INTRA:                  -0.579
REMARK UNBOUND:                -0.695
REMARK SMILES COc1ccc(-c2cc(=O)c3c(OC)c(OC)c(OC)c(OC)c3o2)cc1
REMARK SMILES IDX 7 1 8 2 9 3 10 4 11 5 24 6 25 7 21 8 18 9 15 10 12 11 6 12
REMARK SMILES IDX 3 13 4 14 27 15 5 16 26 17 2 18 1 19 22 20 23 21 13 22 14 23
REMARK SMILES IDX 19 24 20 25 16 26 17 27
REMARK H PARENT
REMARK Flexibility Score: inf
ROOT
ATOM      1  C   UNL     1      98.133 106.703 114.712  1.00  0.00     0.138 A 
ATOM      2  C   UNL     1      99.476 106.504 114.370  1.00  0.00     0.100 A 
ATOM      3  C   UNL     1     100.156 105.405 114.887  1.00  0.00     0.197 A 
ATOM      4  O   UNL     1     101.362 105.235 114.562  1.00  0.00    -0.289 OA
ATOM      5  C   UNL     1      99.487 104.507 115.746  1.00  0.00     0.115 A 
ATOM      6  C   UNL     1      98.123 104.758 116.032  1.00  0.00     0.188 A 
ATOM      7  O   UNL     1      97.525 105.826 115.508  1.00  0.00    -0.452 OA
ATOM      8  C   UNL     1      97.408 103.887 116.887  1.00  0.00     0.209 A 
ATOM      9  C   UNL     1      98.042 102.761 117.435  1.00  0.00     0.211 A 
ATOM     10  C   UNL     1      99.399 102.490 117.133  1.00  0.00     0.208 A 
ATOM     11  C   UNL     1     100.130 103.396 116.335  1.00  0.00     0.179 A 
ENDROOT
BRANCH   1  12
ATOM     12  C   UNL     1      97.364 107.867 114.201  1.00  0.00     0.018 A 
ATOM     13  C   UNL     1      95.947 110.096 113.200  1.00  0.00     0.118 A 
ATOM     14  C   UNL     1      97.288 110.226 113.601  1.00  0.00     0.047 A 
ATOM     15  C   UNL     1      95.325 108.848 113.300  1.00  0.00     0.047 A 
ATOM     16  C   UNL     1      97.987 109.121 114.094  1.00  0.00     0.016 A 
ATOM     17  C   UNL     1      96.023 107.741 113.788  1.00  0.00     0.016 A 
BRANCH  13  18
ATOM     18  O   UNL     1      95.203 111.175 112.698  1.00  0.00    -0.497 OA
ATOM     19  C   UNL     1      94.679 111.243 111.375  1.00  0.00     0.278 C 
ENDBRANCH  13  18
ENDBRANCH   1  12
BRANCH   8  20
ATOM     20  O   UNL     1      96.057 104.080 117.240  1.00  0.00    -0.490 OA
ATOM     21  C   UNL     1      94.919 103.764 116.445  1.00  0.00     0.278 C 
ENDBRANCH   8  20
BRANCH  11  22
ATOM     22  O   UNL     1     101.505 103.217 116.163  1.00  0.00    -0.492 OA
ATOM     23  C   UNL     1     102.426 103.577 117.187  1.00  0.00     0.278 C 
ENDBRANCH  11  22
BRANCH   9  24
ATOM     24  O   UNL     1      97.250 101.941 118.263  1.00  0.00    -0.490 OA
ATOM     25  C   UNL     1      96.699 100.669 117.935  1.00  0.00     0.279 C 
ENDBRANCH   9  24
BRANCH  10  26
ATOM     26  O   UNL     1      99.999 101.327 117.637  1.00  0.00    -0.490 OA
ATOM     27  C   UNL     1     100.329 101.120 119.008  1.00  0.00     0.278 C 
ENDBRANCH  10  26
TORSDOF 6
ENDMDL
MODEL 8
REMARK VINA RESULT:    -5.903     10.780     15.059
REMARK INTER + INTRA:          -8.668
REMARK INTER:                  -8.142
REMARK INTRA:                  -0.526
REMARK UNBOUND:                -0.695
REMARK SMILES COc1ccc(-c2cc(=O)c3c(OC)c(OC)c(OC)c(OC)c3o2)cc1
REMARK SMILES IDX 7 1 8 2 9 3 10 4 11 5 24 6 25 7 21 8 18 9 15 10 12 11 6 12
REMARK SMILES IDX 3 13 4 14 27 15 5 16 26 17 2 18 1 19 22 20 23 21 13 22 14 23
REMARK SMILES IDX 19 24 20 25 16 26 17 27
REMARK H PARENT
REMARK Flexibility Score: inf
ROOT
ATOM      1  C   UNL     1     111.615 100.432 113.193  1.00  0.00     0.138 A 
ATOM      2  C   UNL     1     111.733  99.037 113.203  1.00  0.00     0.100 A 
ATOM      3  C   UNL     1     112.179  98.382 112.059  1.00  0.00     0.197 A 
ATOM      4  O   UNL     1     112.290  97.126 112.086  1.00  0.00    -0.289 OA
ATOM      5  C   UNL     1     112.507  99.129 110.906  1.00  0.00     0.115 A 
ATOM      6  C   UNL     1     112.384 100.538 110.975  1.00  0.00     0.188 A 
ATOM      7  O   UNL     1     111.951 101.108 112.098  1.00  0.00    -0.452 OA
ATOM      8  C   UNL     1     112.701 101.330 109.846  1.00  0.00     0.209 A 
ATOM      9  C   UNL     1     113.159 100.725 108.667  1.00  0.00     0.211 A 
ATOM     10  C   UNL     1     113.308  99.317 108.600  1.00  0.00     0.208 A 
ATOM     11  C   UNL     1     112.928  98.522 109.702  1.00  0.00     0.179 A 
ENDROOT
BRANCH   1  12
ATOM     12  C   UNL     1     111.129 101.180 114.382  1.00  0.00     0.018 A 
ATOM     13  C   UNL     1     110.183 102.555 116.661  1.00  0.00     0.118 A 
ATOM     14  C   UNL     1     109.377 101.596 116.022  1.00  0.00     0.047 A 
ATOM     15  C   UNL     1     111.460 102.816 116.155  1.00  0.00     0.047 A 
ATOM     16  C   UNL     1     109.849 100.916 114.896  1.00  0.00     0.016 A 
ATOM     17  C   UNL     1     111.935 102.134 115.031  1.00  0.00     0.016 A 
BRANCH  13  18
ATOM     18  O   UNL     1     109.757 103.263 117.794  1.00  0.00    -0.497 OA
ATOM     19  C   UNL     1     110.204 104.570 118.141  1.00  0.00     0.278 C 
ENDBRANCH  13  18
ENDBRANCH   1  12
BRANCH   8  20
ATOM     20  O   UNL     1     112.582 102.734 109.825  1.00  0.00    -0.490 OA
ATOM     21  C   UNL     1     113.508 103.673 110.364  1.00  0.00     0.278 C 
ENDBRANCH   8  20
BRANCH  11  22
ATOM     22  O   UNL     1     112.925  97.131 109.586  1.00  0.00    -0.492 OA
ATOM     23  C   UNL     1     111.839  96.446 108.971  1.00  0.00     0.278 C 
ENDBRANCH  11  22
BRANCH   9  24
ATOM     24  O   UNL     1     113.464 101.592 107.598  1.00  0.00    -0.490 OA
ATOM     25  C   UNL     1     112.583 102.021 106.565  1.00  0.00     0.279 C 
ENDBRANCH   9  24
BRANCH  10  26
ATOM     26  O   UNL     1     113.827  98.733 107.434  1.00  0.00    -0.490 OA
ATOM     27  C   UNL     1     113.055  98.418 106.279  1.00  0.00     0.278 C 
ENDBRANCH  10  26
TORSDOF 6
ENDMDL
MODEL 9
REMARK VINA RESULT:    -5.886      9.690     11.158
REMARK INTER + INTRA:          -8.645
REMARK INTER:                  -7.983
REMARK INTRA:                  -0.662
REMARK UNBOUND:                -0.695
REMARK SMILES COc1ccc(-c2cc(=O)c3c(OC)c(OC)c(OC)c(OC)c3o2)cc1
REMARK SMILES IDX 7 1 8 2 9 3 10 4 11 5 24 6 25 7 21 8 18 9 15 10 12 11 6 12
REMARK SMILES IDX 3 13 4 14 27 15 5 16 26 17 2 18 1 19 22 20 23 21 13 22 14 23
REMARK SMILES IDX 19 24 20 25 16 26 17 27
REMARK H PARENT
REMARK Flexibility Score: inf
ROOT
ATOM      1  C   UNL     1     111.351 101.585 114.650  1.00  0.00     0.138 A 
ATOM      2  C   UNL     1     112.232 102.514 115.219  1.00  0.00     0.100 A 
ATOM      3  C   UNL     1     111.772 103.368 116.217  1.00  0.00     0.197 A 
ATOM      4  O   UNL     1     112.579 104.191 116.726  1.00  0.00    -0.289 OA
ATOM      5  C   UNL     1     110.428 103.288 116.644  1.00  0.00     0.115 A 
ATOM      6  C   UNL     1     109.600 102.310 116.040  1.00  0.00     0.188 A 
ATOM      7  O   UNL     1     110.097 101.521 115.089  1.00  0.00    -0.452 OA
ATOM      8  C   UNL     1     108.247 102.191 116.434  1.00  0.00     0.209 A 
ATOM      9  C   UNL     1     107.729 103.022 117.438  1.00  0.00     0.211 A 
ATOM     10  C   UNL     1     108.559 103.985 118.064  1.00  0.00     0.208 A 
ATOM     11  C   UNL     1     109.890 104.150 117.623  1.00  0.00     0.179 A 
ENDROOT
BRANCH   1  12
ATOM     12  C   UNL     1     111.786 100.661 113.571  1.00  0.00     0.018 A 
ATOM     13  C   UNL     1     112.651  98.940 111.504  1.00  0.00     0.118 A 
ATOM     14  C   UNL     1     112.536 100.324 111.279  1.00  0.00     0.047 A 
ATOM     15  C   UNL     1     112.334  98.428 112.766  1.00  0.00     0.047 A 
ATOM     16  C   UNL     1     112.111 101.172 112.304  1.00  0.00     0.016 A 
ATOM     17  C   UNL     1     111.912  99.276 113.794  1.00  0.00     0.016 A 
BRANCH  13  18
ATOM     18  O   UNL     1     113.075  98.047 110.509  1.00  0.00    -0.497 OA
ATOM     19  C   UNL     1     113.094  98.346 109.117  1.00  0.00     0.278 C 
ENDBRANCH  13  18
ENDBRANCH   1  12
BRANCH   8  20
ATOM     20  O   UNL     1     107.352 101.261 115.866  1.00  0.00    -0.490 OA
ATOM     21  C   UNL     1     106.715 101.363 114.597  1.00  0.00     0.278 C 
ENDBRANCH   8  20
BRANCH  11  22
ATOM     22  O   UNL     1     110.662 105.199 118.127  1.00  0.00    -0.492 OA
ATOM     23  C   UNL     1     110.377 106.551 117.786  1.00  0.00     0.278 C 
ENDBRANCH  11  22
BRANCH   9  24
ATOM     24  O   UNL     1     106.375 102.823 117.776  1.00  0.00    -0.490 OA
ATOM     25  C   UNL     1     105.264 103.613 117.363  1.00  0.00     0.279 C 
ENDBRANCH   9  24
BRANCH  10  26
ATOM     26  O   UNL     1     108.043 104.765 119.109  1.00  0.00    -0.490 OA
ATOM     27  C   UNL     1     108.128 104.421 120.489  1.00  0.00     0.278 C 
ENDBRANCH  10  26
TORSDOF 6
ENDMDL
