MODEL 1
REMARK VINA RESULT:    -4.119      0.000      0.000
REMARK INTER + INTRA:          -4.540
REMARK INTER:                  -4.480
REMARK INTRA:                  -0.060
REMARK UNBOUND:                -0.060
REMARK SMILES CCc1cccc(O)c1
REMARK SMILES IDX 3 1 9 2 7 3 6 4 5 5 4 6 2 7 1 8 8 9
REMARK H PARENT 8 10
REMARK Flexibility Score: inf
ROOT
ATOM      1  C   UNL     1      17.121 -44.487  32.035  1.00  0.00    -0.045 A 
ATOM      2  C   UNL     1      18.189 -44.877  31.210  1.00  0.00     0.049 A 
ATOM      3  C   UNL     1      19.449 -44.279  31.354  1.00  0.00     0.115 A 
ATOM      4  C   UNL     1      19.640 -43.284  32.319  1.00  0.00     0.046 A 
ATOM      5  C   UNL     1      18.578 -42.883  33.134  1.00  0.00     0.004 A 
ATOM      6  C   UNL     1      17.321 -43.478  32.991  1.00  0.00     0.004 A 
ENDROOT
BRANCH   1   7
ATOM      7  C   UNL     1      15.759 -45.105  31.859  1.00  0.00     0.032 C 
ATOM      8  C   UNL     1      15.336 -45.847  33.123  1.00  0.00     0.009 C 
ENDBRANCH   1   7
BRANCH   3   9
ATOM      9  O   UNL     1      20.514 -44.664  30.543  1.00  0.00    -0.508 OA
ATOM     10  H   UNL     1      21.467 -44.392  30.755  1.00  0.00     0.293 HD
ENDBRANCH   3   9
TORSDOF 2
ENDMDL
MODEL 2
REMARK VINA RESULT:    -4.089      6.589      7.219
REMARK INTER + INTRA:          -4.507
REMARK INTER:                  -4.437
REMARK INTRA:                  -0.071
REMARK UNBOUND:                -0.060
REMARK SMILES CCc1cccc(O)c1
REMARK SMILES IDX 3 1 9 2 7 3 6 4 5 5 4 6 2 7 1 8 8 9
REMARK H PARENT 8 10
REMARK Flexibility Score: inf
ROOT
ATOM      1  C   UNL     1      18.471 -41.950  25.807  1.00  0.00    -0.045 A 
ATOM      2  C   UNL     1      18.514 -40.822  24.971  1.00  0.00     0.049 A 
ATOM      3  C   UNL     1      18.488 -39.532  25.522  1.00  0.00     0.115 A 
ATOM      4  C   UNL     1      18.412 -39.370  26.909  1.00  0.00     0.046 A 
ATOM      5  C   UNL     1      18.357 -40.488  27.745  1.00  0.00     0.004 A 
ATOM      6  C   UNL     1      18.381 -41.774  27.198  1.00  0.00     0.004 A 
ENDROOT
BRANCH   1   7
ATOM      7  C   UNL     1      18.464 -43.335  25.215  1.00  0.00     0.032 C 
ATOM      8  C   UNL     1      17.456 -44.224  25.937  1.00  0.00     0.009 C 
ENDBRANCH   1   7
BRANCH   3   9
ATOM      9  O   UNL     1      18.537 -38.408  24.699  1.00  0.00    -0.508 OA
ATOM     10  H   UNL     1      18.808 -37.501  25.058  1.00  0.00     0.293 HD
ENDBRANCH   3   9
TORSDOF 2
ENDMDL
MODEL 3
REMARK VINA RESULT:    -4.062      2.014      3.130
REMARK INTER + INTRA:          -4.478
REMARK INTER:                  -4.428
REMARK INTRA:                  -0.050
REMARK UNBOUND:                -0.060
REMARK SMILES CCc1cccc(O)c1
REMARK SMILES IDX 3 1 9 2 7 3 6 4 5 5 4 6 2 7 1 8 8 9
REMARK H PARENT 8 10
REMARK Flexibility Score: inf
ROOT
ATOM      1  C   UNL     1      15.694 -44.872  31.007  1.00  0.00    -0.045 A 
ATOM      2  C   UNL     1      17.095 -44.766  31.035  1.00  0.00     0.049 A 
ATOM      3  C   UNL     1      17.839 -44.911  29.855  1.00  0.00     0.115 A 
ATOM      4  C   UNL     1      17.183 -45.169  28.647  1.00  0.00     0.046 A 
ATOM      5  C   UNL     1      15.792 -45.287  28.614  1.00  0.00     0.004 A 
ATOM      6  C   UNL     1      15.048 -45.144  29.789  1.00  0.00     0.004 A 
ENDROOT
BRANCH   1   7
ATOM      7  C   UNL     1      14.897 -44.749  32.278  1.00  0.00     0.032 C 
ATOM      8  C   UNL     1      15.249 -45.875  33.246  1.00  0.00     0.009 C 
ENDBRANCH   1   7
BRANCH   3   9
ATOM      9  O   UNL     1      19.228 -44.801  29.875  1.00  0.00    -0.508 OA
ATOM     10  H   UNL     1      19.814 -45.393  29.299  1.00  0.00     0.293 HD
ENDBRANCH   3   9
TORSDOF 2
ENDMDL
MODEL 4
REMARK VINA RESULT:    -4.014      7.015      8.027
REMARK INTER + INTRA:          -4.425
REMARK INTER:                  -4.373
REMARK INTRA:                  -0.052
REMARK UNBOUND:                -0.060
REMARK SMILES CCc1cccc(O)c1
REMARK SMILES IDX 3 1 9 2 7 3 6 4 5 5 4 6 2 7 1 8 8 9
REMARK H PARENT 8 10
REMARK Flexibility Score: inf
ROOT
ATOM      1  C   UNL     1      17.894 -41.279  25.691  1.00  0.00    -0.045 A 
ATOM      2  C   UNL     1      16.501 -41.454  25.705  1.00  0.00     0.049 A 
ATOM      3  C   UNL     1      15.949 -42.741  25.625  1.00  0.00     0.115 A 
ATOM      4  C   UNL     1      16.791 -43.854  25.523  1.00  0.00     0.046 A 
ATOM      5  C   UNL     1      18.178 -43.685  25.497  1.00  0.00     0.004 A 
ATOM      6  C   UNL     1      18.730 -42.403  25.576  1.00  0.00     0.004 A 
ENDROOT
BRANCH   1   7
ATOM      7  C   UNL     1      18.488 -39.896  25.744  1.00  0.00     0.032 C 
ATOM      8  C   UNL     1      18.495 -39.260  24.358  1.00  0.00     0.009 C 
ENDBRANCH   1   7
BRANCH   3   9
ATOM      9  O   UNL     1      14.568 -42.923  25.644  1.00  0.00    -0.508 OA
ATOM     10  H   UNL     1      13.931 -42.181  25.376  1.00  0.00     0.293 HD
ENDBRANCH   3   9
TORSDOF 2
ENDMDL
MODEL 5
REMARK VINA RESULT:    -3.950      2.449      3.609
REMARK INTER + INTRA:          -4.355
REMARK INTER:                  -4.288
REMARK INTRA:                  -0.067
REMARK UNBOUND:                -0.060
REMARK SMILES CCc1cccc(O)c1
REMARK SMILES IDX 3 1 9 2 7 3 6 4 5 5 4 6 2 7 1 8 8 9
REMARK H PARENT 8 10
REMARK Flexibility Score: inf
ROOT
ATOM      1  C   UNL     1      18.274 -44.375  32.858  1.00  0.00    -0.045 A 
ATOM      2  C   UNL     1      18.247 -42.977  32.995  1.00  0.00     0.049 A 
ATOM      3  C   UNL     1      17.023 -42.300  33.093  1.00  0.00     0.115 A 
ATOM      4  C   UNL     1      15.824 -43.019  33.048  1.00  0.00     0.046 A 
ATOM      5  C   UNL     1      15.844 -44.409  32.901  1.00  0.00     0.004 A 
ATOM      6  C   UNL     1      17.063 -45.086  32.801  1.00  0.00     0.004 A 
ENDROOT
BRANCH   1   7
ATOM      7  C   UNL     1      19.586 -45.100  32.719  1.00  0.00     0.032 C 
ATOM      8  C   UNL     1      19.609 -46.346  33.598  1.00  0.00     0.009 C 
ENDBRANCH   1   7
BRANCH   3   9
ATOM      9  O   UNL     1      16.988 -40.914  33.235  1.00  0.00    -0.508 OA
ATOM     10  H   UNL     1      17.655 -40.316  32.762  1.00  0.00     0.293 HD
ENDBRANCH   3   9
TORSDOF 2
ENDMDL
MODEL 6
REMARK VINA RESULT:    -3.945      1.934      2.940
REMARK INTER + INTRA:          -4.351
REMARK INTER:                  -4.301
REMARK INTRA:                  -0.050
REMARK UNBOUND:                -0.060
REMARK SMILES CCc1cccc(O)c1
REMARK SMILES IDX 3 1 9 2 7 3 6 4 5 5 4 6 2 7 1 8 8 9
REMARK H PARENT 8 10
REMARK Flexibility Score: inf
ROOT
ATOM      1  C   UNL     1      16.590 -45.076  30.056  1.00  0.00    -0.045 A 
ATOM      2  C   UNL     1      17.984 -45.016  30.216  1.00  0.00     0.049 A 
ATOM      3  C   UNL     1      18.548 -45.004  31.500  1.00  0.00     0.115 A 
ATOM      4  C   UNL     1      17.718 -45.043  32.625  1.00  0.00     0.046 A 
ATOM      5  C   UNL     1      16.330 -45.090  32.472  1.00  0.00     0.004 A 
ATOM      6  C   UNL     1      15.765 -45.102  31.194  1.00  0.00     0.004 A 
ENDROOT
BRANCH   1   7
ATOM      7  C   UNL     1      15.980 -45.055  28.679  1.00  0.00     0.032 C 
ATOM      8  C   UNL     1      17.040 -45.333  27.617  1.00  0.00     0.009 C 
ENDBRANCH   1   7
BRANCH   3   9
ATOM      9  O   UNL     1      19.931 -44.951  31.666  1.00  0.00    -0.508 OA
ATOM     10  H   UNL     1      20.349 -44.609  32.523  1.00  0.00     0.293 HD
ENDBRANCH   3   9
TORSDOF 2
ENDMDL
MODEL 7
REMARK VINA RESULT:    -3.936      2.249      3.693
REMARK INTER + INTRA:          -4.341
REMARK INTER:                  -4.289
REMARK INTRA:                  -0.052
REMARK UNBOUND:                -0.060
REMARK SMILES CCc1cccc(O)c1
REMARK SMILES IDX 3 1 9 2 7 3 6 4 5 5 4 6 2 7 1 8 8 9
REMARK H PARENT 8 10
REMARK Flexibility Score: inf
ROOT
ATOM      1  C   UNL     1      16.350 -45.116  31.361  1.00  0.00    -0.045 A 
ATOM      2  C   UNL     1      17.276 -45.182  30.307  1.00  0.00     0.049 A 
ATOM      3  C   UNL     1      16.831 -45.275  28.980  1.00  0.00     0.115 A 
ATOM      4  C   UNL     1      15.460 -45.310  28.707  1.00  0.00     0.046 A 
ATOM      5  C   UNL     1      14.534 -45.258  29.752  1.00  0.00     0.004 A 
ATOM      6  C   UNL     1      14.975 -45.166  31.076  1.00  0.00     0.004 A 
ENDROOT
BRANCH   1   7
ATOM      7  C   UNL     1      16.826 -45.050  32.789  1.00  0.00     0.032 C 
ATOM      8  C   UNL     1      18.299 -45.435  32.884  1.00  0.00     0.009 C 
ENDBRANCH   1   7
BRANCH   3   9
ATOM      9  O   UNL     1      17.744 -45.334  27.929  1.00  0.00    -0.508 OA
ATOM     10  H   UNL     1      17.511 -44.989  27.005  1.00  0.00     0.293 HD
ENDBRANCH   3   9
TORSDOF 2
ENDMDL
MODEL 8
REMARK VINA RESULT:    -3.899      6.690      7.433
REMARK INTER + INTRA:          -4.300
REMARK INTER:                  -4.225
REMARK INTRA:                  -0.075
REMARK UNBOUND:                -0.060
REMARK SMILES CCc1cccc(O)c1
REMARK SMILES IDX 3 1 9 2 7 3 6 4 5 5 4 6 2 7 1 8 8 9
REMARK H PARENT 8 10
REMARK Flexibility Score: inf
ROOT
ATOM      1  C   UNL     1      18.049 -41.883  26.211  1.00  0.00    -0.045 A 
ATOM      2  C   UNL     1      18.250 -40.761  27.032  1.00  0.00     0.049 A 
ATOM      3  C   UNL     1      18.443 -39.494  26.464  1.00  0.00     0.115 A 
ATOM      4  C   UNL     1      18.442 -39.348  25.072  1.00  0.00     0.046 A 
ATOM      5  C   UNL     1      18.255 -40.462  24.250  1.00  0.00     0.004 A 
ATOM      6  C   UNL     1      18.064 -41.727  24.814  1.00  0.00     0.004 A 
ENDROOT
BRANCH   1   7
ATOM      7  C   UNL     1      17.875 -43.250  26.819  1.00  0.00     0.032 C 
ATOM      8  C   UNL     1      17.500 -44.271  25.750  1.00  0.00     0.009 C 
ENDBRANCH   1   7
BRANCH   3   9
ATOM      9  O   UNL     1      18.637 -38.376  27.272  1.00  0.00    -0.508 OA
ATOM     10  H   UNL     1      18.536 -38.426  28.279  1.00  0.00     0.293 HD
ENDBRANCH   3   9
TORSDOF 2
ENDMDL
MODEL 9
REMARK VINA RESULT:    -3.896      2.811      3.899
REMARK INTER + INTRA:          -4.297
REMARK INTER:                  -4.221
REMARK INTRA:                  -0.076
REMARK UNBOUND:                -0.060
REMARK SMILES CCc1cccc(O)c1
REMARK SMILES IDX 3 1 9 2 7 3 6 4 5 5 4 6 2 7 1 8 8 9
REMARK H PARENT 8 10
REMARK Flexibility Score: inf
ROOT
ATOM      1  C   UNL     1      16.364 -45.086  30.152  1.00  0.00    -0.045 A 
ATOM      2  C   UNL     1      15.389 -45.096  31.162  1.00  0.00     0.049 A 
ATOM      3  C   UNL     1      15.769 -45.095  32.512  1.00  0.00     0.115 A 
ATOM      4  C   UNL     1      17.126 -45.090  32.853  1.00  0.00     0.046 A 
ATOM      5  C   UNL     1      18.101 -45.092  31.852  1.00  0.00     0.004 A 
ATOM      6  C   UNL     1      17.724 -45.095  30.506  1.00  0.00     0.004 A 
ENDROOT
BRANCH   1   7
ATOM      7  C   UNL     1      15.958 -45.122  28.702  1.00  0.00     0.032 C 
ATOM      8  C   UNL     1      17.160 -45.423  27.813  1.00  0.00     0.009 C 
ENDBRANCH   1   7
BRANCH   3   9
ATOM      9  O   UNL     1      14.807 -45.099  33.520  1.00  0.00    -0.508 OA
ATOM     10  H   UNL     1      14.312 -45.945  33.778  1.00  0.00     0.293 HD
ENDBRANCH   3   9
TORSDOF 2
ENDMDL
