MODEL 1
REMARK VINA RESULT:    -4.279      0.000      0.000
REMARK INTER + INTRA:          -6.832
REMARK INTER:                  -6.530
REMARK INTRA:                  -0.302
REMARK UNBOUND:                -0.302
REMARK SMILES O=C([O-])CCCCCCCCC(=O)[O-]
REMARK SMILES IDX 7 1 6 2 5 3 4 4 2 5 1 6 3 7 8 8 9 9 10 10 11 11 12 12 13 13
REMARK SMILES IDX 14 14
REMARK H PARENT
REMARK Flexibility Score: inf
ROOT
ATOM      1  C   UNL     1     -44.572  26.791  -0.936  1.00  0.00     0.000 C 
ENDROOT
BRANCH   1   2
ATOM      2  C   UNL     1     -43.878  28.013  -0.310  1.00  0.00     0.000 C 
BRANCH   2   3
ATOM      3  C   UNL     1     -42.903  27.625   0.813  1.00  0.00     0.006 C 
BRANCH   3   4
ATOM      4  C   UNL     1     -43.343  28.150   2.186  1.00  0.00     0.053 C 
BRANCH   4   5
ATOM      5  C   UNL     1     -44.425  27.285   2.752  1.00  0.00     0.041 C 
ATOM      6  O   UNL     1     -44.151  26.145   3.210  1.00  0.00    -0.550 OA
ATOM      7  O   UNL     1     -45.745  27.718   2.729  1.00  0.00    -0.550 OA
ENDBRANCH   4   5
ENDBRANCH   3   4
ENDBRANCH   2   3
ENDBRANCH   1   2
BRANCH   1   8
ATOM      8  C   UNL     1     -45.836  27.170  -1.726  1.00  0.00     0.000 C 
BRANCH   8   9
ATOM      9  C   UNL     1     -46.042  26.297  -2.973  1.00  0.00     0.000 C 
BRANCH   9  10
ATOM     10  C   UNL     1     -46.356  27.163  -4.202  1.00  0.00     0.006 C 
BRANCH  10  11
ATOM     11  C   UNL     1     -46.746  26.320  -5.423  1.00  0.00     0.053 C 
BRANCH  11  12
ATOM     12  C   UNL     1     -45.987  26.730  -6.648  1.00  0.00     0.041 C 
ATOM     13  O   UNL     1     -45.401  27.843  -6.687  1.00  0.00    -0.550 OA
ATOM     14  O   UNL     1     -45.958  25.898  -7.761  1.00  0.00    -0.550 OA
ENDBRANCH  11  12
ENDBRANCH  10  11
ENDBRANCH   9  10
ENDBRANCH   8   9
ENDBRANCH   1   8
TORSDOF 9
ENDMDL
MODEL 2
REMARK VINA RESULT:    -4.185      2.411      7.285
REMARK INTER + INTRA:          -6.689
REMARK INTER:                  -6.113
REMARK INTRA:                  -0.576
REMARK UNBOUND:                -0.302
REMARK SMILES O=C([O-])CCCCCCCCC(=O)[O-]
REMARK SMILES IDX 7 1 6 2 5 3 4 4 2 5 1 6 3 7 8 8 9 9 10 10 11 11 12 12 13 13
REMARK SMILES IDX 14 14
REMARK H PARENT
REMARK Flexibility Score: inf
ROOT
ATOM      1  C   UNL     1     -42.524  27.937   0.505  1.00  0.00     0.000 C 
ENDROOT
BRANCH   1   2
ATOM      2  C   UNL     1     -43.833  27.174   0.240  1.00  0.00     0.000 C 
BRANCH   2   3
ATOM      3  C   UNL     1     -44.645  27.781  -0.915  1.00  0.00     0.006 C 
BRANCH   3   4
ATOM      4  C   UNL     1     -46.014  27.110  -1.091  1.00  0.00     0.053 C 
BRANCH   4   5
ATOM      5  C   UNL     1     -45.917  25.977  -2.064  1.00  0.00     0.041 C 
ATOM      6  O   UNL     1     -45.666  24.812  -1.658  1.00  0.00    -0.550 OA
ATOM      7  O   UNL     1     -46.055  26.216  -3.426  1.00  0.00    -0.550 OA
ENDBRANCH   4   5
ENDBRANCH   3   4
ENDBRANCH   2   3
ENDBRANCH   1   2
BRANCH   1   8
ATOM      8  C   UNL     1     -42.760  29.296   1.187  1.00  0.00     0.000 C 
BRANCH   8   9
ATOM      9  C   UNL     1     -43.752  29.209   2.356  1.00  0.00     0.000 C 
BRANCH   9  10
ATOM     10  C   UNL     1     -43.022  28.897   3.671  1.00  0.00     0.006 C 
BRANCH  10  11
ATOM     11  C   UNL     1     -43.925  28.177   4.681  1.00  0.00     0.053 C 
BRANCH  11  12
ATOM     12  C   UNL     1     -44.757  27.117   4.027  1.00  0.00     0.041 C 
ATOM     13  O   UNL     1     -46.013  27.205   4.032  1.00  0.00    -0.550 OA
ATOM     14  O   UNL     1     -44.147  26.014   3.443  1.00  0.00    -0.550 OA
ENDBRANCH  11  12
ENDBRANCH  10  11
ENDBRANCH   9  10
ENDBRANCH   8   9
ENDBRANCH   1   8
TORSDOF 9
ENDMDL
MODEL 3
REMARK VINA RESULT:    -4.184      0.903      7.704
REMARK INTER + INTRA:          -6.687
REMARK INTER:                  -6.234
REMARK INTRA:                  -0.453
REMARK UNBOUND:                -0.302
REMARK SMILES O=C([O-])CCCCCCCCC(=O)[O-]
REMARK SMILES IDX 7 1 6 2 5 3 4 4 2 5 1 6 3 7 8 8 9 9 10 10 11 11 12 12 13 13
REMARK SMILES IDX 14 14
REMARK H PARENT
REMARK Flexibility Score: inf
ROOT
ATOM      1  C   UNL     1     -45.779  25.974  -2.578  1.00  0.00     0.000 C 
ENDROOT
BRANCH   1   2
ATOM      2  C   UNL     1     -46.613  27.182  -3.038  1.00  0.00     0.000 C 
BRANCH   2   3
ATOM      3  C   UNL     1     -46.334  27.567  -4.500  1.00  0.00     0.006 C 
BRANCH   3   4
ATOM      4  C   UNL     1     -46.452  26.374  -5.458  1.00  0.00     0.053 C 
BRANCH   4   5
ATOM      5  C   UNL     1     -45.898  26.729  -6.803  1.00  0.00     0.041 C 
ATOM      6  O   UNL     1     -45.344  27.844  -6.985  1.00  0.00    -0.550 OA
ATOM      7  O   UNL     1     -46.040  25.848  -7.867  1.00  0.00    -0.550 OA
ENDBRANCH   4   5
ENDBRANCH   3   4
ENDBRANCH   2   3
ENDBRANCH   1   2
BRANCH   1   8
ATOM      8  C   UNL     1     -44.954  26.272  -1.314  1.00  0.00     0.000 C 
BRANCH   8   9
ATOM      9  C   UNL     1     -44.895  27.771  -0.983  1.00  0.00     0.000 C 
BRANCH   9  10
ATOM     10  C   UNL     1     -43.580  28.123  -0.271  1.00  0.00     0.006 C 
BRANCH  10  11
ATOM     11  C   UNL     1     -43.231  27.118   0.835  1.00  0.00     0.053 C 
BRANCH  11  12
ATOM     12  C   UNL     1     -43.872  27.482   2.140  1.00  0.00     0.041 C 
ATOM     13  O   UNL     1     -45.026  27.062   2.417  1.00  0.00    -0.550 OA
ATOM     14  O   UNL     1     -43.210  28.315   3.033  1.00  0.00    -0.550 OA
ENDBRANCH  11  12
ENDBRANCH  10  11
ENDBRANCH   9  10
ENDBRANCH   8   9
ENDBRANCH   1   8
TORSDOF 9
ENDMDL
MODEL 4
REMARK VINA RESULT:    -4.166      2.456      3.518
REMARK INTER + INTRA:          -6.661
REMARK INTER:                  -5.824
REMARK INTRA:                  -0.837
REMARK UNBOUND:                -0.302
REMARK SMILES O=C([O-])CCCCCCCCC(=O)[O-]
REMARK SMILES IDX 7 1 6 2 5 3 4 4 2 5 1 6 3 7 8 8 9 9 10 10 11 11 12 12 13 13
REMARK SMILES IDX 14 14
REMARK H PARENT
REMARK Flexibility Score: inf
ROOT
ATOM      1  C   UNL     1     -43.025  29.530   0.333  1.00  0.00     0.000 C 
ENDROOT
BRANCH   1   2
ATOM      2  C   UNL     1     -42.686  29.820   1.805  1.00  0.00     0.000 C 
BRANCH   2   3
ATOM      3  C   UNL     1     -43.901  29.658   2.732  1.00  0.00     0.006 C 
BRANCH   3   4
ATOM      4  C   UNL     1     -43.751  28.479   3.703  1.00  0.00     0.053 C 
BRANCH   4   5
ATOM      5  C   UNL     1     -44.610  27.333   3.269  1.00  0.00     0.041 C 
ATOM      6  O   UNL     1     -44.118  26.181   3.153  1.00  0.00    -0.550 OA
ATOM      7  O   UNL     1     -45.943  27.549   2.943  1.00  0.00    -0.550 OA
ENDBRANCH   4   5
ENDBRANCH   3   4
ENDBRANCH   2   3
ENDBRANCH   1   2
BRANCH   1   8
ATOM      8  C   UNL     1     -42.601  28.118  -0.104  1.00  0.00     0.000 C 
BRANCH   8   9
ATOM      9  C   UNL     1     -43.790  27.155  -0.235  1.00  0.00     0.000 C 
BRANCH   9  10
ATOM     10  C   UNL     1     -45.055  27.904  -0.681  1.00  0.00     0.006 C 
BRANCH  10  11
ATOM     11  C   UNL     1     -46.255  26.965  -0.856  1.00  0.00     0.053 C 
BRANCH  11  12
ATOM     12  C   UNL     1     -46.033  25.976  -1.959  1.00  0.00     0.041 C 
ATOM     13  O   UNL     1     -45.755  24.778  -1.690  1.00  0.00    -0.550 OA
ATOM     14  O   UNL     1     -46.097  26.386  -3.285  1.00  0.00    -0.550 OA
ENDBRANCH  11  12
ENDBRANCH  10  11
ENDBRANCH   9  10
ENDBRANCH   8   9
ENDBRANCH   1   8
TORSDOF 9
ENDMDL
MODEL 5
REMARK VINA RESULT:    -4.155      2.466      7.020
REMARK INTER + INTRA:          -6.644
REMARK INTER:                  -5.765
REMARK INTRA:                  -0.879
REMARK UNBOUND:                -0.302
REMARK SMILES O=C([O-])CCCCCCCCC(=O)[O-]
REMARK SMILES IDX 7 1 6 2 5 3 4 4 2 5 1 6 3 7 8 8 9 9 10 10 11 11 12 12 13 13
REMARK SMILES IDX 14 14
REMARK H PARENT
REMARK Flexibility Score: inf
ROOT
ATOM      1  C   UNL     1     -43.344  27.505  -0.203  1.00  0.00     0.000 C 
ENDROOT
BRANCH   1   2
ATOM      2  C   UNL     1     -44.700  28.060  -0.672  1.00  0.00     0.000 C 
BRANCH   2   3
ATOM      3  C   UNL     1     -45.890  27.342  -0.014  1.00  0.00     0.006 C 
BRANCH   3   4
ATOM      4  C   UNL     1     -46.888  26.790  -1.041  1.00  0.00     0.053 C 
BRANCH   4   5
ATOM      5  C   UNL     1     -46.189  25.901  -2.022  1.00  0.00     0.041 C 
ATOM      6  O   UNL     1     -45.647  24.834  -1.635  1.00  0.00    -0.550 OA
ATOM      7  O   UNL     1     -46.095  26.277  -3.356  1.00  0.00    -0.550 OA
ENDBRANCH   4   5
ENDBRANCH   3   4
ENDBRANCH   2   3
ENDBRANCH   1   2
BRANCH   1   8
ATOM      8  C   UNL     1     -42.383  28.612   0.264  1.00  0.00     0.000 C 
BRANCH   8   9
ATOM      9  C   UNL     1     -42.998  29.518   1.340  1.00  0.00     0.000 C 
BRANCH   9  10
ATOM     10  C   UNL     1     -43.024  28.811   2.703  1.00  0.00     0.006 C 
BRANCH  10  11
ATOM     11  C   UNL     1     -44.428  28.789   3.321  1.00  0.00     0.053 C 
BRANCH  11  12
ATOM     12  C   UNL     1     -44.906  27.391   3.568  1.00  0.00     0.041 C 
ATOM     13  O   UNL     1     -44.276  26.412   3.088  1.00  0.00    -0.550 OA
ATOM     14  O   UNL     1     -46.068  27.170   4.297  1.00  0.00    -0.550 OA
ENDBRANCH  11  12
ENDBRANCH  10  11
ENDBRANCH   9  10
ENDBRANCH   8   9
ENDBRANCH   1   8
TORSDOF 9
ENDMDL
MODEL 6
REMARK VINA RESULT:    -4.106      1.501      7.343
REMARK INTER + INTRA:          -6.568
REMARK INTER:                  -5.973
REMARK INTRA:                  -0.595
REMARK UNBOUND:                -0.302
REMARK SMILES O=C([O-])CCCCCCCCC(=O)[O-]
REMARK SMILES IDX 7 1 6 2 5 3 4 4 2 5 1 6 3 7 8 8 9 9 10 10 11 11 12 12 13 13
REMARK SMILES IDX 14 14
REMARK H PARENT
REMARK Flexibility Score: inf
ROOT
ATOM      1  C   UNL     1     -45.525  27.202  -0.416  1.00  0.00     0.000 C 
ENDROOT
BRANCH   1   2
ATOM      2  C   UNL     1     -45.005  26.185  -1.447  1.00  0.00     0.000 C 
BRANCH   2   3
ATOM      3  C   UNL     1     -46.138  25.380  -2.104  1.00  0.00     0.006 C 
BRANCH   3   4
ATOM      4  C   UNL     1     -47.122  26.268  -2.878  1.00  0.00     0.053 C 
BRANCH   4   5
ATOM      5  C   UNL     1     -46.415  26.988  -3.983  1.00  0.00     0.041 C 
ATOM      6  O   UNL     1     -46.218  28.229  -3.907  1.00  0.00    -0.550 OA
ATOM      7  O   UNL     1     -46.018  26.297  -5.121  1.00  0.00    -0.550 OA
ENDBRANCH   4   5
ENDBRANCH   3   4
ENDBRANCH   2   3
ENDBRANCH   1   2
BRANCH   1   8
ATOM      8  C   UNL     1     -44.523  28.337  -0.148  1.00  0.00     0.000 C 
BRANCH   8   9
ATOM      9  C   UNL     1     -43.073  27.839  -0.049  1.00  0.00     0.000 C 
BRANCH   9  10
ATOM     10  C   UNL     1     -42.721  27.466   1.399  1.00  0.00     0.006 C 
BRANCH  10  11
ATOM     11  C   UNL     1     -43.473  28.327   2.422  1.00  0.00     0.053 C 
BRANCH  11  12
ATOM     12  C   UNL     1     -44.250  27.490   3.391  1.00  0.00     0.041 C 
ATOM     13  O   UNL     1     -44.336  26.244   3.226  1.00  0.00    -0.550 OA
ATOM     14  O   UNL     1     -44.911  28.089   4.457  1.00  0.00    -0.550 OA
ENDBRANCH  11  12
ENDBRANCH  10  11
ENDBRANCH   9  10
ENDBRANCH   8   9
ENDBRANCH   1   8
TORSDOF 9
ENDMDL
MODEL 7
REMARK VINA RESULT:    -4.062      3.480      8.275
REMARK INTER + INTRA:          -6.501
REMARK INTER:                  -5.894
REMARK INTRA:                  -0.607
REMARK UNBOUND:                -0.302
REMARK SMILES O=C([O-])CCCCCCCCC(=O)[O-]
REMARK SMILES IDX 7 1 6 2 5 3 4 4 2 5 1 6 3 7 8 8 9 9 10 10 11 11 12 12 13 13
REMARK SMILES IDX 14 14
REMARK H PARENT
REMARK Flexibility Score: inf
ROOT
ATOM      1  C   UNL     1     -42.735  27.397   1.202  1.00  0.00     0.000 C 
ENDROOT
BRANCH   1   2
ATOM      2  C   UNL     1     -42.849  28.028  -0.196  1.00  0.00     0.000 C 
BRANCH   2   3
ATOM      3  C   UNL     1     -44.169  28.789  -0.393  1.00  0.00     0.006 C 
BRANCH   3   4
ATOM      4  C   UNL     1     -45.127  28.073  -1.355  1.00  0.00     0.053 C 
BRANCH   4   5
ATOM      5  C   UNL     1     -45.652  26.819  -0.730  1.00  0.00     0.041 C 
ATOM      6  O   UNL     1     -46.363  26.878   0.307  1.00  0.00    -0.550 OA
ATOM      7  O   UNL     1     -45.315  25.582  -1.265  1.00  0.00    -0.550 OA
ENDBRANCH   4   5
ENDBRANCH   3   4
ENDBRANCH   2   3
ENDBRANCH   1   2
BRANCH   1   8
ATOM      8  C   UNL     1     -43.419  28.243   2.290  1.00  0.00     0.000 C 
BRANCH   8   9
ATOM      9  C   UNL     1     -44.253  27.396   3.263  1.00  0.00     0.000 C 
BRANCH   9  10
ATOM     10  C   UNL     1     -44.568  28.186   4.543  1.00  0.00     0.006 C 
BRANCH  10  11
ATOM     11  C   UNL     1     -43.303  28.737   5.213  1.00  0.00     0.053 C 
BRANCH  11  12
ATOM     12  C   UNL     1     -42.938  27.958   6.440  1.00  0.00     0.041 C 
ATOM     13  O   UNL     1     -42.027  28.371   7.205  1.00  0.00    -0.550 OA
ATOM     14  O   UNL     1     -43.578  26.757   6.718  1.00  0.00    -0.550 OA
ENDBRANCH  11  12
ENDBRANCH  10  11
ENDBRANCH   9  10
ENDBRANCH   8   9
ENDBRANCH   1   8
TORSDOF 9
ENDMDL
MODEL 8
REMARK VINA RESULT:    -4.002      2.858      4.282
REMARK INTER + INTRA:          -6.410
REMARK INTER:                  -6.040
REMARK INTRA:                  -0.370
REMARK UNBOUND:                -0.302
REMARK SMILES O=C([O-])CCCCCCCCC(=O)[O-]
REMARK SMILES IDX 7 1 6 2 5 3 4 4 2 5 1 6 3 7 8 8 9 9 10 10 11 11 12 12 13 13
REMARK SMILES IDX 14 14
REMARK H PARENT
REMARK Flexibility Score: inf
ROOT
ATOM      1  C   UNL     1     -43.659  27.504   2.289  1.00  0.00     0.000 C 
ENDROOT
BRANCH   1   2
ATOM      2  C   UNL     1     -43.595  28.815   3.091  1.00  0.00     0.000 C 
BRANCH   2   3
ATOM      3  C   UNL     1     -44.250  28.691   4.476  1.00  0.00     0.006 C 
BRANCH   3   4
ATOM      4  C   UNL     1     -43.346  29.201   5.606  1.00  0.00     0.053 C 
BRANCH   4   5
ATOM      5  C   UNL     1     -42.925  28.068   6.489  1.00  0.00     0.041 C 
ATOM      6  O   UNL     1     -41.984  28.221   7.311  1.00  0.00    -0.550 OA
ATOM      7  O   UNL     1     -43.540  26.828   6.369  1.00  0.00    -0.550 OA
ENDBRANCH   4   5
ENDBRANCH   3   4
ENDBRANCH   2   3
ENDBRANCH   1   2
BRANCH   1   8
ATOM      8  C   UNL     1     -42.656  27.476   1.123  1.00  0.00     0.000 C 
BRANCH   8   9
ATOM      9  C   UNL     1     -43.329  27.671  -0.244  1.00  0.00     0.000 C 
BRANCH   9  10
ATOM     10  C   UNL     1     -44.789  27.195  -0.208  1.00  0.00     0.006 C 
BRANCH  10  11
ATOM     11  C   UNL     1     -45.502  27.403  -1.551  1.00  0.00     0.053 C 
BRANCH  11  12
ATOM     12  C   UNL     1     -45.757  26.104  -2.253  1.00  0.00     0.041 C 
ATOM     13  O   UNL     1     -45.703  25.019  -1.617  1.00  0.00    -0.550 OA
ATOM     14  O   UNL     1     -46.017  26.090  -3.618  1.00  0.00    -0.550 OA
ENDBRANCH  11  12
ENDBRANCH  10  11
ENDBRANCH   9  10
ENDBRANCH   8   9
ENDBRANCH   1   8
TORSDOF 9
ENDMDL
MODEL 9
REMARK VINA RESULT:    -3.984      3.383      4.860
REMARK INTER + INTRA:          -6.382
REMARK INTER:                  -5.816
REMARK INTRA:                  -0.566
REMARK UNBOUND:                -0.302
REMARK SMILES O=C([O-])CCCCCCCCC(=O)[O-]
REMARK SMILES IDX 7 1 6 2 5 3 4 4 2 5 1 6 3 7 8 8 9 9 10 10 11 11 12 12 13 13
REMARK SMILES IDX 14 14
REMARK H PARENT
REMARK Flexibility Score: inf
ROOT
ATOM      1  C   UNL     1     -43.779  27.922   2.632  1.00  0.00     0.000 C 
ENDROOT
BRANCH   1   2
ATOM      2  C   UNL     1     -43.089  29.268   2.917  1.00  0.00     0.000 C 
BRANCH   2   3
ATOM      3  C   UNL     1     -42.918  29.535   4.421  1.00  0.00     0.006 C 
BRANCH   3   4
ATOM      4  C   UNL     1     -43.933  28.766   5.278  1.00  0.00     0.053 C 
BRANCH   4   5
ATOM      5  C   UNL     1     -43.226  27.865   6.241  1.00  0.00     0.041 C 
ATOM      6  O   UNL     1     -43.569  26.659   6.349  1.00  0.00    -0.550 OA
ATOM      7  O   UNL     1     -42.221  28.370   7.056  1.00  0.00    -0.550 OA
ENDBRANCH   4   5
ENDBRANCH   3   4
ENDBRANCH   2   3
ENDBRANCH   1   2
BRANCH   1   8
ATOM      8  C   UNL     1     -43.037  27.091   1.571  1.00  0.00     0.000 C 
BRANCH   8   9
ATOM      9  C   UNL     1     -42.678  27.908   0.321  1.00  0.00     0.000 C 
BRANCH   9  10
ATOM     10  C   UNL     1     -43.919  28.144  -0.554  1.00  0.00     0.006 C 
BRANCH  10  11
ATOM     11  C   UNL     1     -44.660  26.839  -0.875  1.00  0.00     0.053 C 
BRANCH  11  12
ATOM     12  C   UNL     1     -46.145  26.997  -0.748  1.00  0.00     0.041 C 
ATOM     13  O   UNL     1     -46.845  27.246  -1.764  1.00  0.00    -0.550 OA
ATOM     14  O   UNL     1     -46.750  26.906   0.500  1.00  0.00    -0.550 OA
ENDBRANCH  11  12
ENDBRANCH  10  11
ENDBRANCH   9  10
ENDBRANCH   8   9
ENDBRANCH   1   8
TORSDOF 9
ENDMDL
