MODEL 1
REMARK VINA RESULT:    -5.273      0.000      0.000
REMARK INTER + INTRA:          -6.097
REMARK INTER:                  -5.889
REMARK INTRA:                  -0.208
REMARK UNBOUND:                -0.208
REMARK SMILES CC(C)c1ccc(C(=O)[O-])cc1
REMARK SMILES IDX 7 1 6 2 11 3 5 4 12 5 4 6 8 7 9 8 10 9 2 10 1 11 3 12
REMARK H PARENT
REMARK Flexibility Score: inf
ROOT
ATOM      1  C   UNL     1      81.959  59.758  10.481  1.00  0.00    -0.003 A 
ATOM      2  C   UNL     1      82.395  58.425  10.578  1.00  0.00     0.010 A 
ATOM      3  C   UNL     1      80.584  60.017  10.359  1.00  0.00     0.010 A 
ATOM      4  C   UNL     1      81.474  57.374  10.551  1.00  0.00     0.004 A 
ATOM      5  C   UNL     1      79.663  58.966  10.333  1.00  0.00     0.004 A 
ATOM      6  C   UNL     1      80.098  57.631  10.429  1.00  0.00    -0.045 A 
ENDROOT
BRANCH   1   7
ATOM      7  C   UNL     1      82.930  60.874  10.509  1.00  0.00     0.071 C 
ATOM      8  O   UNL     1      82.707  61.932   9.862  1.00  0.00    -0.545 OA
ATOM      9  O   UNL     1      84.101  60.771  11.251  1.00  0.00    -0.545 OA
ENDBRANCH   1   7
BRANCH   6  10
ATOM     10  C   UNL     1      79.110  56.480  10.401  1.00  0.00     0.013 C 
ATOM     11  C   UNL     1      77.892  56.819   9.534  1.00  0.00     0.012 C 
ATOM     12  C   UNL     1      78.684  56.084  11.820  1.00  0.00     0.012 C 
ENDBRANCH   6  10
TORSDOF 2
ENDMDL
MODEL 2
REMARK VINA RESULT:    -5.181      4.379      5.710
REMARK INTER + INTRA:          -5.995
REMARK INTER:                  -5.792
REMARK INTRA:                  -0.203
REMARK UNBOUND:                -0.208
REMARK SMILES CC(C)c1ccc(C(=O)[O-])cc1
REMARK SMILES IDX 7 1 6 2 11 3 5 4 12 5 4 6 8 7 9 8 10 9 2 10 1 11 3 12
REMARK H PARENT
REMARK Flexibility Score: inf
ROOT
ATOM      1  C   UNL     1      78.956  55.609   9.616  1.00  0.00    -0.003 A 
ATOM      2  C   UNL     1      80.011  54.696   9.789  1.00  0.00     0.010 A 
ATOM      3  C   UNL     1      78.035  55.394   8.577  1.00  0.00     0.010 A 
ATOM      4  C   UNL     1      80.143  53.594   8.940  1.00  0.00     0.004 A 
ATOM      5  C   UNL     1      78.166  54.292   7.728  1.00  0.00     0.004 A 
ATOM      6  C   UNL     1      79.222  53.378   7.901  1.00  0.00    -0.045 A 
ENDROOT
BRANCH   1   7
ATOM      7  C   UNL     1      78.812  56.777  10.512  1.00  0.00     0.071 C 
ATOM      8  O   UNL     1      78.555  56.618  11.735  1.00  0.00    -0.545 OA
ATOM      9  O   UNL     1      78.960  58.067  10.017  1.00  0.00    -0.545 OA
ENDBRANCH   1   7
BRANCH   6  10
ATOM     10  C   UNL     1      79.377  52.176   6.987  1.00  0.00     0.013 C 
ATOM     11  C   UNL     1      79.106  50.869   7.741  1.00  0.00     0.012 C 
ATOM     12  C   UNL     1      80.763  52.158   6.330  1.00  0.00     0.012 C 
ENDBRANCH   6  10
TORSDOF 2
ENDMDL
MODEL 3
REMARK VINA RESULT:    -5.135      5.377      6.709
REMARK INTER + INTRA:          -5.943
REMARK INTER:                  -5.733
REMARK INTRA:                  -0.209
REMARK UNBOUND:                -0.208
REMARK SMILES CC(C)c1ccc(C(=O)[O-])cc1
REMARK SMILES IDX 7 1 6 2 11 3 5 4 12 5 4 6 8 7 9 8 10 9 2 10 1 11 3 12
REMARK H PARENT
REMARK Flexibility Score: inf
ROOT
ATOM      1  C   UNL     1      80.367  52.707   8.818  1.00  0.00    -0.003 A 
ATOM      2  C   UNL     1      80.511  53.825   9.658  1.00  0.00     0.010 A 
ATOM      3  C   UNL     1      79.357  52.716   7.841  1.00  0.00     0.010 A 
ATOM      4  C   UNL     1      79.663  54.928   9.524  1.00  0.00     0.004 A 
ATOM      5  C   UNL     1      78.509  53.818   7.707  1.00  0.00     0.004 A 
ATOM      6  C   UNL     1      78.653  54.938   8.548  1.00  0.00    -0.045 A 
ENDROOT
BRANCH   1   7
ATOM      7  C   UNL     1      81.263  51.538   8.955  1.00  0.00     0.071 C 
ATOM      8  O   UNL     1      82.178  51.330   8.115  1.00  0.00    -0.545 OA
ATOM      9  O   UNL     1      81.107  50.652  10.015  1.00  0.00    -0.545 OA
ENDBRANCH   1   7
BRANCH   6  10
ATOM     10  C   UNL     1      77.739  56.142   8.413  1.00  0.00     0.013 C 
ATOM     11  C   UNL     1      77.805  56.732   7.000  1.00  0.00     0.012 C 
ATOM     12  C   UNL     1      78.066  57.204   9.470  1.00  0.00     0.012 C 
ENDBRANCH   6  10
TORSDOF 2
ENDMDL
MODEL 4
REMARK VINA RESULT:    -5.133      2.943      5.166
REMARK INTER + INTRA:          -5.941
REMARK INTER:                  -5.728
REMARK INTRA:                  -0.214
REMARK UNBOUND:                -0.208
REMARK SMILES CC(C)c1ccc(C(=O)[O-])cc1
REMARK SMILES IDX 7 1 6 2 11 3 5 4 12 5 4 6 8 7 9 8 10 9 2 10 1 11 3 12
REMARK H PARENT
REMARK Flexibility Score: inf
ROOT
ATOM      1  C   UNL     1      80.055  57.996  10.461  1.00  0.00    -0.003 A 
ATOM      2  C   UNL     1      79.922  59.390  10.333  1.00  0.00     0.010 A 
ATOM      3  C   UNL     1      81.342  57.443  10.568  1.00  0.00     0.010 A 
ATOM      4  C   UNL     1      81.052  60.211  10.311  1.00  0.00     0.004 A 
ATOM      5  C   UNL     1      82.472  58.264  10.545  1.00  0.00     0.004 A 
ATOM      6  C   UNL     1      82.340  59.659  10.417  1.00  0.00    -0.045 A 
ENDROOT
BRANCH   1   7
ATOM      7  C   UNL     1      78.862  57.122  10.486  1.00  0.00     0.071 C 
ATOM      8  O   UNL     1      78.138  56.998   9.461  1.00  0.00    -0.545 OA
ATOM      9  O   UNL     1      78.522  56.425  11.639  1.00  0.00    -0.545 OA
ENDBRANCH   1   7
BRANCH   6  10
ATOM     10  C   UNL     1      83.559  60.563  10.391  1.00  0.00     0.013 C 
ATOM     11  C   UNL     1      83.203  61.955   9.857  1.00  0.00     0.012 C 
ATOM     12  C   UNL     1      84.695  59.934   9.578  1.00  0.00     0.012 C 
ENDBRANCH   6  10
TORSDOF 2
ENDMDL
MODEL 5
REMARK VINA RESULT:    -4.990      4.854      6.346
REMARK INTER + INTRA:          -5.782
REMARK INTER:                  -5.566
REMARK INTRA:                  -0.215
REMARK UNBOUND:                -0.208
REMARK SMILES CC(C)c1ccc(C(=O)[O-])cc1
REMARK SMILES IDX 7 1 6 2 11 3 5 4 12 5 4 6 8 7 9 8 10 9 2 10 1 11 3 12
REMARK H PARENT
REMARK Flexibility Score: inf
ROOT
ATOM      1  C   UNL     1      78.573  55.253   8.304  1.00  0.00    -0.003 A 
ATOM      2  C   UNL     1      78.187  54.115   7.574  1.00  0.00     0.010 A 
ATOM      3  C   UNL     1      79.691  55.170   9.151  1.00  0.00     0.010 A 
ATOM      4  C   UNL     1      78.904  52.921   7.689  1.00  0.00     0.004 A 
ATOM      5  C   UNL     1      80.408  53.976   9.266  1.00  0.00     0.004 A 
ATOM      6  C   UNL     1      80.022  52.837   8.535  1.00  0.00    -0.045 A 
ENDROOT
BRANCH   1   7
ATOM      7  C   UNL     1      77.818  56.519   8.186  1.00  0.00     0.071 C 
ATOM      8  O   UNL     1      77.360  57.090   9.211  1.00  0.00    -0.545 OA
ATOM      9  O   UNL     1      77.604  57.098   6.940  1.00  0.00    -0.545 OA
ENDBRANCH   1   7
BRANCH   6  10
ATOM     10  C   UNL     1      80.791  51.534   8.651  1.00  0.00     0.013 C 
ATOM     11  C   UNL     1      79.911  50.338   8.271  1.00  0.00     0.012 C 
ATOM     12  C   UNL     1      81.378  51.363  10.057  1.00  0.00     0.012 C 
ENDBRANCH   6  10
TORSDOF 2
ENDMDL
MODEL 6
REMARK VINA RESULT:    -4.900      5.118      6.579
REMARK INTER + INTRA:          -5.680
REMARK INTER:                  -5.478
REMARK INTRA:                  -0.203
REMARK UNBOUND:                -0.208
REMARK SMILES CC(C)c1ccc(C(=O)[O-])cc1
REMARK SMILES IDX 7 1 6 2 11 3 5 4 12 5 4 6 8 7 9 8 10 9 2 10 1 11 3 12
REMARK H PARENT
REMARK Flexibility Score: inf
ROOT
ATOM      1  C   UNL     1      79.545  53.466   7.939  1.00  0.00    -0.003 A 
ATOM      2  C   UNL     1      78.389  54.240   7.740  1.00  0.00     0.010 A 
ATOM      3  C   UNL     1      80.379  53.758   9.032  1.00  0.00     0.010 A 
ATOM      4  C   UNL     1      78.074  55.284   8.613  1.00  0.00     0.004 A 
ATOM      5  C   UNL     1      80.064  54.802   9.905  1.00  0.00     0.004 A 
ATOM      6  C   UNL     1      78.907  55.578   9.706  1.00  0.00    -0.045 A 
ENDROOT
BRANCH   1   7
ATOM      7  C   UNL     1      79.883  52.359   7.018  1.00  0.00     0.071 C 
ATOM      8  O   UNL     1      81.021  52.298   6.480  1.00  0.00    -0.545 OA
ATOM      9  O   UNL     1      78.948  51.370   6.732  1.00  0.00    -0.545 OA
ENDBRANCH   1   7
BRANCH   6  10
ATOM     10  C   UNL     1      78.553  56.715  10.647  1.00  0.00     0.013 C 
ATOM     11  C   UNL     1      79.441  57.938  10.393  1.00  0.00     0.012 C 
ATOM     12  C   UNL     1      78.636  56.266  12.111  1.00  0.00     0.012 C 
ENDBRANCH   6  10
TORSDOF 2
ENDMDL
MODEL 7
REMARK VINA RESULT:    -4.843      4.575      5.949
REMARK INTER + INTRA:          -5.617
REMARK INTER:                  -5.406
REMARK INTRA:                  -0.210
REMARK UNBOUND:                -0.208
REMARK SMILES CC(C)c1ccc(C(=O)[O-])cc1
REMARK SMILES IDX 7 1 6 2 11 3 5 4 12 5 4 6 8 7 9 8 10 9 2 10 1 11 3 12
REMARK H PARENT
REMARK Flexibility Score: inf
ROOT
ATOM      1  C   UNL     1      78.797  55.545   9.203  1.00  0.00    -0.003 A 
ATOM      2  C   UNL     1      78.154  54.842   8.168  1.00  0.00     0.010 A 
ATOM      3  C   UNL     1      79.965  55.005   9.767  1.00  0.00     0.010 A 
ATOM      4  C   UNL     1      78.669  53.627   7.710  1.00  0.00     0.004 A 
ATOM      5  C   UNL     1      80.479  53.790   9.309  1.00  0.00     0.004 A 
ATOM      6  C   UNL     1      79.836  53.086   8.273  1.00  0.00    -0.045 A 
ENDROOT
BRANCH   1   7
ATOM      7  C   UNL     1      78.257  56.832   9.692  1.00  0.00     0.071 C 
ATOM      8  O   UNL     1      77.105  57.213   9.352  1.00  0.00    -0.545 OA
ATOM      9  O   UNL     1      79.013  57.639  10.534  1.00  0.00    -0.545 OA
ENDBRANCH   1   7
BRANCH   6  10
ATOM     10  C   UNL     1      80.384  51.765   7.765  1.00  0.00     0.013 C 
ATOM     11  C   UNL     1      80.936  51.906   6.342  1.00  0.00     0.012 C 
ATOM     12  C   UNL     1      79.320  50.663   7.838  1.00  0.00     0.012 C 
ENDBRANCH   6  10
TORSDOF 2
ENDMDL
MODEL 8
REMARK VINA RESULT:    -4.800      3.199      4.846
REMARK INTER + INTRA:          -5.569
REMARK INTER:                  -5.355
REMARK INTRA:                  -0.214
REMARK UNBOUND:                -0.208
REMARK SMILES CC(C)c1ccc(C(=O)[O-])cc1
REMARK SMILES IDX 7 1 6 2 11 3 5 4 12 5 4 6 8 7 9 8 10 9 2 10 1 11 3 12
REMARK H PARENT
REMARK Flexibility Score: inf
ROOT
ATOM      1  C   UNL     1      85.092  62.757   8.911  1.00  0.00    -0.003 A 
ATOM      2  C   UNL     1      85.534  61.437   9.110  1.00  0.00     0.010 A 
ATOM      3  C   UNL     1      83.801  63.113   9.335  1.00  0.00     0.010 A 
ATOM      4  C   UNL     1      84.701  60.494   9.717  1.00  0.00     0.004 A 
ATOM      5  C   UNL     1      82.968  62.169   9.942  1.00  0.00     0.004 A 
ATOM      6  C   UNL     1      83.410  60.848  10.141  1.00  0.00    -0.045 A 
ENDROOT
BRANCH   1   7
ATOM      7  C   UNL     1      85.970  63.760   8.269  1.00  0.00     0.071 C 
ATOM      8  O   UNL     1      87.009  64.169   8.853  1.00  0.00    -0.545 OA
ATOM      9  O   UNL     1      85.662  64.264   7.011  1.00  0.00    -0.545 OA
ENDBRANCH   1   7
BRANCH   6  10
ATOM     10  C   UNL     1      82.516  59.813  10.799  1.00  0.00     0.013 C 
ATOM     11  C   UNL     1      82.976  58.390  10.460  1.00  0.00     0.012 C 
ATOM     12  C   UNL     1      81.048  60.025  10.411  1.00  0.00     0.012 C 
ENDBRANCH   6  10
TORSDOF 2
ENDMDL
MODEL 9
REMARK VINA RESULT:    -4.590      7.992      9.975
REMARK INTER + INTRA:          -5.335
REMARK INTER:                  -5.132
REMARK INTRA:                  -0.203
REMARK UNBOUND:                -0.208
REMARK SMILES CC(C)c1ccc(C(=O)[O-])cc1
REMARK SMILES IDX 7 1 6 2 11 3 5 4 12 5 4 6 8 7 9 8 10 9 2 10 1 11 3 12
REMARK H PARENT
REMARK Flexibility Score: inf
ROOT
ATOM      1  C   UNL     1      84.869  62.318  16.615  1.00  0.00    -0.003 A 
ATOM      2  C   UNL     1      84.494  61.763  17.851  1.00  0.00     0.010 A 
ATOM      3  C   UNL     1      84.870  63.716  16.470  1.00  0.00     0.010 A 
ATOM      4  C   UNL     1      84.127  62.587  18.917  1.00  0.00     0.004 A 
ATOM      5  C   UNL     1      84.503  64.540  17.537  1.00  0.00     0.004 A 
ATOM      6  C   UNL     1      84.128  63.984  18.775  1.00  0.00    -0.045 A 
ENDROOT
BRANCH   1   7
ATOM      7  C   UNL     1      85.258  61.450  15.482  1.00  0.00     0.071 C 
ATOM      8  O   UNL     1      84.474  60.559  15.059  1.00  0.00    -0.545 OA
ATOM      9  O   UNL     1      86.495  61.605  14.868  1.00  0.00    -0.545 OA
ENDBRANCH   1   7
BRANCH   6  10
ATOM     10  C   UNL     1      83.727  64.868  19.942  1.00  0.00     0.013 C 
ATOM     11  C   UNL     1      82.295  65.390  19.773  1.00  0.00     0.012 C 
ATOM     12  C   UNL     1      84.718  66.023  20.125  1.00  0.00     0.012 C 
ENDBRANCH   6  10
TORSDOF 2
ENDMDL
