MODEL 1
REMARK VINA RESULT:    -5.120      0.000      0.000
REMARK INTER + INTRA:          -5.270
REMARK INTER:                  -5.270
REMARK INTRA:                   0.000
REMARK UNBOUND:                 0.000
REMARK SMILES Nc1ncnc2nc[nH]c12
REMARK SMILES IDX 8 1 7 2 6 3 5 4 4 5 3 6 2 7 10 8 9 9 1 11
REMARK H PARENT 9 10 1 12 1 13
REMARK Flexibility Score: inf
ROOT
ATOM      1  C   UNL     1      20.831 -24.850  42.417  1.00  0.00     0.199 A 
ATOM      2  N   UNL     1      19.512 -25.122  42.222  1.00  0.00    -0.217 NA
ATOM      3  C   UNL     1      18.952 -23.905  42.317  1.00  0.00     0.182 A 
ATOM      4  N   UNL     1      17.636 -23.608  42.197  1.00  0.00    -0.215 NA
ATOM      5  C   UNL     1      17.254 -22.301  42.325  1.00  0.00     0.226 A 
ATOM      6  N   UNL     1      18.187 -21.324  42.568  1.00  0.00    -0.217 NA
ATOM      7  C   UNL     1      19.515 -21.621  42.688  1.00  0.00     0.152 A 
ATOM      8  C   UNL     1      19.888 -22.956  42.555  1.00  0.00     0.127 A 
ATOM      9  N   UNL     1      21.092 -23.535  42.623  1.00  0.00    -0.340 N 
ATOM     10  H   UNL     1      22.022 -23.090  42.795  1.00  0.00     0.168 HD
ENDROOT
BRANCH   7  11
ATOM     11  N   UNL     1      20.468 -20.588  42.940  1.00  0.00    -0.382 N 
ATOM     12  H   UNL     1      20.717 -20.302  43.912  1.00  0.00     0.158 HD
ATOM     13  H   UNL     1      20.931 -20.100  42.142  1.00  0.00     0.158 HD
ENDBRANCH   7  11
TORSDOF 1
ENDMDL
MODEL 2
REMARK VINA RESULT:    -5.069      9.953     11.624
REMARK INTER + INTRA:          -5.217
REMARK INTER:                  -5.217
REMARK INTRA:                   0.000
REMARK UNBOUND:                 0.000
REMARK SMILES Nc1ncnc2nc[nH]c12
REMARK SMILES IDX 8 1 7 2 6 3 5 4 4 5 3 6 2 7 10 8 9 9 1 11
REMARK H PARENT 9 10 1 12 1 13
REMARK Flexibility Score: inf
ROOT
ATOM      1  C   UNL     1       6.453 -20.429  41.529  1.00  0.00     0.199 A 
ATOM      2  N   UNL     1       7.073 -21.639  41.454  1.00  0.00    -0.217 NA
ATOM      3  C   UNL     1       8.181 -21.349  40.752  1.00  0.00     0.182 A 
ATOM      4  N   UNL     1       9.159 -22.213  40.392  1.00  0.00    -0.215 NA
ATOM      5  C   UNL     1      10.218 -21.728  39.674  1.00  0.00     0.226 A 
ATOM      6  N   UNL     1      10.277 -20.400  39.332  1.00  0.00    -0.217 NA
ATOM      7  C   UNL     1       9.291 -19.527  39.696  1.00  0.00     0.152 A 
ATOM      8  C   UNL     1       8.221 -20.035  40.426  1.00  0.00     0.127 A 
ATOM      9  N   UNL     1       7.130 -19.430  40.911  1.00  0.00    -0.340 N 
ATOM     10  H   UNL     1       6.855 -18.425  40.837  1.00  0.00     0.168 HD
ENDROOT
BRANCH   7  11
ATOM     11  N   UNL     1       9.375 -18.149  39.330  1.00  0.00    -0.382 N 
ATOM     12  H   UNL     1       8.529 -17.538  39.309  1.00  0.00     0.158 HD
ATOM     13  H   UNL     1      10.297 -17.732  39.075  1.00  0.00     0.158 HD
ENDBRANCH   7  11
TORSDOF 1
ENDMDL
MODEL 3
REMARK VINA RESULT:    -5.050      9.724     11.520
REMARK INTER + INTRA:          -5.198
REMARK INTER:                  -5.198
REMARK INTRA:                   0.000
REMARK UNBOUND:                 0.000
REMARK SMILES Nc1ncnc2nc[nH]c12
REMARK SMILES IDX 8 1 7 2 6 3 5 4 4 5 3 6 2 7 10 8 9 9 1 11
REMARK H PARENT 9 10 1 12 1 13
REMARK Flexibility Score: inf
ROOT
ATOM      1  C   UNL     1       8.421 -18.017  39.944  1.00  0.00     0.199 A 
ATOM      2  N   UNL     1       7.435 -18.715  40.573  1.00  0.00    -0.217 NA
ATOM      3  C   UNL     1       7.923 -19.967  40.566  1.00  0.00     0.182 A 
ATOM      4  N   UNL     1       7.327 -21.069  41.078  1.00  0.00    -0.215 NA
ATOM      5  C   UNL     1       7.983 -22.265  40.975  1.00  0.00     0.226 A 
ATOM      6  N   UNL     1       9.212 -22.335  40.369  1.00  0.00    -0.217 NA
ATOM      7  C   UNL     1       9.816 -21.223  39.853  1.00  0.00     0.152 A 
ATOM      8  C   UNL     1       9.135 -20.014  39.965  1.00  0.00     0.127 A 
ATOM      9  N   UNL     1       9.472 -18.783  39.560  1.00  0.00    -0.340 N 
ATOM     10  H   UNL     1      10.338 -18.474  39.065  1.00  0.00     0.168 HD
ENDROOT
BRANCH   7  11
ATOM     11  N   UNL     1      11.096 -21.319  39.227  1.00  0.00    -0.382 N 
ATOM     12  H   UNL     1      11.601 -22.229  39.157  1.00  0.00     0.158 HD
ATOM     13  H   UNL     1      11.546 -20.466  38.828  1.00  0.00     0.158 HD
ENDBRANCH   7  11
TORSDOF 1
ENDMDL
MODEL 4
REMARK VINA RESULT:    -5.024      9.922     11.207
REMARK INTER + INTRA:          -5.171
REMARK INTER:                  -5.171
REMARK INTRA:                   0.000
REMARK UNBOUND:                 0.000
REMARK SMILES Nc1ncnc2nc[nH]c12
REMARK SMILES IDX 8 1 7 2 6 3 5 4 4 5 3 6 2 7 10 8 9 9 1 11
REMARK H PARENT 9 10 1 12 1 13
REMARK Flexibility Score: inf
ROOT
ATOM      1  C   UNL     1      10.471 -21.363  39.313  1.00  0.00     0.199 A 
ATOM      2  N   UNL     1       9.705 -21.733  40.376  1.00  0.00    -0.217 NA
ATOM      3  C   UNL     1       8.978 -20.626  40.603  1.00  0.00     0.182 A 
ATOM      4  N   UNL     1       8.043 -20.456  41.567  1.00  0.00    -0.215 NA
ATOM      5  C   UNL     1       7.404 -19.249  41.642  1.00  0.00     0.226 A 
ATOM      6  N   UNL     1       7.709 -18.244  40.759  1.00  0.00    -0.217 NA
ATOM      7  C   UNL     1       8.652 -18.414  39.785  1.00  0.00     0.152 A 
ATOM      8  C   UNL     1       9.294 -19.647  39.722  1.00  0.00     0.127 A 
ATOM      9  N   UNL     1      10.243 -20.095  38.891  1.00  0.00    -0.340 N 
ATOM     10  H   UNL     1      10.706 -19.595  38.100  1.00  0.00     0.168 HD
ENDROOT
BRANCH   7  11
ATOM     11  N   UNL     1       8.953 -17.354  38.876  1.00  0.00    -0.382 N 
ATOM     12  H   UNL     1       8.484 -17.283  37.947  1.00  0.00     0.158 HD
ATOM     13  H   UNL     1       9.657 -16.628  39.137  1.00  0.00     0.158 HD
ENDBRANCH   7  11
TORSDOF 1
ENDMDL
MODEL 5
REMARK VINA RESULT:    -4.963      9.838     11.488
REMARK INTER + INTRA:          -5.108
REMARK INTER:                  -5.108
REMARK INTRA:                   0.000
REMARK UNBOUND:                 0.000
REMARK SMILES Nc1ncnc2nc[nH]c12
REMARK SMILES IDX 8 1 7 2 6 3 5 4 4 5 3 6 2 7 10 8 9 9 1 11
REMARK H PARENT 9 10 1 12 1 13
REMARK Flexibility Score: inf
ROOT
ATOM      1  C   UNL     1       7.139 -19.367  41.696  1.00  0.00     0.199 A 
ATOM      2  N   UNL     1       7.906 -18.770  40.742  1.00  0.00    -0.217 NA
ATOM      3  C   UNL     1       8.727 -19.767  40.371  1.00  0.00     0.182 A 
ATOM      4  N   UNL     1       9.702 -19.705  39.434  1.00  0.00    -0.215 NA
ATOM      5  C   UNL     1      10.439 -20.832  39.193  1.00  0.00     0.226 A 
ATOM      6  N   UNL     1      10.189 -21.989  39.887  1.00  0.00    -0.217 NA
ATOM      7  C   UNL     1       9.205 -22.054  40.832  1.00  0.00     0.152 A 
ATOM      8  C   UNL     1       8.464 -20.899  41.066  1.00  0.00     0.127 A 
ATOM      9  N   UNL     1       7.456 -20.667  41.916  1.00  0.00    -0.340 N 
ATOM     10  H   UNL     1       7.010 -21.325  42.594  1.00  0.00     0.168 HD
ENDROOT
BRANCH   7  11
ATOM     11  N   UNL     1       8.962 -23.269  41.541  1.00  0.00    -0.382 N 
ATOM     12  H   UNL     1       8.104 -23.838  41.369  1.00  0.00     0.158 HD
ATOM     13  H   UNL     1       9.650 -23.606  42.251  1.00  0.00     0.158 HD
ENDBRANCH   7  11
TORSDOF 1
ENDMDL
MODEL 6
REMARK VINA RESULT:    -4.960      0.987      2.963
REMARK INTER + INTRA:          -5.105
REMARK INTER:                  -5.105
REMARK INTRA:                   0.000
REMARK UNBOUND:                 0.000
REMARK SMILES Nc1ncnc2nc[nH]c12
REMARK SMILES IDX 8 1 7 2 6 3 5 4 4 5 3 6 2 7 10 8 9 9 1 11
REMARK H PARENT 9 10 1 12 1 13
REMARK Flexibility Score: inf
ROOT
ATOM      1  C   UNL     1      18.689 -20.874  43.031  1.00  0.00     0.199 A 
ATOM      2  N   UNL     1      17.745 -21.745  42.580  1.00  0.00    -0.217 NA
ATOM      3  C   UNL     1      18.481 -22.824  42.262  1.00  0.00     0.182 A 
ATOM      4  N   UNL     1      18.024 -23.995  41.759  1.00  0.00    -0.215 NA
ATOM      5  C   UNL     1      18.932 -24.984  41.497  1.00  0.00     0.226 A 
ATOM      6  N   UNL     1      20.267 -24.785  41.741  1.00  0.00    -0.217 NA
ATOM      7  C   UNL     1      20.730 -23.604  42.249  1.00  0.00     0.152 A 
ATOM      8  C   UNL     1      19.794 -22.608  42.511  1.00  0.00     0.127 A 
ATOM      9  N   UNL     1      19.950 -21.372  43.001  1.00  0.00    -0.340 N 
ATOM     10  H   UNL     1      20.831 -20.893  43.294  1.00  0.00     0.168 HD
ENDROOT
BRANCH   7  11
ATOM     11  N   UNL     1      22.125 -23.420  42.496  1.00  0.00    -0.382 N 
ATOM     12  H   UNL     1      22.848 -23.906  41.922  1.00  0.00     0.158 HD
ATOM     13  H   UNL     1      22.439 -22.787  43.264  1.00  0.00     0.158 HD
ENDBRANCH   7  11
TORSDOF 1
ENDMDL
MODEL 7
REMARK VINA RESULT:    -4.780      0.880      2.862
REMARK INTER + INTRA:          -4.920
REMARK INTER:                  -4.920
REMARK INTRA:                   0.000
REMARK UNBOUND:                 0.000
REMARK SMILES Nc1ncnc2nc[nH]c12
REMARK SMILES IDX 8 1 7 2 6 3 5 4 4 5 3 6 2 7 10 8 9 9 1 11
REMARK H PARENT 9 10 1 12 1 13
REMARK Flexibility Score: inf
ROOT
ATOM      1  C   UNL     1      16.686 -22.130  42.544  1.00  0.00     0.199 A 
ATOM      2  N   UNL     1      16.904 -23.360  42.002  1.00  0.00    -0.217 NA
ATOM      3  C   UNL     1      18.244 -23.401  41.917  1.00  0.00     0.182 A 
ATOM      4  N   UNL     1      18.992 -24.423  41.438  1.00  0.00    -0.215 NA
ATOM      5  C   UNL     1      20.353 -24.279  41.432  1.00  0.00     0.226 A 
ATOM      6  N   UNL     1      20.933 -23.127  41.899  1.00  0.00    -0.217 NA
ATOM      7  C   UNL     1      20.180 -22.095  42.382  1.00  0.00     0.152 A 
ATOM      8  C   UNL     1      18.797 -22.256  42.383  1.00  0.00     0.127 A 
ATOM      9  N   UNL     1      17.823 -21.432  42.787  1.00  0.00    -0.340 N 
ATOM     10  H   UNL     1      17.907 -20.474  43.196  1.00  0.00     0.168 HD
ENDROOT
BRANCH   7  11
ATOM     11  N   UNL     1      20.805 -20.905  42.864  1.00  0.00    -0.382 N 
ATOM     12  H   UNL     1      20.541 -20.483  43.781  1.00  0.00     0.158 HD
ATOM     13  H   UNL     1      21.545 -20.438  42.295  1.00  0.00     0.158 HD
ENDBRANCH   7  11
TORSDOF 1
ENDMDL
MODEL 8
REMARK VINA RESULT:    -4.721      9.891     11.419
REMARK INTER + INTRA:          -4.859
REMARK INTER:                  -4.859
REMARK INTRA:                   0.000
REMARK UNBOUND:                 0.000
REMARK SMILES Nc1ncnc2nc[nH]c12
REMARK SMILES IDX 8 1 7 2 6 3 5 4 4 5 3 6 2 7 10 8 9 9 1 11
REMARK H PARENT 9 10 1 12 1 13
REMARK Flexibility Score: inf
ROOT
ATOM      1  C   UNL     1      10.377 -21.726  39.426  1.00  0.00     0.199 A 
ATOM      2  N   UNL     1      10.390 -20.385  39.193  1.00  0.00    -0.217 NA
ATOM      3  C   UNL     1       9.331 -19.962  39.903  1.00  0.00     0.182 A 
ATOM      4  N   UNL     1       8.890 -18.687  40.016  1.00  0.00    -0.215 NA
ATOM      5  C   UNL     1       7.788 -18.450  40.791  1.00  0.00     0.226 A 
ATOM      6  N   UNL     1       7.153 -19.484  41.432  1.00  0.00    -0.217 NA
ATOM      7  C   UNL     1       7.596 -20.771  41.319  1.00  0.00     0.152 A 
ATOM      8  C   UNL     1       8.719 -20.996  40.528  1.00  0.00     0.127 A 
ATOM      9  N   UNL     1       9.368 -22.130  40.237  1.00  0.00    -0.340 N 
ATOM     10  H   UNL     1       9.157 -23.102  40.555  1.00  0.00     0.168 HD
ENDROOT
BRANCH   7  11
ATOM     11  N   UNL     1       6.919 -21.831  41.996  1.00  0.00    -0.382 N 
ATOM     12  H   UNL     1       6.137 -21.642  42.660  1.00  0.00     0.158 HD
ATOM     13  H   UNL     1       7.205 -22.822  41.830  1.00  0.00     0.158 HD
ENDBRANCH   7  11
TORSDOF 1
ENDMDL
MODEL 9
REMARK VINA RESULT:    -4.669     11.459     11.778
REMARK INTER + INTRA:          -4.806
REMARK INTER:                  -4.806
REMARK INTRA:                   0.000
REMARK UNBOUND:                 0.000
REMARK SMILES Nc1ncnc2nc[nH]c12
REMARK SMILES IDX 8 1 7 2 6 3 5 4 4 5 3 6 2 7 10 8 9 9 1 11
REMARK H PARENT 9 10 1 12 1 13
REMARK Flexibility Score: inf
ROOT
ATOM      1  C   UNL     1      17.589 -14.597  34.552  1.00  0.00     0.199 A 
ATOM      2  N   UNL     1      18.231 -15.351  33.617  1.00  0.00    -0.217 NA
ATOM      3  C   UNL     1      19.521 -15.183  33.953  1.00  0.00     0.182 A 
ATOM      4  N   UNL     1      20.595 -15.727  33.333  1.00  0.00    -0.215 NA
ATOM      5  C   UNL     1      21.839 -15.437  33.824  1.00  0.00     0.226 A 
ATOM      6  N   UNL     1      21.984 -14.617  34.914  1.00  0.00    -0.217 NA
ATOM      7  C   UNL     1      20.901 -14.068  35.541  1.00  0.00     0.152 A 
ATOM      8  C   UNL     1      19.642 -14.372  35.030  1.00  0.00     0.127 A 
ATOM      9  N   UNL     1      18.424 -13.987  35.428  1.00  0.00    -0.340 N 
ATOM     10  H   UNL     1      18.164 -13.363  36.225  1.00  0.00     0.168 HD
ENDROOT
BRANCH   7  11
ATOM     11  N   UNL     1      21.075 -13.217  36.675  1.00  0.00    -0.382 N 
ATOM     12  H   UNL     1      20.432 -12.417  36.860  1.00  0.00     0.158 HD
ATOM     13  H   UNL     1      21.861 -13.390  37.340  1.00  0.00     0.158 HD
ENDBRANCH   7  11
TORSDOF 1
ENDMDL
