MODEL 1
REMARK VINA RESULT:    -7.740      0.000      0.000
REMARK INTER + INTRA:         -11.419
REMARK INTER:                 -10.454
REMARK INTRA:                  -0.964
REMARK UNBOUND:                -0.964
REMARK SMILES O=c1c(-c2ccc(O)cc2)coc2c([C@@H]3O[C@H](CO)[C@H](O)[C@@H](O)[C@H]3O)c(O)ccc12
REMARK SMILES IDX 3 1 11 2 12 3 13 4 30 5 2 6 1 7 29 8 28 9 26 10 14 11 4 12
REMARK SMILES IDX 5 13 6 14 7 15 10 16 9 17 8 18 15 20 24 21 16 22 22 23 17 24
REMARK SMILES IDX 20 25 25 26 23 28 18 30 19 31 21 33 27 35
REMARK H PARENT 8 19 25 27 23 29 19 32 21 34 27 36
REMARK Flexibility Score: inf
ROOT
ATOM      1  C   UNL     1      -9.758  57.513  15.496  1.00  0.00     0.065 A 
ATOM      2  C   UNL     1     -10.022  56.385  16.283  1.00  0.00     0.208 A 
ATOM      3  O   UNL     1     -11.194  56.234  16.887  1.00  0.00    -0.463 OA
ATOM      4  C   UNL     1     -12.185  57.119  16.792  1.00  0.00     0.147 A 
ATOM      5  C   UNL     1     -12.008  58.279  16.004  1.00  0.00     0.066 A 
ATOM      6  C   UNL     1     -10.778  58.471  15.349  1.00  0.00     0.200 A 
ATOM      7  O   UNL     1     -10.597  59.484  14.619  1.00  0.00    -0.288 OA
ATOM      8  C   UNL     1     -13.057  59.201  15.887  1.00  0.00     0.020 A 
ATOM      9  C   UNL     1     -14.275  58.961  16.514  1.00  0.00     0.047 A 
ATOM     10  C   UNL     1     -14.476  57.809  17.280  1.00  0.00     0.125 A 
ATOM     11  C   UNL     1     -13.407  56.890  17.475  1.00  0.00     0.069 A 
ENDROOT
BRANCH   1  12
ATOM     12  C   UNL     1      -8.436  57.666  14.839  1.00  0.00    -0.011 A 
ATOM     13  C   UNL     1      -7.358  58.255  15.523  1.00  0.00     0.013 A 
ATOM     14  C   UNL     1      -6.113  58.387  14.902  1.00  0.00     0.047 A 
ATOM     15  C   UNL     1      -5.927  57.929  13.591  1.00  0.00     0.115 A 
ATOM     16  C   UNL     1      -8.239  57.202  13.525  1.00  0.00     0.013 A 
ATOM     17  C   UNL     1      -6.993  57.336  12.907  1.00  0.00     0.047 A 
BRANCH  15  18
ATOM     18  O   UNL     1      -4.691  58.055  12.962  1.00  0.00    -0.508 OA
ATOM     19  H   UNL     1      -3.864  58.346  13.473  1.00  0.00     0.293 HD
ENDBRANCH  15  18
ENDBRANCH   1  12
BRANCH  11  20
ATOM     20  C   UNL     1     -13.561  55.659  18.363  1.00  0.00     0.188 C 
ATOM     21  C   UNL     1     -13.120  55.989  19.813  1.00  0.00     0.179 C 
ATOM     22  O   UNL     1     -14.915  55.230  18.334  1.00  0.00    -0.362 OA
ATOM     23  C   UNL     1     -13.360  54.780  20.734  1.00  0.00     0.177 C 
ATOM     24  C   UNL     1     -15.085  54.025  19.062  1.00  0.00     0.176 C 
ATOM     25  C   UNL     1     -14.798  54.257  20.564  1.00  0.00     0.177 C 
BRANCH  21  26
ATOM     26  O   UNL     1     -11.757  56.334  19.850  1.00  0.00    -0.387 OA
ATOM     27  H   UNL     1     -11.535  56.737  18.971  1.00  0.00     0.211 HD
ENDBRANCH  21  26
BRANCH  23  28
ATOM     28  O   UNL     1     -12.436  53.764  20.432  1.00  0.00    -0.387 OA
ATOM     29  H   UNL     1     -11.643  54.205  20.028  1.00  0.00     0.211 HD
ENDBRANCH  23  28
BRANCH  24  30
ATOM     30  C   UNL     1     -16.513  53.507  18.842  1.00  0.00     0.191 C 
BRANCH  30  31
ATOM     31  O   UNL     1     -16.546  52.616  17.759  1.00  0.00    -0.394 OA
ATOM     32  H   UNL     1     -16.112  51.778  18.067  1.00  0.00     0.210 HD
ENDBRANCH  30  31
ENDBRANCH  24  30
BRANCH  25  33
ATOM     33  O   UNL     1     -15.695  55.202  21.096  1.00  0.00    -0.388 OA
ATOM     34  H   UNL     1     -15.532  55.242  22.075  1.00  0.00     0.211 HD
ENDBRANCH  25  33
ENDBRANCH  11  20
BRANCH  10  35
ATOM     35  O   UNL     1     -15.756  57.612  17.806  1.00  0.00    -0.507 OA
ATOM     36  H   UNL     1     -15.944  57.231  18.723  1.00  0.00     0.293 HD
ENDBRANCH  10  35
TORSDOF 9
ENDMDL
MODEL 2
REMARK VINA RESULT:    -6.722      1.997      3.924
REMARK INTER + INTRA:         -10.044
REMARK INTER:                  -8.811
REMARK INTRA:                  -1.233
REMARK UNBOUND:                -0.964
REMARK SMILES O=c1c(-c2ccc(O)cc2)coc2c([C@@H]3O[C@H](CO)[C@H](O)[C@@H](O)[C@H]3O)c(O)ccc12
REMARK SMILES IDX 3 1 11 2 12 3 13 4 30 5 2 6 1 7 29 8 28 9 26 10 14 11 4 12
REMARK SMILES IDX 5 13 6 14 7 15 10 16 9 17 8 18 15 20 24 21 16 22 22 23 17 24
REMARK SMILES IDX 20 25 25 26 23 28 18 30 19 31 21 33 27 35
REMARK H PARENT 8 19 25 27 23 29 19 32 21 34 27 36
REMARK Flexibility Score: inf
ROOT
ATOM      1  C   UNL     1      -8.002  57.496  15.278  1.00  0.00     0.065 A 
ATOM      2  C   UNL     1      -9.035  58.240  15.863  1.00  0.00     0.208 A 
ATOM      3  O   UNL     1     -10.187  57.667  16.188  1.00  0.00    -0.463 OA
ATOM      4  C   UNL     1     -10.443  56.375  15.990  1.00  0.00     0.147 A 
ATOM      5  C   UNL     1      -9.449  55.549  15.417  1.00  0.00     0.066 A 
ATOM      6  C   UNL     1      -8.215  56.123  15.061  1.00  0.00     0.200 A 
ATOM      7  O   UNL     1      -7.298  55.408  14.570  1.00  0.00    -0.288 OA
ATOM      8  C   UNL     1      -9.710  54.185  15.227  1.00  0.00     0.020 A 
ATOM      9  C   UNL     1     -10.926  53.641  15.628  1.00  0.00     0.047 A 
ATOM     10  C   UNL     1     -11.912  54.438  16.216  1.00  0.00     0.125 A 
ATOM     11  C   UNL     1     -11.704  55.838  16.357  1.00  0.00     0.069 A 
ENDROOT
BRANCH   1  12
ATOM     12  C   UNL     1      -6.725  58.161  14.913  1.00  0.00    -0.011 A 
ATOM     13  C   UNL     1      -6.541  58.706  13.630  1.00  0.00     0.013 A 
ATOM     14  C   UNL     1      -5.341  59.338  13.296  1.00  0.00     0.047 A 
ATOM     15  C   UNL     1      -4.310  59.439  14.240  1.00  0.00     0.115 A 
ATOM     16  C   UNL     1      -5.689  58.272  15.858  1.00  0.00     0.013 A 
ATOM     17  C   UNL     1      -4.489  58.905  15.520  1.00  0.00     0.047 A 
BRANCH  15  18
ATOM     18  O   UNL     1      -3.110  60.067  13.918  1.00  0.00    -0.508 OA
ATOM     19  H   UNL     1      -3.047  60.729  13.153  1.00  0.00     0.293 HD
ENDBRANCH  15  18
ENDBRANCH   1  12
BRANCH  11  20
ATOM     20  C   UNL     1     -12.783  56.755  16.924  1.00  0.00     0.188 C 
ATOM     21  C   UNL     1     -13.939  56.914  15.902  1.00  0.00     0.179 C 
ATOM     22  O   UNL     1     -13.262  56.211  18.146  1.00  0.00    -0.362 OA
ATOM     23  C   UNL     1     -15.073  57.762  16.505  1.00  0.00     0.177 C 
ATOM     24  C   UNL     1     -14.193  57.084  18.764  1.00  0.00     0.176 C 
ATOM     25  C   UNL     1     -15.463  57.223  17.892  1.00  0.00     0.177 C 
BRANCH  21  26
ATOM     26  O   UNL     1     -13.479  57.529  14.724  1.00  0.00    -0.387 OA
ATOM     27  H   UNL     1     -12.759  58.160  14.987  1.00  0.00     0.211 HD
ENDBRANCH  21  26
BRANCH  23  28
ATOM     28  O   UNL     1     -14.661  59.103  16.604  1.00  0.00    -0.387 OA
ATOM     29  H   UNL     1     -15.484  59.660  16.591  1.00  0.00     0.211 HD
ENDBRANCH  23  28
BRANCH  24  30
ATOM     30  C   UNL     1     -14.532  56.544  20.160  1.00  0.00     0.191 C 
BRANCH  30  31
ATOM     31  O   UNL     1     -15.764  57.054  20.594  1.00  0.00    -0.394 OA
ATOM     32  H   UNL     1     -16.039  56.506  21.375  1.00  0.00     0.210 HD
ENDBRANCH  30  31
ENDBRANCH  24  30
BRANCH  25  33
ATOM     33  O   UNL     1     -16.093  55.975  17.738  1.00  0.00    -0.388 OA
ATOM     34  H   UNL     1     -16.486  55.955  16.827  1.00  0.00     0.211 HD
ENDBRANCH  25  33
ENDBRANCH  11  20
BRANCH  10  35
ATOM     35  O   UNL     1     -13.069  53.791  16.659  1.00  0.00    -0.507 OA
ATOM     36  H   UNL     1     -13.977  54.229  16.732  1.00  0.00     0.293 HD
ENDBRANCH  10  35
TORSDOF 9
ENDMDL
MODEL 3
REMARK VINA RESULT:    -6.660      2.189      8.586
REMARK INTER + INTRA:          -9.960
REMARK INTER:                  -8.874
REMARK INTRA:                  -1.087
REMARK UNBOUND:                -0.964
REMARK SMILES O=c1c(-c2ccc(O)cc2)coc2c([C@@H]3O[C@H](CO)[C@H](O)[C@@H](O)[C@H]3O)c(O)ccc12
REMARK SMILES IDX 3 1 11 2 12 3 13 4 30 5 2 6 1 7 29 8 28 9 26 10 14 11 4 12
REMARK SMILES IDX 5 13 6 14 7 15 10 16 9 17 8 18 15 20 24 21 16 22 22 23 17 24
REMARK SMILES IDX 20 25 25 26 23 28 18 30 19 31 21 33 27 35
REMARK H PARENT 8 19 25 27 23 29 19 32 21 34 27 36
REMARK Flexibility Score: inf
ROOT
ATOM      1  C   UNL     1     -15.699  54.979  18.899  1.00  0.00     0.065 A 
ATOM      2  C   UNL     1     -14.406  54.547  18.580  1.00  0.00     0.208 A 
ATOM      3  O   UNL     1     -13.587  55.315  17.871  1.00  0.00    -0.463 OA
ATOM      4  C   UNL     1     -13.922  56.523  17.422  1.00  0.00     0.147 A 
ATOM      5  C   UNL     1     -15.205  57.042  17.713  1.00  0.00     0.066 A 
ATOM      6  C   UNL     1     -16.099  56.255  18.463  1.00  0.00     0.200 A 
ATOM      7  O   UNL     1     -17.242  56.699  18.759  1.00  0.00    -0.288 OA
ATOM      8  C   UNL     1     -15.552  58.321  17.259  1.00  0.00     0.020 A 
ATOM      9  C   UNL     1     -14.629  59.089  16.555  1.00  0.00     0.047 A 
ATOM     10  C   UNL     1     -13.349  58.602  16.277  1.00  0.00     0.125 A 
ATOM     11  C   UNL     1     -12.993  57.280  16.663  1.00  0.00     0.069 A 
ENDROOT
BRANCH   1  12
ATOM     12  C   UNL     1     -16.602  54.099  19.684  1.00  0.00    -0.011 A 
ATOM     13  C   UNL     1     -17.407  53.141  19.042  1.00  0.00     0.013 A 
ATOM     14  C   UNL     1     -18.247  52.310  19.787  1.00  0.00     0.047 A 
ATOM     15  C   UNL     1     -18.291  52.420  21.183  1.00  0.00     0.115 A 
ATOM     16  C   UNL     1     -16.646  54.199  21.086  1.00  0.00     0.013 A 
ATOM     17  C   UNL     1     -17.488  53.366  21.828  1.00  0.00     0.047 A 
BRANCH  15  18
ATOM     18  O   UNL     1     -19.125  51.597  21.936  1.00  0.00    -0.508 OA
ATOM     19  H   UNL     1     -19.343  50.652  21.641  1.00  0.00     0.293 HD
ENDBRANCH  15  18
ENDBRANCH   1  12
BRANCH  11  20
ATOM     20  C   UNL     1     -11.633  56.683  16.314  1.00  0.00     0.188 C 
ATOM     21  C   UNL     1     -11.743  55.821  15.029  1.00  0.00     0.179 C 
ATOM     22  O   UNL     1     -10.694  57.734  16.138  1.00  0.00    -0.362 OA
ATOM     23  C   UNL     1     -10.357  55.292  14.620  1.00  0.00     0.177 C 
ATOM     24  C   UNL     1      -9.391  57.223  15.915  1.00  0.00     0.176 C 
ATOM     25  C   UNL     1      -9.337  56.444  14.580  1.00  0.00     0.177 C 
BRANCH  21  26
ATOM     26  O   UNL     1     -12.610  54.734  15.234  1.00  0.00    -0.387 OA
ATOM     27  H   UNL     1     -13.524  55.041  14.998  1.00  0.00     0.211 HD
ENDBRANCH  21  26
BRANCH  23  28
ATOM     28  O   UNL     1      -9.939  54.305  15.529  1.00  0.00    -0.387 OA
ATOM     29  H   UNL     1      -9.348  53.683  15.028  1.00  0.00     0.211 HD
ENDBRANCH  23  28
BRANCH  24  30
ATOM     30  C   UNL     1      -8.390  58.387  15.921  1.00  0.00     0.191 C 
BRANCH  30  31
ATOM     31  O   UNL     1      -8.916  59.485  15.224  1.00  0.00    -0.394 OA
ATOM     32  H   UNL     1      -9.842  59.239  14.965  1.00  0.00     0.210 HD
ENDBRANCH  30  31
ENDBRANCH  24  30
BRANCH  25  33
ATOM     33  O   UNL     1      -9.647  57.294  13.502  1.00  0.00    -0.388 OA
ATOM     34  H   UNL     1      -8.862  57.293  12.894  1.00  0.00     0.211 HD
ENDBRANCH  25  33
ENDBRANCH  11  20
BRANCH  10  35
ATOM     35  O   UNL     1     -12.465  59.473  15.635  1.00  0.00    -0.507 OA
ATOM     36  H   UNL     1     -12.511  59.714  14.655  1.00  0.00     0.293 HD
ENDBRANCH  10  35
TORSDOF 9
ENDMDL
MODEL 4
REMARK VINA RESULT:    -6.642      1.432      2.442
REMARK INTER + INTRA:          -9.936
REMARK INTER:                 -10.382
REMARK INTRA:                   0.446
REMARK UNBOUND:                -0.964
REMARK SMILES O=c1c(-c2ccc(O)cc2)coc2c([C@@H]3O[C@H](CO)[C@H](O)[C@@H](O)[C@H]3O)c(O)ccc12
REMARK SMILES IDX 3 1 11 2 12 3 13 4 30 5 2 6 1 7 29 8 28 9 26 10 14 11 4 12
REMARK SMILES IDX 5 13 6 14 7 15 10 16 9 17 8 18 15 20 24 21 16 22 22 23 17 24
REMARK SMILES IDX 20 25 25 26 23 28 18 30 19 31 21 33 27 35
REMARK H PARENT 8 19 25 27 23 29 19 32 21 34 27 36
REMARK Flexibility Score: inf
ROOT
ATOM      1  C   UNL     1      -9.065  58.042  15.433  1.00  0.00     0.065 A 
ATOM      2  C   UNL     1      -9.543  56.909  16.104  1.00  0.00     0.208 A 
ATOM      3  O   UNL     1     -10.801  56.844  16.521  1.00  0.00    -0.463 OA
ATOM      4  C   UNL     1     -11.684  57.824  16.339  1.00  0.00     0.147 A 
ATOM      5  C   UNL     1     -11.289  58.998  15.658  1.00  0.00     0.066 A 
ATOM      6  C   UNL     1      -9.962  59.101  15.200  1.00  0.00     0.200 A 
ATOM      7  O   UNL     1      -9.584  60.125  14.568  1.00  0.00    -0.288 OA
ATOM      8  C   UNL     1     -12.222  60.022  15.446  1.00  0.00     0.020 A 
ATOM      9  C   UNL     1     -13.537  59.871  15.875  1.00  0.00     0.047 A 
ATOM     10  C   UNL     1     -13.952  58.709  16.531  1.00  0.00     0.125 A 
ATOM     11  C   UNL     1     -13.010  57.683  16.822  1.00  0.00     0.069 A 
ENDROOT
BRANCH   1  12
ATOM     12  C   UNL     1      -7.651  58.097  14.985  1.00  0.00    -0.011 A 
ATOM     13  C   UNL     1      -7.333  58.383  13.646  1.00  0.00     0.013 A 
ATOM     14  C   UNL     1      -6.000  58.443  13.233  1.00  0.00     0.047 A 
ATOM     15  C   UNL     1      -4.966  58.222  14.153  1.00  0.00     0.115 A 
ATOM     16  C   UNL     1      -6.608  57.883  15.905  1.00  0.00     0.013 A 
ATOM     17  C   UNL     1      -5.275  57.944  15.487  1.00  0.00     0.047 A 
BRANCH  15  18
ATOM     18  O   UNL     1      -3.633  58.279  13.752  1.00  0.00    -0.508 OA
ATOM     19  H   UNL     1      -2.878  58.074  14.396  1.00  0.00     0.293 HD
ENDBRANCH  15  18
ENDBRANCH   1  12
BRANCH  11  20
ATOM     20  C   UNL     1     -13.404  56.432  17.602  1.00  0.00     0.188 C 
ATOM     21  C   UNL     1     -12.548  55.224  17.140  1.00  0.00     0.179 C 
ATOM     22  O   UNL     1     -13.227  56.674  18.991  1.00  0.00    -0.362 OA
ATOM     23  C   UNL     1     -12.876  53.982  17.986  1.00  0.00     0.177 C 
ATOM     24  C   UNL     1     -13.680  55.574  19.763  1.00  0.00     0.176 C 
ATOM     25  C   UNL     1     -12.812  54.325  19.485  1.00  0.00     0.177 C 
BRANCH  21  26
ATOM     26  O   UNL     1     -12.789  54.936  15.785  1.00  0.00    -0.387 OA
ATOM     27  H   UNL     1     -12.934  53.956  15.717  1.00  0.00     0.211 HD
ENDBRANCH  21  26
BRANCH  23  28
ATOM     28  O   UNL     1     -14.155  53.504  17.653  1.00  0.00    -0.387 OA
ATOM     29  H   UNL     1     -14.794  54.246  17.823  1.00  0.00     0.211 HD
ENDBRANCH  23  28
BRANCH  24  30
ATOM     30  C   UNL     1     -13.644  55.959  21.248  1.00  0.00     0.191 C 
BRANCH  30  31
ATOM     31  O   UNL     1     -14.928  56.310  21.692  1.00  0.00    -0.394 OA
ATOM     32  H   UNL     1     -14.980  57.301  21.655  1.00  0.00     0.210 HD
ENDBRANCH  30  31
ENDBRANCH  24  30
BRANCH  25  33
ATOM     33  O   UNL     1     -11.472  54.568  19.843  1.00  0.00    -0.388 OA
ATOM     34  H   UNL     1     -10.974  54.751  19.004  1.00  0.00     0.211 HD
ENDBRANCH  25  33
ENDBRANCH  11  20
BRANCH  10  35
ATOM     35  O   UNL     1     -15.308  58.613  16.854  1.00  0.00    -0.507 OA
ATOM     36  H   UNL     1     -16.008  58.186  16.262  1.00  0.00     0.293 HD
ENDBRANCH  10  35
TORSDOF 9
ENDMDL
MODEL 5
REMARK VINA RESULT:    -6.548      1.703      8.340
REMARK INTER + INTRA:          -9.810
REMARK INTER:                  -8.626
REMARK INTRA:                  -1.183
REMARK UNBOUND:                -0.964
REMARK SMILES O=c1c(-c2ccc(O)cc2)coc2c([C@@H]3O[C@H](CO)[C@H](O)[C@@H](O)[C@H]3O)c(O)ccc12
REMARK SMILES IDX 3 1 11 2 12 3 13 4 30 5 2 6 1 7 29 8 28 9 26 10 14 11 4 12
REMARK SMILES IDX 5 13 6 14 7 15 10 16 9 17 8 18 15 20 24 21 16 22 22 23 17 24
REMARK SMILES IDX 20 25 25 26 23 28 18 30 19 31 21 33 27 35
REMARK H PARENT 8 19 25 27 23 29 19 32 21 34 27 36
REMARK Flexibility Score: inf
ROOT
ATOM      1  C   UNL     1     -14.089  55.844  18.180  1.00  0.00     0.065 A 
ATOM      2  C   UNL     1     -12.872  55.251  17.819  1.00  0.00     0.208 A 
ATOM      3  O   UNL     1     -11.975  55.917  17.104  1.00  0.00    -0.463 OA
ATOM      4  C   UNL     1     -12.155  57.168  16.686  1.00  0.00     0.147 A 
ATOM      5  C   UNL     1     -13.350  57.848  17.020  1.00  0.00     0.066 A 
ATOM      6  C   UNL     1     -14.323  57.171  17.778  1.00  0.00     0.200 A 
ATOM      7  O   UNL     1     -15.390  57.757  18.112  1.00  0.00    -0.288 OA
ATOM      8  C   UNL     1     -13.533  59.172  16.599  1.00  0.00     0.020 A 
ATOM      9  C   UNL     1     -12.532  59.825  15.886  1.00  0.00     0.047 A 
ATOM     10  C   UNL     1     -11.336  59.178  15.566  1.00  0.00     0.125 A 
ATOM     11  C   UNL     1     -11.151  57.812  15.918  1.00  0.00     0.069 A 
ENDROOT
BRANCH   1  12
ATOM     12  C   UNL     1     -15.083  55.075  18.971  1.00  0.00    -0.011 A 
ATOM     13  C   UNL     1     -15.324  55.389  20.320  1.00  0.00     0.013 A 
ATOM     14  C   UNL     1     -16.268  54.668  21.056  1.00  0.00     0.047 A 
ATOM     15  C   UNL     1     -16.986  53.627  20.453  1.00  0.00     0.115 A 
ATOM     16  C   UNL     1     -15.813  54.033  18.371  1.00  0.00     0.013 A 
ATOM     17  C   UNL     1     -16.756  53.314  19.110  1.00  0.00     0.047 A 
BRANCH  15  18
ATOM     18  O   UNL     1     -17.929  52.901  21.177  1.00  0.00    -0.508 OA
ATOM     19  H   UNL     1     -18.557  53.354  21.832  1.00  0.00     0.293 HD
ENDBRANCH  15  18
ENDBRANCH   1  12
BRANCH  11  20
ATOM     20  C   UNL     1      -9.892  57.046  15.522  1.00  0.00     0.188 C 
ATOM     21  C   UNL     1     -10.014  56.536  14.063  1.00  0.00     0.179 C 
ATOM     22  O   UNL     1      -8.764  57.898  15.666  1.00  0.00    -0.362 OA
ATOM     23  C   UNL     1      -8.711  55.844  13.627  1.00  0.00     0.177 C 
ATOM     24  C   UNL     1      -7.559  57.197  15.411  1.00  0.00     0.176 C 
ATOM     25  C   UNL     1      -7.501  56.744  13.933  1.00  0.00     0.177 C 
BRANCH  21  26
ATOM     26  O   UNL     1     -11.081  55.629  13.942  1.00  0.00    -0.387 OA
ATOM     27  H   UNL     1     -10.688  54.745  13.722  1.00  0.00     0.211 HD
ENDBRANCH  21  26
BRANCH  23  28
ATOM     28  O   UNL     1      -8.581  54.614  14.295  1.00  0.00    -0.387 OA
ATOM     29  H   UNL     1      -9.481  54.193  14.302  1.00  0.00     0.211 HD
ENDBRANCH  23  28
BRANCH  24  30
ATOM     30  C   UNL     1      -6.371  58.103  15.763  1.00  0.00     0.191 C 
BRANCH  30  31
ATOM     31  O   UNL     1      -5.280  57.824  14.927  1.00  0.00    -0.394 OA
ATOM     32  H   UNL     1      -5.389  58.390  14.119  1.00  0.00     0.210 HD
ENDBRANCH  30  31
ENDBRANCH  24  30
BRANCH  25  33
ATOM     33  O   UNL     1      -7.530  57.859  13.075  1.00  0.00    -0.388 OA
ATOM     34  H   UNL     1      -6.591  58.155  12.946  1.00  0.00     0.211 HD
ENDBRANCH  25  33
ENDBRANCH  11  20
BRANCH  10  35
ATOM     35  O   UNL     1     -10.358  59.937  14.918  1.00  0.00    -0.507 OA
ATOM     36  H   UNL     1     -10.407  60.226  13.950  1.00  0.00     0.293 HD
ENDBRANCH  10  35
TORSDOF 9
ENDMDL
MODEL 6
REMARK VINA RESULT:    -6.426      1.191      2.548
REMARK INTER + INTRA:          -9.644
REMARK INTER:                  -9.329
REMARK INTRA:                  -0.315
REMARK UNBOUND:                -0.964
REMARK SMILES O=c1c(-c2ccc(O)cc2)coc2c([C@@H]3O[C@H](CO)[C@H](O)[C@@H](O)[C@H]3O)c(O)ccc12
REMARK SMILES IDX 3 1 11 2 12 3 13 4 30 5 2 6 1 7 29 8 28 9 26 10 14 11 4 12
REMARK SMILES IDX 5 13 6 14 7 15 10 16 9 17 8 18 15 20 24 21 16 22 22 23 17 24
REMARK SMILES IDX 20 25 25 26 23 28 18 30 19 31 21 33 27 35
REMARK H PARENT 8 19 25 27 23 29 19 32 21 34 27 36
REMARK Flexibility Score: inf
ROOT
ATOM      1  C   UNL     1     -10.351  57.012  16.111  1.00  0.00     0.065 A 
ATOM      2  C   UNL     1     -10.736  56.081  17.085  1.00  0.00     0.208 A 
ATOM      3  O   UNL     1     -11.935  56.143  17.650  1.00  0.00    -0.463 OA
ATOM      4  C   UNL     1     -12.841  57.069  17.344  1.00  0.00     0.147 A 
ATOM      5  C   UNL     1     -12.540  58.039  16.360  1.00  0.00     0.066 A 
ATOM      6  C   UNL     1     -11.277  58.002  15.739  1.00  0.00     0.200 A 
ATOM      7  O   UNL     1     -10.986  58.838  14.840  1.00  0.00    -0.288 OA
ATOM      8  C   UNL     1     -13.500  59.002  16.021  1.00  0.00     0.020 A 
ATOM      9  C   UNL     1     -14.753  58.984  16.625  1.00  0.00     0.047 A 
ATOM     10  C   UNL     1     -15.077  58.021  17.584  1.00  0.00     0.125 A 
ATOM     11  C   UNL     1     -14.100  57.075  17.999  1.00  0.00     0.069 A 
ENDROOT
BRANCH   1  12
ATOM     12  C   UNL     1      -9.000  56.929  15.500  1.00  0.00    -0.011 A 
ATOM     13  C   UNL     1      -8.678  55.890  14.610  1.00  0.00     0.013 A 
ATOM     14  C   UNL     1      -7.408  55.824  14.031  1.00  0.00     0.047 A 
ATOM     15  C   UNL     1      -6.445  56.797  14.329  1.00  0.00     0.115 A 
ATOM     16  C   UNL     1      -8.031  57.907  15.790  1.00  0.00     0.013 A 
ATOM     17  C   UNL     1      -6.761  57.837  15.209  1.00  0.00     0.047 A 
BRANCH  15  18
ATOM     18  O   UNL     1      -5.176  56.741  13.758  1.00  0.00    -0.508 OA
ATOM     19  H   UNL     1      -4.891  57.392  13.035  1.00  0.00     0.293 HD
ENDBRANCH  15  18
ENDBRANCH   1  12
BRANCH  11  20
ATOM     20  C   UNL     1     -14.388  56.054  19.096  1.00  0.00     0.188 C 
ATOM     21  C   UNL     1     -15.118  54.823  18.500  1.00  0.00     0.179 C 
ATOM     22  O   UNL     1     -13.164  55.668  19.706  1.00  0.00    -0.362 OA
ATOM     23  C   UNL     1     -15.329  53.750  19.583  1.00  0.00     0.177 C 
ATOM     24  C   UNL     1     -13.392  54.799  20.802  1.00  0.00     0.176 C 
ATOM     25  C   UNL     1     -14.006  53.465  20.316  1.00  0.00     0.177 C 
BRANCH  21  26
ATOM     26  O   UNL     1     -16.367  55.195  17.971  1.00  0.00    -0.387 OA
ATOM     27  H   UNL     1     -17.059  54.883  18.610  1.00  0.00     0.211 HD
ENDBRANCH  21  26
BRANCH  23  28
ATOM     28  O   UNL     1     -16.306  54.183  20.496  1.00  0.00    -0.387 OA
ATOM     29  H   UNL     1     -17.006  54.651  19.970  1.00  0.00     0.211 HD
ENDBRANCH  23  28
BRANCH  24  30
ATOM     30  C   UNL     1     -12.065  54.565  21.538  1.00  0.00     0.191 C 
BRANCH  30  31
ATOM     31  O   UNL     1     -12.070  53.312  22.167  1.00  0.00    -0.394 OA
ATOM     32  H   UNL     1     -11.582  53.423  23.024  1.00  0.00     0.210 HD
ENDBRANCH  30  31
ENDBRANCH  24  30
BRANCH  25  33
ATOM     33  O   UNL     1     -13.125  52.811  19.434  1.00  0.00    -0.388 OA
ATOM     34  H   UNL     1     -13.597  52.008  19.091  1.00  0.00     0.211 HD
ENDBRANCH  25  33
ENDBRANCH  11  20
BRANCH  10  35
ATOM     35  O   UNL     1     -16.385  58.033  18.077  1.00  0.00    -0.507 OA
ATOM     36  H   UNL     1     -16.891  58.869  18.335  1.00  0.00     0.293 HD
ENDBRANCH  10  35
TORSDOF 9
ENDMDL
MODEL 7
REMARK VINA RESULT:    -6.009      1.788      2.684
REMARK INTER + INTRA:          -9.081
REMARK INTER:                  -9.235
REMARK INTRA:                   0.155
REMARK UNBOUND:                -0.964
REMARK SMILES O=c1c(-c2ccc(O)cc2)coc2c([C@@H]3O[C@H](CO)[C@H](O)[C@@H](O)[C@H]3O)c(O)ccc12
REMARK SMILES IDX 3 1 11 2 12 3 13 4 30 5 2 6 1 7 29 8 28 9 26 10 14 11 4 12
REMARK SMILES IDX 5 13 6 14 7 15 10 16 9 17 8 18 15 20 24 21 16 22 22 23 17 24
REMARK SMILES IDX 20 25 25 26 23 28 18 30 19 31 21 33 27 35
REMARK H PARENT 8 19 25 27 23 29 19 32 21 34 27 36
REMARK Flexibility Score: inf
ROOT
ATOM      1  C   UNL     1      -9.412  57.931  15.153  1.00  0.00     0.065 A 
ATOM      2  C   UNL     1      -9.983  57.595  16.387  1.00  0.00     0.208 A 
ATOM      3  O   UNL     1     -11.287  57.372  16.496  1.00  0.00    -0.463 OA
ATOM      4  C   UNL     1     -12.130  57.447  15.469  1.00  0.00     0.147 A 
ATOM      5  C   UNL     1     -11.634  57.765  14.183  1.00  0.00     0.066 A 
ATOM      6  C   UNL     1     -10.256  58.007  14.031  1.00  0.00     0.200 A 
ATOM      7  O   UNL     1      -9.778  58.270  12.893  1.00  0.00    -0.288 OA
ATOM      8  C   UNL     1     -12.517  57.824  13.097  1.00  0.00     0.020 A 
ATOM      9  C   UNL     1     -13.867  57.539  13.275  1.00  0.00     0.047 A 
ATOM     10  C   UNL     1     -14.372  57.200  14.533  1.00  0.00     0.125 A 
ATOM     11  C   UNL     1     -13.514  57.202  15.667  1.00  0.00     0.069 A 
ENDROOT
BRANCH   1  12
ATOM     12  C   UNL     1      -7.952  58.187  15.057  1.00  0.00    -0.011 A 
ATOM     13  C   UNL     1      -7.024  57.225  15.494  1.00  0.00     0.013 A 
ATOM     14  C   UNL     1      -5.652  57.469  15.392  1.00  0.00     0.047 A 
ATOM     15  C   UNL     1      -5.189  58.673  14.848  1.00  0.00     0.115 A 
ATOM     16  C   UNL     1      -7.479  59.391  14.505  1.00  0.00     0.013 A 
ATOM     17  C   UNL     1      -6.106  59.632  14.405  1.00  0.00     0.047 A 
BRANCH  15  18
ATOM     18  O   UNL     1      -3.823  58.927  14.741  1.00  0.00    -0.508 OA
ATOM     19  H   UNL     1      -3.140  58.361  15.231  1.00  0.00     0.293 HD
ENDBRANCH  15  18
ENDBRANCH   1  12
BRANCH  11  20
ATOM     20  C   UNL     1     -14.039  56.912  17.070  1.00  0.00     0.188 C 
ATOM     21  C   UNL     1     -15.536  57.303  17.170  1.00  0.00     0.179 C 
ATOM     22  O   UNL     1     -13.857  55.533  17.359  1.00  0.00    -0.362 OA
ATOM     23  C   UNL     1     -16.096  56.927  18.553  1.00  0.00     0.177 C 
ATOM     24  C   UNL     1     -14.235  55.237  18.693  1.00  0.00     0.176 C 
ATOM     25  C   UNL     1     -15.752  55.465  18.888  1.00  0.00     0.177 C 
BRANCH  21  26
ATOM     26  O   UNL     1     -15.703  58.684  16.965  1.00  0.00    -0.387 OA
ATOM     27  H   UNL     1     -16.663  58.887  17.115  1.00  0.00     0.211 HD
ENDBRANCH  21  26
BRANCH  23  28
ATOM     28  O   UNL     1     -15.562  57.786  19.530  1.00  0.00    -0.387 OA
ATOM     29  H   UNL     1     -16.046  58.650  19.450  1.00  0.00     0.211 HD
ENDBRANCH  23  28
BRANCH  24  30
ATOM     30  C   UNL     1     -13.844  53.788  19.012  1.00  0.00     0.191 C 
BRANCH  30  31
ATOM     31  O   UNL     1     -13.176  53.212  17.922  1.00  0.00    -0.394 OA
ATOM     32  H   UNL     1     -12.705  53.950  17.455  1.00  0.00     0.210 HD
ENDBRANCH  30  31
ENDBRANCH  24  30
BRANCH  25  33
ATOM     33  O   UNL     1     -16.490  54.615  18.043  1.00  0.00    -0.388 OA
ATOM     34  H   UNL     1     -15.882  53.883  17.760  1.00  0.00     0.211 HD
ENDBRANCH  25  33
ENDBRANCH  11  20
BRANCH  10  35
ATOM     35  O   UNL     1     -15.724  56.853  14.601  1.00  0.00    -0.507 OA
ATOM     36  H   UNL     1     -16.137  56.068  14.116  1.00  0.00     0.293 HD
ENDBRANCH  10  35
TORSDOF 9
ENDMDL
MODEL 8
REMARK VINA RESULT:    -6.000      3.009      8.204
REMARK INTER + INTRA:          -9.068
REMARK INTER:                  -8.532
REMARK INTRA:                  -0.536
REMARK UNBOUND:                -0.964
REMARK SMILES O=c1c(-c2ccc(O)cc2)coc2c([C@@H]3O[C@H](CO)[C@H](O)[C@@H](O)[C@H]3O)c(O)ccc12
REMARK SMILES IDX 3 1 11 2 12 3 13 4 30 5 2 6 1 7 29 8 28 9 26 10 14 11 4 12
REMARK SMILES IDX 5 13 6 14 7 15 10 16 9 17 8 18 15 20 24 21 16 22 22 23 17 24
REMARK SMILES IDX 20 25 25 26 23 28 18 30 19 31 21 33 27 35
REMARK H PARENT 8 19 25 27 23 29 19 32 21 34 27 36
REMARK Flexibility Score: inf
ROOT
ATOM      1  C   UNL     1     -15.895  54.831  18.896  1.00  0.00     0.065 A 
ATOM      2  C   UNL     1     -14.720  54.304  18.345  1.00  0.00     0.208 A 
ATOM      3  O   UNL     1     -13.950  55.038  17.552  1.00  0.00    -0.463 OA
ATOM      4  C   UNL     1     -14.225  56.299  17.228  1.00  0.00     0.147 A 
ATOM      5  C   UNL     1     -15.385  56.915  17.753  1.00  0.00     0.066 A 
ATOM      6  C   UNL     1     -16.224  56.166  18.598  1.00  0.00     0.200 A 
ATOM      7  O   UNL     1     -17.254  56.694  19.103  1.00  0.00    -0.288 OA
ATOM      8  C   UNL     1     -15.665  58.250  17.430  1.00  0.00     0.020 A 
ATOM      9  C   UNL     1     -14.793  58.974  16.625  1.00  0.00     0.047 A 
ATOM     10  C   UNL     1     -13.631  58.390  16.114  1.00  0.00     0.125 A 
ATOM     11  C   UNL     1     -13.356  57.017  16.366  1.00  0.00     0.069 A 
ENDROOT
BRANCH   1  12
ATOM     12  C   UNL     1     -16.747  53.988  19.772  1.00  0.00    -0.011 A 
ATOM     13  C   UNL     1     -17.599  53.014  19.222  1.00  0.00     0.013 A 
ATOM     14  C   UNL     1     -18.391  52.218  20.053  1.00  0.00     0.047 A 
ATOM     15  C   UNL     1     -18.339  52.379  21.443  1.00  0.00     0.115 A 
ATOM     16  C   UNL     1     -16.695  54.140  21.170  1.00  0.00     0.013 A 
ATOM     17  C   UNL     1     -17.489  53.341  21.997  1.00  0.00     0.047 A 
BRANCH  15  18
ATOM     18  O   UNL     1     -19.125  51.591  22.281  1.00  0.00    -0.508 OA
ATOM     19  H   UNL     1     -19.980  51.158  21.952  1.00  0.00     0.293 HD
ENDBRANCH  15  18
ENDBRANCH   1  12
BRANCH  11  20
ATOM     20  C   UNL     1     -12.138  56.320  15.767  1.00  0.00     0.188 C 
ATOM     21  C   UNL     1     -11.282  55.680  16.891  1.00  0.00     0.179 C 
ATOM     22  O   UNL     1     -12.574  55.334  14.842  1.00  0.00    -0.362 OA
ATOM     23  C   UNL     1     -10.104  54.898  16.286  1.00  0.00     0.177 C 
ATOM     24  C   UNL     1     -11.474  54.732  14.181  1.00  0.00     0.176 C 
ATOM     25  C   UNL     1     -10.605  53.943  15.188  1.00  0.00     0.177 C 
BRANCH  21  26
ATOM     26  O   UNL     1     -10.783  56.669  17.758  1.00  0.00    -0.387 OA
ATOM     27  H   UNL     1     -10.183  56.213  18.403  1.00  0.00     0.211 HD
ENDBRANCH  21  26
BRANCH  23  28
ATOM     28  O   UNL     1      -9.161  55.795  15.755  1.00  0.00    -0.387 OA
ATOM     29  H   UNL     1      -9.022  55.539  14.805  1.00  0.00     0.211 HD
ENDBRANCH  23  28
BRANCH  24  30
ATOM     30  C   UNL     1     -12.002  53.818  13.066  1.00  0.00     0.191 C 
BRANCH  30  31
ATOM     31  O   UNL     1     -11.234  52.647  12.991  1.00  0.00    -0.394 OA
ATOM     32  H   UNL     1     -10.417  52.875  12.476  1.00  0.00     0.210 HD
ENDBRANCH  30  31
ENDBRANCH  24  30
BRANCH  25  33
ATOM     33  O   UNL     1     -11.355  52.912  15.784  1.00  0.00    -0.388 OA
ATOM     34  H   UNL     1     -11.239  52.996  16.766  1.00  0.00     0.211 HD
ENDBRANCH  25  33
ENDBRANCH  11  20
BRANCH  10  35
ATOM     35  O   UNL     1     -12.774  59.216  15.381  1.00  0.00    -0.507 OA
ATOM     36  H   UNL     1     -12.099  58.884  14.706  1.00  0.00     0.293 HD
ENDBRANCH  10  35
TORSDOF 9
ENDMDL
