MODEL 1
REMARK VINA RESULT:    -2.824      0.000      0.000
REMARK INTER + INTRA:          -3.171
REMARK INTER:                  -3.155
REMARK INTRA:                  -0.017
REMARK UNBOUND:                -0.017
REMARK SMILES CCCC(=O)[O-]
REMARK SMILES IDX 3 1 4 2 5 3 6 4 2 5 1 6
REMARK H PARENT
REMARK Flexibility Score: inf
ROOT
ATOM      1  C   UNL     1      48.669 -13.218 -56.157  1.00  0.00     0.052 C 
ENDROOT
BRANCH   1   2
ATOM      2  C   UNL     1      48.030 -14.502 -55.730  1.00  0.00     0.041 C 
ATOM      3  O   UNL     1      47.113 -14.498 -54.868  1.00  0.00    -0.550 OA
ATOM      4  O   UNL     1      48.414 -15.699 -56.321  1.00  0.00    -0.550 OA
ENDBRANCH   1   2
BRANCH   1   5
ATOM      5  C   UNL     1      47.666 -12.350 -56.922  1.00  0.00     0.003 C 
ATOM      6  C   UNL     1      47.873 -10.870 -56.615  1.00  0.00     0.004 C 
ENDBRANCH   1   5
TORSDOF 2
ENDMDL
MODEL 2
REMARK VINA RESULT:    -2.738      2.214      3.439
REMARK INTER + INTRA:          -3.075
REMARK INTER:                  -3.039
REMARK INTRA:                  -0.036
REMARK UNBOUND:                -0.017
REMARK SMILES CCCC(=O)[O-]
REMARK SMILES IDX 3 1 4 2 5 3 6 4 2 5 1 6
REMARK H PARENT
REMARK Flexibility Score: inf
ROOT
ATOM      1  C   UNL     1      48.639 -13.288 -56.087  1.00  0.00     0.052 C 
ENDROOT
BRANCH   1   2
ATOM      2  C   UNL     1      47.824 -12.206 -56.723  1.00  0.00     0.041 C 
ATOM      3  O   UNL     1      46.888 -12.497 -57.512  1.00  0.00    -0.550 OA
ATOM      4  O   UNL     1      48.067 -10.875 -56.404  1.00  0.00    -0.550 OA
ENDBRANCH   1   2
BRANCH   1   5
ATOM      5  C   UNL     1      47.729 -14.395 -55.546  1.00  0.00     0.003 C 
ATOM      6  C   UNL     1      48.106 -15.753 -56.132  1.00  0.00     0.004 C 
ENDBRANCH   1   5
TORSDOF 2
ENDMDL
MODEL 3
REMARK VINA RESULT:    -2.722      6.756      7.566
REMARK INTER + INTRA:          -3.057
REMARK INTER:                  -3.020
REMARK INTRA:                  -0.036
REMARK UNBOUND:                -0.017
REMARK SMILES CCCC(=O)[O-]
REMARK SMILES IDX 3 1 4 2 5 3 6 4 2 5 1 6
REMARK H PARENT
REMARK Flexibility Score: inf
ROOT
ATOM      1  C   UNL     1      50.046  -5.899 -54.603  1.00  0.00     0.052 C 
ENDROOT
BRANCH   1   2
ATOM      2  C   UNL     1      49.374  -7.127 -54.074  1.00  0.00     0.041 C 
ATOM      3  O   UNL     1      49.994  -8.222 -54.036  1.00  0.00    -0.550 OA
ATOM      4  O   UNL     1      48.079  -7.052 -53.578  1.00  0.00    -0.550 OA
ENDBRANCH   1   2
BRANCH   1   5
ATOM      5  C   UNL     1      51.511  -6.193 -54.938  1.00  0.00     0.003 C 
ATOM      6  C   UNL     1      51.789  -5.980 -56.424  1.00  0.00     0.004 C 
ENDBRANCH   1   5
TORSDOF 2
ENDMDL
MODEL 4
REMARK VINA RESULT:    -2.666      2.030      3.445
REMARK INTER + INTRA:          -2.994
REMARK INTER:                  -2.950
REMARK INTRA:                  -0.044
REMARK UNBOUND:                -0.017
REMARK SMILES CCCC(=O)[O-]
REMARK SMILES IDX 3 1 4 2 5 3 6 4 2 5 1 6
REMARK H PARENT
REMARK Flexibility Score: inf
ROOT
ATOM      1  C   UNL     1      47.594 -14.754 -55.419  1.00  0.00     0.052 C 
ENDROOT
BRANCH   1   2
ATOM      2  C   UNL     1      48.046 -13.523 -56.139  1.00  0.00     0.041 C 
ATOM      3  O   UNL     1      49.241 -13.138 -56.048  1.00  0.00    -0.550 OA
ATOM      4  O   UNL     1      47.159 -12.829 -56.952  1.00  0.00    -0.550 OA
ENDBRANCH   1   2
BRANCH   1   5
ATOM      5  C   UNL     1      48.214 -16.003 -56.051  1.00  0.00     0.003 C 
ATOM      6  C   UNL     1      47.277 -16.619 -57.086  1.00  0.00     0.004 C 
ENDBRANCH   1   5
TORSDOF 2
ENDMDL
MODEL 5
REMARK VINA RESULT:    -2.632      1.298      1.692
REMARK INTER + INTRA:          -2.957
REMARK INTER:                  -2.918
REMARK INTRA:                  -0.039
REMARK UNBOUND:                -0.017
REMARK SMILES CCCC(=O)[O-]
REMARK SMILES IDX 3 1 4 2 5 3 6 4 2 5 1 6
REMARK H PARENT
REMARK Flexibility Score: inf
ROOT
ATOM      1  C   UNL     1      47.603 -14.338 -55.458  1.00  0.00     0.052 C 
ENDROOT
BRANCH   1   2
ATOM      2  C   UNL     1      47.276 -15.440 -56.415  1.00  0.00     0.041 C 
ATOM      3  O   UNL     1      46.340 -15.303 -57.245  1.00  0.00    -0.550 OA
ATOM      4  O   UNL     1      48.037 -16.603 -56.423  1.00  0.00    -0.550 OA
ENDBRANCH   1   2
BRANCH   1   5
ATOM      5  C   UNL     1      48.664 -13.409 -56.054  1.00  0.00     0.003 C 
ATOM      6  C   UNL     1      48.031 -12.142 -56.621  1.00  0.00     0.004 C 
ENDBRANCH   1   5
TORSDOF 2
ENDMDL
MODEL 6
REMARK VINA RESULT:    -2.624      2.183      2.865
REMARK INTER + INTRA:          -2.947
REMARK INTER:                  -2.924
REMARK INTRA:                  -0.023
REMARK UNBOUND:                -0.017
REMARK SMILES CCCC(=O)[O-]
REMARK SMILES IDX 3 1 4 2 5 3 6 4 2 5 1 6
REMARK H PARENT
REMARK Flexibility Score: inf
ROOT
ATOM      1  C   UNL     1      48.364 -15.919 -56.095  1.00  0.00     0.052 C 
ENDROOT
BRANCH   1   2
ATOM      2  C   UNL     1      47.440 -16.900 -56.744  1.00  0.00     0.041 C 
ATOM      3  O   UNL     1      46.878 -16.616 -57.834  1.00  0.00    -0.550 OA
ATOM      4  O   UNL     1      47.237 -18.148 -56.170  1.00  0.00    -0.550 OA
ENDBRANCH   1   2
BRANCH   1   5
ATOM      5  C   UNL     1      47.595 -14.669 -55.657  1.00  0.00     0.003 C 
ATOM      6  C   UNL     1      48.360 -13.398 -56.018  1.00  0.00     0.004 C 
ENDBRANCH   1   5
TORSDOF 2
ENDMDL
MODEL 7
REMARK VINA RESULT:    -2.622      7.433      8.293
REMARK INTER + INTRA:          -2.945
REMARK INTER:                  -2.908
REMARK INTRA:                  -0.038
REMARK UNBOUND:                -0.017
REMARK SMILES CCCC(=O)[O-]
REMARK SMILES IDX 3 1 4 2 5 3 6 4 2 5 1 6
REMARK H PARENT
REMARK Flexibility Score: inf
ROOT
ATOM      1  C   UNL     1      51.463  -6.174 -55.081  1.00  0.00     0.052 C 
ENDROOT
BRANCH   1   2
ATOM      2  C   UNL     1      51.416  -5.986 -56.565  1.00  0.00     0.041 C 
ATOM      3  O   UNL     1      50.329  -5.705 -57.134  1.00  0.00    -0.550 OA
ATOM      4  O   UNL     1      52.583  -6.073 -57.314  1.00  0.00    -0.550 OA
ENDBRANCH   1   2
BRANCH   1   5
ATOM      5  C   UNL     1      50.056  -6.407 -54.526  1.00  0.00     0.003 C 
ATOM      6  C   UNL     1      49.838  -7.876 -54.176  1.00  0.00     0.004 C 
ENDBRANCH   1   5
TORSDOF 2
ENDMDL
MODEL 8
REMARK VINA RESULT:    -2.598      8.259      8.803
REMARK INTER + INTRA:          -2.918
REMARK INTER:                  -2.866
REMARK INTRA:                  -0.052
REMARK UNBOUND:                -0.017
REMARK SMILES CCCC(=O)[O-]
REMARK SMILES IDX 3 1 4 2 5 3 6 4 2 5 1 6
REMARK H PARENT
REMARK Flexibility Score: inf
ROOT
ATOM      1  C   UNL     1      51.635  -6.189 -55.154  1.00  0.00     0.052 C 
ENDROOT
BRANCH   1   2
ATOM      2  C   UNL     1      51.685  -5.978 -56.635  1.00  0.00     0.041 C 
ATOM      3  O   UNL     1      52.722  -5.512 -57.174  1.00  0.00    -0.550 OA
ATOM      4  O   UNL     1      50.603  -6.344 -57.426  1.00  0.00    -0.550 OA
ENDBRANCH   1   2
BRANCH   1   5
ATOM      5  C   UNL     1      50.252  -5.823 -54.608  1.00  0.00     0.003 C 
ATOM      6  C   UNL     1      50.154  -4.329 -54.314  1.00  0.00     0.004 C 
ENDBRANCH   1   5
TORSDOF 2
ENDMDL
MODEL 9
REMARK VINA RESULT:    -2.515      8.327      8.986
REMARK INTER + INTRA:          -2.826
REMARK INTER:                  -2.759
REMARK INTRA:                  -0.067
REMARK UNBOUND:                -0.017
REMARK SMILES CCCC(=O)[O-]
REMARK SMILES IDX 3 1 4 2 5 3 6 4 2 5 1 6
REMARK H PARENT
REMARK Flexibility Score: inf
ROOT
ATOM      1  C   UNL     1      50.291  -6.371 -54.640  1.00  0.00     0.052 C 
ENDROOT
BRANCH   1   2
ATOM      2  C   UNL     1      49.637  -5.027 -54.577  1.00  0.00     0.041 C 
ATOM      3  O   UNL     1      48.487  -4.858 -55.061  1.00  0.00    -0.550 OA
ATOM      4  O   UNL     1      50.277  -3.971 -53.939  1.00  0.00    -0.550 OA
ENDBRANCH   1   2
BRANCH   1   5
ATOM      5  C   UNL     1      51.742  -6.238 -55.110  1.00  0.00     0.003 C 
ATOM      6  C   UNL     1      51.810  -5.896 -56.596  1.00  0.00     0.004 C 
ENDBRANCH   1   5
TORSDOF 2
ENDMDL
