MODEL 1
REMARK VINA RESULT:    -1.640      0.000      0.000
REMARK INTER + INTRA:          -2.408
REMARK INTER:                  -2.167
REMARK INTRA:                  -0.241
REMARK UNBOUND:                -0.241
REMARK SMILES CCCCC=CC=CCO
REMARK SMILES IDX 5 1 6 2 4 3 3 4 2 5 1 6 7 7 8 8 9 9 10 10
REMARK H PARENT 10 11
REMARK Flexibility Score: inf
ROOT
ATOM      1  C   UNL     1     -23.407 -11.363 -52.568  1.00  0.00    -0.027 C 
ATOM      2  C   UNL     1     -24.401 -12.107 -53.061  1.00  0.00    -0.005 C 
ENDROOT
BRANCH   1   3
ATOM      3  C   UNL     1     -21.965 -11.730 -52.786  1.00  0.00     0.027 C 
BRANCH   3   4
ATOM      4  C   UNL     1     -21.148 -11.693 -51.486  1.00  0.00     0.004 C 
BRANCH   4   5
ATOM      5  C   UNL     1     -21.867 -10.917 -50.373  1.00  0.00    -0.003 C 
ATOM      6  C   UNL     1     -21.018 -10.859 -49.107  1.00  0.00     0.004 C 
ENDBRANCH   4   5
ENDBRANCH   3   4
ENDBRANCH   1   3
BRANCH   2   7
ATOM      7  C   UNL     1     -25.808 -11.731 -52.845  1.00  0.00    -0.002 C 
ATOM      8  C   UNL     1     -26.762 -12.125 -53.691  1.00  0.00     0.001 C 
BRANCH   8   9
ATOM      9  C   UNL     1     -28.199 -11.759 -53.473  1.00  0.00     0.183 C 
BRANCH   9  10
ATOM     10  O   UNL     1     -28.354 -10.365 -53.483  1.00  0.00    -0.392 OA
ATOM     11  H   UNL     1     -29.154 -10.160 -52.934  1.00  0.00     0.210 HD
ENDBRANCH   9  10
ENDBRANCH   8   9
ENDBRANCH   2   7
TORSDOF 6
ENDMDL
MODEL 2
REMARK VINA RESULT:    -1.313      1.342      2.154
REMARK INTER + INTRA:          -1.976
REMARK INTER:                  -1.630
REMARK INTRA:                  -0.346
REMARK UNBOUND:                -0.241
REMARK SMILES CCCCC=CC=CCO
REMARK SMILES IDX 5 1 6 2 4 3 3 4 2 5 1 6 7 7 8 8 9 9 10 10
REMARK H PARENT 10 11
REMARK Flexibility Score: inf
ROOT
ATOM      1  C   UNL     1     -24.273 -10.987 -52.316  1.00  0.00    -0.027 C 
ATOM      2  C   UNL     1     -24.941 -12.121 -52.545  1.00  0.00    -0.005 C 
ENDROOT
BRANCH   1   3
ATOM      3  C   UNL     1     -23.011 -10.969 -51.498  1.00  0.00     0.027 C 
BRANCH   3   4
ATOM      4  C   UNL     1     -21.995 -12.022 -51.966  1.00  0.00     0.004 C 
BRANCH   4   5
ATOM      5  C   UNL     1     -21.019 -11.460 -53.009  1.00  0.00    -0.003 C 
ATOM      6  C   UNL     1     -21.252 -12.095 -54.377  1.00  0.00     0.004 C 
ENDBRANCH   4   5
ENDBRANCH   3   4
ENDBRANCH   1   3
BRANCH   2   7
ATOM      7  C   UNL     1     -26.171 -12.125 -53.354  1.00  0.00    -0.002 C 
ATOM      8  C   UNL     1     -27.165 -11.273 -53.098  1.00  0.00     0.001 C 
BRANCH   8   9
ATOM      9  C   UNL     1     -28.416 -11.260 -53.924  1.00  0.00     0.183 C 
BRANCH   9  10
ATOM     10  O   UNL     1     -29.289 -10.260 -53.470  1.00  0.00    -0.392 OA
ATOM     11  H   UNL     1     -29.365 -10.368 -52.487  1.00  0.00     0.210 HD
ENDBRANCH   9  10
ENDBRANCH   8   9
ENDBRANCH   2   7
TORSDOF 6
ENDMDL
MODEL 3
REMARK VINA RESULT:    -0.645      2.804      6.074
REMARK INTER + INTRA:          -1.094
REMARK INTER:                  -0.946
REMARK INTRA:                  -0.148
REMARK UNBOUND:                -0.241
REMARK SMILES CCCCC=CC=CCO
REMARK SMILES IDX 5 1 6 2 4 3 3 4 2 5 1 6 7 7 8 8 9 9 10 10
REMARK H PARENT 10 11
REMARK Flexibility Score: inf
ROOT
ATOM      1  C   UNL     1     -24.357 -12.082 -52.655  1.00  0.00    -0.027 C 
ATOM      2  C   UNL     1     -23.138 -11.780 -53.109  1.00  0.00    -0.005 C 
ENDROOT
BRANCH   1   3
ATOM      3  C   UNL     1     -25.550 -12.124 -53.569  1.00  0.00     0.027 C 
BRANCH   3   4
ATOM      4  C   UNL     1     -26.745 -11.338 -53.010  1.00  0.00     0.004 C 
BRANCH   4   5
ATOM      5  C   UNL     1     -28.069 -11.754 -53.665  1.00  0.00    -0.003 C 
ATOM      6  C   UNL     1     -29.109 -10.642 -53.558  1.00  0.00     0.004 C 
ENDBRANCH   4   5
ENDBRANCH   3   4
ENDBRANCH   1   3
BRANCH   2   7
ATOM      7  C   UNL     1     -21.978 -11.749 -52.203  1.00  0.00    -0.002 C 
ATOM      8  C   UNL     1     -22.046 -11.136 -51.019  1.00  0.00     0.001 C 
BRANCH   8   9
ATOM      9  C   UNL     1     -20.875 -11.111 -50.084  1.00  0.00     0.183 C 
BRANCH   9  10
ATOM     10  O   UNL     1     -21.298 -10.805 -48.782  1.00  0.00    -0.392 OA
ATOM     11  H   UNL     1     -22.192 -11.219 -48.665  1.00  0.00     0.210 HD
ENDBRANCH   9  10
ENDBRANCH   8   9
ENDBRANCH   2   7
TORSDOF 6
ENDMDL
MODEL 4
REMARK VINA RESULT:    -0.118     18.226     18.553
REMARK INTER + INTRA:          -0.398
REMARK INTER:                  -0.273
REMARK INTRA:                  -0.125
REMARK UNBOUND:                -0.241
REMARK SMILES CCCCC=CC=CCO
REMARK SMILES IDX 5 1 6 2 4 3 3 4 2 5 1 6 7 7 8 8 9 9 10 10
REMARK H PARENT 10 11
REMARK Flexibility Score: inf
ROOT
ATOM      1  C   UNL     1     -22.875   7.493 -57.654  1.00  0.00    -0.027 C 
ATOM      2  C   UNL     1     -23.629   7.017 -56.659  1.00  0.00    -0.005 C 
ENDROOT
BRANCH   1   3
ATOM      3  C   UNL     1     -21.374   7.410 -57.613  1.00  0.00     0.027 C 
BRANCH   3   4
ATOM      4  C   UNL     1     -20.875   6.010 -57.224  1.00  0.00     0.004 C 
BRANCH   4   5
ATOM      5  C   UNL     1     -21.548   4.906 -58.051  1.00  0.00    -0.003 C 
ATOM      6  C   UNL     1     -20.875   4.752 -59.412  1.00  0.00     0.004 C 
ENDBRANCH   4   5
ENDBRANCH   3   4
ENDBRANCH   1   3
BRANCH   2   7
ATOM      7  C   UNL     1     -25.098   7.098 -56.716  1.00  0.00    -0.002 C 
ATOM      8  C   UNL     1     -25.845   5.994 -56.782  1.00  0.00     0.001 C 
BRANCH   8   9
ATOM      9  C   UNL     1     -27.341   6.065 -56.827  1.00  0.00     0.183 C 
BRANCH   9  10
ATOM     10  O   UNL     1     -27.871   4.869 -57.333  1.00  0.00    -0.392 OA
ATOM     11  H   UNL     1     -28.150   5.049 -58.267  1.00  0.00     0.210 HD
ENDBRANCH   9  10
ENDBRANCH   8   9
ENDBRANCH   2   7
TORSDOF 6
ENDMDL
MODEL 5
REMARK VINA RESULT:     0.029     21.816     23.808
REMARK INTER + INTRA:          -0.203
REMARK INTER:                   0.090
REMARK INTRA:                  -0.293
REMARK UNBOUND:                -0.241
REMARK SMILES CCCCC=CC=CCO
REMARK SMILES IDX 5 1 6 2 4 3 3 4 2 5 1 6 7 7 8 8 9 9 10 10
REMARK H PARENT 10 11
REMARK Flexibility Score: inf
ROOT
ATOM      1  C   UNL     1     -38.546   6.584 -54.661  1.00  0.00    -0.027 C 
ATOM      2  C   UNL     1     -38.005   6.597 -53.441  1.00  0.00    -0.005 C 
ENDROOT
BRANCH   1   3
ATOM      3  C   UNL     1     -39.974   6.168 -54.885  1.00  0.00     0.027 C 
BRANCH   3   4
ATOM      4  C   UNL     1     -40.495   6.585 -56.269  1.00  0.00     0.004 C 
BRANCH   4   5
ATOM      5  C   UNL     1     -39.808   7.857 -56.786  1.00  0.00    -0.003 C 
ATOM      6  C   UNL     1     -40.171   8.124 -58.244  1.00  0.00     0.004 C 
ENDBRANCH   4   5
ENDBRANCH   3   4
ENDBRANCH   1   3
BRANCH   2   7
ATOM      7  C   UNL     1     -36.608   7.014 -53.236  1.00  0.00    -0.002 C 
ATOM      8  C   UNL     1     -35.783   7.184 -54.271  1.00  0.00     0.001 C 
BRANCH   8   9
ATOM      9  C   UNL     1     -34.363   7.621 -54.074  1.00  0.00     0.183 C 
BRANCH   9  10
ATOM     10  O   UNL     1     -33.547   7.098 -55.088  1.00  0.00    -0.392 OA
ATOM     11  H   UNL     1     -34.025   7.242 -55.945  1.00  0.00     0.210 HD
ENDBRANCH   9  10
ENDBRANCH   8   9
ENDBRANCH   2   7
TORSDOF 6
ENDMDL
MODEL 6
REMARK VINA RESULT:     0.606      2.783      6.179
REMARK INTER + INTRA:           0.560
REMARK INTER:                   0.750
REMARK INTRA:                  -0.190
REMARK UNBOUND:                -0.241
REMARK SMILES CCCCC=CC=CCO
REMARK SMILES IDX 5 1 6 2 4 3 3 4 2 5 1 6 7 7 8 8 9 9 10 10
REMARK H PARENT 10 11
REMARK Flexibility Score: inf
ROOT
ATOM      1  C   UNL     1     -25.786 -11.823 -53.216  1.00  0.00    -0.027 C 
ATOM      2  C   UNL     1     -24.740 -11.500 -52.451  1.00  0.00    -0.005 C 
ENDROOT
BRANCH   1   3
ATOM      3  C   UNL     1     -27.199 -11.640 -52.735  1.00  0.00     0.027 C 
BRANCH   3   4
ATOM      4  C   UNL     1     -28.225 -11.768 -53.871  1.00  0.00     0.004 C 
BRANCH   4   5
ATOM      5  C   UNL     1     -29.462 -10.891 -53.634  1.00  0.00    -0.003 C 
ATOM      6  C   UNL     1     -29.065  -9.508 -53.124  1.00  0.00     0.004 C 
ENDBRANCH   4   5
ENDBRANCH   3   4
ENDBRANCH   1   3
BRANCH   2   7
ATOM      7  C   UNL     1     -23.362 -11.677 -52.938  1.00  0.00    -0.002 C 
ATOM      8  C   UNL     1     -22.319 -11.540 -52.116  1.00  0.00     0.001 C 
BRANCH   8   9
ATOM      9  C   UNL     1     -20.913 -11.731 -52.599  1.00  0.00     0.183 C 
BRANCH   9  10
ATOM     10  O   UNL     1     -20.875 -11.727 -54.001  1.00  0.00    -0.392 OA
ATOM     11  H   UNL     1     -21.804 -11.877 -54.315  1.00  0.00     0.210 HD
ENDBRANCH   9  10
ENDBRANCH   8   9
ENDBRANCH   2   7
TORSDOF 6
ENDMDL
