MODEL 1
REMARK VINA RESULT:    -6.058      0.000      0.000
REMARK INTER + INTRA:         -10.196
REMARK INTER:                  -9.246
REMARK INTRA:                  -0.950
REMARK UNBOUND:                -0.950
REMARK SMILES CC(=O)CCC=C(C)CCC=C(C)CCC=C(C)C
REMARK SMILES IDX 10 1 11 2 12 3 13 4 14 5 15 6 16 7 18 8 17 9 19 10 9 11 7 12
REMARK SMILES IDX 6 13 8 14 5 15 4 16 2 17 3 18 1 19
REMARK H PARENT
REMARK Flexibility Score: inf
ROOT
ATOM      1  C   UNL     1      18.997   2.535  19.525  1.00  0.00     0.032 C 
ENDROOT
BRANCH   1   2
ATOM      2  C   UNL     1      18.656   3.943  19.098  1.00  0.00    -0.028 C 
ATOM      3  C   UNL     1      19.473   4.755  18.390  1.00  0.00    -0.077 C 
ATOM      4  C   UNL     1      20.869   4.337  17.993  1.00  0.00     0.039 C 
BRANCH   3   5
ATOM      5  C   UNL     1      18.977   6.129  17.991  1.00  0.00     0.034 C 
BRANCH   5   6
ATOM      6  C   UNL     1      18.661   6.996  19.215  1.00  0.00     0.032 C 
BRANCH   6   7
ATOM      7  C   UNL     1      18.168   8.363  18.800  1.00  0.00    -0.028 C 
ATOM      8  C   UNL     1      17.574  10.733  19.048  1.00  0.00     0.039 C 
ATOM      9  C   UNL     1      18.017   9.417  19.632  1.00  0.00    -0.080 C 
ATOM     10  C   UNL     1      18.277   9.314  21.116  1.00  0.00     0.039 C 
ENDBRANCH   6   7
ENDBRANCH   5   6
ENDBRANCH   3   5
ENDBRANCH   1   2
BRANCH   1  11
ATOM     11  C   UNL     1      19.459   2.494  20.989  1.00  0.00     0.034 C 
BRANCH  11  12
ATOM     12  C   UNL     1      19.472   1.080  21.542  1.00  0.00    -0.077 C 
ATOM     13  C   UNL     1      19.468   0.808  22.868  1.00  0.00    -0.028 C 
ATOM     14  C   UNL     1      19.525  -0.077  20.578  1.00  0.00     0.039 C 
BRANCH  13  15
ATOM     15  C   UNL     1      19.366   1.841  23.961  1.00  0.00     0.035 C 
BRANCH  15  16
ATOM     16  C   UNL     1      20.748   2.151  24.545  1.00  0.00     0.079 C 
BRANCH  16  17
ATOM     17  C   UNL     1      21.140   3.577  24.255  1.00  0.00     0.130 C 
ATOM     18  O   UNL     1      20.283   4.378  23.914  1.00  0.00    -0.300 OA
ATOM     19  C   UNL     1      22.561   4.039  24.389  1.00  0.00     0.087 C 
ENDBRANCH  16  17
ENDBRANCH  15  16
ENDBRANCH  13  15
ENDBRANCH  11  12
ENDBRANCH   1  11
TORSDOF 9
ENDMDL
MODEL 2
REMARK VINA RESULT:    -5.997      2.395      7.377
REMARK INTER + INTRA:         -10.103
REMARK INTER:                  -9.417
REMARK INTRA:                  -0.686
REMARK UNBOUND:                -0.950
REMARK SMILES CC(=O)CCC=C(C)CCC=C(C)CCC=C(C)C
REMARK SMILES IDX 10 1 11 2 12 3 13 4 14 5 15 6 16 7 18 8 17 9 19 10 9 11 7 12
REMARK SMILES IDX 6 13 8 14 5 15 4 16 2 17 3 18 1 19
REMARK H PARENT
REMARK Flexibility Score: inf
ROOT
ATOM      1  C   UNL     1      19.400   2.305  19.874  1.00  0.00     0.032 C 
ENDROOT
BRANCH   1   2
ATOM      2  C   UNL     1      19.335   1.958  21.343  1.00  0.00    -0.028 C 
ATOM      3  C   UNL     1      19.420   0.704  21.844  1.00  0.00    -0.077 C 
ATOM      4  C   UNL     1      19.537  -0.509  20.952  1.00  0.00     0.039 C 
BRANCH   3   5
ATOM      5  C   UNL     1      19.387   0.511  23.345  1.00  0.00     0.034 C 
BRANCH   5   6
ATOM      6  C   UNL     1      18.062  -0.106  23.809  1.00  0.00     0.032 C 
BRANCH   6   7
ATOM      7  C   UNL     1      17.032   0.965  24.084  1.00  0.00    -0.028 C 
ATOM      8  C   UNL     1      14.931   1.936  24.907  1.00  0.00     0.039 C 
ATOM      9  C   UNL     1      15.820   0.749  24.641  1.00  0.00    -0.080 C 
ATOM     10  C   UNL     1      15.335  -0.635  25.000  1.00  0.00     0.039 C 
ENDBRANCH   6   7
ENDBRANCH   5   6
ENDBRANCH   3   5
ENDBRANCH   1   2
BRANCH   1  11
ATOM     11  C   UNL     1      19.464   3.825  19.664  1.00  0.00     0.034 C 
BRANCH  11  12
ATOM     12  C   UNL     1      18.817   4.246  18.356  1.00  0.00    -0.077 C 
ATOM     13  C   UNL     1      18.497   5.530  18.074  1.00  0.00    -0.028 C 
ATOM     14  C   UNL     1      18.484   3.188  17.336  1.00  0.00     0.039 C 
BRANCH  13  15
ATOM     15  C   UNL     1      18.807   6.712  18.957  1.00  0.00     0.035 C 
BRANCH  15  16
ATOM     16  C   UNL     1      17.863   7.879  18.651  1.00  0.00     0.079 C 
BRANCH  16  17
ATOM     17  C   UNL     1      18.056   8.995  19.645  1.00  0.00     0.130 C 
ATOM     18  O   UNL     1      18.388   8.728  20.790  1.00  0.00    -0.300 OA
ATOM     19  C   UNL     1      17.864  10.431  19.256  1.00  0.00     0.087 C 
ENDBRANCH  16  17
ENDBRANCH  15  16
ENDBRANCH  13  15
ENDBRANCH  11  12
ENDBRANCH   1  11
TORSDOF 9
ENDMDL
MODEL 3
REMARK VINA RESULT:    -5.912      2.230      3.363
REMARK INTER + INTRA:          -9.972
REMARK INTER:                  -9.018
REMARK INTRA:                  -0.954
REMARK UNBOUND:                -0.950
REMARK SMILES CC(=O)CCC=C(C)CCC=C(C)CCC=C(C)C
REMARK SMILES IDX 10 1 11 2 12 3 13 4 14 5 15 6 16 7 18 8 17 9 19 10 9 11 7 12
REMARK SMILES IDX 6 13 8 14 5 15 4 16 2 17 3 18 1 19
REMARK H PARENT
REMARK Flexibility Score: inf
ROOT
ATOM      1  C   UNL     1      19.731   2.473  20.130  1.00  0.00     0.032 C 
ENDROOT
BRANCH   1   2
ATOM      2  C   UNL     1      19.557   3.847  19.528  1.00  0.00    -0.028 C 
ATOM      3  C   UNL     1      18.668   4.158  18.558  1.00  0.00    -0.077 C 
ATOM      4  C   UNL     1      17.775   3.117  17.926  1.00  0.00     0.039 C 
BRANCH   3   5
ATOM      5  C   UNL     1      18.573   5.593  18.083  1.00  0.00     0.034 C 
BRANCH   5   6
ATOM      6  C   UNL     1      18.922   6.585  19.198  1.00  0.00     0.032 C 
BRANCH   6   7
ATOM      7  C   UNL     1      18.537   7.994  18.812  1.00  0.00    -0.028 C 
ATOM      8  C   UNL     1      17.792  10.313  19.132  1.00  0.00     0.039 C 
ATOM      9  C   UNL     1      18.071   8.932  19.666  1.00  0.00    -0.080 C 
ATOM     10  C   UNL     1      17.825   8.637  21.126  1.00  0.00     0.039 C 
ENDBRANCH   6   7
ENDBRANCH   5   6
ENDBRANCH   3   5
ENDBRANCH   1   2
BRANCH   1  11
ATOM     11  C   UNL     1      18.848   2.293  21.373  1.00  0.00     0.034 C 
BRANCH  11  12
ATOM     12  C   UNL     1      19.660   2.307  22.656  1.00  0.00    -0.077 C 
ATOM     13  C   UNL     1      19.743   1.242  23.486  1.00  0.00    -0.028 C 
ATOM     14  C   UNL     1      20.380   3.572  23.046  1.00  0.00     0.039 C 
BRANCH  13  15
ATOM     15  C   UNL     1      19.130  -0.110  23.220  1.00  0.00     0.035 C 
BRANCH  15  16
ATOM     16  C   UNL     1      20.130  -1.229  23.529  1.00  0.00     0.079 C 
BRANCH  16  17
ATOM     17  C   UNL     1      20.042  -2.321  22.495  1.00  0.00     0.130 C 
ATOM     18  O   UNL     1      20.129  -3.488  22.845  1.00  0.00    -0.300 OA
ATOM     19  C   UNL     1      19.834  -2.008  21.043  1.00  0.00     0.087 C 
ENDBRANCH  16  17
ENDBRANCH  15  16
ENDBRANCH  13  15
ENDBRANCH  11  12
ENDBRANCH   1  11
TORSDOF 9
ENDMDL
MODEL 4
REMARK VINA RESULT:    -5.901      1.559      6.824
REMARK INTER + INTRA:          -9.956
REMARK INTER:                  -9.041
REMARK INTRA:                  -0.915
REMARK UNBOUND:                -0.950
REMARK SMILES CC(=O)CCC=C(C)CCC=C(C)CCC=C(C)C
REMARK SMILES IDX 10 1 11 2 12 3 13 4 14 5 15 6 16 7 18 8 17 9 19 10 9 11 7 12
REMARK SMILES IDX 6 13 8 14 5 15 4 16 2 17 3 18 1 19
REMARK H PARENT
REMARK Flexibility Score: inf
ROOT
ATOM      1  C   UNL     1      19.329   2.106  19.874  1.00  0.00     0.032 C 
ENDROOT
BRANCH   1   2
ATOM      2  C   UNL     1      19.460   1.681  21.318  1.00  0.00    -0.028 C 
ATOM      3  C   UNL     1      19.586   0.401  21.737  1.00  0.00    -0.077 C 
ATOM      4  C   UNL     1      19.554  -0.763  20.776  1.00  0.00     0.039 C 
BRANCH   3   5
ATOM      5  C   UNL     1      19.756   0.128  23.217  1.00  0.00     0.034 C 
BRANCH   5   6
ATOM      6  C   UNL     1      19.565   1.398  24.054  1.00  0.00     0.032 C 
BRANCH   6   7
ATOM      7  C   UNL     1      20.896   1.961  24.498  1.00  0.00    -0.028 C 
ATOM      8  C   UNL     1      22.554   3.676  25.081  1.00  0.00     0.039 C 
ATOM      9  C   UNL     1      21.200   3.276  24.555  1.00  0.00    -0.080 C 
ATOM     10  C   UNL     1      20.231   4.345  24.110  1.00  0.00     0.039 C 
ENDBRANCH   6   7
ENDBRANCH   5   6
ENDBRANCH   3   5
ENDBRANCH   1   2
BRANCH   1  11
ATOM     11  C   UNL     1      19.251   3.635  19.749  1.00  0.00     0.034 C 
BRANCH  11  12
ATOM     12  C   UNL     1      18.732   4.068  18.389  1.00  0.00    -0.077 C 
ATOM     13  C   UNL     1      18.508   5.363  18.065  1.00  0.00    -0.028 C 
ATOM     14  C   UNL     1      18.419   3.012  17.360  1.00  0.00     0.039 C 
BRANCH  13  15
ATOM     15  C   UNL     1      18.816   6.541  18.955  1.00  0.00     0.035 C 
BRANCH  15  16
ATOM     16  C   UNL     1      17.864   7.705  18.660  1.00  0.00     0.079 C 
BRANCH  16  17
ATOM     17  C   UNL     1      18.115   8.849  19.607  1.00  0.00     0.130 C 
ATOM     18  O   UNL     1      18.561   8.621  20.721  1.00  0.00    -0.300 OA
ATOM     19  C   UNL     1      17.841  10.269  19.207  1.00  0.00     0.087 C 
ENDBRANCH  16  17
ENDBRANCH  15  16
ENDBRANCH  13  15
ENDBRANCH  11  12
ENDBRANCH   1  11
TORSDOF 9
ENDMDL
MODEL 5
REMARK VINA RESULT:    -5.874      2.624      7.686
REMARK INTER + INTRA:          -9.915
REMARK INTER:                  -8.889
REMARK INTRA:                  -1.026
REMARK UNBOUND:                -0.950
REMARK SMILES CC(=O)CCC=C(C)CCC=C(C)CCC=C(C)C
REMARK SMILES IDX 10 1 11 2 12 3 13 4 14 5 15 6 16 7 18 8 17 9 19 10 9 11 7 12
REMARK SMILES IDX 6 13 8 14 5 15 4 16 2 17 3 18 1 19
REMARK H PARENT
REMARK Flexibility Score: inf
ROOT
ATOM      1  C   UNL     1      20.410   3.968  18.339  1.00  0.00     0.032 C 
ENDROOT
BRANCH   1   2
ATOM      2  C   UNL     1      20.214   3.546  19.776  1.00  0.00    -0.028 C 
ATOM      3  C   UNL     1      19.668   2.373  20.169  1.00  0.00    -0.077 C 
ATOM      4  C   UNL     1      19.137   1.365  19.177  1.00  0.00     0.039 C 
BRANCH   3   5
ATOM      5  C   UNL     1      19.578   2.065  21.649  1.00  0.00     0.034 C 
BRANCH   5   6
ATOM      6  C   UNL     1      18.598   0.920  21.932  1.00  0.00     0.032 C 
BRANCH   6   7
ATOM      7  C   UNL     1      19.279  -0.207  22.673  1.00  0.00    -0.028 C 
ATOM      8  C   UNL     1      20.377  -2.382  22.985  1.00  0.00     0.039 C 
ATOM      9  C   UNL     1      19.650  -1.384  22.122  1.00  0.00    -0.080 C 
ATOM     10  C   UNL     1      19.358  -1.723  20.680  1.00  0.00     0.039 C 
ENDBRANCH   6   7
ENDBRANCH   5   6
ENDBRANCH   3   5
ENDBRANCH   1   2
BRANCH   1  11
ATOM     11  C   UNL     1      19.987   5.429  18.125  1.00  0.00     0.034 C 
BRANCH  11  12
ATOM     12  C   UNL     1      18.477   5.590  18.124  1.00  0.00    -0.077 C 
ATOM     13  C   UNL     1      17.859   6.736  18.491  1.00  0.00    -0.028 C 
ATOM     14  C   UNL     1      17.621   4.413  17.730  1.00  0.00     0.039 C 
BRANCH  13  15
ATOM     15  C   UNL     1      18.564   8.017  18.861  1.00  0.00     0.035 C 
BRANCH  15  16
ATOM     16  C   UNL     1      18.134   8.489  20.254  1.00  0.00     0.079 C 
BRANCH  16  17
ATOM     17  C   UNL     1      17.770   9.950  20.231  1.00  0.00     0.130 C 
ATOM     18  O   UNL     1      17.782  10.556  19.170  1.00  0.00    -0.300 OA
ATOM     19  C   UNL     1      17.379  10.678  21.483  1.00  0.00     0.087 C 
ENDBRANCH  16  17
ENDBRANCH  15  16
ENDBRANCH  13  15
ENDBRANCH  11  12
ENDBRANCH   1  11
TORSDOF 9
ENDMDL
MODEL 6
REMARK VINA RESULT:    -5.823      2.362      7.763
REMARK INTER + INTRA:          -9.837
REMARK INTER:                  -8.839
REMARK INTRA:                  -0.998
REMARK UNBOUND:                -0.950
REMARK SMILES CC(=O)CCC=C(C)CCC=C(C)CCC=C(C)C
REMARK SMILES IDX 10 1 11 2 12 3 13 4 14 5 15 6 16 7 18 8 17 9 19 10 9 11 7 12
REMARK SMILES IDX 6 13 8 14 5 15 4 16 2 17 3 18 1 19
REMARK H PARENT
REMARK Flexibility Score: inf
ROOT
ATOM      1  C   UNL     1      19.805   2.832  19.994  1.00  0.00     0.032 C 
ENDROOT
BRANCH   1   2
ATOM      2  C   UNL     1      19.084   2.152  21.134  1.00  0.00    -0.028 C 
ATOM      3  C   UNL     1      19.374   2.325  22.444  1.00  0.00    -0.077 C 
ATOM      4  C   UNL     1      20.516   3.200  22.903  1.00  0.00     0.039 C 
BRANCH   3   5
ATOM      5  C   UNL     1      18.533   1.610  23.481  1.00  0.00     0.034 C 
BRANCH   5   6
ATOM      6  C   UNL     1      17.939   0.308  22.932  1.00  0.00     0.032 C 
BRANCH   6   7
ATOM      7  C   UNL     1      18.822  -0.873  23.262  1.00  0.00    -0.028 C 
ATOM      8  C   UNL     1      20.460  -2.662  22.873  1.00  0.00     0.039 C 
ATOM      9  C   UNL     1      19.586  -1.542  22.370  1.00  0.00    -0.080 C 
ATOM     10  C   UNL     1      19.588  -1.202  20.899  1.00  0.00     0.039 C 
ENDBRANCH   6   7
ENDBRANCH   5   6
ENDBRANCH   3   5
ENDBRANCH   1   2
BRANCH   1  11
ATOM     11  C   UNL     1      19.353   4.292  19.842  1.00  0.00     0.034 C 
BRANCH  11  12
ATOM     12  C   UNL     1      18.748   4.560  18.475  1.00  0.00    -0.077 C 
ATOM     13  C   UNL     1      18.478   5.806  18.022  1.00  0.00    -0.028 C 
ATOM     14  C   UNL     1      18.400   3.389  17.592  1.00  0.00     0.039 C 
BRANCH  13  15
ATOM     15  C   UNL     1      18.810   7.082  18.753  1.00  0.00     0.035 C 
BRANCH  15  16
ATOM     16  C   UNL     1      17.789   8.176  18.423  1.00  0.00     0.079 C 
BRANCH  16  17
ATOM     17  C   UNL     1      17.935   9.341  19.367  1.00  0.00     0.130 C 
ATOM     18  O   UNL     1      17.751  10.476  18.953  1.00  0.00    -0.300 OA
ATOM     19  C   UNL     1      18.287   9.139  20.811  1.00  0.00     0.087 C 
ENDBRANCH  16  17
ENDBRANCH  15  16
ENDBRANCH  13  15
ENDBRANCH  11  12
ENDBRANCH   1  11
TORSDOF 9
ENDMDL
MODEL 7
REMARK VINA RESULT:    -5.782      1.649      2.455
REMARK INTER + INTRA:          -9.774
REMARK INTER:                  -8.783
REMARK INTRA:                  -0.992
REMARK UNBOUND:                -0.950
REMARK SMILES CC(=O)CCC=C(C)CCC=C(C)CCC=C(C)C
REMARK SMILES IDX 10 1 11 2 12 3 13 4 14 5 15 6 16 7 18 8 17 9 19 10 9 11 7 12
REMARK SMILES IDX 6 13 8 14 5 15 4 16 2 17 3 18 1 19
REMARK H PARENT
REMARK Flexibility Score: inf
ROOT
ATOM      1  C   UNL     1      19.325   1.868  19.848  1.00  0.00     0.032 C 
ENDROOT
BRANCH   1   2
ATOM      2  C   UNL     1      19.784   3.255  19.462  1.00  0.00    -0.028 C 
ATOM      3  C   UNL     1      19.208   4.021  18.509  1.00  0.00    -0.077 C 
ATOM      4  C   UNL     1      18.048   3.528  17.677  1.00  0.00     0.039 C 
BRANCH   3   5
ATOM      5  C   UNL     1      19.749   5.414  18.261  1.00  0.00     0.034 C 
BRANCH   5   6
ATOM      6  C   UNL     1      18.634   6.466  18.266  1.00  0.00     0.032 C 
BRANCH   6   7
ATOM      7  C   UNL     1      18.707   7.329  19.504  1.00  0.00    -0.028 C 
ATOM      8  C   UNL     1      18.300   9.282  20.937  1.00  0.00     0.039 C 
ATOM      9  C   UNL     1      18.198   8.576  19.610  1.00  0.00    -0.080 C 
ATOM     10  C   UNL     1      17.536   9.276  18.446  1.00  0.00     0.039 C 
ENDBRANCH   6   7
ENDBRANCH   5   6
ENDBRANCH   3   5
ENDBRANCH   1   2
BRANCH   1  11
ATOM     11  C   UNL     1      19.383   1.666  21.369  1.00  0.00     0.034 C 
BRANCH  11  12
ATOM     12  C   UNL     1      19.559   0.204  21.742  1.00  0.00    -0.077 C 
ATOM     13  C   UNL     1      19.892  -0.202  22.989  1.00  0.00    -0.028 C 
ATOM     14  C   UNL     1      19.391  -0.844  20.672  1.00  0.00     0.039 C 
BRANCH  13  15
ATOM     15  C   UNL     1      20.047   0.708  24.181  1.00  0.00     0.035 C 
BRANCH  15  16
ATOM     16  C   UNL     1      18.847   0.575  25.124  1.00  0.00     0.079 C 
BRANCH  16  17
ATOM     17  C   UNL     1      17.745   1.520  24.719  1.00  0.00     0.130 C 
ATOM     18  O   UNL     1      18.001   2.703  24.549  1.00  0.00    -0.300 OA
ATOM     19  C   UNL     1      16.341   1.038  24.506  1.00  0.00     0.087 C 
ENDBRANCH  16  17
ENDBRANCH  15  16
ENDBRANCH  13  15
ENDBRANCH  11  12
ENDBRANCH   1  11
TORSDOF 9
ENDMDL
MODEL 8
REMARK VINA RESULT:    -5.280      2.485      7.419
REMARK INTER + INTRA:          -9.008
REMARK INTER:                  -8.138
REMARK INTRA:                  -0.870
REMARK UNBOUND:                -0.950
REMARK SMILES CC(=O)CCC=C(C)CCC=C(C)CCC=C(C)C
REMARK SMILES IDX 10 1 11 2 12 3 13 4 14 5 15 6 16 7 18 8 17 9 19 10 9 11 7 12
REMARK SMILES IDX 6 13 8 14 5 15 4 16 2 17 3 18 1 19
REMARK H PARENT
REMARK Flexibility Score: inf
ROOT
ATOM      1  C   UNL     1      18.723   6.663  18.263  1.00  0.00     0.032 C 
ENDROOT
BRANCH   1   2
ATOM      2  C   UNL     1      18.218   5.251  18.448  1.00  0.00    -0.028 C 
ATOM      3  C   UNL     1      18.999   4.146  18.451  1.00  0.00    -0.077 C 
ATOM      4  C   UNL     1      20.487   4.217  18.209  1.00  0.00     0.039 C 
BRANCH   3   5
ATOM      5  C   UNL     1      18.357   2.797  18.695  1.00  0.00     0.034 C 
BRANCH   5   6
ATOM      6  C   UNL     1      19.372   1.771  19.213  1.00  0.00     0.032 C 
BRANCH   6   7
ATOM      7  C   UNL     1      19.411   1.760  20.724  1.00  0.00    -0.028 C 
ATOM      8  C   UNL     1      19.596   0.815  22.983  1.00  0.00     0.039 C 
ATOM      9  C   UNL     1      19.506   0.650  21.488  1.00  0.00    -0.080 C 
ATOM     10  C   UNL     1      19.523  -0.737  20.892  1.00  0.00     0.039 C 
ENDBRANCH   6   7
ENDBRANCH   5   6
ENDBRANCH   3   5
ENDBRANCH   1   2
BRANCH   1  11
ATOM     11  C   UNL     1      18.624   7.465  19.568  1.00  0.00     0.034 C 
BRANCH  11  12
ATOM     12  C   UNL     1      17.945   8.808  19.360  1.00  0.00    -0.077 C 
ATOM     13  C   UNL     1      17.856   9.746  20.332  1.00  0.00    -0.028 C 
ATOM     14  C   UNL     1      17.311   9.103  18.025  1.00  0.00     0.039 C 
BRANCH  13  15
ATOM     15  C   UNL     1      18.479   9.633  21.700  1.00  0.00     0.035 C 
BRANCH  15  16
ATOM     16  C   UNL     1      17.770  10.558  22.695  1.00  0.00     0.079 C 
BRANCH  16  17
ATOM     17  C   UNL     1      16.330  10.150  22.868  1.00  0.00     0.130 C 
ATOM     18  O   UNL     1      15.446  10.971  22.673  1.00  0.00    -0.300 OA
ATOM     19  C   UNL     1      15.955   8.752  23.260  1.00  0.00     0.087 C 
ENDBRANCH  16  17
ENDBRANCH  15  16
ENDBRANCH  13  15
ENDBRANCH  11  12
ENDBRANCH   1  11
TORSDOF 9
ENDMDL
MODEL 9
REMARK VINA RESULT:    -5.171      2.268      4.194
REMARK INTER + INTRA:          -8.842
REMARK INTER:                  -8.142
REMARK INTRA:                  -0.700
REMARK UNBOUND:                -0.950
REMARK SMILES CC(=O)CCC=C(C)CCC=C(C)CCC=C(C)C
REMARK SMILES IDX 10 1 11 2 12 3 13 4 14 5 15 6 16 7 18 8 17 9 19 10 9 11 7 12
REMARK SMILES IDX 6 13 8 14 5 15 4 16 2 17 3 18 1 19
REMARK H PARENT
REMARK Flexibility Score: inf
ROOT
ATOM      1  C   UNL     1      18.887   5.926  18.004  1.00  0.00     0.032 C 
ENDROOT
BRANCH   1   2
ATOM      2  C   UNL     1      19.000   6.846  19.197  1.00  0.00    -0.028 C 
ATOM      3  C   UNL     1      18.358   8.029  19.322  1.00  0.00    -0.077 C 
ATOM      4  C   UNL     1      17.483   8.586  18.225  1.00  0.00     0.039 C 
BRANCH   3   5
ATOM      5  C   UNL     1      18.531   8.825  20.599  1.00  0.00     0.034 C 
BRANCH   5   6
ATOM      6  C   UNL     1      17.548   9.999  20.673  1.00  0.00     0.032 C 
BRANCH   6   7
ATOM      7  C   UNL     1      17.508  10.587  22.065  1.00  0.00    -0.028 C 
ATOM      8  C   UNL     1      16.921  10.749  24.445  1.00  0.00     0.039 C 
ATOM      9  C   UNL     1      16.805  10.078  23.101  1.00  0.00    -0.080 C 
ATOM     10  C   UNL     1      15.914   8.868  22.950  1.00  0.00     0.039 C 
ENDBRANCH   6   7
ENDBRANCH   5   6
ENDBRANCH   3   5
ENDBRANCH   1   2
BRANCH   1  11
ATOM     11  C   UNL     1      19.532   4.562  18.289  1.00  0.00     0.034 C 
BRANCH  11  12
ATOM     12  C   UNL     1      18.495   3.464  18.445  1.00  0.00    -0.077 C 
ATOM     13  C   UNL     1      18.580   2.499  19.390  1.00  0.00    -0.028 C 
ATOM     14  C   UNL     1      17.332   3.420  17.486  1.00  0.00     0.039 C 
BRANCH  13  15
ATOM     15  C   UNL     1      19.645   2.427  20.456  1.00  0.00     0.035 C 
BRANCH  15  16
ATOM     16  C   UNL     1      19.103   1.748  21.718  1.00  0.00     0.079 C 
BRANCH  16  17
ATOM     17  C   UNL     1      19.553   0.312  21.785  1.00  0.00     0.130 C 
ATOM     18  O   UNL     1      19.741  -0.307  20.749  1.00  0.00    -0.300 OA
ATOM     19  C   UNL     1      19.788  -0.373  23.099  1.00  0.00     0.087 C 
ENDBRANCH  16  17
ENDBRANCH  15  16
ENDBRANCH  13  15
ENDBRANCH  11  12
ENDBRANCH   1  11
TORSDOF 9
ENDMDL
