MODEL 1
REMARK VINA RESULT:    -3.729      0.000      0.000
REMARK INTER + INTRA:          -5.714
REMARK INTER:                  -5.691
REMARK INTRA:                  -0.023
REMARK UNBOUND:                -0.023
REMARK SMILES CC1=CCC[C@H](C)C(=O)C[C@@H](C(C)C)C(=O)C1
REMARK SMILES IDX 8 1 9 2 6 3 7 4 5 5 4 6 3 7 2 8 1 9 10 11 11 12 15 13 16 14
REMARK SMILES IDX 17 15 12 17 13 18 14 19
REMARK H PARENT
REMARK Flexibility Score: 70.00
ROOT
ATOM      1  C   UNL     1      23.447  -5.400   9.164  1.00  0.00     0.136 C 
ATOM      2  O   UNL     1      22.390  -4.783   9.152  1.00  0.00    -0.299 OA
ENDROOT
BRANCH   1   3
ATOM      3  C   UNL     1      23.510  -6.751   9.849  1.00  0.00     0.053 C 
ATOM      4  C   UNL     1      22.466  -6.829  10.971  1.00  0.00     0.016 C 
BRANCH   3   5
ATOM      5  C   UNL     1      23.303  -7.889   8.821  1.00  0.00     0.015 C 
BRANCH   5   6
ATOM      6  C   UNL     1      24.382  -8.980   8.958  1.00  0.00     0.028 C 
BRANCH   6   7
ATOM      7  C   UNL     1      25.120  -9.258   7.671  1.00  0.00    -0.028 C 
ATOM      8  C   UNL     1      26.089  -8.476   7.131  1.00  0.00    -0.070 CG0
ATOM      9  C   UNL     1      26.781  -8.981   5.889  1.00  0.00     0.039 C 
ATOM     10  G   UNL     1      26.473  -7.106   7.674  1.00  0.00     0.000 G0
ENDBRANCH   6   7
ENDBRANCH   5   6
ENDBRANCH   3   5
ENDBRANCH   1   3
BRANCH   1  11
ATOM     11  C   UNL     1      24.663  -4.779   8.513  1.00  0.00     0.087 C 
BRANCH  11  12
ATOM     12  C   UNL     1      24.789  -5.177   7.017  1.00  0.00     0.066 C 
BRANCH  12  13
ATOM     13  C   UNL     1      26.103  -5.912   6.798  1.00  0.00     0.140 C 
ATOM     14  O   UNL     1      26.840  -5.585   5.877  1.00  0.00    -0.299 OA
BRANCH  13  15
ATOM     15  C   UNL     1      26.479  -7.073   7.686  1.00  0.00     0.106 CG0
ATOM     16  G   UNL     1      26.096  -8.435   7.122  1.00  0.00     0.000 G0
ENDBRANCH  13  15
ENDBRANCH  12  13
BRANCH  12  17
ATOM     17  C   UNL     1      24.652  -3.960   6.043  1.00  0.00    -0.006 C 
ATOM     18  C   UNL     1      23.176  -3.543   5.885  1.00  0.00     0.008 C 
ATOM     19  C   UNL     1      25.460  -2.735   6.510  1.00  0.00     0.008 C 
ENDBRANCH  12  17
ENDBRANCH  11  12
ENDBRANCH   1  11
TORSDOF 1
ENDMDL
MODEL 2
REMARK VINA RESULT:    -3.724     11.864     14.730
REMARK INTER + INTRA:          -5.706
REMARK INTER:                  -5.414
REMARK INTRA:                  -0.292
REMARK UNBOUND:                -0.023
REMARK SMILES CC1=CCC[C@H](C)C(=O)C[C@@H](C(C)C)C(=O)C1
REMARK SMILES IDX 8 1 9 2 6 3 7 4 5 5 4 6 3 7 2 8 1 9 10 11 11 12 15 13 16 14
REMARK SMILES IDX 17 15 12 17 13 18 14 19
REMARK H PARENT
REMARK Flexibility Score: 70.00
ROOT
ATOM      1  C   UNL     1      15.927  -5.819  17.654  1.00  0.00     0.136 C 
ATOM      2  O   UNL     1      16.187  -5.097  16.700  1.00  0.00    -0.299 OA
ENDROOT
BRANCH   1   3
ATOM      3  C   UNL     1      14.507  -5.865  18.186  1.00  0.00     0.053 C 
ATOM      4  C   UNL     1      14.070  -4.472  18.661  1.00  0.00     0.016 C 
BRANCH   3   5
ATOM      5  C   UNL     1      13.543  -6.407  17.105  1.00  0.00     0.015 C 
BRANCH   5   6
ATOM      6  C   UNL     1      13.238  -7.903  17.316  1.00  0.00     0.028 C 
BRANCH   6   7
ATOM      7  C   UNL     1      13.035  -8.274  18.766  1.00  0.00    -0.028 C 
ATOM      8  C   UNL     1      13.895  -9.001  19.522  1.00  0.00    -0.070 CG0
ATOM      9  C   UNL     1      13.561  -9.177  20.984  1.00  0.00     0.039 C 
ATOM     10  G   UNL     1      15.138  -9.688  18.971  1.00  0.00     0.000 G0
ENDBRANCH   6   7
ENDBRANCH   5   6
ENDBRANCH   3   5
ENDBRANCH   1   3
BRANCH   1  11
ATOM     11  C   UNL     1      17.040  -6.624  18.286  1.00  0.00     0.087 C 
BRANCH  11  12
ATOM     12  C   UNL     1      16.953  -8.129  17.914  1.00  0.00     0.066 C 
BRANCH  12  13
ATOM     13  C   UNL     1      16.414  -8.913  19.102  1.00  0.00     0.140 C 
ATOM     14  O   UNL     1      17.037  -8.931  20.156  1.00  0.00    -0.299 OA
BRANCH  13  15
ATOM     15  C   UNL     1      15.137  -9.707  18.970  1.00  0.00     0.106 CG0
ATOM     16  G   UNL     1      13.905  -8.996  19.515  1.00  0.00     0.000 G0
ENDBRANCH  13  15
ENDBRANCH  12  13
BRANCH  12  17
ATOM     17  C   UNL     1      18.313  -8.720  17.416  1.00  0.00    -0.006 C 
ATOM     18  C   UNL     1      18.087  -9.768  16.308  1.00  0.00     0.008 C 
ATOM     19  C   UNL     1      19.267  -7.637  16.879  1.00  0.00     0.008 C 
ENDBRANCH  12  17
ENDBRANCH  11  12
ENDBRANCH   1  11
TORSDOF 1
ENDMDL
MODEL 3
REMARK VINA RESULT:    -3.539     11.633     14.074
REMARK INTER + INTRA:          -5.424
REMARK INTER:                  -5.576
REMARK INTRA:                   0.152
REMARK UNBOUND:                -0.023
REMARK SMILES CC1=CCC[C@H](C)C(=O)C[C@@H](C(C)C)C(=O)C1
REMARK SMILES IDX 8 1 9 2 6 3 7 4 5 5 4 6 3 7 2 8 1 9 10 11 11 12 15 13 16 14
REMARK SMILES IDX 17 15 12 17 13 18 14 19
REMARK H PARENT
REMARK Flexibility Score: 70.00
ROOT
ATOM      1  C   UNL     1      13.796  -7.737  17.735  1.00  0.00     0.136 C 
ATOM      2  O   UNL     1      13.502  -7.331  16.618  1.00  0.00    -0.299 OA
ENDROOT
BRANCH   1   3
ATOM      3  C   UNL     1      13.771  -9.228  18.012  1.00  0.00     0.053 C 
ATOM      4  C   UNL     1      12.544  -9.872  17.355  1.00  0.00     0.016 C 
BRANCH   3   5
ATOM      5  C   UNL     1      15.077  -9.892  17.514  1.00  0.00     0.015 C 
BRANCH   5   6
ATOM      6  C   UNL     1      16.249  -9.634  18.481  1.00  0.00     0.028 C 
BRANCH   6   7
ATOM      7  C   UNL     1      17.493  -9.127  17.793  1.00  0.00    -0.028 C 
ATOM      8  C   UNL     1      17.978  -7.862  17.870  1.00  0.00    -0.070 CG0
ATOM      9  C   UNL     1      19.297  -7.579  17.192  1.00  0.00     0.039 C 
ATOM     10  G   UNL     1      17.246  -6.713  18.550  1.00  0.00     0.000 G0
ENDBRANCH   6   7
ENDBRANCH   5   6
ENDBRANCH   3   5
ENDBRANCH   1   3
BRANCH   1  11
ATOM     11  C   UNL     1      14.150  -6.733  18.809  1.00  0.00     0.087 C 
BRANCH  11  12
ATOM     12  C   UNL     1      14.929  -5.518  18.235  1.00  0.00     0.066 C 
BRANCH  12  13
ATOM     13  C   UNL     1      16.254  -5.995  17.656  1.00  0.00     0.140 C 
ATOM     14  O   UNL     1      16.485  -5.854  16.462  1.00  0.00    -0.299 OA
BRANCH  13  15
ATOM     15  C   UNL     1      17.263  -6.682  18.542  1.00  0.00     0.106 CG0
ATOM     16  G   UNL     1      17.963  -7.865  17.884  1.00  0.00     0.000 G0
ENDBRANCH  13  15
ENDBRANCH  12  13
BRANCH  12  17
ATOM     17  C   UNL     1      15.147  -4.376  19.282  1.00  0.00    -0.006 C 
ATOM     18  C   UNL     1      14.268  -3.153  18.956  1.00  0.00     0.008 C 
ATOM     19  C   UNL     1      14.843  -4.829  20.723  1.00  0.00     0.008 C 
ENDBRANCH  12  17
ENDBRANCH  11  12
ENDBRANCH   1  11
TORSDOF 1
ENDMDL
MODEL 4
REMARK VINA RESULT:    -3.365     12.137     14.666
REMARK INTER + INTRA:          -5.159
REMARK INTER:                  -5.068
REMARK INTRA:                  -0.090
REMARK UNBOUND:                -0.023
REMARK SMILES CC1=CCC[C@H](C)C(=O)C[C@@H](C(C)C)C(=O)C1
REMARK SMILES IDX 8 1 9 2 6 3 7 4 5 5 4 6 3 7 2 8 1 9 10 11 11 12 15 13 16 14
REMARK SMILES IDX 17 15 12 17 13 18 14 19
REMARK H PARENT
REMARK Flexibility Score: 70.00
ROOT
ATOM      1  C   UNL     1      13.510  -8.253  17.279  1.00  0.00     0.136 C 
ATOM      2  O   UNL     1      12.396  -8.728  17.102  1.00  0.00    -0.299 OA
ENDROOT
BRANCH   1   3
ATOM      3  C   UNL     1      13.832  -6.884  16.710  1.00  0.00     0.053 C 
ATOM      4  C   UNL     1      13.893  -5.841  17.834  1.00  0.00     0.016 C 
BRANCH   3   5
ATOM      5  C   UNL     1      15.162  -6.925  15.922  1.00  0.00     0.015 C 
BRANCH   5   6
ATOM      6  C   UNL     1      16.243  -6.053  16.589  1.00  0.00     0.028 C 
BRANCH   6   7
ATOM      7  C   UNL     1      17.596  -6.721  16.654  1.00  0.00    -0.028 C 
ATOM      8  C   UNL     1      18.120  -7.337  17.744  1.00  0.00    -0.070 CG0
ATOM      9  C   UNL     1      19.446  -8.038  17.577  1.00  0.00     0.039 C 
ATOM     10  G   UNL     1      17.477  -7.312  19.124  1.00  0.00     0.000 G0
ENDBRANCH   6   7
ENDBRANCH   5   6
ENDBRANCH   3   5
ENDBRANCH   1   3
BRANCH   1  11
ATOM     11  C   UNL     1      14.538  -9.061  18.039  1.00  0.00     0.087 C 
BRANCH  11  12
ATOM     12  C   UNL     1      15.047  -8.313  19.302  1.00  0.00     0.066 C 
BRANCH  12  13
ATOM     13  C   UNL     1      16.555  -8.480  19.415  1.00  0.00     0.140 C 
ATOM     14  O   UNL     1      17.027  -9.551  19.775  1.00  0.00    -0.299 OA
BRANCH  13  15
ATOM     15  C   UNL     1      17.469  -7.314  19.129  1.00  0.00     0.106 CG0
ATOM     16  G   UNL     1      18.107  -7.350  17.746  1.00  0.00     0.000 G0
ENDBRANCH  13  15
ENDBRANCH  12  13
BRANCH  12  17
ATOM     17  C   UNL     1      14.328  -8.766  20.616  1.00  0.00    -0.006 C 
ATOM     18  C   UNL     1      13.670  -7.567  21.327  1.00  0.00     0.008 C 
ATOM     19  C   UNL     1      13.249  -9.836  20.362  1.00  0.00     0.008 C 
ENDBRANCH  12  17
ENDBRANCH  11  12
ENDBRANCH   1  11
TORSDOF 1
ENDMDL
MODEL 5
REMARK VINA RESULT:    -3.344     12.188     14.761
REMARK INTER + INTRA:          -5.126
REMARK INTER:                  -4.951
REMARK INTRA:                  -0.175
REMARK UNBOUND:                -0.023
REMARK SMILES CC1=CCC[C@H](C)C(=O)C[C@@H](C(C)C)C(=O)C1
REMARK SMILES IDX 8 1 9 2 6 3 7 4 5 5 4 6 3 7 2 8 1 9 10 11 11 12 15 13 16 14
REMARK SMILES IDX 17 15 12 17 13 18 14 19
REMARK H PARENT
REMARK Flexibility Score: 70.00
ROOT
ATOM      1  C   UNL     1      14.531  -6.598  20.946  1.00  0.00     0.136 C 
ATOM      2  O   UNL     1      13.988  -5.879  21.775  1.00  0.00    -0.299 OA
ENDROOT
BRANCH   1   3
ATOM      3  C   UNL     1      14.135  -8.059  20.857  1.00  0.00     0.053 C 
ATOM      4  C   UNL     1      13.160  -8.277  19.692  1.00  0.00     0.016 C 
BRANCH   3   5
ATOM      5  C   UNL     1      15.389  -8.951  20.702  1.00  0.00     0.015 C 
BRANCH   5   6
ATOM      6  C   UNL     1      15.421  -9.651  19.330  1.00  0.00     0.028 C 
BRANCH   6   7
ATOM      7  C   UNL     1      16.590  -9.232  18.470  1.00  0.00    -0.028 C 
ATOM      8  C   UNL     1      16.604  -8.180  17.614  1.00  0.00    -0.070 CG0
ATOM      9  C   UNL     1      17.906  -7.862  16.921  1.00  0.00     0.039 C 
ATOM     10  G   UNL     1      15.376  -7.344  17.278  1.00  0.00     0.000 G0
ENDBRANCH   6   7
ENDBRANCH   5   6
ENDBRANCH   3   5
ENDBRANCH   1   3
BRANCH   1  11
ATOM     11  C   UNL     1      15.599  -6.006  20.053  1.00  0.00     0.087 C 
BRANCH  11  12
ATOM     12  C   UNL     1      14.990  -5.257  18.836  1.00  0.00     0.066 C 
BRANCH  12  13
ATOM     13  C   UNL     1      15.543  -5.851  17.549  1.00  0.00     0.140 C 
ATOM     14  O   UNL     1      16.091  -5.127  16.728  1.00  0.00    -0.299 OA
BRANCH  13  15
ATOM     15  C   UNL     1      15.375  -7.322  17.260  1.00  0.00     0.106 CG0
ATOM     16  G   UNL     1      16.589  -8.168  17.622  1.00  0.00     0.000 G0
ENDBRANCH  13  15
ENDBRANCH  12  13
BRANCH  12  17
ATOM     17  C   UNL     1      15.217  -3.710  18.890  1.00  0.00    -0.006 C 
ATOM     18  C   UNL     1      13.875  -2.953  18.846  1.00  0.00     0.008 C 
ATOM     19  C   UNL     1      15.988  -3.268  20.148  1.00  0.00     0.008 C 
ENDBRANCH  12  17
ENDBRANCH  11  12
ENDBRANCH   1  11
TORSDOF 1
ENDMDL
MODEL 6
REMARK VINA RESULT:    -3.308     12.502     15.131
REMARK INTER + INTRA:          -5.071
REMARK INTER:                  -5.417
REMARK INTRA:                   0.346
REMARK UNBOUND:                -0.023
REMARK SMILES CC1=CCC[C@H](C)C(=O)C[C@@H](C(C)C)C(=O)C1
REMARK SMILES IDX 8 1 9 2 6 3 7 4 5 5 4 6 3 7 2 8 1 9 10 11 11 12 15 13 16 14
REMARK SMILES IDX 17 15 12 17 13 18 14 19
REMARK H PARENT
REMARK Flexibility Score: 70.00
ROOT
ATOM      1  C   UNL     1      16.859  -8.901  17.875  1.00  0.00     0.136 C 
ATOM      2  O   UNL     1      17.467  -9.643  17.114  1.00  0.00    -0.299 OA
ENDROOT
BRANCH   1   3
ATOM      3  C   UNL     1      17.400  -7.510  18.145  1.00  0.00     0.053 C 
ATOM      4  C   UNL     1      18.740  -7.594  18.888  1.00  0.00     0.016 C 
BRANCH   3   5
ATOM      5  C   UNL     1      17.550  -6.721  16.823  1.00  0.00     0.015 C 
BRANCH   5   6
ATOM      6  C   UNL     1      16.211  -6.102  16.377  1.00  0.00     0.028 C 
BRANCH   6   7
ATOM      7  C   UNL     1      15.693  -5.049  17.327  1.00  0.00    -0.028 C 
ATOM      8  C   UNL     1      14.557  -5.139  18.063  1.00  0.00    -0.070 CG0
ATOM      9  C   UNL     1      14.265  -4.022  19.035  1.00  0.00     0.039 C 
ATOM     10  G   UNL     1      13.545  -6.269  17.926  1.00  0.00     0.000 G0
ENDBRANCH   6   7
ENDBRANCH   5   6
ENDBRANCH   3   5
ENDBRANCH   1   3
BRANCH   1  11
ATOM     11  C   UNL     1      15.599  -9.408  18.539  1.00  0.00     0.087 C 
BRANCH  11  12
ATOM     12  C   UNL     1      14.321  -8.785  17.914  1.00  0.00     0.066 C 
BRANCH  12  13
ATOM     13  C   UNL     1      13.946  -7.525  18.681  1.00  0.00     0.140 C 
ATOM     14  O   UNL     1      13.934  -7.535  19.905  1.00  0.00    -0.299 OA
BRANCH  13  15
ATOM     15  C   UNL     1      13.544  -6.277  17.936  1.00  0.00     0.106 CG0
ATOM     16  G   UNL     1      14.542  -5.132  18.057  1.00  0.00     0.000 G0
ENDBRANCH  13  15
ENDBRANCH  12  13
BRANCH  12  17
ATOM     17  C   UNL     1      13.119  -9.785  17.846  1.00  0.00    -0.006 C 
ATOM     18  C   UNL     1      12.274  -9.722  19.134  1.00  0.00     0.008 C 
ATOM     19  C   UNL     1      12.196  -9.519  16.641  1.00  0.00     0.008 C 
ENDBRANCH  12  17
ENDBRANCH  11  12
ENDBRANCH   1  11
TORSDOF 1
ENDMDL
MODEL 7
REMARK VINA RESULT:    -3.294     12.629     15.157
REMARK INTER + INTRA:          -5.050
REMARK INTER:                  -4.910
REMARK INTRA:                  -0.140
REMARK UNBOUND:                -0.023
REMARK SMILES CC1=CCC[C@H](C)C(=O)C[C@@H](C(C)C)C(=O)C1
REMARK SMILES IDX 8 1 9 2 6 3 7 4 5 5 4 6 3 7 2 8 1 9 10 11 11 12 15 13 16 14
REMARK SMILES IDX 17 15 12 17 13 18 14 19
REMARK H PARENT
REMARK Flexibility Score: 70.00
ROOT
ATOM      1  C   UNL     1      14.951  -9.022  20.428  1.00  0.00     0.136 C 
ATOM      2  O   UNL     1      14.468 -10.106  20.725  1.00  0.00    -0.299 OA
ENDROOT
BRANCH   1   3
ATOM      3  C   UNL     1      16.454  -8.833  20.507  1.00  0.00     0.053 C 
ATOM      4  C   UNL     1      17.092  -9.967  21.321  1.00  0.00     0.016 C 
BRANCH   3   5
ATOM      5  C   UNL     1      17.065  -8.760  19.088  1.00  0.00     0.015 C 
BRANCH   5   6
ATOM      6  C   UNL     1      17.874  -7.465  18.884  1.00  0.00     0.028 C 
BRANCH   6   7
ATOM      7  C   UNL     1      17.576  -6.771  17.577  1.00  0.00    -0.028 C 
ATOM      8  C   UNL     1      16.531  -5.937  17.346  1.00  0.00    -0.070 CG0
ATOM      9  C   UNL     1      16.465  -5.258  15.999  1.00  0.00     0.039 C 
ATOM     10  G   UNL     1      15.404  -5.693  18.341  1.00  0.00     0.000 G0
ENDBRANCH   6   7
ENDBRANCH   5   6
ENDBRANCH   3   5
ENDBRANCH   1   3
BRANCH   1  11
ATOM     11  C   UNL     1      14.028  -7.897  20.016  1.00  0.00     0.087 C 
BRANCH  11  12
ATOM     12  C   UNL     1      13.882  -7.801  18.473  1.00  0.00     0.066 C 
BRANCH  12  13
ATOM     13  C   UNL     1      14.100  -6.360  18.033  1.00  0.00     0.140 C 
ATOM     14  O   UNL     1      13.229  -5.775  17.401  1.00  0.00    -0.299 OA
BRANCH  13  15
ATOM     15  C   UNL     1      15.405  -5.666  18.334  1.00  0.00     0.106 CG0
ATOM     16  G   UNL     1      16.506  -5.947  17.320  1.00  0.00     0.000 G0
ENDBRANCH  13  15
ENDBRANCH  12  13
BRANCH  12  17
ATOM     17  C   UNL     1      12.515  -8.352  17.948  1.00  0.00    -0.006 C 
ATOM     18  C   UNL     1      12.732  -9.452  16.891  1.00  0.00     0.008 C 
ATOM     19  C   UNL     1      11.636  -8.924  19.077  1.00  0.00     0.008 C 
ENDBRANCH  12  17
ENDBRANCH  11  12
ENDBRANCH   1  11
TORSDOF 1
ENDMDL
MODEL 8
REMARK VINA RESULT:    -3.281     12.575     15.306
REMARK INTER + INTRA:          -5.030
REMARK INTER:                  -4.745
REMARK INTRA:                  -0.284
REMARK UNBOUND:                -0.023
REMARK SMILES CC1=CCC[C@H](C)C(=O)C[C@@H](C(C)C)C(=O)C1
REMARK SMILES IDX 8 1 9 2 6 3 7 4 5 5 4 6 3 7 2 8 1 9 10 11 11 12 15 13 16 14
REMARK SMILES IDX 17 15 12 17 13 18 14 19
REMARK H PARENT
REMARK Flexibility Score: 70.00
ROOT
ATOM      1  C   UNL     1      14.179  -8.875  17.937  1.00  0.00     0.136 C 
ATOM      2  O   UNL     1      14.153 -10.097  17.863  1.00  0.00    -0.299 OA
ENDROOT
BRANCH   1   3
ATOM      3  C   UNL     1      13.179  -8.164  18.828  1.00  0.00     0.053 C 
ATOM      4  C   UNL     1      11.751  -8.390  18.313  1.00  0.00     0.016 C 
BRANCH   3   5
ATOM      5  C   UNL     1      13.321  -8.644  20.292  1.00  0.00     0.015 C 
BRANCH   5   6
ATOM      6  C   UNL     1      14.321  -7.775  21.079  1.00  0.00     0.028 C 
BRANCH   6   7
ATOM      7  C   UNL     1      14.037  -6.295  20.979  1.00  0.00    -0.028 C 
ATOM      8  C   UNL     1      14.816  -5.383  20.345  1.00  0.00    -0.070 CG0
ATOM      9  C   UNL     1      14.306  -3.965  20.267  1.00  0.00     0.039 C 
ATOM     10  G   UNL     1      16.188  -5.698  19.763  1.00  0.00     0.000 G0
ENDBRANCH   6   7
ENDBRANCH   5   6
ENDBRANCH   3   5
ENDBRANCH   1   3
BRANCH   1  11
ATOM     11  C   UNL     1      15.197  -8.115  17.117  1.00  0.00     0.087 C 
BRANCH  11  12
ATOM     12  C   UNL     1      16.380  -7.604  17.985  1.00  0.00     0.066 C 
BRANCH  12  13
ATOM     13  C   UNL     1      16.165  -6.135  18.318  1.00  0.00     0.140 C 
ATOM     14  O   UNL     1      15.999  -5.322  17.418  1.00  0.00    -0.299 OA
BRANCH  13  15
ATOM     15  C   UNL     1      16.203  -5.671  19.753  1.00  0.00     0.106 CG0
ATOM     16  G   UNL     1      14.831  -5.387  20.351  1.00  0.00     0.000 G0
ENDBRANCH  13  15
ENDBRANCH  12  13
BRANCH  12  17
ATOM     17  C   UNL     1      17.776  -7.835  17.318  1.00  0.00    -0.006 C 
ATOM     18  C   UNL     1      18.916  -7.613  18.333  1.00  0.00     0.008 C 
ATOM     19  C   UNL     1      17.921  -9.248  16.722  1.00  0.00     0.008 C 
ENDBRANCH  12  17
ENDBRANCH  11  12
ENDBRANCH   1  11
TORSDOF 1
ENDMDL
MODEL 9
REMARK VINA RESULT:    -3.202     11.576     14.501
REMARK INTER + INTRA:          -4.910
REMARK INTER:                  -4.853
REMARK INTRA:                  -0.057
REMARK UNBOUND:                -0.023
REMARK SMILES CC1=CCC[C@H](C)C(=O)C[C@@H](C(C)C)C(=O)C1
REMARK SMILES IDX 8 1 9 2 6 3 7 4 5 5 4 6 3 7 2 8 1 9 10 11 11 12 15 13 16 14
REMARK SMILES IDX 17 15 12 17 13 18 14 19
REMARK H PARENT
REMARK Flexibility Score: 70.00
ROOT
ATOM      1  C   UNL     1      14.468  -8.418  20.430  1.00  0.00     0.136 C 
ATOM      2  O   UNL     1      13.365  -8.948  20.468  1.00  0.00    -0.299 OA
ENDROOT
BRANCH   1   3
ATOM      3  C   UNL     1      15.605  -9.012  21.239  1.00  0.00     0.053 C 
ATOM      4  C   UNL     1      15.053  -9.908  22.355  1.00  0.00     0.016 C 
BRANCH   3   5
ATOM      5  C   UNL     1      16.567  -9.802  20.321  1.00  0.00     0.015 C 
BRANCH   5   6
ATOM      6  C   UNL     1      18.002  -9.245  20.391  1.00  0.00     0.028 C 
BRANCH   6   7
ATOM      7  C   UNL     1      18.622  -9.013  19.034  1.00  0.00    -0.028 C 
ATOM      8  C   UNL     1      18.447  -7.909  18.264  1.00  0.00    -0.070 CG0
ATOM      9  C   UNL     1      19.238  -7.821  16.982  1.00  0.00     0.039 C 
ATOM     10  G   UNL     1      17.466  -6.792  18.593  1.00  0.00     0.000 G0
ENDBRANCH   6   7
ENDBRANCH   5   6
ENDBRANCH   3   5
ENDBRANCH   1   3
BRANCH   1  11
ATOM     11  C   UNL     1      14.652  -7.172  19.593  1.00  0.00     0.087 C 
BRANCH  11  12
ATOM     12  C   UNL     1      14.995  -7.508  18.116  1.00  0.00     0.066 C 
BRANCH  12  13
ATOM     13  C   UNL     1      16.251  -6.753  17.704  1.00  0.00     0.140 C 
ATOM     14  O   UNL     1      16.284  -6.160  16.634  1.00  0.00    -0.299 OA
BRANCH  13  15
ATOM     15  C   UNL     1      17.471  -6.773  18.591  1.00  0.00     0.106 CG0
ATOM     16  G   UNL     1      18.454  -7.891  18.270  1.00  0.00     0.000 G0
ENDBRANCH  13  15
ENDBRANCH  12  13
BRANCH  12  17
ATOM     17  C   UNL     1      13.814  -7.224  17.129  1.00  0.00    -0.006 C 
ATOM     18  C   UNL     1      12.760  -8.347  17.192  1.00  0.00     0.008 C 
ATOM     19  C   UNL     1      13.116  -5.881  17.413  1.00  0.00     0.008 C 
ENDBRANCH  12  17
ENDBRANCH  11  12
ENDBRANCH   1  11
TORSDOF 1
ENDMDL
