MODEL 1
REMARK VINA RESULT:    27.117      0.000      0.000
REMARK INTER + INTRA:          31.918
REMARK INTER:                  31.873
REMARK INTRA:                   0.045
REMARK UNBOUND:                 0.045
REMARK SMILES O=c1c(O)c(-c2ccc(O)cc2)oc2cc(O)cc(O)c12
REMARK SMILES IDX 5 1 3 2 2 3 1 4 21 5 19 6 18 7 16 8 15 9 14 10 13 11 6 12
REMARK SMILES IDX 7 13 8 14 9 15 12 16 11 17 10 18 4 20 20 22 17 24
REMARK H PARENT 10 19 4 21 20 23 17 25
REMARK Flexibility Score: inf
ROOT
ATOM      1  C   UNL     1      17.450  41.095  10.607  1.00  0.00     0.180 A 
ATOM      2  C   UNL     1      18.387  40.120  10.220  1.00  0.00     0.208 A 
ATOM      3  C   UNL     1      19.751  40.360  10.450  1.00  0.00     0.238 A 
ATOM      4  O   UNL     1      20.580  39.461  10.151  1.00  0.00    -0.285 OA
ATOM      5  C   UNL     1      20.162  41.575  11.047  1.00  0.00     0.111 A 
ATOM      6  C   UNL     1      21.522  41.940  11.290  1.00  0.00     0.134 A 
ATOM      7  C   UNL     1      21.805  43.110  12.005  1.00  0.00     0.093 A 
ATOM      8  C   UNL     1      20.784  43.961  12.429  1.00  0.00     0.123 A 
ATOM      9  C   UNL     1      19.456  43.644  12.145  1.00  0.00     0.094 A 
ATOM     10  C   UNL     1      19.139  42.465  11.465  1.00  0.00     0.146 A 
ATOM     11  O   UNL     1      17.862  42.196  11.224  1.00  0.00    -0.452 OA
ENDROOT
BRANCH   1  12
ATOM     12  C   UNL     1      15.997  40.925  10.374  1.00  0.00     0.021 A 
ATOM     13  C   UNL     1      15.232  41.929   9.751  1.00  0.00     0.016 A 
ATOM     14  C   UNL     1      13.857  41.756   9.566  1.00  0.00     0.047 A 
ATOM     15  C   UNL     1      13.228  40.587  10.011  1.00  0.00     0.115 A 
ATOM     16  C   UNL     1      15.353  39.765  10.837  1.00  0.00     0.016 A 
ATOM     17  C   UNL     1      13.977  39.595  10.649  1.00  0.00     0.047 A 
BRANCH  15  18
ATOM     18  O   UNL     1      11.858  40.404   9.830  1.00  0.00    -0.508 OA
ATOM     19  H   UNL     1      11.235  40.257  10.616  1.00  0.00     0.293 HD
ENDBRANCH  15  18
ENDBRANCH   1  12
BRANCH   2  20
ATOM     20  O   UNL     1      17.957  38.918   9.652  1.00  0.00    -0.502 OA
ATOM     21  H   UNL     1      17.857  38.795   8.652  1.00  0.00     0.293 HD
ENDBRANCH   2  20
BRANCH   6  22
ATOM     22  O   UNL     1      22.619  41.208  10.830  1.00  0.00    -0.507 OA
ATOM     23  H   UNL     1      23.083  40.478  11.349  1.00  0.00     0.293 HD
ENDBRANCH   6  22
BRANCH   8  24
ATOM     24  O   UNL     1      21.105  45.125  13.125  1.00  0.00    -0.508 OA
ATOM     25  H   UNL     1      21.811  45.130  13.852  1.00  0.00     0.293 HD
ENDBRANCH   8  24
TORSDOF 5
ENDMDL
