MODEL 1
REMARK VINA RESULT:    -3.858      0.000      0.000
REMARK INTER + INTRA:          -4.872
REMARK INTER:                  -4.760
REMARK INTRA:                  -0.112
REMARK UNBOUND:                -0.112
REMARK SMILES CCCCCC(=O)[O-]
REMARK SMILES IDX 4 1 5 2 6 3 7 4 8 5 3 6 2 7 1 8
REMARK H PARENT
REMARK Flexibility Score: inf
ROOT
ATOM      1  C   UNL     1     -10.550 -18.146  31.204  1.00  0.00     0.006 C 
ENDROOT
BRANCH   1   2
ATOM      2  C   UNL     1     -10.417 -19.548  31.805  1.00  0.00     0.053 C 
BRANCH   2   3
ATOM      3  C   UNL     1     -11.751 -20.055  32.255  1.00  0.00     0.041 C 
ATOM      4  O   UNL     1     -12.584 -20.480  31.412  1.00  0.00    -0.550 OA
ATOM      5  O   UNL     1     -12.056 -20.104  33.610  1.00  0.00    -0.550 OA
ENDBRANCH   2   3
ENDBRANCH   1   2
BRANCH   1   6
ATOM      6  C   UNL     1     -10.685 -18.215  29.675  1.00  0.00     0.000 C 
BRANCH   6   7
ATOM      7  C   UNL     1      -9.586 -19.069  29.024  1.00  0.00    -0.003 C 
ATOM      8  C   UNL     1      -9.669 -19.074  27.497  1.00  0.00     0.004 C 
ENDBRANCH   6   7
ENDBRANCH   1   6
TORSDOF 4
ENDMDL
MODEL 2
REMARK VINA RESULT:    -3.840      2.380      3.978
REMARK INTER + INTRA:          -4.850
REMARK INTER:                  -4.636
REMARK INTRA:                  -0.214
REMARK UNBOUND:                -0.112
REMARK SMILES CCCCCC(=O)[O-]
REMARK SMILES IDX 4 1 5 2 6 3 7 4 8 5 3 6 2 7 1 8
REMARK H PARENT
REMARK Flexibility Score: inf
ROOT
ATOM      1  C   UNL     1     -10.761 -18.249  30.198  1.00  0.00     0.006 C 
ENDROOT
BRANCH   1   2
ATOM      2  C   UNL     1      -9.475 -18.674  29.482  1.00  0.00     0.053 C 
BRANCH   2   3
ATOM      3  C   UNL     1      -9.786 -19.618  28.363  1.00  0.00     0.041 C 
ATOM      4  O   UNL     1      -9.601 -19.266  27.168  1.00  0.00    -0.550 OA
ATOM      5  O   UNL     1     -10.232 -20.903  28.641  1.00  0.00    -0.550 OA
ENDBRANCH   2   3
ENDBRANCH   1   2
BRANCH   1   6
ATOM      6  C   UNL     1     -10.613 -18.389  31.721  1.00  0.00     0.000 C 
BRANCH   6   7
ATOM      7  C   UNL     1     -11.028 -19.778  32.229  1.00  0.00    -0.003 C 
ATOM      8  C   UNL     1     -12.319 -20.282  31.582  1.00  0.00     0.004 C 
ENDBRANCH   6   7
ENDBRANCH   1   6
TORSDOF 4
ENDMDL
MODEL 3
REMARK VINA RESULT:    -3.837      1.266      1.422
REMARK INTER + INTRA:          -4.846
REMARK INTER:                  -4.698
REMARK INTRA:                  -0.148
REMARK UNBOUND:                -0.112
REMARK SMILES CCCCCC(=O)[O-]
REMARK SMILES IDX 4 1 5 2 6 3 7 4 8 5 3 6 2 7 1 8
REMARK H PARENT
REMARK Flexibility Score: inf
ROOT
ATOM      1  C   UNL     1     -10.682 -18.214  31.194  1.00  0.00     0.006 C 
ENDROOT
BRANCH   1   2
ATOM      2  C   UNL     1     -11.384 -19.457  31.749  1.00  0.00     0.053 C 
BRANCH   2   3
ATOM      3  C   UNL     1     -10.483 -20.191  32.691  1.00  0.00     0.041 C 
ATOM      4  O   UNL     1      -9.284 -20.414  32.378  1.00  0.00    -0.550 OA
ATOM      5  O   UNL     1     -10.953 -20.585  33.938  1.00  0.00    -0.550 OA
ENDBRANCH   2   3
ENDBRANCH   1   2
BRANCH   1   6
ATOM      6  C   UNL     1     -10.721 -18.202  29.658  1.00  0.00     0.000 C 
BRANCH   6   7
ATOM      7  C   UNL     1      -9.596 -19.041  29.032  1.00  0.00    -0.003 C 
ATOM      8  C   UNL     1      -9.684 -19.102  27.507  1.00  0.00     0.004 C 
ENDBRANCH   6   7
ENDBRANCH   1   6
TORSDOF 4
ENDMDL
MODEL 4
REMARK VINA RESULT:    -3.808      1.739      2.044
REMARK INTER + INTRA:          -4.810
REMARK INTER:                  -4.664
REMARK INTRA:                  -0.146
REMARK UNBOUND:                -0.112
REMARK SMILES CCCCCC(=O)[O-]
REMARK SMILES IDX 4 1 5 2 6 3 7 4 8 5 3 6 2 7 1 8
REMARK H PARENT
REMARK Flexibility Score: inf
ROOT
ATOM      1  C   UNL     1     -10.639 -18.250  31.152  1.00  0.00     0.006 C 
ENDROOT
BRANCH   1   2
ATOM      2  C   UNL     1     -10.778 -19.680  31.682  1.00  0.00     0.053 C 
BRANCH   2   3
ATOM      3  C   UNL     1      -9.576 -20.060  32.488  1.00  0.00     0.041 C 
ATOM      4  O   UNL     1      -9.646 -20.997  33.326  1.00  0.00    -0.550 OA
ATOM      5  O   UNL     1      -8.365 -19.413  32.278  1.00  0.00    -0.550 OA
ENDBRANCH   2   3
ENDBRANCH   1   2
BRANCH   1   6
ATOM      6  C   UNL     1     -10.719 -18.223  29.618  1.00  0.00     0.000 C 
BRANCH   6   7
ATOM      7  C   UNL     1      -9.583 -19.015  28.953  1.00  0.00    -0.003 C 
ATOM      8  C   UNL     1      -9.721 -19.082  27.432  1.00  0.00     0.004 C 
ENDBRANCH   6   7
ENDBRANCH   1   6
TORSDOF 4
ENDMDL
MODEL 5
REMARK VINA RESULT:    -3.679     18.126     19.289
REMARK INTER + INTRA:          -4.651
REMARK INTER:                  -4.549
REMARK INTRA:                  -0.103
REMARK UNBOUND:                -0.112
REMARK SMILES CCCCCC(=O)[O-]
REMARK SMILES IDX 4 1 5 2 6 3 7 4 8 5 3 6 2 7 1 8
REMARK H PARENT
REMARK Flexibility Score: inf
ROOT
ATOM      1  C   UNL     1      -1.495 -34.417  22.230  1.00  0.00     0.006 C 
ENDROOT
BRANCH   1   2
ATOM      2  C   UNL     1      -2.492 -34.119  23.354  1.00  0.00     0.053 C 
BRANCH   2   3
ATOM      3  C   UNL     1      -2.300 -32.728  23.870  1.00  0.00     0.041 C 
ATOM      4  O   UNL     1      -1.177 -32.364  24.306  1.00  0.00    -0.550 OA
ATOM      5  O   UNL     1      -3.348 -31.817  23.822  1.00  0.00    -0.550 OA
ENDBRANCH   2   3
ENDBRANCH   1   2
BRANCH   1   6
ATOM      6  C   UNL     1      -1.880 -35.702  21.480  1.00  0.00     0.000 C 
BRANCH   6   7
ATOM      7  C   UNL     1      -3.257 -36.240  21.900  1.00  0.00    -0.003 C 
ATOM      8  C   UNL     1      -3.670 -37.484  21.113  1.00  0.00     0.004 C 
ENDBRANCH   6   7
ENDBRANCH   1   6
TORSDOF 4
ENDMDL
MODEL 6
REMARK VINA RESULT:    -3.657      3.411      3.835
REMARK INTER + INTRA:          -4.624
REMARK INTER:                  -4.521
REMARK INTRA:                  -0.102
REMARK UNBOUND:                -0.112
REMARK SMILES CCCCCC(=O)[O-]
REMARK SMILES IDX 4 1 5 2 6 3 7 4 8 5 3 6 2 7 1 8
REMARK H PARENT
REMARK Flexibility Score: inf
ROOT
ATOM      1  C   UNL     1      -8.132 -18.643  30.526  1.00  0.00     0.006 C 
ENDROOT
BRANCH   1   2
ATOM      2  C   UNL     1      -7.542 -18.033  31.801  1.00  0.00     0.053 C 
BRANCH   2   3
ATOM      3  C   UNL     1      -6.859 -19.084  32.618  1.00  0.00     0.041 C 
ATOM      4  O   UNL     1      -5.606 -19.205  32.574  1.00  0.00    -0.550 OA
ATOM      5  O   UNL     1      -7.600 -19.897  33.465  1.00  0.00    -0.550 OA
ENDBRANCH   2   3
ENDBRANCH   1   2
BRANCH   1   6
ATOM      6  C   UNL     1      -9.654 -18.818  30.655  1.00  0.00     0.000 C 
BRANCH   6   7
ATOM      7  C   UNL     1     -10.402 -18.449  29.365  1.00  0.00    -0.003 C 
ATOM      8  C   UNL     1      -9.737 -19.020  28.112  1.00  0.00     0.004 C 
ENDBRANCH   6   7
ENDBRANCH   1   6
TORSDOF 4
ENDMDL
MODEL 7
REMARK VINA RESULT:    -3.639     20.861     21.969
REMARK INTER + INTRA:          -4.601
REMARK INTER:                  -4.523
REMARK INTRA:                  -0.079
REMARK UNBOUND:                -0.112
REMARK SMILES CCCCCC(=O)[O-]
REMARK SMILES IDX 4 1 5 2 6 3 7 4 8 5 3 6 2 7 1 8
REMARK H PARENT
REMARK Flexibility Score: inf
ROOT
ATOM      1  C   UNL     1      -3.421 -36.803  20.697  1.00  0.00     0.006 C 
ENDROOT
BRANCH   1   2
ATOM      2  C   UNL     1      -2.057 -36.969  21.373  1.00  0.00     0.053 C 
BRANCH   2   3
ATOM      3  C   UNL     1      -1.376 -35.645  21.512  1.00  0.00     0.041 C 
ATOM      4  O   UNL     1      -1.898 -34.733  22.206  1.00  0.00    -0.550 OA
ATOM      5  O   UNL     1      -0.139 -35.433  20.916  1.00  0.00    -0.550 OA
ENDBRANCH   2   3
ENDBRANCH   1   2
BRANCH   1   6
ATOM      6  C   UNL     1      -3.887 -38.125  20.067  1.00  0.00     0.000 C 
BRANCH   6   7
ATOM      7  C   UNL     1      -3.993 -38.044  18.537  1.00  0.00    -0.003 C 
ATOM      8  C   UNL     1      -4.695 -36.773  18.059  1.00  0.00     0.004 C 
ENDBRANCH   6   7
ENDBRANCH   1   6
TORSDOF 4
ENDMDL
MODEL 8
REMARK VINA RESULT:    -3.626      2.920      4.249
REMARK INTER + INTRA:          -4.586
REMARK INTER:                  -4.448
REMARK INTRA:                  -0.137
REMARK UNBOUND:                -0.112
REMARK SMILES CCCCCC(=O)[O-]
REMARK SMILES IDX 4 1 5 2 6 3 7 4 8 5 3 6 2 7 1 8
REMARK H PARENT
REMARK Flexibility Score: inf
ROOT
ATOM      1  C   UNL     1      -9.600 -18.833  30.752  1.00  0.00     0.006 C 
ENDROOT
BRANCH   1   2
ATOM      2  C   UNL     1     -10.364 -18.475  29.473  1.00  0.00     0.053 C 
BRANCH   2   3
ATOM      3  C   UNL     1     -10.010 -19.420  28.368  1.00  0.00     0.041 C 
ATOM      4  O   UNL     1     -10.127 -20.662  28.536  1.00  0.00    -0.550 OA
ATOM      5  O   UNL     1      -9.597 -18.927  27.137  1.00  0.00    -0.550 OA
ENDBRANCH   2   3
ENDBRANCH   1   2
BRANCH   1   6
ATOM      6  C   UNL     1      -8.088 -18.634  30.562  1.00  0.00     0.000 C 
BRANCH   6   7
ATOM      7  C   UNL     1      -7.306 -18.765  31.877  1.00  0.00    -0.003 C 
ATOM      8  C   UNL     1      -8.171 -19.273  33.031  1.00  0.00     0.004 C 
ENDBRANCH   6   7
ENDBRANCH   1   6
TORSDOF 4
ENDMDL
MODEL 9
REMARK VINA RESULT:    -3.513      2.027      2.495
REMARK INTER + INTRA:          -4.446
REMARK INTER:                  -4.213
REMARK INTRA:                  -0.233
REMARK UNBOUND:                -0.112
REMARK SMILES CCCCCC(=O)[O-]
REMARK SMILES IDX 4 1 5 2 6 3 7 4 8 5 3 6 2 7 1 8
REMARK H PARENT
REMARK Flexibility Score: inf
ROOT
ATOM      1  C   UNL     1      -8.699 -18.302  31.714  1.00  0.00     0.006 C 
ENDROOT
BRANCH   1   2
ATOM      2  C   UNL     1      -8.190 -19.293  32.766  1.00  0.00     0.053 C 
BRANCH   2   3
ATOM      3  C   UNL     1      -9.220 -20.344  33.038  1.00  0.00     0.041 C 
ATOM      4  O   UNL     1     -10.432 -20.126  32.776  1.00  0.00    -0.550 OA
ATOM      5  O   UNL     1      -8.835 -21.583  33.534  1.00  0.00    -0.550 OA
ENDBRANCH   2   3
ENDBRANCH   1   2
BRANCH   1   6
ATOM      6  C   UNL     1      -8.244 -18.715  30.306  1.00  0.00     0.000 C 
BRANCH   6   7
ATOM      7  C   UNL     1      -9.421 -18.930  29.344  1.00  0.00    -0.003 C 
ATOM      8  C   UNL     1     -10.697 -18.223  29.804  1.00  0.00     0.004 C 
ENDBRANCH   6   7
ENDBRANCH   1   6
TORSDOF 4
ENDMDL
