MODEL 1
REMARK VINA RESULT:    -4.606      0.000      0.000
REMARK INTER + INTRA:          -6.021
REMARK INTER:                  -6.491
REMARK INTRA:                   0.470
REMARK UNBOUND:                 0.470
REMARK SMILES CC1=CCC(=C(C)C)C(=O)CC(C)=CCC1
REMARK SMILES IDX 12 1 14 2 13 3 15 4 16 5 2 6 1 7 3 8 11 10 9 11 10 12 5 13
REMARK SMILES IDX 6 14 7 15 8 16 4 17
REMARK H PARENT
REMARK Flexibility Score: 60.00
ROOT
ATOM      1  C   UNL     1     109.009  40.518 137.197  1.00  0.00    -0.070 C 
ATOM      2  C   UNL     1     108.812  40.369 135.866  1.00  0.00    -0.027 C 
ATOM      3  C   UNL     1     108.689  39.351 138.095  1.00  0.00     0.039 C 
ENDROOT
BRANCH   2   4
ATOM      4  C   UNL     1     108.939  41.472 134.846  1.00  0.00     0.032 C 
BRANCH   4   5
ATOM      5  C   UNL     1     107.589  41.698 134.154  1.00  0.00     0.034 C 
BRANCH   5   6
ATOM      6  C   UNL     1     106.455  41.883 135.142  1.00  0.00    -0.077 C 
ATOM      7  C   UNL     1     105.344  40.863 135.167  1.00  0.00     0.039 C 
ATOM      8  C   UNL     1     106.415  42.881 136.060  1.00  0.00    -0.023 CG0
ATOM      9  G   UNL     1     107.375  44.049 136.195  1.00  0.00     0.000 G0
ENDBRANCH   5   6
ENDBRANCH   4   5
ENDBRANCH   2   4
BRANCH   1  10
ATOM     10  C   UNL     1     109.549  41.788 137.823  1.00  0.00     0.111 C 
BRANCH  10  11
ATOM     11  C   UNL     1     108.447  42.759 138.171  1.00  0.00     0.163 C 
ATOM     12  O   UNL     1     107.688  42.446 139.129  1.00  0.00    -0.294 OA
BRANCH  11  13
ATOM     13  C   UNL     1     108.228  44.062 137.460  1.00  0.00    -0.002 C 
ATOM     14  C   UNL     1     108.912  45.185 137.839  1.00  0.00    -0.069 C 
ATOM     15  C   UNL     1     108.897  46.450 137.012  1.00  0.00     0.039 C 
ATOM     16  C   UNL     1     109.682  45.239 139.139  1.00  0.00     0.039 C 
BRANCH  13  17
ATOM     17  C   UNL     1     107.367  44.050 136.201  1.00  0.00     0.066 CG0
ATOM     18  G   UNL     1     106.403  42.887 136.051  1.00  0.00     0.000 G0
ENDBRANCH  13  17
ENDBRANCH  11  13
ENDBRANCH  10  11
ENDBRANCH   1  10
TORSDOF 0
ENDMDL
MODEL 2
REMARK VINA RESULT:    -4.386      2.038      3.552
REMARK INTER + INTRA:          -5.711
REMARK INTER:                  -5.566
REMARK INTRA:                  -0.145
REMARK UNBOUND:                 0.470
REMARK SMILES CC1=CCC(=C(C)C)C(=O)CC(C)=CCC1
REMARK SMILES IDX 12 1 14 2 13 3 15 4 16 5 2 6 1 7 3 8 11 10 9 11 10 12 5 13
REMARK SMILES IDX 6 14 7 15 8 16 4 17
REMARK H PARENT
REMARK Flexibility Score: 60.00
ROOT
ATOM      1  C   UNL     1     108.770  41.177 135.512  1.00  0.00    -0.070 C 
ATOM      2  C   UNL     1     108.812  40.000 136.178  1.00  0.00    -0.027 C 
ATOM      3  C   UNL     1     108.368  41.156 134.060  1.00  0.00     0.039 C 
ENDROOT
BRANCH   2   4
ATOM      4  C   UNL     1     109.331  39.820 137.582  1.00  0.00     0.032 C 
BRANCH   4   5
ATOM      5  C   UNL     1     108.182  39.979 138.586  1.00  0.00     0.034 C 
BRANCH   5   6
ATOM      6  C   UNL     1     108.593  40.763 139.816  1.00  0.00    -0.077 C 
ATOM      7  C   UNL     1     109.533  40.118 140.804  1.00  0.00     0.039 C 
ATOM      8  C   UNL     1     108.219  42.046 140.048  1.00  0.00    -0.023 CG0
ATOM      9  G   UNL     1     107.244  42.883 139.240  1.00  0.00     0.000 G0
ENDBRANCH   5   6
ENDBRANCH   4   5
ENDBRANCH   2   4
BRANCH   1  10
ATOM     10  C   UNL     1     109.088  42.512 136.156  1.00  0.00     0.111 C 
BRANCH  10  11
ATOM     11  C   UNL     1     107.859  43.162 136.744  1.00  0.00     0.163 C 
ATOM     12  O   UNL     1     106.823  43.185 136.024  1.00  0.00    -0.294 OA
BRANCH  11  13
ATOM     13  C   UNL     1     107.804  43.751 138.122  1.00  0.00    -0.002 C 
ATOM     14  C   UNL     1     108.102  45.072 138.327  1.00  0.00    -0.069 C 
ATOM     15  C   UNL     1     107.838  45.757 139.648  1.00  0.00     0.039 C 
ATOM     16  C   UNL     1     108.765  45.906 137.255  1.00  0.00     0.039 C 
BRANCH  13  17
ATOM     17  C   UNL     1     107.233  42.889 139.243  1.00  0.00     0.066 CG0
ATOM     18  G   UNL     1     108.230  42.061 140.035  1.00  0.00     0.000 G0
ENDBRANCH  13  17
ENDBRANCH  11  13
ENDBRANCH  10  11
ENDBRANCH   1  10
TORSDOF 0
ENDMDL
MODEL 3
REMARK VINA RESULT:    -4.384      9.249     10.900
REMARK INTER + INTRA:          -5.708
REMARK INTER:                  -5.591
REMARK INTRA:                  -0.117
REMARK UNBOUND:                 0.470
REMARK SMILES CC1=CCC(=C(C)C)C(=O)CC(C)=CCC1
REMARK SMILES IDX 12 1 14 2 13 3 15 4 16 5 2 6 1 7 3 8 11 10 9 11 10 12 5 13
REMARK SMILES IDX 6 14 7 15 8 16 4 17
REMARK H PARENT
REMARK Flexibility Score: 60.00
ROOT
ATOM      1  C   UNL     1     101.081  47.032 131.642  1.00  0.00    -0.070 C 
ATOM      2  C   UNL     1     101.345  46.627 132.906  1.00  0.00    -0.027 C 
ATOM      3  C   UNL     1     100.257  46.126 130.765  1.00  0.00     0.039 C 
ENDROOT
BRANCH   2   4
ATOM      4  C   UNL     1     102.270  47.334 133.864  1.00  0.00     0.032 C 
BRANCH   4   5
ATOM      5  C   UNL     1     101.457  48.230 134.806  1.00  0.00     0.034 C 
BRANCH   5   6
ATOM      6  C   UNL     1     102.181  49.516 135.151  1.00  0.00    -0.077 C 
ATOM      7  C   UNL     1     103.292  49.469 136.171  1.00  0.00     0.039 C 
ATOM      8  C   UNL     1     101.936  50.702 134.540  1.00  0.00    -0.023 CG0
ATOM      9  G   UNL     1     100.844  51.014 133.534  1.00  0.00     0.000 G0
ENDBRANCH   5   6
ENDBRANCH   4   5
ENDBRANCH   2   4
BRANCH   1  10
ATOM     10  C   UNL     1     101.557  48.354 131.074  1.00  0.00     0.111 C 
BRANCH  10  11
ATOM     11  C   UNL     1     100.649  49.495 131.464  1.00  0.00     0.163 C 
ATOM     12  O   UNL     1      99.411  49.331 131.285  1.00  0.00    -0.294 OA
BRANCH  11  13
ATOM     13  C   UNL     1     101.135  50.782 132.062  1.00  0.00    -0.002 C 
ATOM     14  C   UNL     1     101.680  51.756 131.269  1.00  0.00    -0.069 C 
ATOM     15  C   UNL     1     101.967  53.146 131.790  1.00  0.00     0.039 C 
ATOM     16  C   UNL     1     102.076  51.478 129.837  1.00  0.00     0.039 C 
BRANCH  13  17
ATOM     17  C   UNL     1     100.837  51.040 133.536  1.00  0.00     0.066 CG0
ATOM     18  G   UNL     1     101.942  50.701 134.519  1.00  0.00     0.000 G0
ENDBRANCH  13  17
ENDBRANCH  11  13
ENDBRANCH  10  11
ENDBRANCH   1  10
TORSDOF 0
ENDMDL
MODEL 4
REMARK VINA RESULT:    -4.297      2.132      4.580
REMARK INTER + INTRA:          -5.585
REMARK INTER:                  -5.484
REMARK INTRA:                  -0.101
REMARK UNBOUND:                 0.470
REMARK SMILES CC1=CCC(=C(C)C)C(=O)CC(C)=CCC1
REMARK SMILES IDX 12 1 14 2 13 3 15 4 16 5 2 6 1 7 3 8 11 10 9 11 10 12 5 13
REMARK SMILES IDX 6 14 7 15 8 16 4 17
REMARK H PARENT
REMARK Flexibility Score: 60.00
ROOT
ATOM      1  C   UNL     1     107.915  42.262 135.309  1.00  0.00    -0.070 C 
ATOM      2  C   UNL     1     107.938  43.614 135.283  1.00  0.00    -0.027 C 
ATOM      3  C   UNL     1     108.207  41.522 134.029  1.00  0.00     0.039 C 
ENDROOT
BRANCH   2   4
ATOM      4  C   UNL     1     107.529  44.508 136.425  1.00  0.00     0.032 C 
BRANCH   4   5
ATOM      5  C   UNL     1     108.732  44.769 137.339  1.00  0.00     0.034 C 
BRANCH   5   6
ATOM      6  C   UNL     1     108.367  44.715 138.809  1.00  0.00    -0.077 C 
ATOM      7  C   UNL     1     107.461  45.784 139.368  1.00  0.00     0.039 C 
ATOM      8  C   UNL     1     108.751  43.715 139.641  1.00  0.00    -0.023 CG0
ATOM      9  G   UNL     1     109.698  42.570 139.332  1.00  0.00     0.000 G0
ENDBRANCH   5   6
ENDBRANCH   4   5
ENDBRANCH   2   4
BRANCH   1  10
ATOM     10  C   UNL     1     107.628  41.457 136.562  1.00  0.00     0.111 C 
BRANCH  10  11
ATOM     11  C   UNL     1     108.890  41.128 137.322  1.00  0.00     0.163 C 
ATOM     12  O   UNL     1     109.877  40.723 136.648  1.00  0.00    -0.294 OA
BRANCH  11  13
ATOM     13  C   UNL     1     109.032  41.277 138.808  1.00  0.00    -0.002 C 
ATOM     14  C   UNL     1     108.736  40.234 139.644  1.00  0.00    -0.069 C 
ATOM     15  C   UNL     1     109.083  40.263 141.115  1.00  0.00     0.039 C 
ATOM     16  C   UNL     1     107.995  39.013 139.149  1.00  0.00     0.039 C 
BRANCH  13  17
ATOM     17  C   UNL     1     109.685  42.551 139.337  1.00  0.00     0.066 CG0
ATOM     18  G   UNL     1     108.756  43.711 139.644  1.00  0.00     0.000 G0
ENDBRANCH  13  17
ENDBRANCH  11  13
ENDBRANCH  10  11
ENDBRANCH   1  10
TORSDOF 0
ENDMDL
MODEL 5
REMARK VINA RESULT:    -4.126      1.701      3.508
REMARK INTER + INTRA:          -5.345
REMARK INTER:                  -5.276
REMARK INTRA:                  -0.069
REMARK UNBOUND:                 0.470
REMARK SMILES CC1=CCC(=C(C)C)C(=O)CC(C)=CCC1
REMARK SMILES IDX 12 1 14 2 13 3 15 4 16 5 2 6 1 7 3 8 11 10 9 11 10 12 5 13
REMARK SMILES IDX 6 14 7 15 8 16 4 17
REMARK H PARENT
REMARK Flexibility Score: 60.00
ROOT
ATOM      1  C   UNL     1     105.034  43.929 135.581  1.00  0.00    -0.070 C 
ATOM      2  C   UNL     1     104.920  42.646 135.167  1.00  0.00    -0.027 C 
ATOM      3  C   UNL     1     103.768  44.714 135.810  1.00  0.00     0.039 C 
ENDROOT
BRANCH   2   4
ATOM      4  C   UNL     1     106.072  41.767 134.751  1.00  0.00     0.032 C 
BRANCH   4   5
ATOM      5  C   UNL     1     106.595  40.986 135.963  1.00  0.00     0.034 C 
BRANCH   5   6
ATOM      6  C   UNL     1     108.105  41.034 136.076  1.00  0.00    -0.077 C 
ATOM      7  C   UNL     1     108.929  40.256 135.081  1.00  0.00     0.039 C 
ATOM      8  C   UNL     1     108.766  41.797 136.982  1.00  0.00    -0.023 CG0
ATOM      9  G   UNL     1     108.167  42.615 138.112  1.00  0.00     0.000 G0
ENDBRANCH   5   6
ENDBRANCH   4   5
ENDBRANCH   2   4
BRANCH   1  10
ATOM     10  C   UNL     1     106.364  44.606 135.841  1.00  0.00     0.111 C 
BRANCH  10  11
ATOM     11  C   UNL     1     106.712  44.621 137.310  1.00  0.00     0.163 C 
ATOM     12  O   UNL     1     105.834  45.058 138.103  1.00  0.00    -0.294 OA
BRANCH  11  13
ATOM     13  C   UNL     1     108.017  44.131 137.864  1.00  0.00    -0.002 C 
ATOM     14  C   UNL     1     108.974  45.018 138.279  1.00  0.00    -0.069 C 
ATOM     15  C   UNL     1     110.196  44.575 139.051  1.00  0.00     0.039 C 
ATOM     16  C   UNL     1     108.887  46.488 137.941  1.00  0.00     0.039 C 
BRANCH  13  17
ATOM     17  C   UNL     1     108.166  42.634 138.117  1.00  0.00     0.066 CG0
ATOM     18  G   UNL     1     108.756  41.811 136.986  1.00  0.00     0.000 G0
ENDBRANCH  13  17
ENDBRANCH  11  13
ENDBRANCH  10  11
ENDBRANCH   1  10
TORSDOF 0
ENDMDL
MODEL 6
REMARK VINA RESULT:    -4.115      9.035     11.279
REMARK INTER + INTRA:          -5.328
REMARK INTER:                  -5.321
REMARK INTRA:                  -0.007
REMARK UNBOUND:                 0.470
REMARK SMILES CC1=CCC(=C(C)C)C(=O)CC(C)=CCC1
REMARK SMILES IDX 12 1 14 2 13 3 15 4 16 5 2 6 1 7 3 8 11 10 9 11 10 12 5 13
REMARK SMILES IDX 6 14 7 15 8 16 4 17
REMARK H PARENT
REMARK Flexibility Score: 60.00
ROOT
ATOM      1  C   UNL     1     101.106  50.984 131.268  1.00  0.00    -0.070 C 
ATOM      2  C   UNL     1     101.502  51.520 132.445  1.00  0.00    -0.027 C 
ATOM      3  C   UNL     1     101.536  51.668 129.996  1.00  0.00     0.039 C 
ENDROOT
BRANCH   2   4
ATOM      4  C   UNL     1     101.045  51.056 133.804  1.00  0.00     0.032 C 
BRANCH   4   5
ATOM      5  C   UNL     1     101.966  49.939 134.310  1.00  0.00     0.034 C 
BRANCH   5   6
ATOM      6  C   UNL     1     101.214  48.873 135.083  1.00  0.00    -0.077 C 
ATOM      7  C   UNL     1     100.611  49.239 136.416  1.00  0.00     0.039 C 
ATOM      8  C   UNL     1     100.990  47.622 134.612  1.00  0.00    -0.023 CG0
ATOM      9  G   UNL     1     101.535  47.004 133.337  1.00  0.00     0.000 G0
ENDBRANCH   5   6
ENDBRANCH   4   5
ENDBRANCH   2   4
BRANCH   1  10
ATOM     10  C   UNL     1     100.268  49.725 131.166  1.00  0.00     0.111 C 
BRANCH  10  11
ATOM     11  C   UNL     1     101.114  48.477 131.242  1.00  0.00     0.163 C 
ATOM     12  O   UNL     1     102.197  48.478 130.596  1.00  0.00    -0.294 OA
BRANCH  11  13
ATOM     13  C   UNL     1     100.746  47.267 132.050  1.00  0.00    -0.002 C 
ATOM     14  C   UNL     1      99.850  46.353 131.566  1.00  0.00    -0.069 C 
ATOM     15  C   UNL     1      99.628  45.016 132.236  1.00  0.00     0.039 C 
ATOM     16  C   UNL     1      98.991  46.653 130.359  1.00  0.00     0.039 C 
BRANCH  13  17
ATOM     17  C   UNL     1     101.533  47.000 133.329  1.00  0.00     0.066 CG0
ATOM     18  G   UNL     1     100.998  47.639 134.598  1.00  0.00     0.000 G0
ENDBRANCH  13  17
ENDBRANCH  11  13
ENDBRANCH  10  11
ENDBRANCH   1  10
TORSDOF 0
ENDMDL
MODEL 7
REMARK VINA RESULT:    -4.083      1.799      2.636
REMARK INTER + INTRA:          -5.284
REMARK INTER:                  -5.155
REMARK INTRA:                  -0.129
REMARK UNBOUND:                 0.470
REMARK SMILES CC1=CCC(=C(C)C)C(=O)CC(C)=CCC1
REMARK SMILES IDX 12 1 14 2 13 3 15 4 16 5 2 6 1 7 3 8 11 10 9 11 10 12 5 13
REMARK SMILES IDX 6 14 7 15 8 16 4 17
REMARK H PARENT
REMARK Flexibility Score: 60.00
ROOT
ATOM      1  C   UNL     1     106.859  40.689 136.476  1.00  0.00    -0.070 C 
ATOM      2  C   UNL     1     105.667  41.087 135.975  1.00  0.00    -0.027 C 
ATOM      3  C   UNL     1     107.469  39.424 135.932  1.00  0.00     0.039 C 
ENDROOT
BRANCH   2   4
ATOM      4  C   UNL     1     104.848  42.238 136.503  1.00  0.00     0.032 C 
BRANCH   4   5
ATOM      5  C   UNL     1     104.864  43.393 135.495  1.00  0.00     0.034 C 
BRANCH   5   6
ATOM      6  C   UNL     1     105.073  44.739 136.159  1.00  0.00    -0.077 C 
ATOM      7  C   UNL     1     103.863  45.515 136.615  1.00  0.00     0.039 C 
ATOM      8  C   UNL     1     106.296  45.259 136.434  1.00  0.00    -0.023 CG0
ATOM      9  G   UNL     1     107.648  44.701 136.029  1.00  0.00     0.000 G0
ENDBRANCH   5   6
ENDBRANCH   4   5
ENDBRANCH   2   4
BRANCH   1  10
ATOM     10  C   UNL     1     107.615  41.460 137.540  1.00  0.00     0.111 C 
BRANCH  10  11
ATOM     11  C   UNL     1     108.574  42.459 136.939  1.00  0.00     0.163 C 
ATOM     12  O   UNL     1     109.524  41.999 136.248  1.00  0.00    -0.294 OA
BRANCH  11  13
ATOM     13  C   UNL     1     108.442  43.944 137.101  1.00  0.00    -0.002 C 
ATOM     14  C   UNL     1     109.138  44.602 138.079  1.00  0.00    -0.069 C 
ATOM     15  C   UNL     1     109.216  46.111 138.131  1.00  0.00     0.039 C 
ATOM     16  C   UNL     1     109.827  43.853 139.197  1.00  0.00     0.039 C 
BRANCH  13  17
ATOM     17  C   UNL     1     107.661  44.710 136.037  1.00  0.00     0.066 CG0
ATOM     18  G   UNL     1     106.305  45.252 136.452  1.00  0.00     0.000 G0
ENDBRANCH  13  17
ENDBRANCH  11  13
ENDBRANCH  10  11
ENDBRANCH   1  10
TORSDOF 0
ENDMDL
MODEL 8
REMARK VINA RESULT:    -4.080      1.815      4.752
REMARK INTER + INTRA:          -5.280
REMARK INTER:                  -5.385
REMARK INTRA:                   0.105
REMARK UNBOUND:                 0.470
REMARK SMILES CC1=CCC(=C(C)C)C(=O)CC(C)=CCC1
REMARK SMILES IDX 12 1 14 2 13 3 15 4 16 5 2 6 1 7 3 8 11 10 9 11 10 12 5 13
REMARK SMILES IDX 6 14 7 15 8 16 4 17
REMARK H PARENT
REMARK Flexibility Score: 60.00
ROOT
ATOM      1  C   UNL     1     108.473  44.753 137.721  1.00  0.00    -0.070 C 
ATOM      2  C   UNL     1     109.452  44.159 138.442  1.00  0.00    -0.027 C 
ATOM      3  C   UNL     1     108.729  46.138 137.184  1.00  0.00     0.039 C 
ENDROOT
BRANCH   2   4
ATOM      4  C   UNL     1     109.314  42.848 139.172  1.00  0.00     0.032 C 
BRANCH   4   5
ATOM      5  C   UNL     1     109.660  41.688 138.231  1.00  0.00     0.034 C 
BRANCH   5   6
ATOM      6  C   UNL     1     108.819  40.456 138.496  1.00  0.00    -0.077 C 
ATOM      7  C   UNL     1     109.004  39.723 139.802  1.00  0.00     0.039 C 
ATOM      8  C   UNL     1     107.853  40.011 137.655  1.00  0.00    -0.023 CG0
ATOM      9  G   UNL     1     107.520  40.539 136.272  1.00  0.00     0.000 G0
ENDBRANCH   5   6
ENDBRANCH   4   5
ENDBRANCH   2   4
BRANCH   1  10
ATOM     10  C   UNL     1     107.145  44.090 137.414  1.00  0.00     0.111 C 
BRANCH  10  11
ATOM     11  C   UNL     1     107.250  43.128 136.255  1.00  0.00     0.163 C 
ATOM     12  O   UNL     1     107.941  43.494 135.266  1.00  0.00    -0.294 OA
BRANCH  11  13
ATOM     13  C   UNL     1     106.601  41.775 136.232  1.00  0.00    -0.002 C 
ATOM     14  C   UNL     1     105.255  41.652 136.012  1.00  0.00    -0.069 C 
ATOM     15  C   UNL     1     104.605  40.313 135.752  1.00  0.00     0.039 C 
ATOM     16  C   UNL     1     104.334  42.849 136.071  1.00  0.00     0.039 C 
BRANCH  13  17
ATOM     17  C   UNL     1     107.508  40.550 136.277  1.00  0.00     0.066 CG0
ATOM     18  G   UNL     1     107.855  40.014 137.654  1.00  0.00     0.000 G0
ENDBRANCH  13  17
ENDBRANCH  11  13
ENDBRANCH  10  11
ENDBRANCH   1  10
TORSDOF 0
ENDMDL
MODEL 9
REMARK VINA RESULT:    -4.054      2.032      4.890
REMARK INTER + INTRA:          -5.243
REMARK INTER:                  -5.605
REMARK INTRA:                   0.361
REMARK UNBOUND:                 0.470
REMARK SMILES CC1=CCC(=C(C)C)C(=O)CC(C)=CCC1
REMARK SMILES IDX 12 1 14 2 13 3 15 4 16 5 2 6 1 7 3 8 11 10 9 11 10 12 5 13
REMARK SMILES IDX 6 14 7 15 8 16 4 17
REMARK H PARENT
REMARK Flexibility Score: 60.00
ROOT
ATOM      1  C   UNL     1     106.877  43.862 136.636  1.00  0.00    -0.070 C 
ATOM      2  C   UNL     1     107.263  44.924 137.379  1.00  0.00    -0.027 C 
ATOM      3  C   UNL     1     105.604  43.153 137.020  1.00  0.00     0.039 C 
ENDROOT
BRANCH   2   4
ATOM      4  C   UNL     1     108.573  45.654 137.229  1.00  0.00     0.032 C 
BRANCH   4   5
ATOM      5  C   UNL     1     109.543  45.216 138.334  1.00  0.00     0.034 C 
BRANCH   5   6
ATOM      6  C   UNL     1     108.880  44.327 139.367  1.00  0.00    -0.077 C 
ATOM      7  C   UNL     1     108.175  44.975 140.532  1.00  0.00     0.039 C 
ATOM      8  C   UNL     1     108.823  42.975 139.268  1.00  0.00    -0.023 CG0
ATOM      9  G   UNL     1     109.497  42.097 138.230  1.00  0.00     0.000 G0
ENDBRANCH   5   6
ENDBRANCH   4   5
ENDBRANCH   2   4
BRANCH   1  10
ATOM     10  C   UNL     1     107.649  43.364 135.430  1.00  0.00     0.111 C 
BRANCH  10  11
ATOM     11  C   UNL     1     108.623  42.271 135.795  1.00  0.00     0.163 C 
ATOM     12  O   UNL     1     109.500  41.974 134.939  1.00  0.00    -0.294 OA
BRANCH  11  13
ATOM     13  C   UNL     1     108.611  41.548 137.110  1.00  0.00    -0.002 C 
ATOM     14  C   UNL     1     107.964  40.349 137.240  1.00  0.00    -0.069 C 
ATOM     15  C   UNL     1     108.121  39.482 138.468  1.00  0.00     0.039 C 
ATOM     16  C   UNL     1     107.009  39.849 136.179  1.00  0.00     0.039 C 
BRANCH  13  17
ATOM     17  C   UNL     1     109.490  42.095 138.231  1.00  0.00     0.066 CG0
ATOM     18  G   UNL     1     108.804  42.975 139.260  1.00  0.00     0.000 G0
ENDBRANCH  13  17
ENDBRANCH  11  13
ENDBRANCH  10  11
ENDBRANCH   1  10
TORSDOF 0
ENDMDL
