MODEL 1
REMARK VINA RESULT:    -4.279      0.000      0.000
REMARK INTER + INTRA:          -4.780
REMARK INTER:                  -4.654
REMARK INTRA:                  -0.126
REMARK UNBOUND:                -0.126
REMARK SMILES Cc1ccc(C(C)C)cc1O
REMARK SMILES IDX 1 1 2 2 10 3 9 4 5 5 4 6 3 7 11 8 6 10 7 11 8 12
REMARK H PARENT 11 9
REMARK Flexibility Score: inf
ROOT
ATOM      1  C   UNL     1      -4.816   4.232  -4.463  1.00  0.00     0.048 C 
ATOM      2  C   UNL     1      -5.566   5.476  -4.074  1.00  0.00    -0.009 A 
ATOM      3  C   UNL     1      -4.942   6.506  -3.337  1.00  0.00     0.118 A 
ATOM      4  C   UNL     1      -5.667   7.652  -2.990  1.00  0.00     0.050 A 
ATOM      5  C   UNL     1      -7.013   7.796  -3.366  1.00  0.00    -0.042 A 
ATOM      6  C   UNL     1      -7.627   6.766  -4.099  1.00  0.00     0.004 A 
ATOM      7  C   UNL     1      -6.911   5.620  -4.450  1.00  0.00     0.007 A 
ENDROOT
BRANCH   3   8
ATOM      8  O   UNL     1      -3.607   6.422  -2.934  1.00  0.00    -0.508 OA
ATOM      9  H   UNL     1      -2.935   5.810  -3.378  1.00  0.00     0.293 HD
ENDBRANCH   3   8
BRANCH   5  10
ATOM     10  C   UNL     1      -7.780   9.047  -2.979  1.00  0.00     0.013 C 
ATOM     11  C   UNL     1      -7.982   9.124  -1.461  1.00  0.00     0.012 C 
ATOM     12  C   UNL     1      -9.121   9.125  -3.719  1.00  0.00     0.012 C 
ENDBRANCH   5  10
TORSDOF 2
ENDMDL
MODEL 2
REMARK VINA RESULT:    -4.139      1.952      4.671
REMARK INTER + INTRA:          -4.628
REMARK INTER:                  -4.501
REMARK INTRA:                  -0.126
REMARK UNBOUND:                -0.126
REMARK SMILES Cc1ccc(C(C)C)cc1O
REMARK SMILES IDX 1 1 2 2 10 3 9 4 5 5 4 6 3 7 11 8 6 10 7 11 8 12
REMARK H PARENT 11 9
REMARK Flexibility Score: inf
ROOT
ATOM      1  C   UNL     1      -8.552   8.725  -3.748  1.00  0.00     0.048 C 
ATOM      2  C   UNL     1      -7.481   7.669  -3.730  1.00  0.00    -0.009 A 
ATOM      3  C   UNL     1      -7.690   6.406  -4.327  1.00  0.00     0.118 A 
ATOM      4  C   UNL     1      -6.673   5.444  -4.293  1.00  0.00     0.050 A 
ATOM      5  C   UNL     1      -5.442   5.716  -3.674  1.00  0.00    -0.042 A 
ATOM      6  C   UNL     1      -5.243   6.975  -3.082  1.00  0.00     0.004 A 
ATOM      7  C   UNL     1      -6.251   7.940  -3.111  1.00  0.00     0.007 A 
ENDROOT
BRANCH   3   8
ATOM      8  O   UNL     1      -8.892   6.076  -4.957  1.00  0.00    -0.508 OA
ATOM      9  H   UNL     1      -9.269   6.601  -5.735  1.00  0.00     0.293 HD
ENDBRANCH   3   8
BRANCH   5  10
ATOM     10  C   UNL     1      -4.355   4.657  -3.650  1.00  0.00     0.013 C 
ATOM     11  C   UNL     1      -2.977   5.285  -3.408  1.00  0.00     0.012 C 
ATOM     12  C   UNL     1      -4.364   3.827  -4.940  1.00  0.00     0.012 C 
ENDBRANCH   5  10
TORSDOF 2
ENDMDL
MODEL 3
REMARK VINA RESULT:    -4.123      1.959      4.280
REMARK INTER + INTRA:          -4.611
REMARK INTER:                  -4.485
REMARK INTRA:                  -0.125
REMARK UNBOUND:                -0.126
REMARK SMILES Cc1ccc(C(C)C)cc1O
REMARK SMILES IDX 1 1 2 2 10 3 9 4 5 5 4 6 3 7 11 8 6 10 7 11 8 12
REMARK H PARENT 11 9
REMARK Flexibility Score: inf
ROOT
ATOM      1  C   UNL     1      -9.335   9.125  -3.769  1.00  0.00     0.048 C 
ATOM      2  C   UNL     1      -8.051   8.380  -3.528  1.00  0.00    -0.009 A 
ATOM      3  C   UNL     1      -7.470   8.321  -2.242  1.00  0.00     0.118 A 
ATOM      4  C   UNL     1      -6.274   7.618  -2.050  1.00  0.00     0.050 A 
ATOM      5  C   UNL     1      -5.639   6.967  -3.121  1.00  0.00    -0.042 A 
ATOM      6  C   UNL     1      -6.224   7.031  -4.398  1.00  0.00     0.004 A 
ATOM      7  C   UNL     1      -7.417   7.729  -4.598  1.00  0.00     0.007 A 
ENDROOT
BRANCH   3   8
ATOM      8  O   UNL     1      -8.052   8.948  -1.138  1.00  0.00    -0.508 OA
ATOM      9  H   UNL     1      -7.511   9.381  -0.401  1.00  0.00     0.293 HD
ENDBRANCH   3   8
BRANCH   5  10
ATOM     10  C   UNL     1      -4.344   6.212  -2.889  1.00  0.00     0.013 C 
ATOM     11  C   UNL     1      -3.130   7.133  -3.059  1.00  0.00     0.012 C 
ATOM     12  C   UNL     1      -4.243   4.991  -3.812  1.00  0.00     0.012 C 
ENDBRANCH   5  10
TORSDOF 2
ENDMDL
MODEL 4
REMARK VINA RESULT:    -4.073      2.015      4.407
REMARK INTER + INTRA:          -4.556
REMARK INTER:                  -4.435
REMARK INTRA:                  -0.121
REMARK UNBOUND:                -0.126
REMARK SMILES Cc1ccc(C(C)C)cc1O
REMARK SMILES IDX 1 1 2 2 10 3 9 4 5 5 4 6 3 7 11 8 6 10 7 11 8 12
REMARK H PARENT 11 9
REMARK Flexibility Score: inf
ROOT
ATOM      1  C   UNL     1     -10.069   8.656  -3.785  1.00  0.00     0.048 C 
ATOM      2  C   UNL     1      -8.679   8.118  -3.583  1.00  0.00    -0.009 A 
ATOM      3  C   UNL     1      -8.289   6.876  -4.131  1.00  0.00     0.118 A 
ATOM      4  C   UNL     1      -6.988   6.402  -3.925  1.00  0.00     0.050 A 
ATOM      5  C   UNL     1      -6.058   7.146  -3.179  1.00  0.00    -0.042 A 
ATOM      6  C   UNL     1      -6.455   8.380  -2.637  1.00  0.00     0.004 A 
ATOM      7  C   UNL     1      -7.750   8.860  -2.838  1.00  0.00     0.007 A 
ENDROOT
BRANCH   3   8
ATOM      8  O   UNL     1      -9.167   6.091  -4.881  1.00  0.00    -0.508 OA
ATOM      9  H   UNL     1      -9.171   6.081  -5.893  1.00  0.00     0.293 HD
ENDBRANCH   3   8
BRANCH   5  10
ATOM     10  C   UNL     1      -4.653   6.612  -2.969  1.00  0.00     0.013 C 
ATOM     11  C   UNL     1      -3.602   7.675  -3.305  1.00  0.00     0.012 C 
ATOM     12  C   UNL     1      -4.422   5.331  -3.781  1.00  0.00     0.012 C 
ENDBRANCH   5  10
TORSDOF 2
ENDMDL
MODEL 5
REMARK VINA RESULT:    -4.008      1.493      2.214
REMARK INTER + INTRA:          -4.485
REMARK INTER:                  -4.359
REMARK INTRA:                  -0.126
REMARK UNBOUND:                -0.126
REMARK SMILES Cc1ccc(C(C)C)cc1O
REMARK SMILES IDX 1 1 2 2 10 3 9 4 5 5 4 6 3 7 11 8 6 10 7 11 8 12
REMARK H PARENT 11 9
REMARK Flexibility Score: inf
ROOT
ATOM      1  C   UNL     1      -2.877   4.907  -3.457  1.00  0.00     0.048 C 
ATOM      2  C   UNL     1      -4.152   5.701  -3.531  1.00  0.00    -0.009 A 
ATOM      3  C   UNL     1      -5.309   5.170  -4.142  1.00  0.00     0.118 A 
ATOM      4  C   UNL     1      -6.481   5.934  -4.195  1.00  0.00     0.050 A 
ATOM      5  C   UNL     1      -6.526   7.226  -3.646  1.00  0.00    -0.042 A 
ATOM      6  C   UNL     1      -5.370   7.747  -3.040  1.00  0.00     0.004 A 
ATOM      7  C   UNL     1      -4.197   6.992  -2.983  1.00  0.00     0.007 A 
ENDROOT
BRANCH   3   8
ATOM      8  O   UNL     1      -5.327   3.892  -4.706  1.00  0.00    -0.508 OA
ATOM      9  H   UNL     1      -6.106   3.254  -4.600  1.00  0.00     0.293 HD
ENDBRANCH   3   8
BRANCH   5  10
ATOM     10  C   UNL     1      -7.808   8.036  -3.715  1.00  0.00     0.013 C 
ATOM     11  C   UNL     1      -7.833   9.125  -2.636  1.00  0.00     0.012 C 
ATOM     12  C   UNL     1      -9.040   7.129  -3.612  1.00  0.00     0.012 C 
ENDBRANCH   5  10
TORSDOF 2
ENDMDL
MODEL 6
REMARK VINA RESULT:    -4.005      2.395      4.688
REMARK INTER + INTRA:          -4.483
REMARK INTER:                  -4.357
REMARK INTRA:                  -0.126
REMARK UNBOUND:                -0.126
REMARK SMILES Cc1ccc(C(C)C)cc1O
REMARK SMILES IDX 1 1 2 2 10 3 9 4 5 5 4 6 3 7 11 8 6 10 7 11 8 12
REMARK H PARENT 11 9
REMARK Flexibility Score: inf
ROOT
ATOM      1  C   UNL     1     -11.205   8.368  -3.721  1.00  0.00     0.048 C 
ATOM      2  C   UNL     1      -9.767   7.936  -3.806  1.00  0.00    -0.009 A 
ATOM      3  C   UNL     1      -9.418   6.639  -4.240  1.00  0.00     0.118 A 
ATOM      4  C   UNL     1      -8.069   6.268  -4.309  1.00  0.00     0.050 A 
ATOM      5  C   UNL     1      -7.053   7.170  -3.954  1.00  0.00    -0.042 A 
ATOM      6  C   UNL     1      -7.409   8.459  -3.523  1.00  0.00     0.004 A 
ATOM      7  C   UNL     1      -8.751   8.838  -3.451  1.00  0.00     0.007 A 
ENDROOT
BRANCH   3   8
ATOM      8  O   UNL     1     -10.382   5.697  -4.607  1.00  0.00    -0.508 OA
ATOM      9  H   UNL     1     -11.364   5.797  -4.382  1.00  0.00     0.293 HD
ENDBRANCH   3   8
BRANCH   5  10
ATOM     10  C   UNL     1      -5.598   6.745  -4.036  1.00  0.00     0.013 C 
ATOM     11  C   UNL     1      -5.460   5.222  -3.922  1.00  0.00     0.012 C 
ATOM     12  C   UNL     1      -4.754   7.457  -2.972  1.00  0.00     0.012 C 
ENDBRANCH   5  10
TORSDOF 2
ENDMDL
MODEL 7
REMARK VINA RESULT:    -3.944      1.668      3.058
REMARK INTER + INTRA:          -4.416
REMARK INTER:                  -4.290
REMARK INTRA:                  -0.126
REMARK UNBOUND:                -0.126
REMARK SMILES Cc1ccc(C(C)C)cc1O
REMARK SMILES IDX 1 1 2 2 10 3 9 4 5 5 4 6 3 7 11 8 6 10 7 11 8 12
REMARK H PARENT 11 9
REMARK Flexibility Score: inf
ROOT
ATOM      1  C   UNL     1      -3.362   7.109  -3.014  1.00  0.00     0.048 C 
ATOM      2  C   UNL     1      -4.738   6.698  -3.459  1.00  0.00    -0.009 A 
ATOM      3  C   UNL     1      -4.998   5.387  -3.914  1.00  0.00     0.118 A 
ATOM      4  C   UNL     1      -6.291   5.035  -4.321  1.00  0.00     0.050 A 
ATOM      5  C   UNL     1      -7.340   5.969  -4.282  1.00  0.00    -0.042 A 
ATOM      6  C   UNL     1      -7.072   7.272  -3.828  1.00  0.00     0.004 A 
ATOM      7  C   UNL     1      -5.786   7.631  -3.420  1.00  0.00     0.007 A 
ENDROOT
BRANCH   3   8
ATOM      8  O   UNL     1      -3.999   4.414  -3.977  1.00  0.00    -0.508 OA
ATOM      9  H   UNL     1      -4.192   3.433  -4.135  1.00  0.00     0.293 HD
ENDBRANCH   3   8
BRANCH   5  10
ATOM     10  C   UNL     1      -8.733   5.565  -4.728  1.00  0.00     0.013 C 
ATOM     11  C   UNL     1      -8.810   5.442  -6.255  1.00  0.00     0.012 C 
ATOM     12  C   UNL     1      -9.788   6.545  -4.200  1.00  0.00     0.012 C 
ENDBRANCH   5  10
TORSDOF 2
ENDMDL
MODEL 8
REMARK VINA RESULT:    -3.799      1.233      4.532
REMARK INTER + INTRA:          -4.258
REMARK INTER:                  -4.147
REMARK INTRA:                  -0.111
REMARK UNBOUND:                -0.126
REMARK SMILES Cc1ccc(C(C)C)cc1O
REMARK SMILES IDX 1 1 2 2 10 3 9 4 5 5 4 6 3 7 11 8 6 10 7 11 8 12
REMARK H PARENT 11 9
REMARK Flexibility Score: inf
ROOT
ATOM      1  C   UNL     1      -6.979   8.577  -2.982  1.00  0.00     0.048 C 
ATOM      2  C   UNL     1      -6.387   7.268  -3.425  1.00  0.00    -0.009 A 
ATOM      3  C   UNL     1      -4.991   7.054  -3.414  1.00  0.00     0.118 A 
ATOM      4  C   UNL     1      -4.472   5.823  -3.832  1.00  0.00     0.050 A 
ATOM      5  C   UNL     1      -5.321   4.791  -4.265  1.00  0.00    -0.042 A 
ATOM      6  C   UNL     1      -6.709   5.012  -4.274  1.00  0.00     0.004 A 
ATOM      7  C   UNL     1      -7.235   6.236  -3.858  1.00  0.00     0.007 A 
ENDROOT
BRANCH   3   8
ATOM      8  O   UNL     1      -4.096   8.041  -2.995  1.00  0.00    -0.508 OA
ATOM      9  H   UNL     1      -4.377   8.844  -2.447  1.00  0.00     0.293 HD
ENDBRANCH   3   8
BRANCH   5  10
ATOM     10  C   UNL     1      -4.735   3.465  -4.715  1.00  0.00     0.013 C 
ATOM     11  C   UNL     1      -4.971   2.372  -3.666  1.00  0.00     0.012 C 
ATOM     12  C   UNL     1      -3.243   3.604  -5.042  1.00  0.00     0.012 C 
ENDBRANCH   5  10
TORSDOF 2
ENDMDL
MODEL 9
REMARK VINA RESULT:    -3.759      1.630      4.351
REMARK INTER + INTRA:          -4.215
REMARK INTER:                  -4.090
REMARK INTRA:                  -0.126
REMARK UNBOUND:                -0.126
REMARK SMILES Cc1ccc(C(C)C)cc1O
REMARK SMILES IDX 1 1 2 2 10 3 9 4 5 5 4 6 3 7 11 8 6 10 7 11 8 12
REMARK H PARENT 11 9
REMARK Flexibility Score: inf
ROOT
ATOM      1  C   UNL     1      -9.360   8.251  -3.733  1.00  0.00     0.048 C 
ATOM      2  C   UNL     1      -8.104   7.425  -3.759  1.00  0.00    -0.009 A 
ATOM      3  C   UNL     1      -6.912   7.886  -3.159  1.00  0.00     0.118 A 
ATOM      4  C   UNL     1      -5.759   7.093  -3.199  1.00  0.00     0.050 A 
ATOM      5  C   UNL     1      -5.769   5.837  -3.830  1.00  0.00    -0.042 A 
ATOM      6  C   UNL     1      -6.959   5.385  -4.425  1.00  0.00     0.004 A 
ATOM      7  C   UNL     1      -8.113   6.170  -4.388  1.00  0.00     0.007 A 
ENDROOT
BRANCH   3   8
ATOM      8  O   UNL     1      -6.839   9.125  -2.518  1.00  0.00    -0.508 OA
ATOM      9  H   UNL     1      -5.991   9.478  -2.094  1.00  0.00     0.293 HD
ENDBRANCH   3   8
BRANCH   5  10
ATOM     10  C   UNL     1      -4.507   4.995  -3.862  1.00  0.00     0.013 C 
ATOM     11  C   UNL     1      -4.613   3.880  -4.909  1.00  0.00     0.012 C 
ATOM     12  C   UNL     1      -4.191   4.421  -2.475  1.00  0.00     0.012 C 
ENDBRANCH   5  10
TORSDOF 2
ENDMDL
