MODEL 1
REMARK VINA RESULT:    -3.633      0.000      0.000
REMARK INTER + INTRA:          -7.693
REMARK INTER:                  -6.181
REMARK INTRA:                  -1.512
REMARK UNBOUND:                -1.512
REMARK SMILES CCCCCCCCCCCCCC(=O)[O-]
REMARK SMILES IDX 8 1 9 2 10 3 11 4 12 5 13 6 14 7 15 8 16 9 7 10 6 11 5 12
REMARK SMILES IDX 4 13 3 14 2 15 1 16
REMARK H PARENT
REMARK Flexibility Score: inf
ROOT
ATOM      1  C   UNL     1      16.812  15.748  16.270  1.00  0.00     0.000 C 
ENDROOT
BRANCH   1   2
ATOM      2  C   UNL     1      17.394  17.160  16.486  1.00  0.00     0.000 C 
BRANCH   2   3
ATOM      3  C   UNL     1      17.811  17.476  17.934  1.00  0.00     0.000 C 
BRANCH   3   4
ATOM      4  C   UNL     1      18.434  16.269  18.652  1.00  0.00     0.000 C 
BRANCH   4   5
ATOM      5  C   UNL     1      17.902  16.148  20.084  1.00  0.00     0.006 C 
BRANCH   5   6
ATOM      6  C   UNL     1      17.084  17.383  20.473  1.00  0.00     0.053 C 
BRANCH   6   7
ATOM      7  C   UNL     1      16.784  17.373  21.939  1.00  0.00     0.041 C 
ATOM      8  O   UNL     1      16.144  18.323  22.462  1.00  0.00    -0.550 OA
ATOM      9  O   UNL     1      17.166  16.290  22.719  1.00  0.00    -0.550 OA
ENDBRANCH   6   7
ENDBRANCH   5   6
ENDBRANCH   4   5
ENDBRANCH   3   4
ENDBRANCH   2   3
ENDBRANCH   1   2
BRANCH   1  10
ATOM     10  C   UNL     1      17.526  14.901  15.198  1.00  0.00     0.000 C 
BRANCH  10  11
ATOM     11  C   UNL     1      18.998  15.277  14.949  1.00  0.00    -0.000 C 
BRANCH  11  12
ATOM     12  C   UNL     1      19.979  14.422  15.766  1.00  0.00    -0.000 C 
BRANCH  12  13
ATOM     13  C   UNL     1      19.318  13.118  16.227  1.00  0.00    -0.000 C 
BRANCH  13  14
ATOM     14  C   UNL     1      20.020  12.558  17.474  1.00  0.00    -0.000 C 
BRANCH  14  15
ATOM     15  C   UNL     1      20.981  13.572  18.115  1.00  0.00    -0.003 C 
ATOM     16  C   UNL     1      20.857  13.621  19.639  1.00  0.00     0.004 C 
ENDBRANCH  14  15
ENDBRANCH  13  14
ENDBRANCH  12  13
ENDBRANCH  11  12
ENDBRANCH  10  11
ENDBRANCH   1  10
TORSDOF 12
ENDMDL
MODEL 2
REMARK VINA RESULT:    -3.573      1.967      2.951
REMARK INTER + INTRA:          -7.592
REMARK INTER:                  -5.802
REMARK INTRA:                  -1.790
REMARK UNBOUND:                -1.512
REMARK SMILES CCCCCCCCCCCCCC(=O)[O-]
REMARK SMILES IDX 8 1 9 2 10 3 11 4 12 5 13 6 14 7 15 8 16 9 7 10 6 11 5 12
REMARK SMILES IDX 4 13 3 14 2 15 1 16
REMARK H PARENT
REMARK Flexibility Score: inf
ROOT
ATOM      1  C   UNL     1      17.660  17.113  16.614  1.00  0.00     0.000 C 
ENDROOT
BRANCH   1   2
ATOM      2  C   UNL     1      18.237  17.393  18.016  1.00  0.00     0.000 C 
BRANCH   2   3
ATOM      3  C   UNL     1      17.399  16.842  19.185  1.00  0.00     0.000 C 
BRANCH   3   4
ATOM      4  C   UNL     1      18.222  15.984  20.157  1.00  0.00     0.000 C 
BRANCH   4   5
ATOM      5  C   UNL     1      19.344  15.243  19.421  1.00  0.00     0.006 C 
BRANCH   5   6
ATOM      6  C   UNL     1      20.668  15.354  20.183  1.00  0.00     0.053 C 
BRANCH   6   7
ATOM      7  C   UNL     1      20.708  14.369  21.309  1.00  0.00     0.041 C 
ATOM      8  O   UNL     1      20.989  13.162  21.086  1.00  0.00    -0.550 OA
ATOM      9  O   UNL     1      20.484  14.794  22.612  1.00  0.00    -0.550 OA
ENDBRANCH   6   7
ENDBRANCH   5   6
ENDBRANCH   4   5
ENDBRANCH   3   4
ENDBRANCH   2   3
ENDBRANCH   1   2
BRANCH   1  10
ATOM     10  C   UNL     1      16.868  15.797  16.481  1.00  0.00     0.000 C 
BRANCH  10  11
ATOM     11  C   UNL     1      17.628  14.648  15.794  1.00  0.00    -0.000 C 
BRANCH  11  12
ATOM     12  C   UNL     1      19.032  15.059  15.325  1.00  0.00    -0.000 C 
BRANCH  12  13
ATOM     13  C   UNL     1      20.102  14.134  15.918  1.00  0.00    -0.000 C 
BRANCH  13  14
ATOM     14  C   UNL     1      19.467  12.855  16.487  1.00  0.00    -0.000 C 
BRANCH  14  15
ATOM     15  C   UNL     1      20.281  12.259  17.647  1.00  0.00    -0.003 C 
ATOM     16  C   UNL     1      21.742  12.709  17.637  1.00  0.00     0.004 C 
ENDBRANCH  14  15
ENDBRANCH  13  14
ENDBRANCH  12  13
ENDBRANCH  11  12
ENDBRANCH  10  11
ENDBRANCH   1  10
TORSDOF 12
ENDMDL
MODEL 3
REMARK VINA RESULT:    -3.532      1.014      3.466
REMARK INTER + INTRA:          -7.522
REMARK INTER:                  -5.823
REMARK INTRA:                  -1.699
REMARK UNBOUND:                -1.512
REMARK SMILES CCCCCCCCCCCCCC(=O)[O-]
REMARK SMILES IDX 8 1 9 2 10 3 11 4 12 5 13 6 14 7 15 8 16 9 7 10 6 11 5 12
REMARK SMILES IDX 4 13 3 14 2 15 1 16
REMARK H PARENT
REMARK Flexibility Score: inf
ROOT
ATOM      1  C   UNL     1      20.002  13.085  17.607  1.00  0.00     0.000 C 
ENDROOT
BRANCH   1   2
ATOM      2  C   UNL     1      20.399  14.444  18.218  1.00  0.00     0.000 C 
BRANCH   2   3
ATOM      3  C   UNL     1      19.676  14.802  19.529  1.00  0.00     0.000 C 
BRANCH   3   4
ATOM      4  C   UNL     1      19.080  16.218  19.514  1.00  0.00     0.000 C 
BRANCH   4   5
ATOM      5  C   UNL     1      17.600  16.194  19.909  1.00  0.00     0.006 C 
BRANCH   5   6
ATOM      6  C   UNL     1      17.224  17.447  20.706  1.00  0.00     0.053 C 
BRANCH   6   7
ATOM      7  C   UNL     1      16.906  17.090  22.124  1.00  0.00     0.041 C 
ATOM      8  O   UNL     1      17.301  15.996  22.606  1.00  0.00    -0.550 OA
ATOM      9  O   UNL     1      16.216  17.987  22.929  1.00  0.00    -0.550 OA
ENDBRANCH   6   7
ENDBRANCH   5   6
ENDBRANCH   4   5
ENDBRANCH   3   4
ENDBRANCH   2   3
ENDBRANCH   1   2
BRANCH   1  10
ATOM     10  C   UNL     1      19.287  13.163  16.243  1.00  0.00     0.000 C 
BRANCH  10  11
ATOM     11  C   UNL     1      18.908  14.584  15.789  1.00  0.00    -0.000 C 
BRANCH  11  12
ATOM     12  C   UNL     1      17.418  14.897  15.991  1.00  0.00    -0.000 C 
BRANCH  12  13
ATOM     13  C   UNL     1      17.201  16.393  16.248  1.00  0.00    -0.000 C 
BRANCH  13  14
ATOM     14  C   UNL     1      18.218  17.238  15.465  1.00  0.00    -0.000 C 
BRANCH  14  15
ATOM     15  C   UNL     1      19.013  18.193  16.369  1.00  0.00    -0.003 C 
ATOM     16  C   UNL     1      18.129  18.919  17.383  1.00  0.00     0.004 C 
ENDBRANCH  14  15
ENDBRANCH  13  14
ENDBRANCH  12  13
ENDBRANCH  11  12
ENDBRANCH  10  11
ENDBRANCH   1  10
TORSDOF 12
ENDMDL
MODEL 4
REMARK VINA RESULT:    -3.526      2.733      5.791
REMARK INTER + INTRA:          -7.512
REMARK INTER:                  -6.368
REMARK INTRA:                  -1.144
REMARK UNBOUND:                -1.512
REMARK SMILES CCCCCCCCCCCCCC(=O)[O-]
REMARK SMILES IDX 8 1 9 2 10 3 11 4 12 5 13 6 14 7 15 8 16 9 7 10 6 11 5 12
REMARK SMILES IDX 4 13 3 14 2 15 1 16
REMARK H PARENT
REMARK Flexibility Score: inf
ROOT
ATOM      1  C   UNL     1      17.856  17.108  16.792  1.00  0.00     0.000 C 
ENDROOT
BRANCH   1   2
ATOM      2  C   UNL     1      16.981  15.856  16.577  1.00  0.00     0.000 C 
BRANCH   2   3
ATOM      3  C   UNL     1      17.467  14.908  15.466  1.00  0.00     0.000 C 
BRANCH   3   4
ATOM      4  C   UNL     1      18.980  14.651  15.520  1.00  0.00     0.000 C 
BRANCH   4   5
ATOM      5  C   UNL     1      19.297  13.414  16.368  1.00  0.00     0.006 C 
BRANCH   5   6
ATOM      6  C   UNL     1      20.504  13.665  17.277  1.00  0.00     0.053 C 
BRANCH   6   7
ATOM      7  C   UNL     1      20.712  12.508  18.203  1.00  0.00     0.041 C 
ATOM      8  O   UNL     1      21.306  12.674  19.302  1.00  0.00    -0.550 OA
ATOM      9  O   UNL     1      20.207  11.257  17.877  1.00  0.00    -0.550 OA
ENDBRANCH   6   7
ENDBRANCH   5   6
ENDBRANCH   4   5
ENDBRANCH   3   4
ENDBRANCH   2   3
ENDBRANCH   1   2
BRANCH   1  10
ATOM     10  C   UNL     1      18.392  17.296  18.225  1.00  0.00     0.000 C 
BRANCH  10  11
ATOM     11  C   UNL     1      18.339  16.037  19.108  1.00  0.00    -0.000 C 
BRANCH  11  12
ATOM     12  C   UNL     1      18.107  16.358  20.592  1.00  0.00    -0.000 C 
BRANCH  12  13
ATOM     13  C   UNL     1      17.000  17.405  20.762  1.00  0.00    -0.000 C 
BRANCH  13  14
ATOM     14  C   UNL     1      16.647  17.595  22.245  1.00  0.00    -0.000 C 
BRANCH  14  15
ATOM     15  C   UNL     1      16.970  16.354  23.092  1.00  0.00    -0.003 C 
ATOM     16  C   UNL     1      15.854  16.005  24.078  1.00  0.00     0.004 C 
ENDBRANCH  14  15
ENDBRANCH  13  14
ENDBRANCH  12  13
ENDBRANCH  11  12
ENDBRANCH  10  11
ENDBRANCH   1  10
TORSDOF 12
ENDMDL
MODEL 5
REMARK VINA RESULT:    -3.488      3.217      5.246
REMARK INTER + INTRA:          -7.448
REMARK INTER:                  -5.874
REMARK INTRA:                  -1.573
REMARK UNBOUND:                -1.512
REMARK SMILES CCCCCCCCCCCCCC(=O)[O-]
REMARK SMILES IDX 8 1 9 2 10 3 11 4 12 5 13 6 14 7 15 8 16 9 7 10 6 11 5 12
REMARK SMILES IDX 4 13 3 14 2 15 1 16
REMARK H PARENT
REMARK Flexibility Score: inf
ROOT
ATOM      1  C   UNL     1      19.092  15.341  15.041  1.00  0.00     0.000 C 
ENDROOT
BRANCH   1   2
ATOM      2  C   UNL     1      19.870  14.358  15.939  1.00  0.00     0.000 C 
BRANCH   2   3
ATOM      3  C   UNL     1      19.129  13.048  16.262  1.00  0.00     0.000 C 
BRANCH   3   4
ATOM      4  C   UNL     1      19.797  12.246  17.389  1.00  0.00     0.000 C 
BRANCH   4   5
ATOM      5  C   UNL     1      21.243  12.705  17.607  1.00  0.00     0.006 C 
BRANCH   5   6
ATOM      6  C   UNL     1      21.607  12.686  19.095  1.00  0.00     0.053 C 
BRANCH   6   7
ATOM      7  C   UNL     1      23.036  13.082  19.290  1.00  0.00     0.041 C 
ATOM      8  O   UNL     1      23.704  13.541  18.325  1.00  0.00    -0.550 OA
ATOM      9  O   UNL     1      23.617  12.993  20.548  1.00  0.00    -0.550 OA
ENDBRANCH   6   7
ENDBRANCH   5   6
ENDBRANCH   4   5
ENDBRANCH   3   4
ENDBRANCH   2   3
ENDBRANCH   1   2
BRANCH   1  10
ATOM     10  C   UNL     1      17.557  15.240  15.134  1.00  0.00     0.000 C 
BRANCH  10  11
ATOM     11  C   UNL     1      16.925  16.017  16.303  1.00  0.00    -0.000 C 
BRANCH  11  12
ATOM     12  C   UNL     1      17.722  17.273  16.685  1.00  0.00    -0.000 C 
BRANCH  12  13
ATOM     13  C   UNL     1      17.658  17.525  18.196  1.00  0.00    -0.000 C 
BRANCH  13  14
ATOM     14  C   UNL     1      17.679  16.201  18.975  1.00  0.00    -0.000 C 
BRANCH  14  15
ATOM     15  C   UNL     1      19.105  15.714  19.274  1.00  0.00    -0.003 C 
ATOM     16  C   UNL     1      19.223  15.034  20.639  1.00  0.00     0.004 C 
ENDBRANCH  14  15
ENDBRANCH  13  14
ENDBRANCH  12  13
ENDBRANCH  11  12
ENDBRANCH  10  11
ENDBRANCH   1  10
TORSDOF 12
ENDMDL
MODEL 6
REMARK VINA RESULT:    -3.479      1.466      2.680
REMARK INTER + INTRA:          -7.431
REMARK INTER:                  -6.146
REMARK INTRA:                  -1.285
REMARK UNBOUND:                -1.512
REMARK SMILES CCCCCCCCCCCCCC(=O)[O-]
REMARK SMILES IDX 8 1 9 2 10 3 11 4 12 5 13 6 14 7 15 8 16 9 7 10 6 11 5 12
REMARK SMILES IDX 4 13 3 14 2 15 1 16
REMARK H PARENT
REMARK Flexibility Score: inf
ROOT
ATOM      1  C   UNL     1      18.035  17.465  18.172  1.00  0.00     0.000 C 
ENDROOT
BRANCH   1   2
ATOM      2  C   UNL     1      17.705  16.295  19.122  1.00  0.00     0.000 C 
BRANCH   2   3
ATOM      3  C   UNL     1      17.790  16.633  20.621  1.00  0.00     0.000 C 
BRANCH   3   4
ATOM      4  C   UNL     1      16.777  17.706  21.049  1.00  0.00     0.000 C 
BRANCH   4   5
ATOM      5  C   UNL     1      16.566  17.687  22.567  1.00  0.00     0.006 C 
BRANCH   5   6
ATOM      6  C   UNL     1      16.919  16.318  23.155  1.00  0.00     0.053 C 
BRANCH   6   7
ATOM      7  C   UNL     1      16.323  16.162  24.518  1.00  0.00     0.041 C 
ATOM      8  O   UNL     1      15.120  16.473  24.723  1.00  0.00    -0.550 OA
ATOM      9  O   UNL     1      17.081  15.628  25.552  1.00  0.00    -0.550 OA
ENDBRANCH   6   7
ENDBRANCH   5   6
ENDBRANCH   4   5
ENDBRANCH   3   4
ENDBRANCH   2   3
ENDBRANCH   1   2
BRANCH   1  10
ATOM     10  C   UNL     1      17.769  17.191  16.678  1.00  0.00     0.000 C 
BRANCH  10  11
ATOM     11  C   UNL     1      16.876  15.971  16.390  1.00  0.00    -0.000 C 
BRANCH  11  12
ATOM     12  C   UNL     1      17.448  15.056  15.298  1.00  0.00    -0.000 C 
BRANCH  12  13
ATOM     13  C   UNL     1      18.951  14.833  15.500  1.00  0.00    -0.000 C 
BRANCH  13  14
ATOM     14  C   UNL     1      19.217  13.491  16.200  1.00  0.00    -0.000 C 
BRANCH  14  15
ATOM     15  C   UNL     1      19.917  13.662  17.558  1.00  0.00    -0.003 C 
ATOM     16  C   UNL     1      20.788  14.917  17.619  1.00  0.00     0.004 C 
ENDBRANCH  14  15
ENDBRANCH  13  14
ENDBRANCH  12  13
ENDBRANCH  11  12
ENDBRANCH  10  11
ENDBRANCH   1  10
TORSDOF 12
ENDMDL
MODEL 7
REMARK VINA RESULT:    -3.453      3.121      4.370
REMARK INTER + INTRA:          -7.387
REMARK INTER:                  -5.466
REMARK INTRA:                  -1.921
REMARK UNBOUND:                -1.512
REMARK SMILES CCCCCCCCCCCCCC(=O)[O-]
REMARK SMILES IDX 8 1 9 2 10 3 11 4 12 5 13 6 14 7 15 8 16 9 7 10 6 11 5 12
REMARK SMILES IDX 4 13 3 14 2 15 1 16
REMARK H PARENT
REMARK Flexibility Score: inf
ROOT
ATOM      1  C   UNL     1      17.798  17.216  16.817  1.00  0.00     0.000 C 
ENDROOT
BRANCH   1   2
ATOM      2  C   UNL     1      18.392  17.267  18.239  1.00  0.00     0.000 C 
BRANCH   2   3
ATOM      3  C   UNL     1      17.808  16.238  19.224  1.00  0.00     0.000 C 
BRANCH   3   4
ATOM      4  C   UNL     1      18.890  15.479  20.006  1.00  0.00     0.000 C 
BRANCH   4   5
ATOM      5  C   UNL     1      19.950  14.903  19.060  1.00  0.00     0.006 C 
BRANCH   5   6
ATOM      6  C   UNL     1      20.725  13.765  19.731  1.00  0.00     0.053 C 
BRANCH   6   7
ATOM      7  C   UNL     1      21.352  12.880  18.700  1.00  0.00     0.041 C 
ATOM      8  O   UNL     1      22.578  12.992  18.430  1.00  0.00    -0.550 OA
ATOM      9  O   UNL     1      20.597  11.898  18.073  1.00  0.00    -0.550 OA
ENDBRANCH   6   7
ENDBRANCH   5   6
ENDBRANCH   4   5
ENDBRANCH   3   4
ENDBRANCH   2   3
ENDBRANCH   1   2
BRANCH   1  10
ATOM     10  C   UNL     1      16.934  15.977  16.510  1.00  0.00     0.000 C 
BRANCH  10  11
ATOM     11  C   UNL     1      17.510  15.033  15.440  1.00  0.00    -0.000 C 
BRANCH  11  12
ATOM     12  C   UNL     1      18.497  14.007  16.017  1.00  0.00    -0.000 C 
BRANCH  12  13
ATOM     13  C   UNL     1      19.874  14.137  15.357  1.00  0.00    -0.000 C 
BRANCH  13  14
ATOM     14  C   UNL     1      19.892  15.296  14.348  1.00  0.00    -0.000 C 
BRANCH  14  15
ATOM     15  C   UNL     1      21.054  16.272  14.591  1.00  0.00    -0.003 C 
ATOM     16  C   UNL     1      21.394  16.428  16.073  1.00  0.00     0.004 C 
ENDBRANCH  14  15
ENDBRANCH  13  14
ENDBRANCH  12  13
ENDBRANCH  11  12
ENDBRANCH  10  11
ENDBRANCH   1  10
TORSDOF 12
ENDMDL
MODEL 8
REMARK VINA RESULT:    -3.445      1.578      4.054
REMARK INTER + INTRA:          -7.374
REMARK INTER:                  -5.733
REMARK INTRA:                  -1.641
REMARK UNBOUND:                -1.512
REMARK SMILES CCCCCCCCCCCCCC(=O)[O-]
REMARK SMILES IDX 8 1 9 2 10 3 11 4 12 5 13 6 14 7 15 8 16 9 7 10 6 11 5 12
REMARK SMILES IDX 4 13 3 14 2 15 1 16
REMARK H PARENT
REMARK Flexibility Score: inf
ROOT
ATOM      1  C   UNL     1      20.063  14.487  15.524  1.00  0.00     0.000 C 
ENDROOT
BRANCH   1   2
ATOM      2  C   UNL     1      19.650  13.163  16.199  1.00  0.00     0.000 C 
BRANCH   2   3
ATOM      3  C   UNL     1      20.032  13.044  17.685  1.00  0.00     0.000 C 
BRANCH   3   4
ATOM      4  C   UNL     1      20.038  14.398  18.410  1.00  0.00     0.000 C 
BRANCH   4   5
ATOM      5  C   UNL     1      20.766  14.297  19.755  1.00  0.00     0.006 C 
BRANCH   5   6
ATOM      6  C   UNL     1      19.802  14.538  20.921  1.00  0.00     0.053 C 
BRANCH   6   7
ATOM      7  C   UNL     1      20.148  15.808  21.633  1.00  0.00     0.041 C 
ATOM      8  O   UNL     1      20.052  15.878  22.887  1.00  0.00    -0.550 OA
ATOM      9  O   UNL     1      20.624  16.899  20.917  1.00  0.00    -0.550 OA
ENDBRANCH   6   7
ENDBRANCH   5   6
ENDBRANCH   4   5
ENDBRANCH   3   4
ENDBRANCH   2   3
ENDBRANCH   1   2
BRANCH   1  10
ATOM     10  C   UNL     1      18.898  15.335  14.975  1.00  0.00     0.000 C 
BRANCH  10  11
ATOM     11  C   UNL     1      17.505  14.938  15.495  1.00  0.00    -0.000 C 
BRANCH  11  12
ATOM     12  C   UNL     1      16.973  15.899  16.569  1.00  0.00    -0.000 C 
BRANCH  12  13
ATOM     13  C   UNL     1      17.814  17.179  16.626  1.00  0.00    -0.000 C 
BRANCH  13  14
ATOM     14  C   UNL     1      17.856  17.745  18.054  1.00  0.00    -0.000 C 
BRANCH  14  15
ATOM     15  C   UNL     1      17.414  16.719  19.109  1.00  0.00    -0.003 C 
ATOM     16  C   UNL     1      17.081  17.361  20.456  1.00  0.00     0.004 C 
ENDBRANCH  14  15
ENDBRANCH  13  14
ENDBRANCH  12  13
ENDBRANCH  11  12
ENDBRANCH  10  11
ENDBRANCH   1  10
TORSDOF 12
ENDMDL
MODEL 9
REMARK VINA RESULT:    -3.426      3.083      5.014
REMARK INTER + INTRA:          -7.341
REMARK INTER:                  -5.567
REMARK INTRA:                  -1.774
REMARK UNBOUND:                -1.512
REMARK SMILES CCCCCCCCCCCCCC(=O)[O-]
REMARK SMILES IDX 8 1 9 2 10 3 11 4 12 5 13 6 14 7 15 8 16 9 7 10 6 11 5 12
REMARK SMILES IDX 4 13 3 14 2 15 1 16
REMARK H PARENT
REMARK Flexibility Score: inf
ROOT
ATOM      1  C   UNL     1      18.250  18.279  19.316  1.00  0.00     0.000 C 
ENDROOT
BRANCH   1   2
ATOM      2  C   UNL     1      17.368  17.081  19.722  1.00  0.00     0.000 C 
BRANCH   2   3
ATOM      3  C   UNL     1      18.106  15.953  20.465  1.00  0.00     0.000 C 
BRANCH   3   4
ATOM      4  C   UNL     1      19.595  15.870  20.097  1.00  0.00     0.000 C 
BRANCH   4   5
ATOM      5  C   UNL     1      19.939  14.500  19.506  1.00  0.00     0.006 C 
BRANCH   5   6
ATOM      6  C   UNL     1      19.861  14.526  17.976  1.00  0.00     0.053 C 
BRANCH   6   7
ATOM      7  C   UNL     1      20.122  13.163  17.415  1.00  0.00     0.041 C 
ATOM      8  O   UNL     1      19.843  12.909  16.213  1.00  0.00    -0.550 OA
ATOM      9  O   UNL     1      20.720  12.189  18.204  1.00  0.00    -0.550 OA
ENDBRANCH   6   7
ENDBRANCH   5   6
ENDBRANCH   4   5
ENDBRANCH   3   4
ENDBRANCH   2   3
ENDBRANCH   1   2
BRANCH   1  10
ATOM     10  C   UNL     1      18.378  18.515  17.798  1.00  0.00     0.000 C 
BRANCH  10  11
ATOM     11  C   UNL     1      19.779  18.257  17.216  1.00  0.00    -0.000 C 
BRANCH  11  12
ATOM     12  C   UNL     1      19.738  17.601  15.828  1.00  0.00    -0.000 C 
BRANCH  12  13
ATOM     13  C   UNL     1      18.315  17.610  15.259  1.00  0.00    -0.000 C 
BRANCH  13  14
ATOM     14  C   UNL     1      18.062  16.365  14.394  1.00  0.00    -0.000 C 
BRANCH  14  15
ATOM     15  C   UNL     1      17.476  15.195  15.200  1.00  0.00    -0.003 C 
ATOM     16  C   UNL     1      16.644  15.660  16.395  1.00  0.00     0.004 C 
ENDBRANCH  14  15
ENDBRANCH  13  14
ENDBRANCH  12  13
ENDBRANCH  11  12
ENDBRANCH  10  11
ENDBRANCH   1  10
TORSDOF 12
ENDMDL
