MODEL 1
REMARK VINA RESULT:    -2.583      0.000      0.000
REMARK INTER + INTRA:          -2.583
REMARK INTER:                  -2.583
REMARK INTRA:                   0.000
REMARK UNBOUND:                 0.000
REMARK SMILES O=C1CCCCC1
REMARK SMILES IDX 5 1 4 2 3 3 2 4 1 5 7 6 6 7
REMARK H PARENT
REMARK Flexibility Score: inf
ROOT
ATOM      1  C   UNL     1     114.475 117.184 119.527  1.00  0.00     0.001 C 
ATOM      2  C   UNL     1     113.925 115.782 119.831  1.00  0.00     0.008 C 
ATOM      3  C   UNL     1     114.908 114.966 120.679  1.00  0.00     0.075 C 
ATOM      4  C   UNL     1     115.346 115.758 121.880  1.00  0.00     0.132 C 
ATOM      5  O   UNL     1     115.418 115.226 122.976  1.00  0.00    -0.300 OA
ATOM      6  C   UNL     1     115.785 117.184 121.698  1.00  0.00     0.075 C 
ATOM      7  C   UNL     1     114.780 117.946 120.825  1.00  0.00     0.008 C 
ENDROOT
TORSDOF 0
ENDMDL
MODEL 2
REMARK VINA RESULT:    -2.566      2.136      2.882
REMARK INTER + INTRA:          -2.566
REMARK INTER:                  -2.566
REMARK INTRA:                   0.000
REMARK UNBOUND:                 0.000
REMARK SMILES O=C1CCCCC1
REMARK SMILES IDX 5 1 4 2 3 3 2 4 1 5 7 6 6 7
REMARK H PARENT
REMARK Flexibility Score: inf
ROOT
ATOM      1  C   UNL     1     115.985 114.436 119.399  1.00  0.00     0.001 C 
ATOM      2  C   UNL     1     117.372 113.885 119.762  1.00  0.00     0.008 C 
ATOM      3  C   UNL     1     118.162 114.879 120.623  1.00  0.00     0.075 C 
ATOM      4  C   UNL     1     117.329 115.341 121.786  1.00  0.00     0.132 C 
ATOM      5  O   UNL     1     117.822 115.429 122.900  1.00  0.00    -0.300 OA
ATOM      6  C   UNL     1     115.913 115.783 121.546  1.00  0.00     0.075 C 
ATOM      7  C   UNL     1     115.178 114.767 120.663  1.00  0.00     0.008 C 
ENDROOT
TORSDOF 0
ENDMDL
MODEL 3
REMARK VINA RESULT:    -2.551      3.217      4.132
REMARK INTER + INTRA:          -2.551
REMARK INTER:                  -2.551
REMARK INTRA:                   0.000
REMARK UNBOUND:                 0.000
REMARK SMILES O=C1CCCCC1
REMARK SMILES IDX 5 1 4 2 3 3 2 4 1 5 7 6 6 7
REMARK H PARENT
REMARK Flexibility Score: inf
ROOT
ATOM      1  C   UNL     1     118.816 116.227 119.279  1.00  0.00     0.001 C 
ATOM      2  C   UNL     1     119.332 117.591 119.764  1.00  0.00     0.008 C 
ATOM      3  C   UNL     1     118.287 118.311 120.625  1.00  0.00     0.075 C 
ATOM      4  C   UNL     1     117.778 117.397 121.704  1.00  0.00     0.132 C 
ATOM      5  O   UNL     1     117.628 117.811 122.843  1.00  0.00    -0.300 OA
ATOM      6  C   UNL     1     117.365 115.997 121.346  1.00  0.00     0.075 C 
ATOM      7  C   UNL     1     118.432 115.333 120.467  1.00  0.00     0.008 C 
ENDROOT
TORSDOF 0
ENDMDL
MODEL 4
REMARK VINA RESULT:    -2.533      2.136      2.896
REMARK INTER + INTRA:          -2.533
REMARK INTER:                  -2.533
REMARK INTRA:                   0.000
REMARK UNBOUND:                 0.000
REMARK SMILES O=C1CCCCC1
REMARK SMILES IDX 5 1 4 2 3 3 2 4 1 5 7 6 6 7
REMARK H PARENT
REMARK Flexibility Score: inf
ROOT
ATOM      1  C   UNL     1     116.985 118.834 119.293  1.00  0.00     0.001 C 
ATOM      2  C   UNL     1     115.620 119.376 119.743  1.00  0.00     0.008 C 
ATOM      3  C   UNL     1     114.862 118.350 120.594  1.00  0.00     0.075 C 
ATOM      4  C   UNL     1     115.742 117.832 121.697  1.00  0.00     0.132 C 
ATOM      5  O   UNL     1     115.299 117.698 122.827  1.00  0.00    -0.300 OA
ATOM      6  C   UNL     1     117.143 117.393 121.374  1.00  0.00     0.075 C 
ATOM      7  C   UNL     1     117.845 118.443 120.505  1.00  0.00     0.008 C 
ENDROOT
TORSDOF 0
ENDMDL
MODEL 5
REMARK VINA RESULT:    -2.529      2.113      2.853
REMARK INTER + INTRA:          -2.529
REMARK INTER:                  -2.529
REMARK INTRA:                   0.000
REMARK UNBOUND:                 0.000
REMARK SMILES O=C1CCCCC1
REMARK SMILES IDX 5 1 4 2 3 3 2 4 1 5 7 6 6 7
REMARK H PARENT
REMARK Flexibility Score: inf
ROOT
ATOM      1  C   UNL     1     117.360 113.895 119.725  1.00  0.00     0.001 C 
ATOM      2  C   UNL     1     115.945 114.439 119.477  1.00  0.00     0.008 C 
ATOM      3  C   UNL     1     115.266 114.853 120.789  1.00  0.00     0.075 C 
ATOM      4  C   UNL     1     116.171 115.753 121.585  1.00  0.00     0.132 C 
ATOM      5  O   UNL     1     115.722 116.748 122.133  1.00  0.00    -0.300 OA
ATOM      6  C   UNL     1     117.610 115.364 121.776  1.00  0.00     0.075 C 
ATOM      7  C   UNL     1     118.231 114.938 120.440  1.00  0.00     0.008 C 
ENDROOT
TORSDOF 0
ENDMDL
MODEL 6
REMARK VINA RESULT:    -2.524      1.077      2.240
REMARK INTER + INTRA:          -2.524
REMARK INTER:                  -2.524
REMARK INTRA:                   0.000
REMARK UNBOUND:                 0.000
REMARK SMILES O=C1CCCCC1
REMARK SMILES IDX 5 1 4 2 3 3 2 4 1 5 7 6 6 7
REMARK H PARENT
REMARK Flexibility Score: inf
ROOT
ATOM      1  C   UNL     1     113.912 115.605 119.768  1.00  0.00     0.001 C 
ATOM      2  C   UNL     1     114.358 117.041 119.455  1.00  0.00     0.008 C 
ATOM      3  C   UNL     1     114.764 117.792 120.730  1.00  0.00     0.075 C 
ATOM      4  C   UNL     1     115.742 116.976 121.528  1.00  0.00     0.132 C 
ATOM      5  O   UNL     1     116.721 117.506 122.030  1.00  0.00    -0.300 OA
ATOM      6  C   UNL     1     115.452 115.523 121.782  1.00  0.00     0.075 C 
ATOM      7  C   UNL     1     115.029 114.828 120.482  1.00  0.00     0.008 C 
ENDROOT
TORSDOF 0
ENDMDL
MODEL 7
REMARK VINA RESULT:    -2.515      2.647      3.247
REMARK INTER + INTRA:          -2.515
REMARK INTER:                  -2.515
REMARK INTRA:                   0.000
REMARK UNBOUND:                 0.000
REMARK SMILES O=C1CCCCC1
REMARK SMILES IDX 5 1 4 2 3 3 2 4 1 5 7 6 6 7
REMARK H PARENT
REMARK Flexibility Score: inf
ROOT
ATOM      1  C   UNL     1     114.805 118.219 120.441  1.00  0.00     0.001 C 
ATOM      2  C   UNL     1     115.456 117.748 121.750  1.00  0.00     0.008 C 
ATOM      3  C   UNL     1     116.884 117.239 121.514  1.00  0.00     0.075 C 
ATOM      4  C   UNL     1     117.676 118.248 120.730  1.00  0.00     0.132 C 
ATOM      5  O   UNL     1     118.826 118.508 121.046  1.00  0.00    -0.300 OA
ATOM      6  C   UNL     1     117.070 118.860 119.498  1.00  0.00     0.075 C 
ATOM      7  C   UNL     1     115.638 119.330 119.784  1.00  0.00     0.008 C 
ENDROOT
TORSDOF 0
ENDMDL
MODEL 8
REMARK VINA RESULT:    -2.513      2.088      2.882
REMARK INTER + INTRA:          -2.513
REMARK INTER:                  -2.513
REMARK INTRA:                   0.000
REMARK UNBOUND:                 0.000
REMARK SMILES O=C1CCCCC1
REMARK SMILES IDX 5 1 4 2 3 3 2 4 1 5 7 6 6 7
REMARK H PARENT
REMARK Flexibility Score: inf
ROOT
ATOM      1  C   UNL     1     115.535 119.343 119.773  1.00  0.00     0.001 C 
ATOM      2  C   UNL     1     116.931 118.867 119.343  1.00  0.00     0.008 C 
ATOM      3  C   UNL     1     117.763 118.409 120.548  1.00  0.00     0.075 C 
ATOM      4  C   UNL     1     116.981 117.433 121.383  1.00  0.00     0.132 C 
ATOM      5  O   UNL     1     117.519 116.428 121.821  1.00  0.00    -0.300 OA
ATOM      6  C   UNL     1     115.560 117.755 121.751  1.00  0.00     0.075 C 
ATOM      7  C   UNL     1     114.782 118.229 120.517  1.00  0.00     0.008 C 
ENDROOT
TORSDOF 0
ENDMDL
MODEL 9
REMARK VINA RESULT:    -2.505      2.971      3.451
REMARK INTER + INTRA:          -2.505
REMARK INTER:                  -2.505
REMARK INTRA:                   0.000
REMARK UNBOUND:                 0.000
REMARK SMILES O=C1CCCCC1
REMARK SMILES IDX 5 1 4 2 3 3 2 4 1 5 7 6 6 7
REMARK H PARENT
REMARK Flexibility Score: inf
ROOT
ATOM      1  C   UNL     1     119.285 117.683 119.761  1.00  0.00     0.001 C 
ATOM      2  C   UNL     1     118.823 116.280 119.341  1.00  0.00     0.008 C 
ATOM      3  C   UNL     1     118.396 115.443 120.554  1.00  0.00     0.075 C 
ATOM      4  C   UNL     1     117.422 116.213 121.402  1.00  0.00     0.132 C 
ATOM      5  O   UNL     1     116.431 115.661 121.856  1.00  0.00    -0.300 OA
ATOM      6  C   UNL     1     117.729 117.639 121.763  1.00  0.00     0.075 C 
ATOM      7  C   UNL     1     118.173 118.421 120.521  1.00  0.00     0.008 C 
ENDROOT
TORSDOF 0
ENDMDL
