MODEL 1
REMARK VINA RESULT:    -3.579      0.000      0.000
REMARK INTER + INTRA:          -4.375
REMARK INTER:                  -4.207
REMARK INTRA:                  -0.168
REMARK UNBOUND:                -0.168
REMARK SMILES [NH3+][C@H](CO)C(=O)[O-]
REMARK SMILES IDX 3 1 2 2 1 3 5 7 6 8 7 9 4 10
REMARK H PARENT 1 4 1 5 1 6 4 11
REMARK Flexibility Score: inf
ROOT
ATOM      1  C   UNL     1     134.435 134.164 133.533  1.00  0.00     0.227 C 
ENDROOT
BRANCH   1   2
ATOM      2  C   UNL     1     135.286 134.534 132.305  1.00  0.00     0.253 C 
BRANCH   2   3
ATOM      3  N   UNL     1     135.484 133.376 131.425  1.00  0.00    -0.348 N 
ATOM      4  H   UNL     1     136.468 133.368 131.068  1.00  0.00     0.345 HD
ATOM      5  H   UNL     1     135.324 132.493 131.961  1.00  0.00     0.345 HD
ATOM      6  H   UNL     1     134.827 133.405 130.611  1.00  0.00     0.345 HD
ENDBRANCH   2   3
BRANCH   2   7
ATOM      7  C   UNL     1     134.676 135.690 131.556  1.00  0.00     0.102 C 
ATOM      8  O   UNL     1     133.630 136.252 131.980  1.00  0.00    -0.544 OA
ATOM      9  O   UNL     1     135.295 136.175 130.410  1.00  0.00    -0.544 OA
ENDBRANCH   2   7
ENDBRANCH   1   2
BRANCH   1  10
ATOM     10  O   UNL     1     133.386 133.297 133.187  1.00  0.00    -0.390 OA
ATOM     11  H   UNL     1     132.854 133.754 132.484  1.00  0.00     0.210 HD
ENDBRANCH   1  10
TORSDOF 4
ENDMDL
MODEL 2
REMARK VINA RESULT:    -3.556      1.752      2.194
REMARK INTER + INTRA:          -4.348
REMARK INTER:                  -4.122
REMARK INTRA:                  -0.226
REMARK UNBOUND:                -0.168
REMARK SMILES [NH3+][C@H](CO)C(=O)[O-]
REMARK SMILES IDX 3 1 2 2 1 3 5 7 6 8 7 9 4 10
REMARK H PARENT 1 4 1 5 1 6 4 11
REMARK Flexibility Score: inf
ROOT
ATOM      1  C   UNL     1     134.315 135.720 133.839  1.00  0.00     0.227 C 
ENDROOT
BRANCH   1   2
ATOM      2  C   UNL     1     134.616 134.369 133.164  1.00  0.00     0.253 C 
BRANCH   2   3
ATOM      3  N   UNL     1     133.474 133.453 133.273  1.00  0.00    -0.348 N 
ATOM      4  H   UNL     1     133.061 133.290 132.325  1.00  0.00     0.345 HD
ATOM      5  H   UNL     1     133.793 132.533 133.653  1.00  0.00     0.345 HD
ATOM      6  H   UNL     1     132.736 133.845 133.904  1.00  0.00     0.345 HD
ENDBRANCH   2   3
BRANCH   2   7
ATOM      7  C   UNL     1     135.024 134.564 131.728  1.00  0.00     0.102 C 
ATOM      8  O   UNL     1     135.480 133.602 131.052  1.00  0.00    -0.544 OA
ATOM      9  O   UNL     1     134.854 135.804 131.123  1.00  0.00    -0.544 OA
ENDBRANCH   2   7
ENDBRANCH   1   2
BRANCH   1  10
ATOM     10  O   UNL     1     133.106 136.265 133.377  1.00  0.00    -0.390 OA
ATOM     11  H   UNL     1     132.439 136.142 134.102  1.00  0.00     0.210 HD
ENDBRANCH   1  10
TORSDOF 4
ENDMDL
MODEL 3
REMARK VINA RESULT:    -3.492      2.092      2.717
REMARK INTER + INTRA:          -4.272
REMARK INTER:                  -3.918
REMARK INTRA:                  -0.354
REMARK UNBOUND:                -0.168
REMARK SMILES [NH3+][C@H](CO)C(=O)[O-]
REMARK SMILES IDX 3 1 2 2 1 3 5 7 6 8 7 9 4 10
REMARK H PARENT 1 4 1 5 1 6 4 11
REMARK Flexibility Score: inf
ROOT
ATOM      1  C   UNL     1     135.318 133.692 131.456  1.00  0.00     0.227 C 
ENDROOT
BRANCH   1   2
ATOM      2  C   UNL     1     134.331 134.296 132.471  1.00  0.00     0.253 C 
BRANCH   2   3
ATOM      3  N   UNL     1     133.722 133.253 133.307  1.00  0.00    -0.348 N 
ATOM      4  H   UNL     1     134.469 132.630 133.693  1.00  0.00     0.345 HD
ATOM      5  H   UNL     1     133.217 133.694 134.109  1.00  0.00     0.345 HD
ATOM      6  H   UNL     1     133.047 132.676 132.755  1.00  0.00     0.345 HD
ENDBRANCH   2   3
BRANCH   2   7
ATOM      7  C   UNL     1     135.002 135.348 133.314  1.00  0.00     0.102 C 
ATOM      8  O   UNL     1     135.030 136.552 132.940  1.00  0.00    -0.544 OA
ATOM      9  O   UNL     1     135.557 135.002 134.541  1.00  0.00    -0.544 OA
ENDBRANCH   2   7
ENDBRANCH   1   2
BRANCH   1  10
ATOM     10  O   UNL     1     136.584 134.292 131.552  1.00  0.00    -0.390 OA
ATOM     11  H   UNL     1     136.637 134.971 130.830  1.00  0.00     0.210 HD
ENDBRANCH   1  10
TORSDOF 4
ENDMDL
MODEL 4
REMARK VINA RESULT:    -3.393      2.686      2.968
REMARK INTER + INTRA:          -4.156
REMARK INTER:                  -3.796
REMARK INTRA:                  -0.360
REMARK UNBOUND:                -0.168
REMARK SMILES [NH3+][C@H](CO)C(=O)[O-]
REMARK SMILES IDX 3 1 2 2 1 3 5 7 6 8 7 9 4 10
REMARK H PARENT 1 4 1 5 1 6 4 11
REMARK Flexibility Score: inf
ROOT
ATOM      1  C   UNL     1     134.341 134.223 132.338  1.00  0.00     0.227 C 
ENDROOT
BRANCH   1   2
ATOM      2  C   UNL     1     134.399 135.627 132.968  1.00  0.00     0.253 C 
BRANCH   2   3
ATOM      3  N   UNL     1     133.185 136.396 132.666  1.00  0.00    -0.348 N 
ATOM      4  H   UNL     1     132.769 136.060 131.767  1.00  0.00     0.345 HD
ATOM      5  H   UNL     1     132.480 136.258 133.426  1.00  0.00     0.345 HD
ATOM      6  H   UNL     1     133.399 137.418 132.582  1.00  0.00     0.345 HD
ENDBRANCH   2   3
BRANCH   2   7
ATOM      7  C   UNL     1     134.634 135.541 134.454  1.00  0.00     0.102 C 
ATOM      8  O   UNL     1     133.693 135.747 135.268  1.00  0.00    -0.544 OA
ATOM      9  O   UNL     1     135.888 135.185 134.935  1.00  0.00    -0.544 OA
ENDBRANCH   2   7
ENDBRANCH   1   2
BRANCH   1  10
ATOM     10  O   UNL     1     134.107 133.235 133.308  1.00  0.00    -0.390 OA
ATOM     11  H   UNL     1     133.501 132.565 132.895  1.00  0.00     0.210 HD
ENDBRANCH   1  10
TORSDOF 4
ENDMDL
MODEL 5
REMARK VINA RESULT:    -3.352      2.127      2.178
REMARK INTER + INTRA:          -4.108
REMARK INTER:                  -3.735
REMARK INTRA:                  -0.373
REMARK UNBOUND:                -0.168
REMARK SMILES [NH3+][C@H](CO)C(=O)[O-]
REMARK SMILES IDX 3 1 2 2 1 3 5 7 6 8 7 9 4 10
REMARK H PARENT 1 4 1 5 1 6 4 11
REMARK Flexibility Score: inf
ROOT
ATOM      1  C   UNL     1     134.304 134.075 132.346  1.00  0.00     0.227 C 
ENDROOT
BRANCH   1   2
ATOM      2  C   UNL     1     134.016 135.545 131.988  1.00  0.00     0.253 C 
BRANCH   2   3
ATOM      3  N   UNL     1     133.477 136.279 133.140  1.00  0.00    -0.348 N 
ATOM      4  H   UNL     1     132.484 136.548 132.953  1.00  0.00     0.345 HD
ATOM      5  H   UNL     1     133.497 135.669 133.988  1.00  0.00     0.345 HD
ATOM      6  H   UNL     1     134.036 137.144 133.329  1.00  0.00     0.345 HD
ENDBRANCH   2   3
BRANCH   2   7
ATOM      7  C   UNL     1     135.249 136.217 131.442  1.00  0.00     0.102 C 
ATOM      8  O   UNL     1     136.062 136.795 132.212  1.00  0.00    -0.544 OA
ATOM      9  O   UNL     1     135.521 136.160 130.080  1.00  0.00    -0.544 OA
ENDBRANCH   2   7
ENDBRANCH   1   2
BRANCH   1  10
ATOM     10  O   UNL     1     135.539 133.654 131.830  1.00  0.00    -0.390 OA
ATOM     11  H   UNL     1     136.231 133.908 132.495  1.00  0.00     0.210 HD
ENDBRANCH   1  10
TORSDOF 4
ENDMDL
MODEL 6
REMARK VINA RESULT:    -3.275      1.972      3.097
REMARK INTER + INTRA:          -4.017
REMARK INTER:                  -3.793
REMARK INTRA:                  -0.224
REMARK UNBOUND:                -0.168
REMARK SMILES [NH3+][C@H](CO)C(=O)[O-]
REMARK SMILES IDX 3 1 2 2 1 3 5 7 6 8 7 9 4 10
REMARK H PARENT 1 4 1 5 1 6 4 11
REMARK Flexibility Score: inf
ROOT
ATOM      1  C   UNL     1     135.470 136.552 131.817  1.00  0.00     0.227 C 
ENDROOT
BRANCH   1   2
ATOM      2  C   UNL     1     134.581 135.882 132.881  1.00  0.00     0.253 C 
BRANCH   2   3
ATOM      3  N   UNL     1     133.215 136.419 132.848  1.00  0.00    -0.348 N 
ATOM      4  H   UNL     1     132.625 135.924 133.556  1.00  0.00     0.345 HD
ATOM      5  H   UNL     1     133.229 137.436 133.087  1.00  0.00     0.345 HD
ATOM      6  H   UNL     1     132.786 136.297 131.901  1.00  0.00     0.345 HD
ENDBRANCH   2   3
BRANCH   2   7
ATOM      7  C   UNL     1     134.583 134.385 132.718  1.00  0.00     0.102 C 
ATOM      8  O   UNL     1     133.874 133.655 133.463  1.00  0.00    -0.544 OA
ATOM      9  O   UNL     1     135.336 133.801 131.706  1.00  0.00    -0.544 OA
ENDBRANCH   2   7
ENDBRANCH   1   2
BRANCH   1  10
ATOM     10  O   UNL     1     134.952 136.368 130.525  1.00  0.00    -0.390 OA
ATOM     11  H   UNL     1     135.643 136.689 129.889  1.00  0.00     0.210 HD
ENDBRANCH   1  10
TORSDOF 4
ENDMDL
MODEL 7
REMARK VINA RESULT:    -3.204     16.442     16.741
REMARK INTER + INTRA:          -3.934
REMARK INTER:                  -3.926
REMARK INTRA:                  -0.008
REMARK UNBOUND:                -0.168
REMARK SMILES [NH3+][C@H](CO)C(=O)[O-]
REMARK SMILES IDX 3 1 2 2 1 3 5 7 6 8 7 9 4 10
REMARK H PARENT 1 4 1 5 1 6 4 11
REMARK Flexibility Score: inf
ROOT
ATOM      1  C   UNL     1     131.548 118.627 133.956  1.00  0.00     0.227 C 
ENDROOT
BRANCH   1   2
ATOM      2  C   UNL     1     130.165 118.802 133.303  1.00  0.00     0.253 C 
BRANCH   2   3
ATOM      3  N   UNL     1     129.709 120.195 133.385  1.00  0.00    -0.348 N 
ATOM      4  H   UNL     1     128.748 120.276 132.980  1.00  0.00     0.345 HD
ATOM      5  H   UNL     1     129.668 120.495 134.386  1.00  0.00     0.345 HD
ATOM      6  H   UNL     1     130.354 120.833 132.864  1.00  0.00     0.345 HD
ENDBRANCH   2   3
BRANCH   2   7
ATOM      7  C   UNL     1     130.177 118.315 131.878  1.00  0.00     0.102 C 
ATOM      8  O   UNL     1     129.126 118.336 131.181  1.00  0.00    -0.544 OA
ATOM      9  O   UNL     1     131.368 117.883 131.306  1.00  0.00    -0.544 OA
ENDBRANCH   2   7
ENDBRANCH   1   2
BRANCH   1  10
ATOM     10  O   UNL     1     131.535 119.034 135.300  1.00  0.00    -0.390 OA
ATOM     11  H   UNL     1     130.970 119.849 135.349  1.00  0.00     0.210 HD
ENDBRANCH   1  10
TORSDOF 4
ENDMDL
MODEL 8
REMARK VINA RESULT:    -3.152      1.398      2.713
REMARK INTER + INTRA:          -3.872
REMARK INTER:                  -3.651
REMARK INTRA:                  -0.222
REMARK UNBOUND:                -0.168
REMARK SMILES [NH3+][C@H](CO)C(=O)[O-]
REMARK SMILES IDX 3 1 2 2 1 3 5 7 6 8 7 9 4 10
REMARK H PARENT 1 4 1 5 1 6 4 11
REMARK Flexibility Score: inf
ROOT
ATOM      1  C   UNL     1     136.000 135.304 130.596  1.00  0.00     0.227 C 
ENDROOT
BRANCH   1   2
ATOM      2  C   UNL     1     134.900 134.637 131.443  1.00  0.00     0.253 C 
BRANCH   2   3
ATOM      3  N   UNL     1     135.395 133.417 132.092  1.00  0.00    -0.348 N 
ATOM      4  H   UNL     1     135.620 132.698 131.367  1.00  0.00     0.345 HD
ATOM      5  H   UNL     1     136.268 133.629 132.626  1.00  0.00     0.345 HD
ATOM      6  H   UNL     1     134.680 133.025 132.750  1.00  0.00     0.345 HD
ENDBRANCH   2   3
BRANCH   2   7
ATOM      7  C   UNL     1     134.338 135.603 132.453  1.00  0.00     0.102 C 
ATOM      8  O   UNL     1     133.400 136.386 132.142  1.00  0.00    -0.544 OA
ATOM      9  O   UNL     1     134.823 135.601 133.755  1.00  0.00    -0.544 OA
ENDBRANCH   2   7
ENDBRANCH   1   2
BRANCH   1  10
ATOM     10  O   UNL     1     135.514 136.440 129.928  1.00  0.00    -0.390 OA
ATOM     11  H   UNL     1     135.445 137.164 130.604  1.00  0.00     0.210 HD
ENDBRANCH   1  10
TORSDOF 4
ENDMDL
MODEL 9
REMARK VINA RESULT:    -2.930      2.255      3.250
REMARK INTER + INTRA:          -3.611
REMARK INTER:                  -3.386
REMARK INTRA:                  -0.225
REMARK UNBOUND:                -0.168
REMARK SMILES [NH3+][C@H](CO)C(=O)[O-]
REMARK SMILES IDX 3 1 2 2 1 3 5 7 6 8 7 9 4 10
REMARK H PARENT 1 4 1 5 1 6 4 11
REMARK Flexibility Score: inf
ROOT
ATOM      1  C   UNL     1     136.281 137.141 132.020  1.00  0.00     0.227 C 
ENDROOT
BRANCH   1   2
ATOM      2  C   UNL     1     135.298 136.244 131.244  1.00  0.00     0.253 C 
BRANCH   2   3
ATOM      3  N   UNL     1     135.565 136.285 129.801  1.00  0.00    -0.348 N 
ATOM      4  H   UNL     1     135.002 135.547 129.318  1.00  0.00     0.345 HD
ATOM      5  H   UNL     1     135.286 137.215 129.416  1.00  0.00     0.345 HD
ATOM      6  H   UNL     1     136.581 136.124 129.603  1.00  0.00     0.345 HD
ENDBRANCH   2   3
BRANCH   2   7
ATOM      7  C   UNL     1     135.331 134.832 131.766  1.00  0.00     0.102 C 
ATOM      8  O   UNL     1     135.587 133.867 130.996  1.00  0.00    -0.544 OA
ATOM      9  O   UNL     1     135.126 134.590 133.119  1.00  0.00    -0.544 OA
ENDBRANCH   2   7
ENDBRANCH   1   2
BRANCH   1  10
ATOM     10  O   UNL     1     135.836 137.375 133.331  1.00  0.00    -0.390 OA
ATOM     11  H   UNL     1     135.608 138.340 133.390  1.00  0.00     0.210 HD
ENDBRANCH   1  10
TORSDOF 4
ENDMDL
