MODEL 1
REMARK VINA RESULT:    -6.361      0.000      0.000
REMARK INTER + INTRA:          -7.038
REMARK INTER:                  -6.919
REMARK INTRA:                  -0.119
REMARK UNBOUND:                -0.119
REMARK SMILES C[C@@H]1[C@H]2C3=CC[C@@H]4[C@]5(C)CC[C@@H](O)C(C)(C)[C@@H]5CC[C@]4(C)[C@]3(C)CC[C@@]2(C(=O)[O-])CC[C@@H]1C
REMARK SMILES IDX 26 1 30 2 25 3 3 4 31 5 24 6 4 7 2 8 32 9 22 10 5 11 1 12
REMARK SMILES IDX 33 13 23 14 20 15 6 16 7 17 19 18 21 19 8 20 18 21 17 22
REMARK SMILES IDX 10 23 9 24 14 25 11 26 12 27 15 28 16 29 27 30 28 31 29 32
REMARK SMILES IDX 13 33
REMARK H PARENT 13 34
REMARK Flexibility Score: inf
ROOT
ATOM      1  C   UNL     1      34.342 -37.243   6.080  1.00  0.00     0.017 C 
ATOM      2  C   UNL     1      34.622 -36.390   4.806  1.00  0.00     0.014 C 
ATOM      3  C   UNL     1      35.684 -37.548   6.829  1.00  0.00     0.014 C 
ATOM      4  C   UNL     1      33.602 -38.581   5.719  1.00  0.00     0.030 C 
ATOM      5  C   UNL     1      35.190 -37.180   3.623  1.00  0.00     0.004 C 
ATOM      6  C   UNL     1      35.537 -38.483   8.068  1.00  0.00     0.013 C 
ATOM      7  C   UNL     1      33.515 -39.441   6.993  1.00  0.00    -0.063 C 
ATOM      8  C   UNL     1      34.134 -39.321   4.451  1.00  0.00    -0.003 C 
ATOM      9  C   UNL     1      34.293 -38.367   3.236  1.00  0.00    -0.011 C 
ATOM     10  C   UNL     1      34.797 -39.825   7.773  1.00  0.00    -0.006 C 
ATOM     11  C   UNL     1      32.353 -39.320   7.671  1.00  0.00    -0.027 C 
ATOM     12  C   UNL     1      33.248 -40.535   4.108  1.00  0.00     0.008 C 
ATOM     13  C   UNL     1      32.962 -37.909   2.607  1.00  0.00     0.008 C 
ATOM     14  C   UNL     1      35.753 -40.695   6.890  1.00  0.00     0.017 C 
ATOM     15  C   UNL     1      34.402 -40.677   9.106  1.00  0.00    -0.020 C 
ATOM     16  C   UNL     1      32.363 -39.031   9.138  1.00  0.00     0.032 C 
ATOM     17  C   UNL     1      33.201 -40.043   9.947  1.00  0.00     0.006 C 
ATOM     18  C   UNL     1      35.638 -40.892  10.025  1.00  0.00     0.008 C 
ATOM     19  C   UNL     1      33.931 -42.109   8.656  1.00  0.00     0.012 C 
ATOM     20  C   UNL     1      33.466 -39.626  11.471  1.00  0.00    -0.025 C 
ATOM     21  C   UNL     1      35.328 -41.480  11.401  1.00  0.00     0.005 C 
ATOM     22  C   UNL     1      34.161 -40.838  12.231  1.00  0.00     0.003 C 
ATOM     23  C   UNL     1      34.326 -38.333  11.632  1.00  0.00     0.010 C 
ATOM     24  C   UNL     1      32.056 -39.328  12.088  1.00  0.00     0.012 C 
ATOM     25  C   UNL     1      34.601 -40.538  13.738  1.00  0.00    -0.006 C 
ATOM     26  C   UNL     1      34.729 -38.035  13.088  1.00  0.00     0.033 C 
ATOM     27  C   UNL     1      35.440 -39.223  13.766  1.00  0.00     0.120 C 
ATOM     28  C   UNL     1      33.366 -40.444  14.701  1.00  0.00     0.014 C 
ATOM     29  C   UNL     1      35.478 -41.703  14.315  1.00  0.00     0.014 C 
ENDROOT
BRANCH   1  30
ATOM     30  C   UNL     1      33.437 -36.380   6.970  1.00  0.00     0.048 C 
ATOM     31  O   UNL     1      33.855 -35.880   8.052  1.00  0.00    -0.550 OA
ATOM     32  O   UNL     1      32.123 -36.135   6.585  1.00  0.00    -0.550 OA
ENDBRANCH   1  30
BRANCH  27  33
ATOM     33  O   UNL     1      35.753 -38.885  15.096  1.00  0.00    -0.393 OA
ATOM     34  H   UNL     1      36.463 -38.191  15.059  1.00  0.00     0.210 HD
ENDBRANCH  27  33
TORSDOF 2
ENDMDL
MODEL 2
REMARK VINA RESULT:    -6.340      4.343     10.016
REMARK INTER + INTRA:          -7.015
REMARK INTER:                  -6.896
REMARK INTRA:                  -0.119
REMARK UNBOUND:                -0.119
REMARK SMILES C[C@@H]1[C@H]2C3=CC[C@@H]4[C@]5(C)CC[C@@H](O)C(C)(C)[C@@H]5CC[C@]4(C)[C@]3(C)CC[C@@]2(C(=O)[O-])CC[C@@H]1C
REMARK SMILES IDX 26 1 30 2 25 3 3 4 31 5 24 6 4 7 2 8 32 9 22 10 5 11 1 12
REMARK SMILES IDX 33 13 23 14 20 15 6 16 7 17 19 18 21 19 8 20 18 21 17 22
REMARK SMILES IDX 10 23 9 24 14 25 11 26 12 27 15 28 16 29 27 30 28 31 29 32
REMARK SMILES IDX 13 33
REMARK H PARENT 13 34
REMARK Flexibility Score: inf
ROOT
ATOM      1  C   UNL     1      34.289 -37.529   4.189  1.00  0.00     0.017 C 
ATOM      2  C   UNL     1      34.399 -36.336   5.186  1.00  0.00     0.014 C 
ATOM      3  C   UNL     1      33.018 -37.363   3.288  1.00  0.00     0.014 C 
ATOM      4  C   UNL     1      34.243 -38.903   4.948  1.00  0.00     0.030 C 
ATOM      5  C   UNL     1      33.446 -36.417   6.383  1.00  0.00     0.004 C 
ATOM      6  C   UNL     1      32.751 -38.553   2.317  1.00  0.00     0.013 C 
ATOM      7  C   UNL     1      33.963 -40.013   3.917  1.00  0.00    -0.063 C 
ATOM      8  C   UNL     1      33.342 -38.937   6.222  1.00  0.00    -0.003 C 
ATOM      9  C   UNL     1      33.610 -37.731   7.164  1.00  0.00    -0.011 C 
ATOM     10  C   UNL     1      32.706 -39.949   3.013  1.00  0.00    -0.006 C 
ATOM     11  C   UNL     1      35.067 -40.635   3.452  1.00  0.00    -0.027 C 
ATOM     12  C   UNL     1      33.486 -40.280   6.966  1.00  0.00     0.008 C 
ATOM     13  C   UNL     1      34.954 -37.796   7.916  1.00  0.00     0.008 C 
ATOM     14  C   UNL     1      31.396 -39.998   3.868  1.00  0.00     0.017 C 
ATOM     15  C   UNL     1      32.700 -41.210   1.981  1.00  0.00    -0.020 C 
ATOM     16  C   UNL     1      35.286 -40.784   1.981  1.00  0.00     0.032 C 
ATOM     17  C   UNL     1      34.103 -41.464   1.260  1.00  0.00     0.006 C 
ATOM     18  C   UNL     1      31.576 -41.064   0.916  1.00  0.00     0.008 C 
ATOM     19  C   UNL     1      32.370 -42.514   2.795  1.00  0.00     0.012 C 
ATOM     20  C   UNL     1      34.168 -41.400  -0.340  1.00  0.00    -0.025 C 
ATOM     21  C   UNL     1      31.630 -42.075  -0.228  1.00  0.00     0.005 C 
ATOM     22  C   UNL     1      33.006 -42.302  -0.946  1.00  0.00     0.003 C 
ATOM     23  C   UNL     1      34.076 -39.953  -0.919  1.00  0.00     0.010 C 
ATOM     24  C   UNL     1      35.572 -41.973  -0.737  1.00  0.00     0.012 C 
ATOM     25  C   UNL     1      32.861 -42.251  -2.537  1.00  0.00    -0.006 C 
ATOM     26  C   UNL     1      33.958 -39.907  -2.454  1.00  0.00     0.033 C 
ATOM     27  C   UNL     1      32.790 -40.759  -2.989  1.00  0.00     0.120 C 
ATOM     28  C   UNL     1      34.031 -43.008  -3.257  1.00  0.00     0.014 C 
ATOM     29  C   UNL     1      31.555 -42.979  -3.010  1.00  0.00     0.014 C 
ENDROOT
BRANCH   1  30
ATOM     30  C   UNL     1      35.552 -37.464   3.319  1.00  0.00     0.048 C 
ATOM     31  O   UNL     1      35.500 -37.144   2.098  1.00  0.00    -0.550 OA
ATOM     32  O   UNL     1      36.790 -37.762   3.880  1.00  0.00    -0.550 OA
ENDBRANCH   1  30
BRANCH  27  33
ATOM     33  O   UNL     1      32.763 -40.688  -4.394  1.00  0.00    -0.393 OA
ATOM     34  H   UNL     1      33.707 -40.696  -4.703  1.00  0.00     0.210 HD
ENDBRANCH  27  33
TORSDOF 2
ENDMDL
MODEL 3
REMARK VINA RESULT:    -6.202      4.221      9.900
REMARK INTER + INTRA:          -6.864
REMARK INTER:                  -6.748
REMARK INTRA:                  -0.116
REMARK UNBOUND:                -0.119
REMARK SMILES C[C@@H]1[C@H]2C3=CC[C@@H]4[C@]5(C)CC[C@@H](O)C(C)(C)[C@@H]5CC[C@]4(C)[C@]3(C)CC[C@@]2(C(=O)[O-])CC[C@@H]1C
REMARK SMILES IDX 26 1 30 2 25 3 3 4 31 5 24 6 4 7 2 8 32 9 22 10 5 11 1 12
REMARK SMILES IDX 33 13 23 14 20 15 6 16 7 17 19 18 21 19 8 20 18 21 17 22
REMARK SMILES IDX 10 23 9 24 14 25 11 26 12 27 15 28 16 29 27 30 28 31 29 32
REMARK SMILES IDX 13 33
REMARK H PARENT 13 34
REMARK Flexibility Score: inf
ROOT
ATOM      1  C   UNL     1      35.690 -37.426   4.963  1.00  0.00     0.017 C 
ATOM      2  C   UNL     1      35.993 -36.457   6.146  1.00  0.00     0.014 C 
ATOM      3  C   UNL     1      35.281 -36.610   3.689  1.00  0.00     0.014 C 
ATOM      4  C   UNL     1      34.560 -38.450   5.340  1.00  0.00     0.030 C 
ATOM      5  C   UNL     1      34.750 -35.875   6.826  1.00  0.00     0.004 C 
ATOM      6  C   UNL     1      34.856 -37.481   2.469  1.00  0.00     0.013 C 
ATOM      7  C   UNL     1      34.198 -39.254   4.077  1.00  0.00    -0.063 C 
ATOM      8  C   UNL     1      33.346 -37.854   6.120  1.00  0.00    -0.003 C 
ATOM      9  C   UNL     1      33.793 -36.972   7.318  1.00  0.00    -0.011 C 
ATOM     10  C   UNL     1      33.743 -38.528   2.786  1.00  0.00    -0.006 C 
ATOM     11  C   UNL     1      34.836 -40.439   3.967  1.00  0.00    -0.027 C 
ATOM     12  C   UNL     1      32.375 -38.966   6.564  1.00  0.00     0.008 C 
ATOM     13  C   UNL     1      34.375 -37.761   8.508  1.00  0.00     0.008 C 
ATOM     14  C   UNL     1      32.416 -37.734   3.025  1.00  0.00     0.017 C 
ATOM     15  C   UNL     1      33.491 -39.616   1.598  1.00  0.00    -0.020 C 
ATOM     16  C   UNL     1      35.554 -40.794   2.704  1.00  0.00     0.032 C 
ATOM     17  C   UNL     1      34.657 -40.698   1.452  1.00  0.00     0.006 C 
ATOM     18  C   UNL     1      33.246 -38.913   0.232  1.00  0.00     0.008 C 
ATOM     19  C   UNL     1      32.176 -40.412   1.927  1.00  0.00     0.012 C 
ATOM     20  C   UNL     1      35.440 -40.802   0.058  1.00  0.00    -0.025 C 
ATOM     21  C   UNL     1      33.225 -39.842  -0.980  1.00  0.00     0.005 C 
ATOM     22  C   UNL     1      34.385 -40.888  -1.128  1.00  0.00     0.003 C 
ATOM     23  C   UNL     1      36.434 -39.624  -0.197  1.00  0.00     0.010 C 
ATOM     24  C   UNL     1      36.288 -42.118   0.137  1.00  0.00     0.012 C 
ATOM     25  C   UNL     1      35.009 -40.877  -2.600  1.00  0.00    -0.006 C 
ATOM     26  C   UNL     1      37.050 -39.630  -1.608  1.00  0.00     0.033 C 
ATOM     27  C   UNL     1      35.987 -39.668  -2.724  1.00  0.00     0.120 C 
ATOM     28  C   UNL     1      35.731 -42.228  -2.940  1.00  0.00     0.014 C 
ATOM     29  C   UNL     1      33.890 -40.729  -3.688  1.00  0.00     0.014 C 
ENDROOT
BRANCH   1  30
ATOM     30  C   UNL     1      36.999 -38.181   4.695  1.00  0.00     0.048 C 
ATOM     31  O   UNL     1      37.656 -38.010   3.629  1.00  0.00    -0.550 OA
ATOM     32  O   UNL     1      37.484 -39.076   5.643  1.00  0.00    -0.550 OA
ENDBRANCH   1  30
BRANCH  27  33
ATOM     33  O   UNL     1      36.624 -39.697  -3.979  1.00  0.00    -0.393 OA
ATOM     34  H   UNL     1      36.003 -39.272  -4.628  1.00  0.00     0.210 HD
ENDBRANCH  27  33
TORSDOF 2
ENDMDL
MODEL 4
REMARK VINA RESULT:    -6.170      3.398      8.950
REMARK INTER + INTRA:          -6.830
REMARK INTER:                  -6.749
REMARK INTRA:                  -0.081
REMARK UNBOUND:                -0.119
REMARK SMILES C[C@@H]1[C@H]2C3=CC[C@@H]4[C@]5(C)CC[C@@H](O)C(C)(C)[C@@H]5CC[C@]4(C)[C@]3(C)CC[C@@]2(C(=O)[O-])CC[C@@H]1C
REMARK SMILES IDX 26 1 30 2 25 3 3 4 31 5 24 6 4 7 2 8 32 9 22 10 5 11 1 12
REMARK SMILES IDX 33 13 23 14 20 15 6 16 7 17 19 18 21 19 8 20 18 21 17 22
REMARK SMILES IDX 10 23 9 24 14 25 11 26 12 27 15 28 16 29 27 30 28 31 29 32
REMARK SMILES IDX 13 33
REMARK H PARENT 13 34
REMARK Flexibility Score: inf
ROOT
ATOM      1  C   UNL     1      33.425 -37.073   5.862  1.00  0.00     0.017 C 
ATOM      2  C   UNL     1      33.386 -35.876   6.859  1.00  0.00     0.014 C 
ATOM      3  C   UNL     1      32.151 -37.058   4.950  1.00  0.00     0.014 C 
ATOM      4  C   UNL     1      33.536 -38.444   6.621  1.00  0.00     0.030 C 
ATOM      5  C   UNL     1      32.440 -36.070   8.048  1.00  0.00     0.004 C 
ATOM      6  C   UNL     1      32.033 -38.271   3.979  1.00  0.00     0.013 C 
ATOM      7  C   UNL     1      33.397 -39.578   5.589  1.00  0.00    -0.063 C 
ATOM      8  C   UNL     1      32.636 -38.584   7.889  1.00  0.00    -0.003 C 
ATOM      9  C   UNL     1      32.753 -37.355   8.831  1.00  0.00    -0.011 C 
ATOM     10  C   UNL     1      32.149 -39.663   4.675  1.00  0.00    -0.006 C 
ATOM     11  C   UNL     1      34.571 -40.066   5.132  1.00  0.00    -0.027 C 
ATOM     12  C   UNL     1      32.932 -39.902   8.633  1.00  0.00     0.008 C 
ATOM     13  C   UNL     1      34.089 -37.261   9.594  1.00  0.00     0.008 C 
ATOM     14  C   UNL     1      30.847 -39.867   5.520  1.00  0.00     0.017 C 
ATOM     15  C   UNL     1      32.300 -40.916   3.643  1.00  0.00    -0.020 C 
ATOM     16  C   UNL     1      34.817 -40.187   3.663  1.00  0.00     0.032 C 
ATOM     17  C   UNL     1      33.729 -41.001   2.933  1.00  0.00     0.006 C 
ATOM     18  C   UNL     1      31.175 -40.903   2.570  1.00  0.00     0.008 C 
ATOM     19  C   UNL     1      32.120 -42.250   4.456  1.00  0.00     0.012 C 
ATOM     20  C   UNL     1      33.797 -40.930   1.334  1.00  0.00    -0.025 C 
ATOM     21  C   UNL     1      31.356 -41.900   1.427  1.00  0.00     0.005 C 
ATOM     22  C   UNL     1      32.756 -41.963   0.720  1.00  0.00     0.003 C 
ATOM     23  C   UNL     1      33.539 -39.503   0.753  1.00  0.00     0.010 C 
ATOM     24  C   UNL     1      35.263 -41.333   0.948  1.00  0.00     0.012 C 
ATOM     25  C   UNL     1      32.617 -41.928  -0.873  1.00  0.00    -0.006 C 
ATOM     26  C   UNL     1      33.429 -39.472  -0.782  1.00  0.00     0.033 C 
ATOM     27  C   UNL     1      32.374 -40.455  -1.326  1.00  0.00     0.120 C 
ATOM     28  C   UNL     1      33.875 -42.542  -1.583  1.00  0.00     0.014 C 
ATOM     29  C   UNL     1      31.411 -42.805  -1.355  1.00  0.00     0.014 C 
ENDROOT
BRANCH   1  30
ATOM     30  C   UNL     1      34.678 -36.860   5.002  1.00  0.00     0.048 C 
ATOM     31  O   UNL     1      35.838 -36.883   5.502  1.00  0.00    -0.550 OA
ATOM     32  O   UNL     1      34.545 -36.636   3.634  1.00  0.00    -0.550 OA
ENDBRANCH   1  30
BRANCH  27  33
ATOM     33  O   UNL     1      32.349 -40.387  -2.731  1.00  0.00    -0.393 OA
ATOM     34  H   UNL     1      31.544 -40.886  -3.031  1.00  0.00     0.210 HD
ENDBRANCH  27  33
TORSDOF 2
ENDMDL
MODEL 5
REMARK VINA RESULT:    -6.064     11.745     14.159
REMARK INTER + INTRA:          -6.715
REMARK INTER:                  -6.600
REMARK INTRA:                  -0.115
REMARK UNBOUND:                -0.119
REMARK SMILES C[C@@H]1[C@H]2C3=CC[C@@H]4[C@]5(C)CC[C@@H](O)C(C)(C)[C@@H]5CC[C@]4(C)[C@]3(C)CC[C@@]2(C(=O)[O-])CC[C@@H]1C
REMARK SMILES IDX 26 1 30 2 25 3 3 4 31 5 24 6 4 7 2 8 32 9 22 10 5 11 1 12
REMARK SMILES IDX 33 13 23 14 20 15 6 16 7 17 19 18 21 19 8 20 18 21 17 22
REMARK SMILES IDX 10 23 9 24 14 25 11 26 12 27 15 28 16 29 27 30 28 31 29 32
REMARK SMILES IDX 13 33
REMARK H PARENT 13 34
REMARK Flexibility Score: inf
ROOT
ATOM      1  C   UNL     1      34.780 -41.773  -3.479  1.00  0.00     0.017 C 
ATOM      2  C   UNL     1      33.255 -41.968  -3.735  1.00  0.00     0.014 C 
ATOM      3  C   UNL     1      35.516 -41.449  -4.824  1.00  0.00     0.014 C 
ATOM      4  C   UNL     1      35.413 -43.043  -2.804  1.00  0.00     0.030 C 
ATOM      5  C   UNL     1      32.882 -43.320  -4.352  1.00  0.00     0.004 C 
ATOM      6  C   UNL     1      37.065 -41.332  -4.704  1.00  0.00     0.013 C 
ATOM      7  C   UNL     1      36.938 -42.845  -2.740  1.00  0.00    -0.063 C 
ATOM      8  C   UNL     1      34.943 -44.414  -3.383  1.00  0.00    -0.003 C 
ATOM      9  C   UNL     1      33.398 -44.500  -3.513  1.00  0.00    -0.011 C 
ATOM     10  C   UNL     1      37.750 -42.562  -4.030  1.00  0.00    -0.006 C 
ATOM     11  C   UNL     1      37.390 -42.352  -1.567  1.00  0.00    -0.027 C 
ATOM     12  C   UNL     1      35.510 -45.586  -2.556  1.00  0.00     0.008 C 
ATOM     13  C   UNL     1      32.651 -44.630  -2.171  1.00  0.00     0.008 C 
ATOM     14  C   UNL     1      37.646 -43.757  -5.034  1.00  0.00     0.017 C 
ATOM     15  C   UNL     1      39.320 -42.331  -3.657  1.00  0.00    -0.020 C 
ATOM     16  C   UNL     1      38.296 -41.164  -1.546  1.00  0.00     0.032 C 
ATOM     17  C   UNL     1      39.555 -41.349  -2.419  1.00  0.00     0.006 C 
ATOM     18  C   UNL     1      40.125 -41.831  -4.891  1.00  0.00     0.008 C 
ATOM     19  C   UNL     1      39.942 -43.718  -3.257  1.00  0.00     0.012 C 
ATOM     20  C   UNL     1      40.414 -40.016  -2.648  1.00  0.00    -0.025 C 
ATOM     21  C   UNL     1      41.551 -41.371  -4.592  1.00  0.00     0.005 C 
ATOM     22  C   UNL     1      41.771 -40.389  -3.387  1.00  0.00     0.003 C 
ATOM     23  C   UNL     1      39.659 -38.907  -3.447  1.00  0.00     0.010 C 
ATOM     24  C   UNL     1      40.707 -39.442  -1.218  1.00  0.00     0.012 C 
ATOM     25  C   UNL     1      42.691 -39.147  -3.796  1.00  0.00    -0.006 C 
ATOM     26  C   UNL     1      40.543 -37.702  -3.819  1.00  0.00     0.033 C 
ATOM     27  C   UNL     1      41.822 -38.111  -4.575  1.00  0.00     0.120 C 
ATOM     28  C   UNL     1      43.376 -38.490  -2.546  1.00  0.00     0.014 C 
ATOM     29  C   UNL     1      43.876 -39.599  -4.717  1.00  0.00     0.014 C 
ENDROOT
BRANCH   1  30
ATOM     30  C   UNL     1      34.894 -40.575  -2.526  1.00  0.00     0.048 C 
ATOM     31  O   UNL     1      35.423 -39.487  -2.889  1.00  0.00    -0.550 OA
ATOM     32  O   UNL     1      34.404 -40.679  -1.227  1.00  0.00    -0.550 OA
ENDBRANCH   1  30
BRANCH  27  33
ATOM     33  O   UNL     1      42.588 -36.964  -4.857  1.00  0.00    -0.393 OA
ATOM     34  H   UNL     1      42.360 -36.685  -5.783  1.00  0.00     0.210 HD
ENDBRANCH  27  33
TORSDOF 2
ENDMDL
MODEL 6
REMARK VINA RESULT:    -6.053     10.778     13.091
REMARK INTER + INTRA:          -6.703
REMARK INTER:                  -6.584
REMARK INTRA:                  -0.119
REMARK UNBOUND:                -0.119
REMARK SMILES C[C@@H]1[C@H]2C3=CC[C@@H]4[C@]5(C)CC[C@@H](O)C(C)(C)[C@@H]5CC[C@]4(C)[C@]3(C)CC[C@@]2(C(=O)[O-])CC[C@@H]1C
REMARK SMILES IDX 26 1 30 2 25 3 3 4 31 5 24 6 4 7 2 8 32 9 22 10 5 11 1 12
REMARK SMILES IDX 33 13 23 14 20 15 6 16 7 17 19 18 21 19 8 20 18 21 17 22
REMARK SMILES IDX 10 23 9 24 14 25 11 26 12 27 15 28 16 29 27 30 28 31 29 32
REMARK SMILES IDX 13 33
REMARK H PARENT 13 34
REMARK Flexibility Score: inf
ROOT
ATOM      1  C   UNL     1      39.866 -38.202  -0.914  1.00  0.00     0.017 C 
ATOM      2  C   UNL     1      40.915 -37.386  -0.100  1.00  0.00     0.014 C 
ATOM      3  C   UNL     1      39.837 -39.689  -0.419  1.00  0.00     0.014 C 
ATOM      4  C   UNL     1      40.169 -38.146  -2.454  1.00  0.00     0.030 C 
ATOM      5  C   UNL     1      42.369 -37.631  -0.512  1.00  0.00     0.004 C 
ATOM      6  C   UNL     1      38.893 -40.625  -1.233  1.00  0.00     0.013 C 
ATOM      7  C   UNL     1      39.203 -39.106  -3.171  1.00  0.00    -0.063 C 
ATOM      8  C   UNL     1      41.673 -38.298  -2.847  1.00  0.00    -0.003 C 
ATOM      9  C   UNL     1      42.597 -37.372  -2.010  1.00  0.00    -0.011 C 
ATOM     10  C   UNL     1      39.140 -40.602  -2.773  1.00  0.00    -0.006 C 
ATOM     11  C   UNL     1      38.091 -38.516  -3.662  1.00  0.00    -0.027 C 
ATOM     12  C   UNL     1      41.872 -38.082  -4.361  1.00  0.00     0.008 C 
ATOM     13  C   UNL     1      42.490 -35.876  -2.365  1.00  0.00     0.008 C 
ATOM     14  C   UNL     1      40.511 -41.311  -3.032  1.00  0.00     0.017 C 
ATOM     15  C   UNL     1      37.990 -41.360  -3.646  1.00  0.00    -0.020 C 
ATOM     16  C   UNL     1      36.741 -39.076  -3.350  1.00  0.00     0.032 C 
ATOM     17  C   UNL     1      36.605 -40.568  -3.719  1.00  0.00     0.006 C 
ATOM     18  C   UNL     1      37.747 -42.806  -3.125  1.00  0.00     0.008 C 
ATOM     19  C   UNL     1      38.506 -41.505  -5.124  1.00  0.00     0.012 C 
ATOM     20  C   UNL     1      35.283 -41.279  -3.160  1.00  0.00    -0.025 C 
ATOM     21  C   UNL     1      36.537 -43.517  -3.727  1.00  0.00     0.005 C 
ATOM     22  C   UNL     1      35.175 -42.741  -3.776  1.00  0.00     0.003 C 
ATOM     23  C   UNL     1      35.215 -41.351  -1.601  1.00  0.00     0.010 C 
ATOM     24  C   UNL     1      34.081 -40.392  -3.638  1.00  0.00     0.012 C 
ATOM     25  C   UNL     1      33.966 -43.629  -3.222  1.00  0.00    -0.006 C 
ATOM     26  C   UNL     1      34.036 -42.188  -1.071  1.00  0.00     0.033 C 
ATOM     27  C   UNL     1      34.002 -43.612  -1.662  1.00  0.00     0.120 C 
ATOM     28  C   UNL     1      32.579 -43.134  -3.764  1.00  0.00     0.014 C 
ATOM     29  C   UNL     1      34.085 -45.114  -3.709  1.00  0.00     0.014 C 
ENDROOT
BRANCH   1  30
ATOM     30  C   UNL     1      38.510 -37.538  -0.633  1.00  0.00     0.048 C 
ATOM     31  O   UNL     1      37.608 -38.127   0.026  1.00  0.00    -0.550 OA
ATOM     32  O   UNL     1      38.260 -36.255  -1.111  1.00  0.00    -0.550 OA
ENDBRANCH   1  30
BRANCH  27  33
ATOM     33  O   UNL     1      32.888 -44.305  -1.152  1.00  0.00    -0.393 OA
ATOM     34  H   UNL     1      32.173 -43.632  -1.002  1.00  0.00     0.210 HD
ENDBRANCH  27  33
TORSDOF 2
ENDMDL
MODEL 7
REMARK VINA RESULT:    -5.972      8.351     11.815
REMARK INTER + INTRA:          -6.614
REMARK INTER:                  -6.503
REMARK INTRA:                  -0.111
REMARK UNBOUND:                -0.119
REMARK SMILES C[C@@H]1[C@H]2C3=CC[C@@H]4[C@]5(C)CC[C@@H](O)C(C)(C)[C@@H]5CC[C@]4(C)[C@]3(C)CC[C@@]2(C(=O)[O-])CC[C@@H]1C
REMARK SMILES IDX 26 1 30 2 25 3 3 4 31 5 24 6 4 7 2 8 32 9 22 10 5 11 1 12
REMARK SMILES IDX 33 13 23 14 20 15 6 16 7 17 19 18 21 19 8 20 18 21 17 22
REMARK SMILES IDX 10 23 9 24 14 25 11 26 12 27 15 28 16 29 27 30 28 31 29 32
REMARK SMILES IDX 13 33
REMARK H PARENT 13 34
REMARK Flexibility Score: inf
ROOT
ATOM      1  C   UNL     1      41.184 -37.658  -2.721  1.00  0.00     0.017 C 
ATOM      2  C   UNL     1      42.244 -37.091  -3.714  1.00  0.00     0.014 C 
ATOM      3  C   UNL     1      39.909 -36.749  -2.716  1.00  0.00     0.014 C 
ATOM      4  C   UNL     1      41.772 -37.780  -1.269  1.00  0.00     0.030 C 
ATOM      5  C   UNL     1      43.018 -35.877  -3.193  1.00  0.00     0.004 C 
ATOM      6  C   UNL     1      38.819 -37.164  -1.682  1.00  0.00     0.013 C 
ATOM      7  C   UNL     1      40.628 -38.179  -0.319  1.00  0.00    -0.063 C 
ATOM      8  C   UNL     1      42.641 -36.573  -0.794  1.00  0.00    -0.003 C 
ATOM      9  C   UNL     1      43.705 -36.163  -1.848  1.00  0.00    -0.011 C 
ATOM     10  C   UNL     1      39.347 -37.313  -0.221  1.00  0.00    -0.006 C 
ATOM     11  C   UNL     1      40.536 -39.506  -0.082  1.00  0.00    -0.027 C 
ATOM     12  C   UNL     1      43.283 -36.862   0.579  1.00  0.00     0.008 C 
ATOM     13  C   UNL     1      44.876 -37.156  -1.993  1.00  0.00     0.008 C 
ATOM     14  C   UNL     1      39.679 -35.875   0.299  1.00  0.00     0.017 C 
ATOM     15  C   UNL     1      38.286 -38.005   0.805  1.00  0.00    -0.020 C 
ATOM     16  C   UNL     1      39.229 -40.212  -0.247  1.00  0.00     0.032 C 
ATOM     17  C   UNL     1      38.089 -39.573   0.572  1.00  0.00     0.006 C 
ATOM     18  C   UNL     1      36.908 -37.285   0.763  1.00  0.00     0.008 C 
ATOM     19  C   UNL     1      38.831 -37.832   2.270  1.00  0.00     0.012 C 
ATOM     20  C   UNL     1      36.624 -40.120   0.221  1.00  0.00    -0.025 C 
ATOM     21  C   UNL     1      35.784 -37.993   1.517  1.00  0.00     0.005 C 
ATOM     22  C   UNL     1      35.582 -39.529   1.267  1.00  0.00     0.003 C 
ATOM     23  C   UNL     1      36.160 -39.795  -1.235  1.00  0.00     0.010 C 
ATOM     24  C   UNL     1      36.704 -41.680   0.348  1.00  0.00     0.012 C 
ATOM     25  C   UNL     1      34.049 -39.887   0.981  1.00  0.00    -0.006 C 
ATOM     26  C   UNL     1      34.691 -40.162  -1.512  1.00  0.00     0.033 C 
ATOM     27  C   UNL     1      33.716 -39.528  -0.501  1.00  0.00     0.120 C 
ATOM     28  C   UNL     1      33.733 -41.393   1.286  1.00  0.00     0.014 C 
ATOM     29  C   UNL     1      33.094 -39.072   1.920  1.00  0.00     0.014 C 
ENDROOT
BRANCH   1  30
ATOM     30  C   UNL     1      40.823 -39.054  -3.247  1.00  0.00     0.048 C 
ATOM     31  O   UNL     1      39.664 -39.321  -3.674  1.00  0.00    -0.550 OA
ATOM     32  O   UNL     1      41.788 -40.056  -3.261  1.00  0.00    -0.550 OA
ENDBRANCH   1  30
BRANCH  27  33
ATOM     33  O   UNL     1      32.401 -39.928  -0.803  1.00  0.00    -0.393 OA
ATOM     34  H   UNL     1      32.030 -40.345   0.019  1.00  0.00     0.210 HD
ENDBRANCH  27  33
TORSDOF 2
ENDMDL
MODEL 8
REMARK VINA RESULT:    -5.765      6.529      9.977
REMARK INTER + INTRA:          -6.389
REMARK INTER:                  -6.280
REMARK INTRA:                  -0.109
REMARK UNBOUND:                -0.119
REMARK SMILES C[C@@H]1[C@H]2C3=CC[C@@H]4[C@]5(C)CC[C@@H](O)C(C)(C)[C@@H]5CC[C@]4(C)[C@]3(C)CC[C@@]2(C(=O)[O-])CC[C@@H]1C
REMARK SMILES IDX 26 1 30 2 25 3 3 4 31 5 24 6 4 7 2 8 32 9 22 10 5 11 1 12
REMARK SMILES IDX 33 13 23 14 20 15 6 16 7 17 19 18 21 19 8 20 18 21 17 22
REMARK SMILES IDX 10 23 9 24 14 25 11 26 12 27 15 28 16 29 27 30 28 31 29 32
REMARK SMILES IDX 13 33
REMARK H PARENT 13 34
REMARK Flexibility Score: inf
ROOT
ATOM      1  C   UNL     1      40.800 -36.786  -1.564  1.00  0.00     0.017 C 
ATOM      2  C   UNL     1      41.764 -36.111  -2.586  1.00  0.00     0.014 C 
ATOM      3  C   UNL     1      40.836 -36.017  -0.200  1.00  0.00     0.014 C 
ATOM      4  C   UNL     1      41.165 -38.298  -1.348  1.00  0.00     0.030 C 
ATOM      5  C   UNL     1      43.247 -36.424  -2.363  1.00  0.00     0.004 C 
ATOM      6  C   UNL     1      39.983 -36.664   0.933  1.00  0.00     0.013 C 
ATOM      7  C   UNL     1      40.288 -38.848  -0.208  1.00  0.00    -0.063 C 
ATOM      8  C   UNL     1      42.690 -38.608  -1.221  1.00  0.00    -0.003 C 
ATOM      9  C   UNL     1      43.522 -37.936  -2.347  1.00  0.00    -0.011 C 
ATOM     10  C   UNL     1      40.294 -38.172   1.187  1.00  0.00    -0.006 C 
ATOM     11  C   UNL     1      39.166 -39.477  -0.621  1.00  0.00    -0.027 C 
ATOM     12  C   UNL     1      42.942 -40.128  -1.160  1.00  0.00     0.008 C 
ATOM     13  C   UNL     1      43.345 -38.574  -3.739  1.00  0.00     0.008 C 
ATOM     14  C   UNL     1      41.714 -38.248   1.841  1.00  0.00     0.017 C 
ATOM     15  C   UNL     1      39.229 -38.919   2.169  1.00  0.00    -0.020 C 
ATOM     16  C   UNL     1      37.838 -39.106  -0.044  1.00  0.00     0.032 C 
ATOM     17  C   UNL     1      37.804 -39.185   1.497  1.00  0.00     0.006 C 
ATOM     18  C   UNL     1      39.048 -38.138   3.502  1.00  0.00     0.008 C 
ATOM     19  C   UNL     1      39.815 -40.325   2.557  1.00  0.00     0.012 C 
ATOM     20  C   UNL     1      36.503 -38.541   2.173  1.00  0.00    -0.025 C 
ATOM     21  C   UNL     1      37.908 -38.630   4.392  1.00  0.00     0.005 C 
ATOM     22  C   UNL     1      36.506 -38.869   3.729  1.00  0.00     0.003 C 
ATOM     23  C   UNL     1      36.372 -37.000   1.953  1.00  0.00     0.010 C 
ATOM     24  C   UNL     1      35.274 -39.218   1.473  1.00  0.00     0.012 C 
ATOM     25  C   UNL     1      35.328 -38.192   4.573  1.00  0.00    -0.006 C 
ATOM     26  C   UNL     1      35.223 -36.357   2.750  1.00  0.00     0.033 C 
ATOM     27  C   UNL     1      35.297 -36.664   4.258  1.00  0.00     0.120 C 
ATOM     28  C   UNL     1      33.940 -38.862   4.281  1.00  0.00     0.014 C 
ATOM     29  C   UNL     1      35.554 -38.382   6.113  1.00  0.00     0.014 C 
ENDROOT
BRANCH   1  30
ATOM     30  C   UNL     1      39.398 -36.680  -2.180  1.00  0.00     0.048 C 
ATOM     31  O   UNL     1      38.535 -35.875  -1.729  1.00  0.00    -0.550 OA
ATOM     32  O   UNL     1      39.059 -37.485  -3.264  1.00  0.00    -0.550 OA
ENDBRANCH   1  30
BRANCH  27  33
ATOM     33  O   UNL     1      34.204 -36.066   4.913  1.00  0.00    -0.393 OA
ATOM     34  H   UNL     1      33.405 -36.218   4.342  1.00  0.00     0.210 HD
ENDBRANCH  27  33
TORSDOF 2
ENDMDL
MODEL 9
REMARK VINA RESULT:    -5.735     11.795     15.837
REMARK INTER + INTRA:          -6.357
REMARK INTER:                  -6.243
REMARK INTRA:                  -0.114
REMARK UNBOUND:                -0.119
REMARK SMILES C[C@@H]1[C@H]2C3=CC[C@@H]4[C@]5(C)CC[C@@H](O)C(C)(C)[C@@H]5CC[C@]4(C)[C@]3(C)CC[C@@]2(C(=O)[O-])CC[C@@H]1C
REMARK SMILES IDX 26 1 30 2 25 3 3 4 31 5 24 6 4 7 2 8 32 9 22 10 5 11 1 12
REMARK SMILES IDX 33 13 23 14 20 15 6 16 7 17 19 18 21 19 8 20 18 21 17 22
REMARK SMILES IDX 10 23 9 24 14 25 11 26 12 27 15 28 16 29 27 30 28 31 29 32
REMARK SMILES IDX 13 33
REMARK H PARENT 13 34
REMARK Flexibility Score: inf
ROOT
ATOM      1  C   UNL     1      40.912 -37.100  -2.102  1.00  0.00     0.017 C 
ATOM      2  C   UNL     1      39.521 -36.397  -2.120  1.00  0.00     0.014 C 
ATOM      3  C   UNL     1      41.741 -36.685  -3.365  1.00  0.00     0.014 C 
ATOM      4  C   UNL     1      40.761 -38.662  -2.038  1.00  0.00     0.030 C 
ATOM      5  C   UNL     1      38.506 -37.019  -3.084  1.00  0.00     0.004 C 
ATOM      6  C   UNL     1      43.115 -37.408  -3.505  1.00  0.00     0.013 C 
ATOM      7  C   UNL     1      42.158 -39.288  -2.197  1.00  0.00    -0.063 C 
ATOM      8  C   UNL     1      39.653 -39.267  -2.957  1.00  0.00    -0.003 C 
ATOM      9  C   UNL     1      38.299 -38.518  -2.817  1.00  0.00    -0.011 C 
ATOM     10  C   UNL     1      43.030 -38.964  -3.437  1.00  0.00    -0.006 C 
ATOM     11  C   UNL     1      42.772 -39.589  -1.032  1.00  0.00    -0.027 C 
ATOM     12  C   UNL     1      39.493 -40.781  -2.707  1.00  0.00     0.008 C 
ATOM     13  C   UNL     1      37.562 -38.776  -1.488  1.00  0.00     0.008 C 
ATOM     14  C   UNL     1      42.336 -39.447  -4.753  1.00  0.00     0.017 C 
ATOM     15  C   UNL     1      44.475 -39.708  -3.308  1.00  0.00    -0.020 C 
ATOM     16  C   UNL     1      44.168 -39.123  -0.772  1.00  0.00     0.032 C 
ATOM     17  C   UNL     1      45.161 -39.547  -1.874  1.00  0.00     0.006 C 
ATOM     18  C   UNL     1      45.454 -39.235  -4.420  1.00  0.00     0.008 C 
ATOM     19  C   UNL     1      44.260 -41.249  -3.535  1.00  0.00     0.012 C 
ATOM     20  C   UNL     1      46.600 -38.848  -1.785  1.00  0.00    -0.025 C 
ATOM     21  C   UNL     1      46.900 -39.700  -4.253  1.00  0.00     0.005 C 
ATOM     22  C   UNL     1      47.574 -39.519  -2.848  1.00  0.00     0.003 C 
ATOM     23  C   UNL     1      46.566 -37.301  -1.996  1.00  0.00     0.010 C 
ATOM     24  C   UNL     1      47.115 -39.108  -0.327  1.00  0.00     0.012 C 
ATOM     25  C   UNL     1      49.021 -38.850  -2.966  1.00  0.00    -0.006 C 
ATOM     26  C   UNL     1      47.961 -36.658  -2.087  1.00  0.00     0.033 C 
ATOM     27  C   UNL     1      48.851 -37.312  -3.163  1.00  0.00     0.120 C 
ATOM     28  C   UNL     1      49.917 -39.168  -1.718  1.00  0.00     0.014 C 
ATOM     29  C   UNL     1      49.812 -39.426  -4.191  1.00  0.00     0.014 C 
ENDROOT
BRANCH   1  30
ATOM     30  C   UNL     1      41.616 -36.600  -0.834  1.00  0.00     0.048 C 
ATOM     31  O   UNL     1      42.656 -35.885  -0.891  1.00  0.00    -0.550 OA
ATOM     32  O   UNL     1      41.104 -36.935   0.416  1.00  0.00    -0.550 OA
ENDBRANCH   1  30
BRANCH  27  33
ATOM     33  O   UNL     1      50.114 -36.690  -3.169  1.00  0.00    -0.393 OA
ATOM     34  H   UNL     1      50.202 -36.225  -4.043  1.00  0.00     0.210 HD
ENDBRANCH  27  33
TORSDOF 2
ENDMDL
