MODEL 1
REMARK VINA RESULT:    -6.308      0.000      0.000
REMARK INTER + INTRA:          -8.115
REMARK INTER:                  -7.783
REMARK INTRA:                  -0.331
REMARK UNBOUND:                -0.331
REMARK SMILES O=c1c(O)c(-c2cc(O)c(O)c(O)c2)oc2cc(O)cc(O)c12
REMARK SMILES IDX 5 1 3 2 2 3 1 4 23 5 21 6 20 7 18 8 17 9 16 10 15 11 6 12
REMARK SMILES IDX 7 13 8 14 14 15 10 16 12 17 9 18 11 20 13 22 4 24 22 26
REMARK SMILES IDX 19 28
REMARK H PARENT 9 19 11 21 13 23 4 25 22 27 19 29
REMARK Flexibility Score: inf
ROOT
ATOM      1  C   UNL     1      -0.881  24.783  29.181  1.00  0.00     0.180 A 
ATOM      2  C   UNL     1      -0.382  23.583  28.645  1.00  0.00     0.208 A 
ATOM      3  C   UNL     1       0.963  23.522  28.249  1.00  0.00     0.238 A 
ATOM      4  O   UNL     1       1.419  22.429  27.821  1.00  0.00    -0.285 OA
ATOM      5  C   UNL     1       1.788  24.665  28.378  1.00  0.00     0.111 A 
ATOM      6  C   UNL     1       3.156  24.728  27.971  1.00  0.00     0.134 A 
ATOM      7  C   UNL     1       3.911  25.869  28.266  1.00  0.00     0.093 A 
ATOM      8  C   UNL     1       3.335  26.973  28.894  1.00  0.00     0.123 A 
ATOM      9  C   UNL     1       1.984  26.945  29.242  1.00  0.00     0.094 A 
ATOM     10  C   UNL     1       1.213  25.807  28.993  1.00  0.00     0.146 A 
ATOM     11  O   UNL     1      -0.066  25.817  29.349  1.00  0.00    -0.452 OA
ENDROOT
BRANCH   1  12
ATOM     12  C   UNL     1      -2.295  24.932  29.597  1.00  0.00     0.029 A 
ATOM     13  C   UNL     1      -3.280  25.161  28.625  1.00  0.00     0.062 A 
ATOM     14  C   UNL     1      -4.627  25.285  28.991  1.00  0.00     0.162 A 
ATOM     15  C   UNL     1      -2.680  24.791  30.942  1.00  0.00     0.062 A 
ATOM     16  C   UNL     1      -5.002  25.166  30.334  1.00  0.00     0.200 A 
ATOM     17  C   UNL     1      -4.026  24.913  31.314  1.00  0.00     0.162 A 
BRANCH  14  18
ATOM     18  O   UNL     1      -5.600  25.528  28.022  1.00  0.00    -0.504 OA
ATOM     19  H   UNL     1      -6.466  26.002  28.247  1.00  0.00     0.293 HD
ENDBRANCH  14  18
BRANCH  16  20
ATOM     20  O   UNL     1      -6.348  25.295  30.681  1.00  0.00    -0.502 OA
ATOM     21  H   UNL     1      -6.798  26.199  30.767  1.00  0.00     0.293 HD
ENDBRANCH  16  20
BRANCH  17  22
ATOM     22  O   UNL     1      -4.397  24.779  32.650  1.00  0.00    -0.504 OA
ATOM     23  H   UNL     1      -5.235  25.216  33.017  1.00  0.00     0.293 HD
ENDBRANCH  17  22
ENDBRANCH   1  12
BRANCH   2  24
ATOM     24  O   UNL     1      -1.208  22.460  28.546  1.00  0.00    -0.502 OA
ATOM     25  H   UNL     1      -2.060  22.457  27.999  1.00  0.00     0.293 HD
ENDBRANCH   2  24
BRANCH   6  26
ATOM     26  O   UNL     1       3.805  23.717  27.256  1.00  0.00    -0.507 OA
ATOM     27  H   UNL     1       3.465  23.313  26.396  1.00  0.00     0.293 HD
ENDBRANCH   6  26
BRANCH   8  28
ATOM     28  O   UNL     1       4.114  28.098  29.157  1.00  0.00    -0.508 OA
ATOM     29  H   UNL     1       3.815  28.806  29.819  1.00  0.00     0.293 HD
ENDBRANCH   8  28
TORSDOF 7
ENDMDL
MODEL 2
REMARK VINA RESULT:    -6.259      0.140      1.752
REMARK INTER + INTRA:          -8.054
REMARK INTER:                  -7.712
REMARK INTRA:                  -0.343
REMARK UNBOUND:                -0.331
REMARK SMILES O=c1c(O)c(-c2cc(O)c(O)c(O)c2)oc2cc(O)cc(O)c12
REMARK SMILES IDX 5 1 3 2 2 3 1 4 23 5 21 6 20 7 18 8 17 9 16 10 15 11 6 12
REMARK SMILES IDX 7 13 8 14 14 15 10 16 12 17 9 18 11 20 13 22 4 24 22 26
REMARK SMILES IDX 19 28
REMARK H PARENT 9 19 11 21 13 23 4 25 22 27 19 29
REMARK Flexibility Score: inf
ROOT
ATOM      1  C   UNL     1      -0.902  24.799  29.143  1.00  0.00     0.180 A 
ATOM      2  C   UNL     1      -0.407  23.582  28.645  1.00  0.00     0.208 A 
ATOM      3  C   UNL     1       0.938  23.505  28.249  1.00  0.00     0.238 A 
ATOM      4  O   UNL     1       1.390  22.398  27.855  1.00  0.00    -0.285 OA
ATOM      5  C   UNL     1       1.766  24.650  28.340  1.00  0.00     0.111 A 
ATOM      6  C   UNL     1       3.132  24.697  27.929  1.00  0.00     0.134 A 
ATOM      7  C   UNL     1       3.891  25.845  28.186  1.00  0.00     0.093 A 
ATOM      8  C   UNL     1       3.319  26.969  28.779  1.00  0.00     0.123 A 
ATOM      9  C   UNL     1       1.969  26.955  29.130  1.00  0.00     0.094 A 
ATOM     10  C   UNL     1       1.194  25.812  28.920  1.00  0.00     0.146 A 
ATOM     11  O   UNL     1      -0.084  25.836  29.278  1.00  0.00    -0.452 OA
ENDROOT
BRANCH   1  12
ATOM     12  C   UNL     1      -2.314  24.965  29.558  1.00  0.00     0.029 A 
ATOM     13  C   UNL     1      -2.637  24.971  30.923  1.00  0.00     0.062 A 
ATOM     14  C   UNL     1      -3.963  25.147  31.341  1.00  0.00     0.162 A 
ATOM     15  C   UNL     1      -3.334  25.174  28.613  1.00  0.00     0.062 A 
ATOM     16  C   UNL     1      -4.977  25.333  30.394  1.00  0.00     0.200 A 
ATOM     17  C   UNL     1      -4.662  25.352  29.025  1.00  0.00     0.162 A 
BRANCH  14  18
ATOM     18  O   UNL     1      -4.280  25.138  32.699  1.00  0.00    -0.504 OA
ATOM     19  H   UNL     1      -4.016  25.900  33.310  1.00  0.00     0.293 HD
ENDBRANCH  14  18
BRANCH  16  20
ATOM     20  O   UNL     1      -6.293  25.503  30.829  1.00  0.00    -0.502 OA
ATOM     21  H   UNL     1      -6.515  25.783  31.778  1.00  0.00     0.293 HD
ENDBRANCH  16  20
BRANCH  17  22
ATOM     22  O   UNL     1      -5.667  25.551  28.080  1.00  0.00    -0.504 OA
ATOM     23  H   UNL     1      -5.480  26.005  27.193  1.00  0.00     0.293 HD
ENDBRANCH  17  22
ENDBRANCH   1  12
BRANCH   2  24
ATOM     24  O   UNL     1      -1.235  22.458  28.584  1.00  0.00    -0.502 OA
ATOM     25  H   UNL     1      -1.360  21.919  27.735  1.00  0.00     0.293 HD
ENDBRANCH   2  24
BRANCH   6  26
ATOM     26  O   UNL     1       3.778  23.662  27.245  1.00  0.00    -0.507 OA
ATOM     27  H   UNL     1       3.527  22.687  27.310  1.00  0.00     0.293 HD
ENDBRANCH   6  26
BRANCH   8  28
ATOM     28  O   UNL     1       4.100  28.100  29.006  1.00  0.00    -0.508 OA
ATOM     29  H   UNL     1       4.663  28.197  29.844  1.00  0.00     0.293 HD
ENDBRANCH   8  28
TORSDOF 7
ENDMDL
MODEL 3
REMARK VINA RESULT:    -6.233      2.117      3.294
REMARK INTER + INTRA:          -8.022
REMARK INTER:                  -7.672
REMARK INTRA:                  -0.350
REMARK UNBOUND:                -0.331
REMARK SMILES O=c1c(O)c(-c2cc(O)c(O)c(O)c2)oc2cc(O)cc(O)c12
REMARK SMILES IDX 5 1 3 2 2 3 1 4 23 5 21 6 20 7 18 8 17 9 16 10 15 11 6 12
REMARK SMILES IDX 7 13 8 14 14 15 10 16 12 17 9 18 11 20 13 22 4 24 22 26
REMARK SMILES IDX 19 28
REMARK H PARENT 9 19 11 21 13 23 4 25 22 27 19 29
REMARK Flexibility Score: inf
ROOT
ATOM      1  C   UNL     1      -1.601  24.634  29.471  1.00  0.00     0.180 A 
ATOM      2  C   UNL     1      -2.140  25.300  28.357  1.00  0.00     0.208 A 
ATOM      3  C   UNL     1      -1.292  25.635  27.289  1.00  0.00     0.238 A 
ATOM      4  O   UNL     1      -1.790  26.183  26.271  1.00  0.00    -0.285 OA
ATOM      5  C   UNL     1       0.085  25.317  27.356  1.00  0.00     0.111 A 
ATOM      6  C   UNL     1       1.044  25.645  26.350  1.00  0.00     0.134 A 
ATOM      7  C   UNL     1       2.354  25.165  26.463  1.00  0.00     0.093 A 
ATOM      8  C   UNL     1       2.758  24.425  27.573  1.00  0.00     0.123 A 
ATOM      9  C   UNL     1       1.845  24.149  28.590  1.00  0.00     0.094 A 
ATOM     10  C   UNL     1       0.521  24.583  28.490  1.00  0.00     0.146 A 
ATOM     11  O   UNL     1      -0.319  24.290  29.476  1.00  0.00    -0.452 OA
ENDROOT
BRANCH   1  12
ATOM     12  C   UNL     1      -2.427  24.269  30.646  1.00  0.00     0.029 A 
ATOM     13  C   UNL     1      -2.664  25.224  31.646  1.00  0.00     0.062 A 
ATOM     14  C   UNL     1      -3.459  24.911  32.757  1.00  0.00     0.162 A 
ATOM     15  C   UNL     1      -3.028  23.003  30.753  1.00  0.00     0.062 A 
ATOM     16  C   UNL     1      -4.036  23.640  32.869  1.00  0.00     0.200 A 
ATOM     17  C   UNL     1      -3.825  22.684  31.862  1.00  0.00     0.162 A 
BRANCH  14  18
ATOM     18  O   UNL     1      -3.679  25.859  33.755  1.00  0.00    -0.504 OA
ATOM     19  H   UNL     1      -3.359  25.713  34.705  1.00  0.00     0.293 HD
ENDBRANCH  14  18
BRANCH  16  20
ATOM     20  O   UNL     1      -4.822  23.345  33.984  1.00  0.00    -0.502 OA
ATOM     21  H   UNL     1      -5.064  24.046  34.674  1.00  0.00     0.293 HD
ENDBRANCH  16  20
BRANCH  17  22
ATOM     22  O   UNL     1      -4.410  21.423  31.962  1.00  0.00    -0.504 OA
ATOM     23  H   UNL     1      -4.745  20.925  31.145  1.00  0.00     0.293 HD
ENDBRANCH  17  22
ENDBRANCH   1  12
BRANCH   2  24
ATOM     24  O   UNL     1      -3.507  25.586  28.301  1.00  0.00    -0.502 OA
ATOM     25  H   UNL     1      -3.903  26.219  27.617  1.00  0.00     0.293 HD
ENDBRANCH   2  24
BRANCH   6  26
ATOM     26  O   UNL     1       0.768  26.456  25.245  1.00  0.00    -0.507 OA
ATOM     27  H   UNL     1      -0.040  27.054  25.159  1.00  0.00     0.293 HD
ENDBRANCH   6  26
BRANCH   8  28
ATOM     28  O   UNL     1       4.075  23.977  27.658  1.00  0.00    -0.508 OA
ATOM     29  H   UNL     1       4.305  23.084  28.080  1.00  0.00     0.293 HD
ENDBRANCH   8  28
TORSDOF 7
ENDMDL
MODEL 4
REMARK VINA RESULT:    -6.180      2.610      6.345
REMARK INTER + INTRA:          -7.957
REMARK INTER:                  -7.635
REMARK INTRA:                  -0.322
REMARK UNBOUND:                -0.331
REMARK SMILES O=c1c(O)c(-c2cc(O)c(O)c(O)c2)oc2cc(O)cc(O)c12
REMARK SMILES IDX 5 1 3 2 2 3 1 4 23 5 21 6 20 7 18 8 17 9 16 10 15 11 6 12
REMARK SMILES IDX 7 13 8 14 14 15 10 16 12 17 9 18 11 20 13 22 4 24 22 26
REMARK SMILES IDX 19 28
REMARK H PARENT 9 19 11 21 13 23 4 25 22 27 19 29
REMARK Flexibility Score: inf
ROOT
ATOM      1  C   UNL     1      -0.598  25.299  28.100  1.00  0.00     0.180 A 
ATOM      2  C   UNL     1      -1.107  24.067  27.656  1.00  0.00     0.208 A 
ATOM      3  C   UNL     1      -1.862  23.283  28.542  1.00  0.00     0.238 A 
ATOM      4  O   UNL     1      -2.361  22.206  28.123  1.00  0.00    -0.285 OA
ATOM      5  C   UNL     1      -2.085  23.732  29.866  1.00  0.00     0.111 A 
ATOM      6  C   UNL     1      -2.801  23.001  30.861  1.00  0.00     0.134 A 
ATOM      7  C   UNL     1      -3.071  23.600  32.098  1.00  0.00     0.093 A 
ATOM      8  C   UNL     1      -2.598  24.877  32.399  1.00  0.00     0.123 A 
ATOM      9  C   UNL     1      -1.845  25.576  31.455  1.00  0.00     0.094 A 
ATOM     10  C   UNL     1      -1.590  25.020  30.200  1.00  0.00     0.146 A 
ATOM     11  O   UNL     1      -0.878  25.723  29.327  1.00  0.00    -0.452 OA
ENDROOT
BRANCH   1  12
ATOM     12  C   UNL     1       0.228  26.170  27.232  1.00  0.00     0.029 A 
ATOM     13  C   UNL     1      -0.399  26.995  26.287  1.00  0.00     0.062 A 
ATOM     14  C   UNL     1       0.359  27.843  25.467  1.00  0.00     0.162 A 
ATOM     15  C   UNL     1       1.626  26.230  27.374  1.00  0.00     0.062 A 
ATOM     16  C   UNL     1       1.753  27.882  25.598  1.00  0.00     0.200 A 
ATOM     17  C   UNL     1       2.389  27.077  26.558  1.00  0.00     0.162 A 
BRANCH  14  18
ATOM     18  O   UNL     1      -0.268  28.650  24.519  1.00  0.00    -0.504 OA
ATOM     19  H   UNL     1      -1.074  28.329  23.998  1.00  0.00     0.293 HD
ENDBRANCH  14  18
BRANCH  16  20
ATOM     20  O   UNL     1       2.491  28.731  24.771  1.00  0.00    -0.502 OA
ATOM     21  H   UNL     1       3.444  28.521  24.497  1.00  0.00     0.293 HD
ENDBRANCH  16  20
BRANCH  17  22
ATOM     22  O   UNL     1       3.774  27.124  26.701  1.00  0.00    -0.504 OA
ATOM     23  H   UNL     1       4.267  26.485  27.314  1.00  0.00     0.293 HD
ENDBRANCH  17  22
ENDBRANCH   1  12
BRANCH   2  24
ATOM     24  O   UNL     1      -0.894  23.651  26.339  1.00  0.00    -0.502 OA
ATOM     25  H   UNL     1      -0.359  24.199  25.675  1.00  0.00     0.293 HD
ENDBRANCH   2  24
BRANCH   6  26
ATOM     26  O   UNL     1      -3.240  21.684  30.697  1.00  0.00    -0.507 OA
ATOM     27  H   UNL     1      -3.911  21.384  30.005  1.00  0.00     0.293 HD
ENDBRANCH   6  26
BRANCH   8  28
ATOM     28  O   UNL     1      -2.873  25.435  33.645  1.00  0.00    -0.508 OA
ATOM     29  H   UNL     1      -3.244  24.877  34.406  1.00  0.00     0.293 HD
ENDBRANCH   8  28
TORSDOF 7
ENDMDL
MODEL 5
REMARK VINA RESULT:    -6.170      2.107      3.146
REMARK INTER + INTRA:          -7.944
REMARK INTER:                  -7.575
REMARK INTRA:                  -0.369
REMARK UNBOUND:                -0.331
REMARK SMILES O=c1c(O)c(-c2cc(O)c(O)c(O)c2)oc2cc(O)cc(O)c12
REMARK SMILES IDX 5 1 3 2 2 3 1 4 23 5 21 6 20 7 18 8 17 9 16 10 15 11 6 12
REMARK SMILES IDX 7 13 8 14 14 15 10 16 12 17 9 18 11 20 13 22 4 24 22 26
REMARK SMILES IDX 19 28
REMARK H PARENT 9 19 11 21 13 23 4 25 22 27 19 29
REMARK Flexibility Score: inf
ROOT
ATOM      1  C   UNL     1      -1.525  24.605  29.297  1.00  0.00     0.180 A 
ATOM      2  C   UNL     1      -2.060  25.271  28.181  1.00  0.00     0.208 A 
ATOM      3  C   UNL     1      -1.202  25.647  27.136  1.00  0.00     0.238 A 
ATOM      4  O   UNL     1      -1.696  26.194  26.115  1.00  0.00    -0.285 OA
ATOM      5  C   UNL     1       0.183  25.368  27.226  1.00  0.00     0.111 A 
ATOM      6  C   UNL     1       1.150  25.739  26.244  1.00  0.00     0.134 A 
ATOM      7  C   UNL     1       2.472  25.297  26.376  1.00  0.00     0.093 A 
ATOM      8  C   UNL     1       2.876  24.552  27.484  1.00  0.00     0.123 A 
ATOM      9  C   UNL     1       1.951  24.235  28.479  1.00  0.00     0.094 A 
ATOM     10  C   UNL     1       0.617  24.631  28.358  1.00  0.00     0.146 A 
ATOM     11  O   UNL     1      -0.233  24.299  29.323  1.00  0.00    -0.452 OA
ENDROOT
BRANCH   1  12
ATOM     12  C   UNL     1      -2.362  24.199  30.449  1.00  0.00     0.029 A 
ATOM     13  C   UNL     1      -2.889  22.900  30.496  1.00  0.00     0.062 A 
ATOM     14  C   UNL     1      -3.667  22.485  31.585  1.00  0.00     0.162 A 
ATOM     15  C   UNL     1      -2.594  25.071  31.528  1.00  0.00     0.062 A 
ATOM     16  C   UNL     1      -3.912  23.365  32.646  1.00  0.00     0.200 A 
ATOM     17  C   UNL     1      -3.370  24.661  32.621  1.00  0.00     0.162 A 
BRANCH  14  18
ATOM     18  O   UNL     1      -4.200  21.197  31.620  1.00  0.00    -0.504 OA
ATOM     19  H   UNL     1      -3.706  20.408  31.222  1.00  0.00     0.293 HD
ENDBRANCH  14  18
BRANCH  16  20
ATOM     20  O   UNL     1      -4.692  22.936  33.722  1.00  0.00    -0.502 OA
ATOM     21  H   UNL     1      -5.130  22.022  33.739  1.00  0.00     0.293 HD
ENDBRANCH  16  20
BRANCH  17  22
ATOM     22  O   UNL     1      -3.600  25.535  33.682  1.00  0.00    -0.504 OA
ATOM     23  H   UNL     1      -4.343  26.224  33.652  1.00  0.00     0.293 HD
ENDBRANCH  17  22
ENDBRANCH   1  12
BRANCH   2  24
ATOM     24  O   UNL     1      -3.434  25.518  28.102  1.00  0.00    -0.502 OA
ATOM     25  H   UNL     1      -4.118  24.774  28.044  1.00  0.00     0.293 HD
ENDBRANCH   2  24
BRANCH   6  26
ATOM     26  O   UNL     1       0.873  26.558  25.145  1.00  0.00    -0.507 OA
ATOM     27  H   UNL     1       0.983  27.561  25.134  1.00  0.00     0.293 HD
ENDBRANCH   6  26
BRANCH   8  28
ATOM     28  O   UNL     1       4.203  24.142  27.590  1.00  0.00    -0.508 OA
ATOM     29  H   UNL     1       4.971  24.784  27.427  1.00  0.00     0.293 HD
ENDBRANCH   8  28
TORSDOF 7
ENDMDL
MODEL 6
REMARK VINA RESULT:    -6.147      4.121      7.782
REMARK INTER + INTRA:          -7.915
REMARK INTER:                  -7.650
REMARK INTRA:                  -0.265
REMARK UNBOUND:                -0.331
REMARK SMILES O=c1c(O)c(-c2cc(O)c(O)c(O)c2)oc2cc(O)cc(O)c12
REMARK SMILES IDX 5 1 3 2 2 3 1 4 23 5 21 6 20 7 18 8 17 9 16 10 15 11 6 12
REMARK SMILES IDX 7 13 8 14 14 15 10 16 12 17 9 18 11 20 13 22 4 24 22 26
REMARK SMILES IDX 19 28
REMARK H PARENT 9 19 11 21 13 23 4 25 22 27 19 29
REMARK Flexibility Score: inf
ROOT
ATOM      1  C   UNL     1       3.319  27.412  29.340  1.00  0.00     0.180 A 
ATOM      2  C   UNL     1       2.859  28.389  28.440  1.00  0.00     0.208 A 
ATOM      3  C   UNL     1       1.989  28.007  27.407  1.00  0.00     0.238 A 
ATOM      4  O   UNL     1       1.537  28.895  26.637  1.00  0.00    -0.285 OA
ATOM      5  C   UNL     1       1.602  26.652  27.276  1.00  0.00     0.111 A 
ATOM      6  C   UNL     1       0.757  26.145  26.242  1.00  0.00     0.134 A 
ATOM      7  C   UNL     1       0.336  24.811  26.287  1.00  0.00     0.093 A 
ATOM      8  C   UNL     1       0.779  23.948  27.289  1.00  0.00     0.123 A 
ATOM      9  C   UNL     1       1.653  24.417  28.270  1.00  0.00     0.094 A 
ATOM     10  C   UNL     1       2.063  25.753  28.273  1.00  0.00     0.146 A 
ATOM     11  O   UNL     1       2.887  26.162  29.230  1.00  0.00    -0.452 OA
ENDROOT
BRANCH   1  12
ATOM     12  C   UNL     1       4.258  27.734  30.439  1.00  0.00     0.029 A 
ATOM     13  C   UNL     1       3.793  28.440  31.559  1.00  0.00     0.062 A 
ATOM     14  C   UNL     1       4.656  28.738  32.622  1.00  0.00     0.162 A 
ATOM     15  C   UNL     1       5.593  27.296  30.412  1.00  0.00     0.062 A 
ATOM     16  C   UNL     1       5.991  28.319  32.579  1.00  0.00     0.200 A 
ATOM     17  C   UNL     1       6.461  27.591  31.473  1.00  0.00     0.162 A 
BRANCH  14  18
ATOM     18  O   UNL     1       4.193  29.453  33.726  1.00  0.00    -0.504 OA
ATOM     19  H   UNL     1       4.577  30.357  33.971  1.00  0.00     0.293 HD
ENDBRANCH  14  18
BRANCH  16  20
ATOM     20  O   UNL     1       6.838  28.627  33.645  1.00  0.00    -0.502 OA
ATOM     21  H   UNL     1       6.492  29.032  34.508  1.00  0.00     0.293 HD
ENDBRANCH  16  20
BRANCH  17  22
ATOM     22  O   UNL     1       7.786  27.158  31.433  1.00  0.00    -0.504 OA
ATOM     23  H   UNL     1       8.022  26.183  31.288  1.00  0.00     0.293 HD
ENDBRANCH  17  22
ENDBRANCH   1  12
BRANCH   2  24
ATOM     24  O   UNL     1       3.235  29.726  28.599  1.00  0.00    -0.502 OA
ATOM     25  H   UNL     1       2.728  30.489  28.169  1.00  0.00     0.293 HD
ENDBRANCH   2  24
BRANCH   6  26
ATOM     26  O   UNL     1       0.330  26.898  25.145  1.00  0.00    -0.507 OA
ATOM     27  H   UNL     1      -0.632  27.135  24.950  1.00  0.00     0.293 HD
ENDBRANCH   6  26
BRANCH   8  28
ATOM     28  O   UNL     1       0.352  22.622  27.293  1.00  0.00    -0.508 OA
ATOM     29  H   UNL     1      -0.369  22.299  27.928  1.00  0.00     0.293 HD
ENDBRANCH   8  28
TORSDOF 7
ENDMDL
MODEL 7
REMARK VINA RESULT:    -6.022      2.783      7.006
REMARK INTER + INTRA:          -7.762
REMARK INTER:                  -7.477
REMARK INTRA:                  -0.285
REMARK UNBOUND:                -0.331
REMARK SMILES O=c1c(O)c(-c2cc(O)c(O)c(O)c2)oc2cc(O)cc(O)c12
REMARK SMILES IDX 5 1 3 2 2 3 1 4 23 5 21 6 20 7 18 8 17 9 16 10 15 11 6 12
REMARK SMILES IDX 7 13 8 14 14 15 10 16 12 17 9 18 11 20 13 22 4 24 22 26
REMARK SMILES IDX 19 28
REMARK H PARENT 9 19 11 21 13 23 4 25 22 27 19 29
REMARK Flexibility Score: inf
ROOT
ATOM      1  C   UNL     1       2.145  26.523  28.859  1.00  0.00     0.180 A 
ATOM      2  C   UNL     1       2.224  26.598  27.458  1.00  0.00     0.208 A 
ATOM      3  C   UNL     1       1.351  25.817  26.684  1.00  0.00     0.238 A 
ATOM      4  O   UNL     1       1.390  25.929  25.431  1.00  0.00    -0.285 OA
ATOM      5  C   UNL     1       0.421  24.960  27.319  1.00  0.00     0.111 A 
ATOM      6  C   UNL     1      -0.483  24.094  26.634  1.00  0.00     0.134 A 
ATOM      7  C   UNL     1      -1.448  23.387  27.362  1.00  0.00     0.093 A 
ATOM      8  C   UNL     1      -1.500  23.464  28.753  1.00  0.00     0.123 A 
ATOM      9  C   UNL     1      -0.582  24.260  29.438  1.00  0.00     0.094 A 
ATOM     10  C   UNL     1       0.369  25.006  28.737  1.00  0.00     0.146 A 
ATOM     11  O   UNL     1       1.218  25.759  29.425  1.00  0.00    -0.452 OA
ENDROOT
BRANCH   1  12
ATOM     12  C   UNL     1       3.048  27.297  29.742  1.00  0.00     0.029 A 
ATOM     13  C   UNL     1       2.526  28.343  30.517  1.00  0.00     0.062 A 
ATOM     14  C   UNL     1       3.356  29.077  31.376  1.00  0.00     0.162 A 
ATOM     15  C   UNL     1       4.409  26.968  29.864  1.00  0.00     0.062 A 
ATOM     16  C   UNL     1       4.716  28.759  31.477  1.00  0.00     0.200 A 
ATOM     17  C   UNL     1       5.244  27.698  30.722  1.00  0.00     0.162 A 
BRANCH  14  18
ATOM     18  O   UNL     1       2.835  30.125  32.133  1.00  0.00    -0.504 OA
ATOM     19  H   UNL     1       3.063  31.090  31.931  1.00  0.00     0.293 HD
ENDBRANCH  14  18
BRANCH  16  20
ATOM     20  O   UNL     1       5.528  29.502  32.335  1.00  0.00    -0.502 OA
ATOM     21  H   UNL     1       5.147  30.050  33.098  1.00  0.00     0.293 HD
ENDBRANCH  16  20
BRANCH  17  22
ATOM     22  O   UNL     1       6.594  27.368  30.831  1.00  0.00    -0.504 OA
ATOM     23  H   UNL     1       6.895  26.429  31.064  1.00  0.00     0.293 HD
ENDBRANCH  17  22
ENDBRANCH   1  12
BRANCH   2  24
ATOM     24  O   UNL     1       3.135  27.467  26.850  1.00  0.00    -0.502 OA
ATOM     25  H   UNL     1       3.615  27.237  25.989  1.00  0.00     0.293 HD
ENDBRANCH   2  24
BRANCH   6  26
ATOM     26  O   UNL     1      -0.458  23.874  25.253  1.00  0.00    -0.507 OA
ATOM     27  H   UNL     1      -1.192  23.418  24.731  1.00  0.00     0.293 HD
ENDBRANCH   6  26
BRANCH   8  28
ATOM     28  O   UNL     1      -2.463  22.734  29.446  1.00  0.00    -0.508 OA
ATOM     29  H   UNL     1      -2.578  22.827  30.449  1.00  0.00     0.293 HD
ENDBRANCH   8  28
TORSDOF 7
ENDMDL
MODEL 8
REMARK VINA RESULT:    -5.898      2.757      7.642
REMARK INTER + INTRA:          -7.608
REMARK INTER:                  -7.275
REMARK INTRA:                  -0.333
REMARK UNBOUND:                -0.331
REMARK SMILES O=c1c(O)c(-c2cc(O)c(O)c(O)c2)oc2cc(O)cc(O)c12
REMARK SMILES IDX 5 1 3 2 2 3 1 4 23 5 21 6 20 7 18 8 17 9 16 10 15 11 6 12
REMARK SMILES IDX 7 13 8 14 14 15 10 16 12 17 9 18 11 20 13 22 4 24 22 26
REMARK SMILES IDX 19 28
REMARK H PARENT 9 19 11 21 13 23 4 25 22 27 19 29
REMARK Flexibility Score: inf
ROOT
ATOM      1  C   UNL     1       3.056  26.715  29.052  1.00  0.00     0.180 A 
ATOM      2  C   UNL     1       3.171  26.702  27.652  1.00  0.00     0.208 A 
ATOM      3  C   UNL     1       2.080  26.267  26.883  1.00  0.00     0.238 A 
ATOM      4  O   UNL     1       2.169  26.309  25.628  1.00  0.00    -0.285 OA
ATOM      5  C   UNL     1       0.894  25.835  27.524  1.00  0.00     0.111 A 
ATOM      6  C   UNL     1      -0.259  25.336  26.846  1.00  0.00     0.134 A 
ATOM      7  C   UNL     1      -1.423  25.060  27.574  1.00  0.00     0.093 A 
ATOM      8  C   UNL     1      -1.457  25.204  28.961  1.00  0.00     0.123 A 
ATOM      9  C   UNL     1      -0.316  25.634  29.640  1.00  0.00     0.094 A 
ATOM     10  C   UNL     1       0.849  25.951  28.938  1.00  0.00     0.146 A 
ATOM     11  O   UNL     1       1.909  26.367  29.621  1.00  0.00    -0.452 OA
ENDROOT
BRANCH   1  12
ATOM     12  C   UNL     1       4.172  27.137  29.930  1.00  0.00     0.029 A 
ATOM     13  C   UNL     1       5.210  26.235  30.208  1.00  0.00     0.062 A 
ATOM     14  C   UNL     1       6.288  26.616  31.019  1.00  0.00     0.162 A 
ATOM     15  C   UNL     1       4.243  28.442  30.447  1.00  0.00     0.062 A 
ATOM     16  C   UNL     1       6.342  27.911  31.548  1.00  0.00     0.200 A 
ATOM     17  C   UNL     1       5.320  28.830  31.258  1.00  0.00     0.162 A 
BRANCH  14  18
ATOM     18  O   UNL     1       7.310  25.712  31.303  1.00  0.00    -0.504 OA
ATOM     19  H   UNL     1       7.142  24.713  31.328  1.00  0.00     0.293 HD
ENDBRANCH  14  18
BRANCH  16  20
ATOM     20  O   UNL     1       7.422  28.273  32.356  1.00  0.00    -0.502 OA
ATOM     21  H   UNL     1       8.370  28.319  32.001  1.00  0.00     0.293 HD
ENDBRANCH  16  20
BRANCH  17  22
ATOM     22  O   UNL     1       5.378  30.125  31.770  1.00  0.00    -0.504 OA
ATOM     23  H   UNL     1       4.576  30.557  32.216  1.00  0.00     0.293 HD
ENDBRANCH  17  22
ENDBRANCH   1  12
BRANCH   2  24
ATOM     24  O   UNL     1       4.343  27.153  27.038  1.00  0.00    -0.502 OA
ATOM     25  H   UNL     1       5.212  27.273  27.545  1.00  0.00     0.293 HD
ENDBRANCH   2  24
BRANCH   6  26
ATOM     26  O   UNL     1      -0.303  25.069  25.474  1.00  0.00    -0.507 OA
ATOM     27  H   UNL     1      -0.962  25.481  24.830  1.00  0.00     0.293 HD
ENDBRANCH   6  26
BRANCH   8  28
ATOM     28  O   UNL     1      -2.627  24.905  29.655  1.00  0.00    -0.508 OA
ATOM     29  H   UNL     1      -2.715  25.087  30.648  1.00  0.00     0.293 HD
ENDBRANCH   8  28
TORSDOF 7
ENDMDL
MODEL 9
REMARK VINA RESULT:    -5.565      3.632      4.630
REMARK INTER + INTRA:          -7.197
REMARK INTER:                  -6.847
REMARK INTRA:                  -0.350
REMARK UNBOUND:                -0.331
REMARK SMILES O=c1c(O)c(-c2cc(O)c(O)c(O)c2)oc2cc(O)cc(O)c12
REMARK SMILES IDX 5 1 3 2 2 3 1 4 23 5 21 6 20 7 18 8 17 9 16 10 15 11 6 12
REMARK SMILES IDX 7 13 8 14 14 15 10 16 12 17 9 18 11 20 13 22 4 24 22 26
REMARK SMILES IDX 19 28
REMARK H PARENT 9 19 11 21 13 23 4 25 22 27 19 29
REMARK Flexibility Score: inf
ROOT
ATOM      1  C   UNL     1      -1.048  26.490  27.730  1.00  0.00     0.180 A 
ATOM      2  C   UNL     1       0.323  26.753  27.896  1.00  0.00     0.208 A 
ATOM      3  C   UNL     1       0.959  27.636  27.009  1.00  0.00     0.238 A 
ATOM      4  O   UNL     1       2.174  27.909  27.196  1.00  0.00    -0.285 OA
ATOM      5  C   UNL     1       0.222  28.233  25.959  1.00  0.00     0.111 A 
ATOM      6  C   UNL     1       0.774  29.112  24.978  1.00  0.00     0.134 A 
ATOM      7  C   UNL     1      -0.076  29.746  24.063  1.00  0.00     0.093 A 
ATOM      8  C   UNL     1      -1.446  29.485  24.051  1.00  0.00     0.123 A 
ATOM      9  C   UNL     1      -1.986  28.582  24.966  1.00  0.00     0.094 A 
ATOM     10  C   UNL     1      -1.170  27.961  25.915  1.00  0.00     0.146 A 
ATOM     11  O   UNL     1      -1.726  27.116  26.775  1.00  0.00    -0.452 OA
ENDROOT
BRANCH   1  12
ATOM     12  C   UNL     1      -1.782  25.551  28.609  1.00  0.00     0.029 A 
ATOM     13  C   UNL     1      -1.745  24.176  28.333  1.00  0.00     0.062 A 
ATOM     14  C   UNL     1      -2.415  23.265  29.162  1.00  0.00     0.162 A 
ATOM     15  C   UNL     1      -2.470  26.003  29.749  1.00  0.00     0.062 A 
ATOM     16  C   UNL     1      -3.116  23.723  30.284  1.00  0.00     0.200 A 
ATOM     17  C   UNL     1      -3.141  25.096  30.582  1.00  0.00     0.162 A 
BRANCH  14  18
ATOM     18  O   UNL     1      -2.387  21.901  28.876  1.00  0.00    -0.504 OA
ATOM     19  H   UNL     1      -1.649  21.492  28.316  1.00  0.00     0.293 HD
ENDBRANCH  14  18
BRANCH  16  20
ATOM     20  O   UNL     1      -3.780  22.802  31.096  1.00  0.00    -0.502 OA
ATOM     21  H   UNL     1      -4.337  23.089  31.892  1.00  0.00     0.293 HD
ENDBRANCH  16  20
BRANCH  17  22
ATOM     22  O   UNL     1      -3.825  25.555  31.706  1.00  0.00    -0.504 OA
ATOM     23  H   UNL     1      -4.535  26.276  31.639  1.00  0.00     0.293 HD
ENDBRANCH  17  22
ENDBRANCH   1  12
BRANCH   2  24
ATOM     24  O   UNL     1       1.028  26.170  28.953  1.00  0.00    -0.502 OA
ATOM     25  H   UNL     1       0.813  26.364  29.923  1.00  0.00     0.293 HD
ENDBRANCH   2  24
BRANCH   6  26
ATOM     26  O   UNL     1       2.141  29.371  24.844  1.00  0.00    -0.507 OA
ATOM     27  H   UNL     1       2.873  28.844  25.296  1.00  0.00     0.293 HD
ENDBRANCH   6  26
BRANCH   8  28
ATOM     28  O   UNL     1      -2.258  30.122  23.116  1.00  0.00    -0.508 OA
ATOM     29  H   UNL     1      -1.877  30.773  22.439  1.00  0.00     0.293 HD
ENDBRANCH   8  28
TORSDOF 7
ENDMDL
