MODEL 1
REMARK VINA RESULT:    -4.038      0.000      0.000
REMARK INTER + INTRA:          -6.426
REMARK INTER:                  -5.926
REMARK INTRA:                  -0.500
REMARK UNBOUND:                -0.500
REMARK SMILES O=C([O-])CCCCCCCC(=O)[O-]
REMARK SMILES IDX 7 1 6 2 5 3 4 4 2 5 1 6 3 7 8 8 9 9 10 10 11 11 12 12 13 13
REMARK H PARENT
REMARK Flexibility Score: inf
ROOT
ATOM      1  C   UNL     1      -9.516  -3.484   5.249  1.00  0.00     0.000 C 
ENDROOT
BRANCH   1   2
ATOM      2  C   UNL     1      -8.622  -4.321   6.183  1.00  0.00     0.000 C 
BRANCH   2   3
ATOM      3  C   UNL     1      -9.271  -5.612   6.723  1.00  0.00     0.006 C 
BRANCH   3   4
ATOM      4  C   UNL     1      -8.725  -6.908   6.105  1.00  0.00     0.053 C 
BRANCH   4   5
ATOM      5  C   UNL     1      -9.615  -7.428   5.018  1.00  0.00     0.041 C 
ATOM      6  O   UNL     1      -9.275  -8.439   4.349  1.00  0.00    -0.550 OA
ATOM      7  O   UNL     1     -10.837  -6.816   4.768  1.00  0.00    -0.550 OA
ENDBRANCH   4   5
ENDBRANCH   3   4
ENDBRANCH   2   3
ENDBRANCH   1   2
BRANCH   1   8
ATOM      8  C   UNL     1      -9.292  -3.802   3.763  1.00  0.00     0.000 C 
BRANCH   8   9
ATOM      9  C   UNL     1      -9.763  -2.642   2.878  1.00  0.00     0.006 C 
BRANCH   9  10
ATOM     10  C   UNL     1      -8.897  -1.397   3.097  1.00  0.00     0.053 C 
BRANCH  10  11
ATOM     11  C   UNL     1      -9.757  -0.186   3.274  1.00  0.00     0.041 C 
ATOM     12  O   UNL     1     -10.314   0.039   4.380  1.00  0.00    -0.550 OA
ATOM     13  O   UNL     1      -9.903   0.721   2.232  1.00  0.00    -0.550 OA
ENDBRANCH  10  11
ENDBRANCH   9  10
ENDBRANCH   8   9
ENDBRANCH   1   8
TORSDOF 8
ENDMDL
MODEL 2
REMARK VINA RESULT:    -4.006      0.979      6.407
REMARK INTER + INTRA:          -6.380
REMARK INTER:                  -5.896
REMARK INTRA:                  -0.484
REMARK UNBOUND:                -0.500
REMARK SMILES O=C([O-])CCCCCCCC(=O)[O-]
REMARK SMILES IDX 7 1 6 2 5 3 4 4 2 5 1 6 3 7 8 8 9 9 10 10 11 11 12 12 13 13
REMARK H PARENT
REMARK Flexibility Score: inf
ROOT
ATOM      1  C   UNL     1      -8.620  -3.181   4.589  1.00  0.00     0.000 C 
ENDROOT
BRANCH   1   2
ATOM      2  C   UNL     1      -9.546  -3.874   3.573  1.00  0.00     0.000 C 
BRANCH   2   3
ATOM      3  C   UNL     1     -10.381  -2.920   2.694  1.00  0.00     0.006 C 
BRANCH   3   4
ATOM      4  C   UNL     1      -9.636  -1.656   2.239  1.00  0.00     0.053 C 
BRANCH   4   5
ATOM      5  C   UNL     1     -10.242  -0.412   2.812  1.00  0.00     0.041 C 
ATOM      6  O   UNL     1     -10.785  -0.436   3.948  1.00  0.00    -0.550 OA
ATOM      7  O   UNL     1     -10.177   0.782   2.105  1.00  0.00    -0.550 OA
ENDBRANCH   4   5
ENDBRANCH   3   4
ENDBRANCH   2   3
ENDBRANCH   1   2
BRANCH   1   8
ATOM      8  C   UNL     1      -8.597  -3.885   5.955  1.00  0.00     0.000 C 
BRANCH   8   9
ATOM      9  C   UNL     1      -9.684  -4.962   6.034  1.00  0.00     0.006 C 
BRANCH   9  10
ATOM     10  C   UNL     1      -9.167  -6.213   6.752  1.00  0.00     0.053 C 
BRANCH  10  11
ATOM     11  C   UNL     1      -8.935  -7.321   5.774  1.00  0.00     0.041 C 
ATOM     12  O   UNL     1      -9.519  -7.313   4.658  1.00  0.00    -0.550 OA
ATOM     13  O   UNL     1      -8.037  -8.336   6.073  1.00  0.00    -0.550 OA
ENDBRANCH  10  11
ENDBRANCH   9  10
ENDBRANCH   8   9
ENDBRANCH   1   8
TORSDOF 8
ENDMDL
MODEL 3
REMARK VINA RESULT:    -3.984      1.441      6.661
REMARK INTER + INTRA:          -6.347
REMARK INTER:                  -5.950
REMARK INTRA:                  -0.398
REMARK UNBOUND:                -0.500
REMARK SMILES O=C([O-])CCCCCCCC(=O)[O-]
REMARK SMILES IDX 7 1 6 2 5 3 4 4 2 5 1 6 3 7 8 8 9 9 10 10 11 11 12 12 13 13
REMARK H PARENT
REMARK Flexibility Score: inf
ROOT
ATOM      1  C   UNL     1      -8.761  -3.786   6.074  1.00  0.00     0.000 C 
ENDROOT
BRANCH   1   2
ATOM      2  C   UNL     1      -8.608  -3.369   4.600  1.00  0.00     0.000 C 
BRANCH   2   3
ATOM      3  C   UNL     1      -9.711  -2.429   4.070  1.00  0.00     0.006 C 
BRANCH   3   4
ATOM      4  C   UNL     1      -9.479  -1.916   2.641  1.00  0.00     0.053 C 
BRANCH   4   5
ATOM      5  C   UNL     1      -8.773  -0.595   2.628  1.00  0.00     0.041 C 
ATOM      6  O   UNL     1      -9.427   0.475   2.730  1.00  0.00    -0.550 OA
ATOM      7  O   UNL     1      -7.387  -0.549   2.538  1.00  0.00    -0.550 OA
ENDBRANCH   4   5
ENDBRANCH   3   4
ENDBRANCH   2   3
ENDBRANCH   1   2
BRANCH   1   8
ATOM      8  C   UNL     1      -8.743  -5.310   6.270  1.00  0.00     0.000 C 
BRANCH   8   9
ATOM      9  C   UNL     1      -9.952  -5.964   5.589  1.00  0.00     0.006 C 
BRANCH   9  10
ATOM     10  C   UNL     1      -9.534  -7.220   4.818  1.00  0.00     0.053 C 
BRANCH  10  11
ATOM     11  C   UNL     1      -9.056  -8.279   5.761  1.00  0.00     0.041 C 
ATOM     12  O   UNL     1      -9.847  -8.782   6.602  1.00  0.00    -0.550 OA
ATOM     13  O   UNL     1      -7.751  -8.746   5.677  1.00  0.00    -0.550 OA
ENDBRANCH  10  11
ENDBRANCH   9  10
ENDBRANCH   8   9
ENDBRANCH   1   8
TORSDOF 8
ENDMDL
MODEL 4
REMARK VINA RESULT:    -3.967      1.364      6.295
REMARK INTER + INTRA:          -6.322
REMARK INTER:                  -5.801
REMARK INTRA:                  -0.521
REMARK UNBOUND:                -0.500
REMARK SMILES O=C([O-])CCCCCCCC(=O)[O-]
REMARK SMILES IDX 7 1 6 2 5 3 4 4 2 5 1 6 3 7 8 8 9 9 10 10 11 11 12 12 13 13
REMARK H PARENT
REMARK Flexibility Score: inf
ROOT
ATOM      1  C   UNL     1      -9.752  -3.180   3.113  1.00  0.00     0.000 C 
ENDROOT
BRANCH   1   2
ATOM      2  C   UNL     1      -9.714  -1.919   2.231  1.00  0.00     0.000 C 
BRANCH   2   3
ATOM      3  C   UNL     1      -8.878  -0.752   2.796  1.00  0.00     0.006 C 
BRANCH   3   4
ATOM      4  C   UNL     1      -9.651   0.566   2.961  1.00  0.00     0.053 C 
BRANCH   4   5
ATOM      5  C   UNL     1     -10.917   0.378   3.739  1.00  0.00     0.041 C 
ATOM      6  O   UNL     1     -10.893  -0.183   4.866  1.00  0.00    -0.550 OA
ATOM      7  O   UNL     1     -12.121   0.854   3.234  1.00  0.00    -0.550 OA
ENDBRANCH   4   5
ENDBRANCH   3   4
ENDBRANCH   2   3
ENDBRANCH   1   2
BRANCH   1   8
ATOM      8  C   UNL     1      -8.692  -3.165   4.225  1.00  0.00     0.000 C 
BRANCH   8   9
ATOM      9  C   UNL     1      -9.324  -3.467   5.589  1.00  0.00     0.006 C 
BRANCH   9  10
ATOM     10  C   UNL     1      -8.458  -4.443   6.392  1.00  0.00     0.053 C 
BRANCH  10  11
ATOM     11  C   UNL     1      -9.116  -5.784   6.472  1.00  0.00     0.041 C 
ATOM     12  O   UNL     1      -9.415  -6.277   7.592  1.00  0.00    -0.550 OA
ATOM     13  O   UNL     1      -9.446  -6.467   5.309  1.00  0.00    -0.550 OA
ENDBRANCH  10  11
ENDBRANCH   9  10
ENDBRANCH   8   9
ENDBRANCH   1   8
TORSDOF 8
ENDMDL
MODEL 5
REMARK VINA RESULT:    -3.905      1.247      1.646
REMARK INTER + INTRA:          -6.232
REMARK INTER:                  -5.881
REMARK INTRA:                  -0.351
REMARK UNBOUND:                -0.500
REMARK SMILES O=C([O-])CCCCCCCC(=O)[O-]
REMARK SMILES IDX 7 1 6 2 5 3 4 4 2 5 1 6 3 7 8 8 9 9 10 10 11 11 12 12 13 13
REMARK H PARENT
REMARK Flexibility Score: inf
ROOT
ATOM      1  C   UNL     1      -8.733  -3.120   4.313  1.00  0.00     0.000 C 
ENDROOT
BRANCH   1   2
ATOM      2  C   UNL     1      -8.628  -3.872   5.652  1.00  0.00     0.000 C 
BRANCH   2   3
ATOM      3  C   UNL     1      -9.662  -4.998   5.851  1.00  0.00     0.006 C 
BRANCH   3   4
ATOM      4  C   UNL     1      -9.183  -6.155   6.741  1.00  0.00     0.053 C 
BRANCH   4   5
ATOM      5  C   UNL     1      -9.057  -7.436   5.974  1.00  0.00     0.041 C 
ATOM      6  O   UNL     1      -9.376  -7.481   4.757  1.00  0.00    -0.550 OA
ATOM      7  O   UNL     1      -8.555  -8.572   6.597  1.00  0.00    -0.550 OA
ENDBRANCH   4   5
ENDBRANCH   3   4
ENDBRANCH   2   3
ENDBRANCH   1   2
BRANCH   1   8
ATOM      8  C   UNL     1     -10.146  -3.161   3.713  1.00  0.00     0.000 C 
BRANCH   8   9
ATOM      9  C   UNL     1     -10.142  -2.652   2.266  1.00  0.00     0.006 C 
BRANCH   9  10
ATOM     10  C   UNL     1     -10.963  -1.365   2.134  1.00  0.00     0.053 C 
BRANCH  10  11
ATOM     11  C   UNL     1     -10.062  -0.173   2.067  1.00  0.00     0.041 C 
ATOM     12  O   UNL     1     -10.530   0.985   2.229  1.00  0.00    -0.550 OA
ATOM     13  O   UNL     1      -8.697  -0.344   1.876  1.00  0.00    -0.550 OA
ENDBRANCH  10  11
ENDBRANCH   9  10
ENDBRANCH   8   9
ENDBRANCH   1   8
TORSDOF 8
ENDMDL
MODEL 6
REMARK VINA RESULT:    -3.892      2.277      6.656
REMARK INTER + INTRA:          -6.212
REMARK INTER:                  -5.841
REMARK INTRA:                  -0.371
REMARK UNBOUND:                -0.500
REMARK SMILES O=C([O-])CCCCCCCC(=O)[O-]
REMARK SMILES IDX 7 1 6 2 5 3 4 4 2 5 1 6 3 7 8 8 9 9 10 10 11 11 12 12 13 13
REMARK H PARENT
REMARK Flexibility Score: inf
ROOT
ATOM      1  C   UNL     1      -8.478  -1.307   2.962  1.00  0.00     0.000 C 
ENDROOT
BRANCH   1   2
ATOM      2  C   UNL     1      -8.919   0.133   2.643  1.00  0.00     0.000 C 
BRANCH   2   3
ATOM      3  C   UNL     1     -10.100   0.656   3.486  1.00  0.00     0.006 C 
BRANCH   3   4
ATOM      4  C   UNL     1     -11.070   1.573   2.726  1.00  0.00     0.053 C 
BRANCH   4   5
ATOM      5  C   UNL     1     -12.343   0.868   2.369  1.00  0.00     0.041 C 
ATOM      6  O   UNL     1     -13.421   1.511   2.278  1.00  0.00    -0.550 OA
ATOM      7  O   UNL     1     -12.331  -0.496   2.105  1.00  0.00    -0.550 OA
ENDBRANCH   4   5
ENDBRANCH   3   4
ENDBRANCH   2   3
ENDBRANCH   1   2
BRANCH   1   8
ATOM      8  C   UNL     1      -9.552  -2.109   3.713  1.00  0.00     0.000 C 
BRANCH   8   9
ATOM      9  C   UNL     1      -9.024  -3.492   4.111  1.00  0.00     0.006 C 
BRANCH   9  10
ATOM     10  C   UNL     1      -9.823  -4.068   5.285  1.00  0.00     0.053 C 
BRANCH  10  11
ATOM     11  C   UNL     1      -8.901  -4.603   6.334  1.00  0.00     0.041 C 
ATOM     12  O   UNL     1      -8.018  -3.861   6.840  1.00  0.00    -0.550 OA
ATOM     13  O   UNL     1      -9.048  -5.907   6.790  1.00  0.00    -0.550 OA
ENDBRANCH  10  11
ENDBRANCH   9  10
ENDBRANCH   8   9
ENDBRANCH   1   8
TORSDOF 8
ENDMDL
MODEL 7
REMARK VINA RESULT:    -3.879      2.529      4.649
REMARK INTER + INTRA:          -6.194
REMARK INTER:                  -5.287
REMARK INTRA:                  -0.907
REMARK UNBOUND:                -0.500
REMARK SMILES O=C([O-])CCCCCCCC(=O)[O-]
REMARK SMILES IDX 7 1 6 2 5 3 4 4 2 5 1 6 3 7 8 8 9 9 10 10 11 11 12 12 13 13
REMARK H PARENT
REMARK Flexibility Score: inf
ROOT
ATOM      1  C   UNL     1      -9.000  -5.283   6.286  1.00  0.00     0.000 C 
ENDROOT
BRANCH   1   2
ATOM      2  C   UNL     1      -8.619  -3.833   5.937  1.00  0.00     0.000 C 
BRANCH   2   3
ATOM      3  C   UNL     1      -8.653  -3.492   4.433  1.00  0.00     0.006 C 
BRANCH   3   4
ATOM      4  C   UNL     1      -9.387  -2.187   4.090  1.00  0.00     0.053 C 
BRANCH   4   5
ATOM      5  C   UNL     1      -9.825  -2.151   2.659  1.00  0.00     0.041 C 
ATOM      6  O   UNL     1     -10.471  -3.114   2.168  1.00  0.00    -0.550 OA
ATOM      7  O   UNL     1      -9.549  -1.037   1.875  1.00  0.00    -0.550 OA
ENDBRANCH   4   5
ENDBRANCH   3   4
ENDBRANCH   2   3
ENDBRANCH   1   2
BRANCH   1   8
ATOM      8  C   UNL     1      -9.780  -5.983   5.162  1.00  0.00     0.000 C 
BRANCH   8   9
ATOM      9  C   UNL     1     -11.282  -6.007   5.471  1.00  0.00     0.006 C 
BRANCH   9  10
ATOM     10  C   UNL     1     -12.081  -5.307   4.366  1.00  0.00     0.053 C 
BRANCH  10  11
ATOM     11  C   UNL     1     -12.548  -3.963   4.828  1.00  0.00     0.041 C 
ATOM     12  O   UNL     1     -12.159  -3.503   5.933  1.00  0.00    -0.550 OA
ATOM     13  O   UNL     1     -13.373  -3.197   4.015  1.00  0.00    -0.550 OA
ENDBRANCH  10  11
ENDBRANCH   9  10
ENDBRANCH   8   9
ENDBRANCH   1   8
TORSDOF 8
ENDMDL
MODEL 8
REMARK VINA RESULT:    -3.875      2.086      5.532
REMARK INTER + INTRA:          -6.188
REMARK INTER:                  -5.563
REMARK INTRA:                  -0.625
REMARK UNBOUND:                -0.500
REMARK SMILES O=C([O-])CCCCCCCC(=O)[O-]
REMARK SMILES IDX 7 1 6 2 5 3 4 4 2 5 1 6 3 7 8 8 9 9 10 10 11 11 12 12 13 13
REMARK H PARENT
REMARK Flexibility Score: inf
ROOT
ATOM      1  C   UNL     1      -8.659  -3.597   5.577  1.00  0.00     0.000 C 
ENDROOT
BRANCH   1   2
ATOM      2  C   UNL     1      -8.676  -3.423   4.047  1.00  0.00     0.000 C 
BRANCH   2   3
ATOM      3  C   UNL     1      -8.997  -1.996   3.556  1.00  0.00     0.006 C 
BRANCH   3   4
ATOM      4  C   UNL     1      -9.729  -1.936   2.207  1.00  0.00     0.053 C 
BRANCH   4   5
ATOM      5  C   UNL     1     -10.549  -0.690   2.071  1.00  0.00     0.041 C 
ATOM      6  O   UNL     1      -9.991   0.439   2.063  1.00  0.00    -0.550 OA
ATOM      7  O   UNL     1     -11.927  -0.778   1.917  1.00  0.00    -0.550 OA
ENDBRANCH   4   5
ENDBRANCH   3   4
ENDBRANCH   2   3
ENDBRANCH   1   2
BRANCH   1   8
ATOM      8  C   UNL     1      -9.354  -4.886   6.041  1.00  0.00     0.000 C 
BRANCH   8   9
ATOM      9  C   UNL     1     -10.061  -5.579   4.870  1.00  0.00     0.006 C 
BRANCH   9  10
ATOM     10  C   UNL     1     -11.569  -5.682   5.122  1.00  0.00     0.053 C 
BRANCH  10  11
ATOM     11  C   UNL     1     -12.322  -4.831   4.149  1.00  0.00     0.041 C 
ATOM     12  O   UNL     1     -13.093  -5.362   3.307  1.00  0.00    -0.550 OA
ATOM     13  O   UNL     1     -12.212  -3.448   4.205  1.00  0.00    -0.550 OA
ENDBRANCH  10  11
ENDBRANCH   9  10
ENDBRANCH   8   9
ENDBRANCH   1   8
TORSDOF 8
ENDMDL
