MODEL 1
REMARK VINA RESULT:    -3.140      0.000      0.000
REMARK INTER + INTRA:          -3.334
REMARK INTER:                  -3.323
REMARK INTRA:                  -0.011
REMARK UNBOUND:                -0.011
REMARK SMILES O=Cc1ccco1
REMARK SMILES IDX 5 1 6 2 7 3 3 4 4 5 2 6 1 7
REMARK H PARENT
REMARK Flexibility Score: inf
ROOT
ATOM      1  C   UNL     1       1.294  -1.252 -21.741  1.00  0.00     0.043 A 
ATOM      2  C   UNL     1       2.125  -2.236 -22.241  1.00  0.00     0.196 A 
ATOM      3  O   UNL     1       2.832  -1.754 -23.237  1.00  0.00    -0.462 OA
ATOM      4  C   UNL     1       2.500  -0.496 -23.414  1.00  0.00     0.166 A 
ATOM      5  C   UNL     1       1.535  -0.126 -22.499  1.00  0.00     0.054 A 
ENDROOT
BRANCH   4   6
ATOM      6  C   UNL     1       3.079   0.375 -24.438  1.00  0.00     0.298 C 
ATOM      7  O   UNL     1       4.009   1.170 -24.142  1.00  0.00    -0.294 OA
ENDBRANCH   4   6
TORSDOF 1
ENDMDL
MODEL 2
REMARK VINA RESULT:    -3.100      4.513      5.743
REMARK INTER + INTRA:          -3.291
REMARK INTER:                  -3.279
REMARK INTRA:                  -0.012
REMARK UNBOUND:                -0.011
REMARK SMILES O=Cc1ccco1
REMARK SMILES IDX 5 1 6 2 7 3 3 4 4 5 2 6 1 7
REMARK H PARENT
REMARK Flexibility Score: inf
ROOT
ATOM      1  C   UNL     1       3.883  -7.262 -24.300  1.00  0.00     0.043 A 
ATOM      2  C   UNL     1       4.398  -6.195 -25.010  1.00  0.00     0.196 A 
ATOM      3  O   UNL     1       4.513  -5.152 -24.218  1.00  0.00    -0.462 OA
ATOM      4  C   UNL     1       4.095  -5.490 -23.021  1.00  0.00     0.166 A 
ATOM      5  C   UNL     1       3.686  -6.808 -23.014  1.00  0.00     0.054 A 
ENDROOT
BRANCH   4   6
ATOM      6  C   UNL     1       4.072  -4.587 -21.869  1.00  0.00     0.298 C 
ATOM      7  O   UNL     1       3.311  -3.585 -21.864  1.00  0.00    -0.294 OA
ENDBRANCH   4   6
TORSDOF 1
ENDMDL
MODEL 3
REMARK VINA RESULT:    -2.903      9.334      9.877
REMARK INTER + INTRA:          -3.084
REMARK INTER:                  -3.072
REMARK INTRA:                  -0.011
REMARK UNBOUND:                -0.011
REMARK SMILES O=Cc1ccco1
REMARK SMILES IDX 5 1 6 2 7 3 3 4 4 5 2 6 1 7
REMARK H PARENT
REMARK Flexibility Score: inf
ROOT
ATOM      1  C   UNL     1      -5.353   1.881 -21.367  1.00  0.00     0.043 A 
ATOM      2  C   UNL     1      -4.912   2.668 -20.321  1.00  0.00     0.196 A 
ATOM      3  O   UNL     1      -5.310   3.907 -20.502  1.00  0.00    -0.462 OA
ATOM      4  C   UNL     1      -5.991   3.966 -21.622  1.00  0.00     0.166 A 
ATOM      5  C   UNL     1      -6.051   2.719 -22.209  1.00  0.00     0.054 A 
ENDROOT
BRANCH   4   6
ATOM      6  C   UNL     1      -6.595   5.188 -22.157  1.00  0.00     0.298 C 
ATOM      7  O   UNL     1      -7.731   5.559 -21.762  1.00  0.00    -0.294 OA
ENDBRANCH   4   6
TORSDOF 1
ENDMDL
MODEL 4
REMARK VINA RESULT:    -2.824      8.935      9.637
REMARK INTER + INTRA:          -3.000
REMARK INTER:                  -2.987
REMARK INTRA:                  -0.013
REMARK UNBOUND:                -0.011
REMARK SMILES O=Cc1ccco1
REMARK SMILES IDX 5 1 6 2 7 3 3 4 4 5 2 6 1 7
REMARK H PARENT
REMARK Flexibility Score: inf
ROOT
ATOM      1  C   UNL     1      -4.691   3.368 -21.677  1.00  0.00     0.043 A 
ATOM      2  C   UNL     1      -4.956   2.092 -21.221  1.00  0.00     0.196 A 
ATOM      3  O   UNL     1      -6.088   1.666 -21.733  1.00  0.00    -0.462 OA
ATOM      4  C   UNL     1      -6.577   2.609 -22.505  1.00  0.00     0.166 A 
ATOM      5  C   UNL     1      -5.738   3.704 -22.508  1.00  0.00     0.054 A 
ENDROOT
BRANCH   4   6
ATOM      6  C   UNL     1      -7.833   2.497 -23.250  1.00  0.00     0.298 C 
ATOM      7  O   UNL     1      -7.987   1.582 -24.100  1.00  0.00    -0.294 OA
ENDBRANCH   4   6
TORSDOF 1
ENDMDL
MODEL 5
REMARK VINA RESULT:    -2.820      7.279      7.935
REMARK INTER + INTRA:          -2.996
REMARK INTER:                  -2.983
REMARK INTRA:                  -0.013
REMARK UNBOUND:                -0.011
REMARK SMILES O=Cc1ccco1
REMARK SMILES IDX 5 1 6 2 7 3 3 4 4 5 2 6 1 7
REMARK H PARENT
REMARK Flexibility Score: inf
ROOT
ATOM      1  C   UNL     1      -5.494   3.469 -21.223  1.00  0.00     0.043 A 
ATOM      2  C   UNL     1      -5.702   4.125 -22.421  1.00  0.00     0.196 A 
ATOM      3  O   UNL     1      -4.593   4.121 -23.126  1.00  0.00    -0.462 OA
ATOM      4  C   UNL     1      -3.666   3.492 -22.441  1.00  0.00     0.166 A 
ATOM      5  C   UNL     1      -4.178   3.059 -21.235  1.00  0.00     0.054 A 
ENDROOT
BRANCH   4   6
ATOM      6  C   UNL     1      -2.293   3.287 -22.905  1.00  0.00     0.298 C 
ATOM      7  O   UNL     1      -1.596   4.267 -23.274  1.00  0.00    -0.294 OA
ENDBRANCH   4   6
TORSDOF 1
ENDMDL
MODEL 6
REMARK VINA RESULT:    -2.810      2.273      2.865
REMARK INTER + INTRA:          -2.985
REMARK INTER:                  -2.971
REMARK INTRA:                  -0.014
REMARK UNBOUND:                -0.011
REMARK SMILES O=Cc1ccco1
REMARK SMILES IDX 5 1 6 2 7 3 3 4 4 5 2 6 1 7
REMARK H PARENT
REMARK Flexibility Score: inf
ROOT
ATOM      1  C   UNL     1       2.314  -1.396 -22.300  1.00  0.00     0.043 A 
ATOM      2  C   UNL     1       2.721  -0.557 -23.319  1.00  0.00     0.196 A 
ATOM      3  O   UNL     1       1.761   0.294 -23.602  1.00  0.00    -0.462 OA
ATOM      4  C   UNL     1       0.741   0.049 -22.812  1.00  0.00     0.166 A 
ATOM      5  C   UNL     1       1.033  -1.005 -21.971  1.00  0.00     0.054 A 
ENDROOT
BRANCH   4   6
ATOM      6  C   UNL     1      -0.517   0.797 -22.833  1.00  0.00     0.298 C 
ATOM      7  O   UNL     1      -1.040   1.127 -23.929  1.00  0.00    -0.294 OA
ENDBRANCH   4   6
TORSDOF 1
ENDMDL
MODEL 7
REMARK VINA RESULT:    -2.743      9.167      9.855
REMARK INTER + INTRA:          -2.914
REMARK INTER:                  -2.901
REMARK INTRA:                  -0.013
REMARK UNBOUND:                -0.011
REMARK SMILES O=Cc1ccco1
REMARK SMILES IDX 5 1 6 2 7 3 3 4 4 5 2 6 1 7
REMARK H PARENT
REMARK Flexibility Score: inf
ROOT
ATOM      1  C   UNL     1      -7.988   2.716 -23.249  1.00  0.00     0.043 A 
ATOM      2  C   UNL     1      -7.385   3.958 -23.287  1.00  0.00     0.196 A 
ATOM      3  O   UNL     1      -6.236   3.911 -22.652  1.00  0.00    -0.462 OA
ATOM      4  C   UNL     1      -6.060   2.692 -22.198  1.00  0.00     0.166 A 
ATOM      5  C   UNL     1      -7.132   1.896 -22.545  1.00  0.00     0.054 A 
ENDROOT
BRANCH   4   6
ATOM      6  C   UNL     1      -4.888   2.255 -21.436  1.00  0.00     0.298 C 
ATOM      7  O   UNL     1      -4.585   2.828 -20.357  1.00  0.00    -0.294 OA
ENDBRANCH   4   6
TORSDOF 1
ENDMDL
MODEL 8
REMARK VINA RESULT:    -2.742      1.289      2.993
REMARK INTER + INTRA:          -2.913
REMARK INTER:                  -2.902
REMARK INTRA:                  -0.011
REMARK UNBOUND:                -0.011
REMARK SMILES O=Cc1ccco1
REMARK SMILES IDX 5 1 6 2 7 3 3 4 4 5 2 6 1 7
REMARK H PARENT
REMARK Flexibility Score: inf
ROOT
ATOM      1  C   UNL     1       1.214  -0.282 -22.149  1.00  0.00     0.043 A 
ATOM      2  C   UNL     1       2.158  -0.091 -23.139  1.00  0.00     0.196 A 
ATOM      3  O   UNL     1       2.821  -1.207 -23.339  1.00  0.00    -0.462 OA
ATOM      4  C   UNL     1       2.354  -2.122 -22.520  1.00  0.00     0.166 A 
ATOM      5  C   UNL     1       1.340  -1.595 -21.748  1.00  0.00     0.054 A 
ENDROOT
BRANCH   4   6
ATOM      6  C   UNL     1       2.849  -3.498 -22.451  1.00  0.00     0.298 C 
ATOM      7  O   UNL     1       3.808  -3.789 -21.690  1.00  0.00    -0.294 OA
ENDBRANCH   4   6
TORSDOF 1
ENDMDL
MODEL 9
REMARK VINA RESULT:    -2.582     17.454     18.646
REMARK INTER + INTRA:          -2.744
REMARK INTER:                  -2.730
REMARK INTRA:                  -0.014
REMARK UNBOUND:                -0.011
REMARK SMILES O=Cc1ccco1
REMARK SMILES IDX 5 1 6 2 7 3 3 4 4 5 2 6 1 7
REMARK H PARENT
REMARK Flexibility Score: inf
ROOT
ATOM      1  C   UNL     1       4.003  -8.599  -5.168  1.00  0.00     0.043 A 
ATOM      2  C   UNL     1       2.905  -9.424  -5.313  1.00  0.00     0.196 A 
ATOM      3  O   UNL     1       2.953 -10.021  -6.482  1.00  0.00    -0.462 OA
ATOM      4  C   UNL     1       4.035  -9.623  -7.110  1.00  0.00     0.166 A 
ATOM      5  C   UNL     1       4.735  -8.727  -6.329  1.00  0.00     0.054 A 
ENDROOT
BRANCH   4   6
ATOM      6  C   UNL     1       4.428 -10.075  -8.446  1.00  0.00     0.298 C 
ATOM      7  O   UNL     1       3.578 -10.125  -9.373  1.00  0.00    -0.294 OA
ENDBRANCH   4   6
TORSDOF 1
ENDMDL
