MODEL 1
REMARK VINA RESULT:    -5.381      0.000      0.000
REMARK INTER + INTRA:         -18.859
REMARK INTER:                 -14.190
REMARK INTRA:                  -4.670
REMARK UNBOUND:                -4.670
REMARK SMILES CCCCCCCCCCCCCCCCCCCCCCCCCCCCCC(=O)[O-]
REMARK SMILES IDX 16 1 17 2 18 3 19 4 20 5 21 6 22 7 23 8 24 9 25 10 26 11
REMARK SMILES IDX 27 12 28 13 29 14 30 15 31 16 32 17 15 18 14 19 13 20 12 21
REMARK SMILES IDX 11 22 10 23 9 24 8 25 7 26 6 27 5 28 4 29 3 30 2 31 1 32
REMARK H PARENT
REMARK Flexibility Score: inf
ROOT
ATOM      1  C   UNL     1      14.010 -29.464  22.994  1.00  0.00     0.000 C 
ENDROOT
BRANCH   1   2
ATOM      2  C   UNL     1      15.544 -29.564  23.100  1.00  0.00     0.000 C 
BRANCH   2   3
ATOM      3  C   UNL     1      16.309 -29.435  21.766  1.00  0.00     0.000 C 
BRANCH   3   4
ATOM      4  C   UNL     1      17.157 -30.659  21.378  1.00  0.00     0.000 C 
BRANCH   4   5
ATOM      5  C   UNL     1      17.754 -31.379  22.596  1.00  0.00     0.000 C 
BRANCH   5   6
ATOM      6  C   UNL     1      18.582 -32.596  22.159  1.00  0.00     0.000 C 
BRANCH   6   7
ATOM      7  C   UNL     1      19.497 -32.299  20.956  1.00  0.00     0.000 C 
BRANCH   7   8
ATOM      8  C   UNL     1      20.847 -31.646  21.312  1.00  0.00     0.000 C 
BRANCH   8   9
ATOM      9  C   UNL     1      21.036 -30.268  20.661  1.00  0.00     0.000 C 
BRANCH   9  10
ATOM     10  C   UNL     1      20.489 -29.151  21.563  1.00  0.00     0.000 C 
BRANCH  10  11
ATOM     11  C   UNL     1      19.773 -28.045  20.770  1.00  0.00     0.000 C 
BRANCH  11  12
ATOM     12  C   UNL     1      20.290 -26.640  21.121  1.00  0.00     0.000 C 
BRANCH  12  13
ATOM     13  C   UNL     1      21.118 -26.007  19.988  1.00  0.00     0.006 C 
BRANCH  13  14
ATOM     14  C   UNL     1      22.635 -25.997  20.238  1.00  0.00     0.053 C 
BRANCH  14  15
ATOM     15  C   UNL     1      23.120 -24.658  20.700  1.00  0.00     0.041 C 
ATOM     16  O   UNL     1      23.717 -23.890  19.901  1.00  0.00    -0.550 OA
ATOM     17  O   UNL     1      22.957 -24.279  22.026  1.00  0.00    -0.550 OA
ENDBRANCH  14  15
ENDBRANCH  13  14
ENDBRANCH  12  13
ENDBRANCH  11  12
ENDBRANCH  10  11
ENDBRANCH   9  10
ENDBRANCH   8   9
ENDBRANCH   7   8
ENDBRANCH   6   7
ENDBRANCH   5   6
ENDBRANCH   4   5
ENDBRANCH   3   4
ENDBRANCH   2   3
ENDBRANCH   1   2
BRANCH   1  18
ATOM     18  C   UNL     1      13.301 -30.786  23.327  1.00  0.00     0.000 C 
BRANCH  18  19
ATOM     19  C   UNL     1      14.277 -31.891  23.773  1.00  0.00     0.000 C 
BRANCH  19  20
ATOM     20  C   UNL     1      14.572 -32.974  22.715  1.00  0.00     0.000 C 
BRANCH  20  21
ATOM     21  C   UNL     1      14.152 -32.614  21.279  1.00  0.00     0.000 C 
BRANCH  21  22
ATOM     22  C   UNL     1      14.571 -33.675  20.250  1.00  0.00     0.000 C 
BRANCH  22  23
ATOM     23  C   UNL     1      15.588 -34.654  20.857  1.00  0.00     0.000 C 
BRANCH  23  24
ATOM     24  C   UNL     1      16.791 -34.913  19.935  1.00  0.00    -0.000 C 
BRANCH  24  25
ATOM     25  C   UNL     1      16.926 -36.394  19.541  1.00  0.00    -0.000 C 
BRANCH  25  26
ATOM     26  C   UNL     1      17.711 -37.218  20.579  1.00  0.00    -0.000 C 
BRANCH  26  27
ATOM     27  C   UNL     1      18.598 -36.393  21.531  1.00  0.00    -0.000 C 
BRANCH  27  28
ATOM     28  C   UNL     1      19.072 -37.195  22.754  1.00  0.00    -0.000 C 
BRANCH  28  29
ATOM     29  C   UNL     1      18.917 -36.376  24.044  1.00  0.00    -0.000 C 
BRANCH  29  30
ATOM     30  C   UNL     1      17.533 -35.718  24.163  1.00  0.00    -0.000 C 
BRANCH  30  31
ATOM     31  C   UNL     1      17.276 -35.130  25.559  1.00  0.00    -0.003 C 
ATOM     32  C   UNL     1      17.407 -33.609  25.548  1.00  0.00     0.004 C 
ENDBRANCH  30  31
ENDBRANCH  29  30
ENDBRANCH  28  29
ENDBRANCH  27  28
ENDBRANCH  26  27
ENDBRANCH  25  26
ENDBRANCH  24  25
ENDBRANCH  23  24
ENDBRANCH  22  23
ENDBRANCH  21  22
ENDBRANCH  20  21
ENDBRANCH  19  20
ENDBRANCH  18  19
ENDBRANCH   1  18
TORSDOF 28
ENDMDL
MODEL 2
REMARK VINA RESULT:    -5.152      2.891      7.249
REMARK INTER + INTRA:         -18.256
REMARK INTER:                 -12.414
REMARK INTRA:                  -5.842
REMARK UNBOUND:                -4.670
REMARK SMILES CCCCCCCCCCCCCCCCCCCCCCCCCCCCCC(=O)[O-]
REMARK SMILES IDX 16 1 17 2 18 3 19 4 20 5 21 6 22 7 23 8 24 9 25 10 26 11
REMARK SMILES IDX 27 12 28 13 29 14 30 15 31 16 32 17 15 18 14 19 13 20 12 21
REMARK SMILES IDX 11 22 10 23 9 24 8 25 7 26 6 27 5 28 4 29 3 30 2 31 1 32
REMARK H PARENT
REMARK Flexibility Score: inf
ROOT
ATOM      1  C   UNL     1      18.379 -33.022  25.808  1.00  0.00     0.000 C 
ENDROOT
BRANCH   1   2
ATOM      2  C   UNL     1      18.848 -32.082  24.681  1.00  0.00     0.000 C 
BRANCH   2   3
ATOM      3  C   UNL     1      18.222 -32.348  23.296  1.00  0.00     0.000 C 
BRANCH   3   4
ATOM      4  C   UNL     1      17.742 -31.093  22.544  1.00  0.00     0.000 C 
BRANCH   4   5
ATOM      5  C   UNL     1      17.726 -31.281  21.020  1.00  0.00     0.000 C 
BRANCH   5   6
ATOM      6  C   UNL     1      18.484 -32.554  20.619  1.00  0.00     0.000 C 
BRANCH   6   7
ATOM      7  C   UNL     1      17.619 -33.538  19.810  1.00  0.00     0.000 C 
BRANCH   7   8
ATOM      8  C   UNL     1      17.230 -34.827  20.557  1.00  0.00     0.000 C 
BRANCH   8   9
ATOM      9  C   UNL     1      15.971 -34.662  21.423  1.00  0.00     0.000 C 
BRANCH   9  10
ATOM     10  C   UNL     1      14.896 -33.849  20.684  1.00  0.00     0.000 C 
BRANCH  10  11
ATOM     11  C   UNL     1      14.388 -32.653  21.506  1.00  0.00     0.000 C 
BRANCH  11  12
ATOM     12  C   UNL     1      14.573 -32.858  23.020  1.00  0.00     0.000 C 
BRANCH  12  13
ATOM     13  C   UNL     1      13.820 -31.811  23.861  1.00  0.00     0.006 C 
BRANCH  13  14
ATOM     14  C   UNL     1      13.057 -30.762  23.036  1.00  0.00     0.053 C 
BRANCH  14  15
ATOM     15  C   UNL     1      13.641 -29.392  23.190  1.00  0.00     0.041 C 
ATOM     16  O   UNL     1      14.710 -29.088  22.599  1.00  0.00    -0.550 OA
ATOM     17  O   UNL     1      13.031 -28.466  24.027  1.00  0.00    -0.550 OA
ENDBRANCH  14  15
ENDBRANCH  13  14
ENDBRANCH  12  13
ENDBRANCH  11  12
ENDBRANCH  10  11
ENDBRANCH   9  10
ENDBRANCH   8   9
ENDBRANCH   7   8
ENDBRANCH   6   7
ENDBRANCH   5   6
ENDBRANCH   4   5
ENDBRANCH   3   4
ENDBRANCH   2   3
ENDBRANCH   1   2
BRANCH   1  18
ATOM     18  C   UNL     1      17.044 -33.716  25.490  1.00  0.00     0.000 C 
BRANCH  18  19
ATOM     19  C   UNL     1      17.145 -35.252  25.532  1.00  0.00     0.000 C 
BRANCH  19  20
ATOM     20  C   UNL     1      17.811 -35.900  24.301  1.00  0.00     0.000 C 
BRANCH  20  21
ATOM     21  C   UNL     1      19.344 -36.013  24.371  1.00  0.00     0.000 C 
BRANCH  21  22
ATOM     22  C   UNL     1      19.992 -36.215  22.993  1.00  0.00     0.000 C 
BRANCH  22  23
ATOM     23  C   UNL     1      20.645 -34.915  22.498  1.00  0.00     0.000 C 
BRANCH  23  24
ATOM     24  C   UNL     1      21.873 -34.509  23.330  1.00  0.00    -0.000 C 
BRANCH  24  25
ATOM     25  C   UNL     1      22.804 -33.543  22.576  1.00  0.00    -0.000 C 
BRANCH  25  26
ATOM     26  C   UNL     1      22.442 -32.064  22.807  1.00  0.00    -0.000 C 
BRANCH  26  27
ATOM     27  C   UNL     1      21.619 -31.410  21.681  1.00  0.00    -0.000 C 
BRANCH  27  28
ATOM     28  C   UNL     1      21.107 -30.008  22.049  1.00  0.00    -0.000 C 
BRANCH  28  29
ATOM     29  C   UNL     1      21.005 -29.115  20.803  1.00  0.00    -0.000 C 
BRANCH  29  30
ATOM     30  C   UNL     1      19.852 -28.104  20.894  1.00  0.00    -0.000 C 
BRANCH  30  31
ATOM     31  C   UNL     1      20.271 -26.688  20.470  1.00  0.00    -0.003 C 
ATOM     32  C   UNL     1      21.787 -26.524  20.523  1.00  0.00     0.004 C 
ENDBRANCH  30  31
ENDBRANCH  29  30
ENDBRANCH  28  29
ENDBRANCH  27  28
ENDBRANCH  26  27
ENDBRANCH  25  26
ENDBRANCH  24  25
ENDBRANCH  23  24
ENDBRANCH  22  23
ENDBRANCH  21  22
ENDBRANCH  20  21
ENDBRANCH  19  20
ENDBRANCH  18  19
ENDBRANCH   1  18
TORSDOF 28
ENDMDL
MODEL 3
REMARK VINA RESULT:    -5.145      1.266      1.808
REMARK INTER + INTRA:         -18.237
REMARK INTER:                 -13.344
REMARK INTRA:                  -4.894
REMARK UNBOUND:                -4.670
REMARK SMILES CCCCCCCCCCCCCCCCCCCCCCCCCCCCCC(=O)[O-]
REMARK SMILES IDX 16 1 17 2 18 3 19 4 20 5 21 6 22 7 23 8 24 9 25 10 26 11
REMARK SMILES IDX 27 12 28 13 29 14 30 15 31 16 32 17 15 18 14 19 13 20 12 21
REMARK SMILES IDX 11 22 10 23 9 24 8 25 7 26 6 27 5 28 4 29 3 30 2 31 1 32
REMARK H PARENT
REMARK Flexibility Score: inf
ROOT
ATOM      1  C   UNL     1      13.368 -30.385  23.070  1.00  0.00     0.000 C 
ENDROOT
BRANCH   1   2
ATOM      2  C   UNL     1      14.343 -29.215  22.835  1.00  0.00     0.000 C 
BRANCH   2   3
ATOM      3  C   UNL     1      15.820 -29.507  23.174  1.00  0.00     0.000 C 
BRANCH   3   4
ATOM      4  C   UNL     1      16.735 -29.741  21.959  1.00  0.00     0.000 C 
BRANCH   4   5
ATOM      5  C   UNL     1      17.525 -31.054  22.051  1.00  0.00     0.000 C 
BRANCH   5   6
ATOM      6  C   UNL     1      17.930 -31.547  20.654  1.00  0.00     0.000 C 
BRANCH   6   7
ATOM      7  C   UNL     1      19.106 -32.541  20.687  1.00  0.00     0.000 C 
BRANCH   7   8
ATOM      8  C   UNL     1      20.350 -32.050  21.451  1.00  0.00     0.000 C 
BRANCH   8   9
ATOM      9  C   UNL     1      20.997 -30.811  20.812  1.00  0.00     0.000 C 
BRANCH   9  10
ATOM     10  C   UNL     1      20.913 -29.598  21.751  1.00  0.00     0.000 C 
BRANCH  10  11
ATOM     11  C   UNL     1      20.474 -28.315  21.026  1.00  0.00     0.000 C 
BRANCH  11  12
ATOM     12  C   UNL     1      21.668 -27.481  20.530  1.00  0.00     0.000 C 
BRANCH  12  13
ATOM     13  C   UNL     1      22.734 -27.258  21.619  1.00  0.00     0.006 C 
BRANCH  13  14
ATOM     14  C   UNL     1      22.387 -26.154  22.632  1.00  0.00     0.053 C 
BRANCH  14  15
ATOM     15  C   UNL     1      22.184 -24.827  21.970  1.00  0.00     0.041 C 
ATOM     16  O   UNL     1      23.147 -24.247  21.404  1.00  0.00    -0.550 OA
ATOM     17  O   UNL     1      20.942 -24.207  22.023  1.00  0.00    -0.550 OA
ENDBRANCH  14  15
ENDBRANCH  13  14
ENDBRANCH  12  13
ENDBRANCH  11  12
ENDBRANCH  10  11
ENDBRANCH   9  10
ENDBRANCH   8   9
ENDBRANCH   7   8
ENDBRANCH   6   7
ENDBRANCH   5   6
ENDBRANCH   4   5
ENDBRANCH   3   4
ENDBRANCH   2   3
ENDBRANCH   1   2
BRANCH   1  18
ATOM     18  C   UNL     1      12.850 -31.002  21.760  1.00  0.00     0.000 C 
BRANCH  18  19
ATOM     19  C   UNL     1      13.815 -32.048  21.171  1.00  0.00     0.000 C 
BRANCH  19  20
ATOM     20  C   UNL     1      14.553 -32.919  22.207  1.00  0.00     0.000 C 
BRANCH  20  21
ATOM     21  C   UNL     1      15.267 -34.155  21.632  1.00  0.00     0.000 C 
BRANCH  21  22
ATOM     22  C   UNL     1      15.167 -34.244  20.102  1.00  0.00     0.000 C 
BRANCH  22  23
ATOM     23  C   UNL     1      16.448 -34.846  19.503  1.00  0.00     0.000 C 
BRANCH  23  24
ATOM     24  C   UNL     1      16.717 -36.281  19.989  1.00  0.00    -0.000 C 
BRANCH  24  25
ATOM     25  C   UNL     1      18.135 -36.455  20.559  1.00  0.00    -0.000 C 
BRANCH  25  26
ATOM     26  C   UNL     1      18.200 -36.214  22.079  1.00  0.00    -0.000 C 
BRANCH  26  27
ATOM     27  C   UNL     1      19.499 -35.557  22.581  1.00  0.00    -0.000 C 
BRANCH  27  28
ATOM     28  C   UNL     1      19.342 -34.888  23.956  1.00  0.00    -0.000 C 
BRANCH  28  29
ATOM     29  C   UNL     1      17.940 -34.279  24.114  1.00  0.00    -0.000 C 
BRANCH  29  30
ATOM     30  C   UNL     1      17.832 -33.355  25.338  1.00  0.00    -0.000 C 
BRANCH  30  31
ATOM     31  C   UNL     1      18.427 -31.962  25.081  1.00  0.00    -0.003 C 
ATOM     32  C   UNL     1      19.357 -31.543  26.216  1.00  0.00     0.004 C 
ENDBRANCH  30  31
ENDBRANCH  29  30
ENDBRANCH  28  29
ENDBRANCH  27  28
ENDBRANCH  26  27
ENDBRANCH  25  26
ENDBRANCH  24  25
ENDBRANCH  23  24
ENDBRANCH  22  23
ENDBRANCH  21  22
ENDBRANCH  20  21
ENDBRANCH  19  20
ENDBRANCH  18  19
ENDBRANCH   1  18
TORSDOF 28
ENDMDL
MODEL 4
REMARK VINA RESULT:    -5.128      3.059      5.663
REMARK INTER + INTRA:         -18.193
REMARK INTER:                 -12.655
REMARK INTRA:                  -5.537
REMARK UNBOUND:                -4.670
REMARK SMILES CCCCCCCCCCCCCCCCCCCCCCCCCCCCCC(=O)[O-]
REMARK SMILES IDX 16 1 17 2 18 3 19 4 20 5 21 6 22 7 23 8 24 9 25 10 26 11
REMARK SMILES IDX 27 12 28 13 29 14 30 15 31 16 32 17 15 18 14 19 13 20 12 21
REMARK SMILES IDX 11 22 10 23 9 24 8 25 7 26 6 27 5 28 4 29 3 30 2 31 1 32
REMARK H PARENT
REMARK Flexibility Score: inf
ROOT
ATOM      1  C   UNL     1      13.904 -32.432  20.928  1.00  0.00     0.000 C 
ENDROOT
BRANCH   1   2
ATOM      2  C   UNL     1      14.694 -33.231  21.983  1.00  0.00     0.000 C 
BRANCH   2   3
ATOM      3  C   UNL     1      15.715 -34.241  21.419  1.00  0.00     0.000 C 
BRANCH   3   4
ATOM      4  C   UNL     1      15.608 -34.503  19.905  1.00  0.00     0.000 C 
BRANCH   4   5
ATOM      5  C   UNL     1      16.908 -34.187  19.152  1.00  0.00     0.000 C 
BRANCH   5   6
ATOM      6  C   UNL     1      17.997 -35.216  19.488  1.00  0.00     0.000 C 
BRANCH   6   7
ATOM      7  C   UNL     1      17.450 -36.651  19.608  1.00  0.00     0.000 C 
BRANCH   7   8
ATOM      8  C   UNL     1      17.972 -37.445  20.820  1.00  0.00     0.000 C 
BRANCH   8   9
ATOM      9  C   UNL     1      18.637 -36.554  21.880  1.00  0.00     0.000 C 
BRANCH   9  10
ATOM     10  C   UNL     1      19.448 -37.394  22.879  1.00  0.00     0.000 C 
BRANCH  10  11
ATOM     11  C   UNL     1      20.746 -36.699  23.322  1.00  0.00     0.000 C 
BRANCH  11  12
ATOM     12  C   UNL     1      20.943 -35.332  22.643  1.00  0.00     0.000 C 
BRANCH  12  13
ATOM     13  C   UNL     1      21.988 -34.455  23.358  1.00  0.00     0.006 C 
BRANCH  13  14
ATOM     14  C   UNL     1      22.711 -33.454  22.443  1.00  0.00     0.053 C 
BRANCH  14  15
ATOM     15  C   UNL     1      23.182 -32.246  23.192  1.00  0.00     0.041 C 
ATOM     16  O   UNL     1      24.387 -32.147  23.541  1.00  0.00    -0.550 OA
ATOM     17  O   UNL     1      22.278 -31.253  23.547  1.00  0.00    -0.550 OA
ENDBRANCH  14  15
ENDBRANCH  13  14
ENDBRANCH  12  13
ENDBRANCH  11  12
ENDBRANCH  10  11
ENDBRANCH   9  10
ENDBRANCH   8   9
ENDBRANCH   7   8
ENDBRANCH   6   7
ENDBRANCH   5   6
ENDBRANCH   4   5
ENDBRANCH   3   4
ENDBRANCH   2   3
ENDBRANCH   1   2
BRANCH   1  18
ATOM     18  C   UNL     1      12.986 -31.366  21.549  1.00  0.00     0.000 C 
BRANCH  18  19
ATOM     19  C   UNL     1      13.152 -31.252  23.075  1.00  0.00     0.000 C 
BRANCH  19  20
ATOM     20  C   UNL     1      13.494 -29.841  23.595  1.00  0.00     0.000 C 
BRANCH  20  21
ATOM     21  C   UNL     1      14.634 -29.128  22.847  1.00  0.00     0.000 C 
BRANCH  21  22
ATOM     22  C   UNL     1      15.976 -29.867  22.959  1.00  0.00     0.000 C 
BRANCH  22  23
ATOM     23  C   UNL     1      16.610 -30.063  21.573  1.00  0.00     0.000 C 
BRANCH  23  24
ATOM     24  C   UNL     1      18.146 -29.994  21.605  1.00  0.00    -0.000 C 
BRANCH  24  25
ATOM     25  C   UNL     1      18.806 -31.210  20.931  1.00  0.00    -0.000 C 
BRANCH  25  26
ATOM     26  C   UNL     1      18.878 -32.438  21.857  1.00  0.00    -0.000 C 
BRANCH  26  27
ATOM     27  C   UNL     1      18.981 -32.118  23.360  1.00  0.00    -0.000 C 
BRANCH  27  28
ATOM     28  C   UNL     1      18.593 -33.306  24.255  1.00  0.00    -0.000 C 
BRANCH  28  29
ATOM     29  C   UNL     1      17.119 -33.219  24.678  1.00  0.00    -0.000 C 
BRANCH  29  30
ATOM     30  C   UNL     1      16.716 -34.339  25.650  1.00  0.00    -0.000 C 
BRANCH  30  31
ATOM     31  C   UNL     1      17.006 -35.740  25.090  1.00  0.00    -0.003 C 
ATOM     32  C   UNL     1      17.605 -36.648  26.161  1.00  0.00     0.004 C 
ENDBRANCH  30  31
ENDBRANCH  29  30
ENDBRANCH  28  29
ENDBRANCH  27  28
ENDBRANCH  26  27
ENDBRANCH  25  26
ENDBRANCH  24  25
ENDBRANCH  23  24
ENDBRANCH  22  23
ENDBRANCH  21  22
ENDBRANCH  20  21
ENDBRANCH  19  20
ENDBRANCH  18  19
ENDBRANCH   1  18
TORSDOF 28
ENDMDL
MODEL 5
REMARK VINA RESULT:    -5.080      1.377      4.715
REMARK INTER + INTRA:         -18.065
REMARK INTER:                 -12.643
REMARK INTRA:                  -5.422
REMARK UNBOUND:                -4.670
REMARK SMILES CCCCCCCCCCCCCCCCCCCCCCCCCCCCCC(=O)[O-]
REMARK SMILES IDX 16 1 17 2 18 3 19 4 20 5 21 6 22 7 23 8 24 9 25 10 26 11
REMARK SMILES IDX 27 12 28 13 29 14 30 15 31 16 32 17 15 18 14 19 13 20 12 21
REMARK SMILES IDX 11 22 10 23 9 24 8 25 7 26 6 27 5 28 4 29 3 30 2 31 1 32
REMARK H PARENT
REMARK Flexibility Score: inf
ROOT
ATOM      1  C   UNL     1      18.470 -35.287  20.815  1.00  0.00     0.000 C 
ENDROOT
BRANCH   1   2
ATOM      2  C   UNL     1      17.872 -35.829  22.127  1.00  0.00     0.000 C 
BRANCH   2   3
ATOM      3  C   UNL     1      18.792 -36.770  22.933  1.00  0.00     0.000 C 
BRANCH   3   4
ATOM      4  C   UNL     1      19.448 -36.138  24.174  1.00  0.00     0.000 C 
BRANCH   4   5
ATOM      5  C   UNL     1      20.900 -35.706  23.926  1.00  0.00     0.000 C 
BRANCH   5   6
ATOM      6  C   UNL     1      21.021 -34.175  23.918  1.00  0.00     0.000 C 
BRANCH   6   7
ATOM      7  C   UNL     1      21.136 -33.589  22.499  1.00  0.00     0.000 C 
BRANCH   7   8
ATOM      8  C   UNL     1      21.981 -32.306  22.392  1.00  0.00     0.000 C 
BRANCH   8   9
ATOM      9  C   UNL     1      21.597 -31.247  23.437  1.00  0.00     0.000 C 
BRANCH   9  10
ATOM     10  C   UNL     1      21.569 -29.842  22.815  1.00  0.00     0.000 C 
BRANCH  10  11
ATOM     11  C   UNL     1      20.776 -29.791  21.498  1.00  0.00     0.000 C 
BRANCH  11  12
ATOM     12  C   UNL     1      21.126 -28.558  20.647  1.00  0.00     0.000 C 
BRANCH  12  13
ATOM     13  C   UNL     1      20.075 -27.438  20.758  1.00  0.00     0.006 C 
BRANCH  13  14
ATOM     14  C   UNL     1      20.560 -26.061  20.277  1.00  0.00     0.053 C 
BRANCH  14  15
ATOM     15  C   UNL     1      22.029 -25.873  20.498  1.00  0.00     0.041 C 
ATOM     16  O   UNL     1      22.796 -25.667  19.521  1.00  0.00    -0.550 OA
ATOM     17  O   UNL     1      22.558 -25.975  21.778  1.00  0.00    -0.550 OA
ENDBRANCH  14  15
ENDBRANCH  13  14
ENDBRANCH  12  13
ENDBRANCH  11  12
ENDBRANCH  10  11
ENDBRANCH   9  10
ENDBRANCH   8   9
ENDBRANCH   7   8
ENDBRANCH   6   7
ENDBRANCH   5   6
ENDBRANCH   4   5
ENDBRANCH   3   4
ENDBRANCH   2   3
ENDBRANCH   1   2
BRANCH   1  18
ATOM     18  C   UNL     1      17.510 -35.418  19.621  1.00  0.00     0.000 C 
BRANCH  18  19
ATOM     19  C   UNL     1      16.532 -34.234  19.508  1.00  0.00     0.000 C 
BRANCH  19  20
ATOM     20  C   UNL     1      15.167 -34.441  20.195  1.00  0.00     0.000 C 
BRANCH  20  21
ATOM     21  C   UNL     1      14.693 -33.268  21.071  1.00  0.00     0.000 C 
BRANCH  21  22
ATOM     22  C   UNL     1      13.629 -32.400  20.383  1.00  0.00     0.000 C 
BRANCH  22  23
ATOM     23  C   UNL     1      13.176 -31.256  21.304  1.00  0.00     0.000 C 
BRANCH  23  24
ATOM     24  C   UNL     1      13.748 -31.372  22.727  1.00  0.00    -0.000 C 
BRANCH  24  25
ATOM     25  C   UNL     1      14.474 -30.094  23.178  1.00  0.00    -0.000 C 
BRANCH  25  26
ATOM     26  C   UNL     1      15.288 -29.439  22.045  1.00  0.00    -0.000 C 
BRANCH  26  27
ATOM     27  C   UNL     1      16.806 -29.691  22.102  1.00  0.00    -0.000 C 
BRANCH  27  28
ATOM     28  C   UNL     1      17.238 -30.936  21.310  1.00  0.00    -0.000 C 
BRANCH  28  29
ATOM     29  C   UNL     1      17.962 -31.942  22.217  1.00  0.00    -0.000 C 
BRANCH  29  30
ATOM     30  C   UNL     1      17.838 -31.589  23.708  1.00  0.00    -0.000 C 
BRANCH  30  31
ATOM     31  C   UNL     1      17.651 -32.829  24.596  1.00  0.00    -0.003 C 
ATOM     32  C   UNL     1      16.288 -33.474  24.359  1.00  0.00     0.004 C 
ENDBRANCH  30  31
ENDBRANCH  29  30
ENDBRANCH  28  29
ENDBRANCH  27  28
ENDBRANCH  26  27
ENDBRANCH  25  26
ENDBRANCH  24  25
ENDBRANCH  23  24
ENDBRANCH  22  23
ENDBRANCH  21  22
ENDBRANCH  20  21
ENDBRANCH  19  20
ENDBRANCH  18  19
ENDBRANCH   1  18
TORSDOF 28
ENDMDL
MODEL 6
REMARK VINA RESULT:    -5.070      2.026      5.843
REMARK INTER + INTRA:         -18.040
REMARK INTER:                 -12.541
REMARK INTRA:                  -5.499
REMARK UNBOUND:                -4.670
REMARK SMILES CCCCCCCCCCCCCCCCCCCCCCCCCCCCCC(=O)[O-]
REMARK SMILES IDX 16 1 17 2 18 3 19 4 20 5 21 6 22 7 23 8 24 9 25 10 26 11
REMARK SMILES IDX 27 12 28 13 29 14 30 15 31 16 32 17 15 18 14 19 13 20 12 21
REMARK SMILES IDX 11 22 10 23 9 24 8 25 7 26 6 27 5 28 4 29 3 30 2 31 1 32
REMARK H PARENT
REMARK Flexibility Score: inf
ROOT
ATOM      1  C   UNL     1      18.579 -33.833  20.577  1.00  0.00     0.000 C 
ENDROOT
BRANCH   1   2
ATOM      2  C   UNL     1      17.599 -33.997  19.399  1.00  0.00     0.000 C 
BRANCH   2   3
ATOM      3  C   UNL     1      16.651 -35.212  19.494  1.00  0.00     0.000 C 
BRANCH   3   4
ATOM      4  C   UNL     1      15.391 -34.991  20.351  1.00  0.00     0.000 C 
BRANCH   4   5
ATOM      5  C   UNL     1      14.703 -33.649  20.064  1.00  0.00     0.000 C 
BRANCH   5   6
ATOM      6  C   UNL     1      14.405 -32.898  21.370  1.00  0.00     0.000 C 
BRANCH   6   7
ATOM      7  C   UNL     1      13.471 -31.690  21.168  1.00  0.00     0.000 C 
BRANCH   7   8
ATOM      8  C   UNL     1      13.023 -30.991  22.465  1.00  0.00     0.000 C 
BRANCH   8   9
ATOM      9  C   UNL     1      14.194 -30.392  23.259  1.00  0.00     0.000 C 
BRANCH   9  10
ATOM     10  C   UNL     1      15.019 -29.432  22.387  1.00  0.00     0.000 C 
BRANCH  10  11
ATOM     11  C   UNL     1      16.533 -29.656  22.528  1.00  0.00     0.000 C 
BRANCH  11  12
ATOM     12  C   UNL     1      17.091 -30.603  21.451  1.00  0.00     0.000 C 
BRANCH  12  13
ATOM     13  C   UNL     1      18.496 -30.196  20.967  1.00  0.00     0.006 C 
BRANCH  13  14
ATOM     14  C   UNL     1      18.760 -28.682  20.982  1.00  0.00     0.053 C 
BRANCH  14  15
ATOM     15  C   UNL     1      20.220 -28.364  20.891  1.00  0.00     0.041 C 
ATOM     16  O   UNL     1      20.598 -27.202  20.587  1.00  0.00    -0.550 OA
ATOM     17  O   UNL     1      21.163 -29.364  21.093  1.00  0.00    -0.550 OA
ENDBRANCH  14  15
ENDBRANCH  13  14
ENDBRANCH  12  13
ENDBRANCH  11  12
ENDBRANCH  10  11
ENDBRANCH   9  10
ENDBRANCH   8   9
ENDBRANCH   7   8
ENDBRANCH   6   7
ENDBRANCH   5   6
ENDBRANCH   4   5
ENDBRANCH   3   4
ENDBRANCH   2   3
ENDBRANCH   1   2
BRANCH   1  18
ATOM     18  C   UNL     1      18.728 -35.114  21.414  1.00  0.00     0.000 C 
BRANCH  18  19
ATOM     19  C   UNL     1      19.998 -35.113  22.285  1.00  0.00     0.000 C 
BRANCH  19  20
ATOM     20  C   UNL     1      20.095 -36.265  23.306  1.00  0.00     0.000 C 
BRANCH  20  21
ATOM     21  C   UNL     1      20.919 -35.951  24.567  1.00  0.00     0.000 C 
BRANCH  21  22
ATOM     22  C   UNL     1      20.429 -36.715  25.807  1.00  0.00     0.000 C 
BRANCH  22  23
ATOM     23  C   UNL     1      19.143 -37.496  25.495  1.00  0.00     0.000 C 
BRANCH  23  24
ATOM     24  C   UNL     1      18.064 -37.325  26.578  1.00  0.00    -0.000 C 
BRANCH  24  25
ATOM     25  C   UNL     1      16.794 -36.641  26.044  1.00  0.00    -0.000 C 
BRANCH  25  26
ATOM     26  C   UNL     1      16.992 -35.135  25.785  1.00  0.00    -0.000 C 
BRANCH  26  27
ATOM     27  C   UNL     1      16.557 -34.650  24.389  1.00  0.00    -0.000 C 
BRANCH  27  28
ATOM     28  C   UNL     1      17.055 -33.233  24.064  1.00  0.00    -0.000 C 
BRANCH  28  29
ATOM     29  C   UNL     1      18.445 -32.985  24.671  1.00  0.00    -0.000 C 
BRANCH  29  30
ATOM     30  C   UNL     1      18.874 -31.512  24.581  1.00  0.00    -0.000 C 
BRANCH  30  31
ATOM     31  C   UNL     1      20.288 -31.343  24.003  1.00  0.00    -0.003 C 
ATOM     32  C   UNL     1      21.256 -32.355  24.610  1.00  0.00     0.004 C 
ENDBRANCH  30  31
ENDBRANCH  29  30
ENDBRANCH  28  29
ENDBRANCH  27  28
ENDBRANCH  26  27
ENDBRANCH  25  26
ENDBRANCH  24  25
ENDBRANCH  23  24
ENDBRANCH  22  23
ENDBRANCH  21  22
ENDBRANCH  20  21
ENDBRANCH  19  20
ENDBRANCH  18  19
ENDBRANCH   1  18
TORSDOF 28
ENDMDL
MODEL 7
REMARK VINA RESULT:    -5.067      1.710      5.763
REMARK INTER + INTRA:         -18.030
REMARK INTER:                 -12.917
REMARK INTRA:                  -5.113
REMARK UNBOUND:                -4.670
REMARK SMILES CCCCCCCCCCCCCCCCCCCCCCCCCCCCCC(=O)[O-]
REMARK SMILES IDX 16 1 17 2 18 3 19 4 20 5 21 6 22 7 23 8 24 9 25 10 26 11
REMARK SMILES IDX 27 12 28 13 29 14 30 15 31 16 32 17 15 18 14 19 13 20 12 21
REMARK SMILES IDX 11 22 10 23 9 24 8 25 7 26 6 27 5 28 4 29 3 30 2 31 1 32
REMARK H PARENT
REMARK Flexibility Score: inf
ROOT
ATOM      1  C   UNL     1      17.919 -35.307  19.490  1.00  0.00     0.000 C 
ENDROOT
BRANCH   1   2
ATOM      2  C   UNL     1      17.531 -36.786  19.683  1.00  0.00     0.000 C 
BRANCH   2   3
ATOM      3  C   UNL     1      18.013 -37.429  21.000  1.00  0.00     0.000 C 
BRANCH   3   4
ATOM      4  C   UNL     1      18.962 -36.558  21.844  1.00  0.00     0.000 C 
BRANCH   4   5
ATOM      5  C   UNL     1      19.104 -37.060  23.288  1.00  0.00     0.000 C 
BRANCH   5   6
ATOM      6  C   UNL     1      20.565 -37.414  23.601  1.00  0.00     0.000 C 
BRANCH   6   7
ATOM      7  C   UNL     1      21.538 -36.254  23.320  1.00  0.00     0.000 C 
BRANCH   7   8
ATOM      8  C   UNL     1      21.631 -35.198  24.438  1.00  0.00     0.000 C 
BRANCH   8   9
ATOM      9  C   UNL     1      21.134 -33.813  23.997  1.00  0.00     0.000 C 
BRANCH   9  10
ATOM     10  C   UNL     1      21.379 -33.590  22.496  1.00  0.00     0.000 C 
BRANCH  10  11
ATOM     11  C   UNL     1      22.088 -32.257  22.203  1.00  0.00     0.000 C 
BRANCH  11  12
ATOM     12  C   UNL     1      21.229 -31.310  21.347  1.00  0.00     0.000 C 
BRANCH  12  13
ATOM     13  C   UNL     1      21.139 -29.889  21.936  1.00  0.00     0.006 C 
BRANCH  13  14
ATOM     14  C   UNL     1      20.598 -28.830  20.962  1.00  0.00     0.053 C 
BRANCH  14  15
ATOM     15  C   UNL     1      21.368 -27.549  21.039  1.00  0.00     0.041 C 
ATOM     16  O   UNL     1      22.537 -27.483  20.577  1.00  0.00    -0.550 OA
ATOM     17  O   UNL     1      20.813 -26.441  21.666  1.00  0.00    -0.550 OA
ENDBRANCH  14  15
ENDBRANCH  13  14
ENDBRANCH  12  13
ENDBRANCH  11  12
ENDBRANCH  10  11
ENDBRANCH   9  10
ENDBRANCH   8   9
ENDBRANCH   7   8
ENDBRANCH   6   7
ENDBRANCH   5   6
ENDBRANCH   4   5
ENDBRANCH   3   4
ENDBRANCH   2   3
ENDBRANCH   1   2
BRANCH   1  18
ATOM     18  C   UNL     1      16.699 -34.383  19.341  1.00  0.00     0.000 C 
BRANCH  18  19
ATOM     19  C   UNL     1      15.508 -34.823  20.213  1.00  0.00     0.000 C 
BRANCH  19  20
ATOM     20  C   UNL     1      14.845 -33.699  21.035  1.00  0.00     0.000 C 
BRANCH  20  21
ATOM     21  C   UNL     1      14.999 -33.828  22.560  1.00  0.00     0.000 C 
BRANCH  21  22
ATOM     22  C   UNL     1      16.306 -34.522  22.972  1.00  0.00     0.000 C 
BRANCH  22  23
ATOM     23  C   UNL     1      17.325 -33.502  23.502  1.00  0.00     0.000 C 
BRANCH  23  24
ATOM     24  C   UNL     1      17.949 -32.646  22.387  1.00  0.00    -0.000 C 
BRANCH  24  25
ATOM     25  C   UNL     1      17.817 -31.137  22.656  1.00  0.00    -0.000 C 
BRANCH  25  26
ATOM     26  C   UNL     1      17.010 -30.405  21.567  1.00  0.00    -0.000 C 
BRANCH  26  27
ATOM     27  C   UNL     1      15.506 -30.250  21.862  1.00  0.00    -0.000 C 
BRANCH  27  28
ATOM     28  C   UNL     1      15.192 -30.198  23.365  1.00  0.00    -0.000 C 
BRANCH  28  29
ATOM     29  C   UNL     1      13.724 -30.563  23.634  1.00  0.00    -0.000 C 
BRANCH  29  30
ATOM     30  C   UNL     1      12.823 -29.325  23.765  1.00  0.00    -0.000 C 
BRANCH  30  31
ATOM     31  C   UNL     1      11.585 -29.395  22.858  1.00  0.00    -0.003 C 
ATOM     32  C   UNL     1      11.669 -30.584  21.904  1.00  0.00     0.004 C 
ENDBRANCH  30  31
ENDBRANCH  29  30
ENDBRANCH  28  29
ENDBRANCH  27  28
ENDBRANCH  26  27
ENDBRANCH  25  26
ENDBRANCH  24  25
ENDBRANCH  23  24
ENDBRANCH  22  23
ENDBRANCH  21  22
ENDBRANCH  20  21
ENDBRANCH  19  20
ENDBRANCH  18  19
ENDBRANCH   1  18
TORSDOF 28
ENDMDL
MODEL 8
REMARK VINA RESULT:    -5.049      3.145      4.140
REMARK INTER + INTRA:         -17.983
REMARK INTER:                 -12.468
REMARK INTRA:                  -5.515
REMARK UNBOUND:                -4.670
REMARK SMILES CCCCCCCCCCCCCCCCCCCCCCCCCCCCCC(=O)[O-]
REMARK SMILES IDX 16 1 17 2 18 3 19 4 20 5 21 6 22 7 23 8 24 9 25 10 26 11
REMARK SMILES IDX 27 12 28 13 29 14 30 15 31 16 32 17 15 18 14 19 13 20 12 21
REMARK SMILES IDX 11 22 10 23 9 24 8 25 7 26 6 27 5 28 4 29 3 30 2 31 1 32
REMARK H PARENT
REMARK Flexibility Score: inf
ROOT
ATOM      1  C   UNL     1      13.480 -30.762  22.828  1.00  0.00     0.000 C 
ENDROOT
BRANCH   1   2
ATOM      2  C   UNL     1      14.236 -29.420  22.818  1.00  0.00     0.000 C 
BRANCH   2   3
ATOM      3  C   UNL     1      15.738 -29.504  23.165  1.00  0.00     0.000 C 
BRANCH   3   4
ATOM      4  C   UNL     1      16.660 -29.881  21.991  1.00  0.00     0.000 C 
BRANCH   4   5
ATOM      5  C   UNL     1      17.561 -31.084  22.304  1.00  0.00     0.000 C 
BRANCH   5   6
ATOM      6  C   UNL     1      18.016 -31.776  21.012  1.00  0.00     0.000 C 
BRANCH   6   7
ATOM      7  C   UNL     1      19.441 -32.352  21.109  1.00  0.00     0.000 C 
BRANCH   7   8
ATOM      8  C   UNL     1      20.571 -31.342  20.831  1.00  0.00     0.000 C 
BRANCH   8   9
ATOM      9  C   UNL     1      21.816 -31.581  21.698  1.00  0.00     0.000 C 
BRANCH   9  10
ATOM     10  C   UNL     1      21.530 -32.608  22.804  1.00  0.00     0.000 C 
BRANCH  10  11
ATOM     11  C   UNL     1      21.953 -32.113  24.197  1.00  0.00     0.000 C 
BRANCH  11  12
ATOM     12  C   UNL     1      20.833 -32.264  25.241  1.00  0.00     0.000 C 
BRANCH  12  13
ATOM     13  C   UNL     1      19.846 -31.082  25.234  1.00  0.00     0.006 C 
BRANCH  13  14
ATOM     14  C   UNL     1      19.219 -30.768  26.603  1.00  0.00     0.053 C 
BRANCH  14  15
ATOM     15  C   UNL     1      20.183 -30.080  27.518  1.00  0.00     0.041 C 
ATOM     16  O   UNL     1      20.385 -28.842  27.412  1.00  0.00    -0.550 OA
ATOM     17  O   UNL     1      20.896 -30.815  28.457  1.00  0.00    -0.550 OA
ENDBRANCH  14  15
ENDBRANCH  13  14
ENDBRANCH  12  13
ENDBRANCH  11  12
ENDBRANCH  10  11
ENDBRANCH   9  10
ENDBRANCH   8   9
ENDBRANCH   7   8
ENDBRANCH   6   7
ENDBRANCH   5   6
ENDBRANCH   4   5
ENDBRANCH   3   4
ENDBRANCH   2   3
ENDBRANCH   1   2
BRANCH   1  18
ATOM     18  C   UNL     1      13.935 -31.695  23.963  1.00  0.00     0.000 C 
BRANCH  18  19
ATOM     19  C   UNL     1      14.568 -33.000  23.446  1.00  0.00     0.000 C 
BRANCH  19  20
ATOM     20  C   UNL     1      14.618 -33.143  21.911  1.00  0.00     0.000 C 
BRANCH  20  21
ATOM     21  C   UNL     1      15.360 -34.388  21.395  1.00  0.00     0.000 C 
BRANCH  21  22
ATOM     22  C   UNL     1      15.526 -34.395  19.868  1.00  0.00     0.000 C 
BRANCH  22  23
ATOM     23  C   UNL     1      16.868 -35.026  19.466  1.00  0.00     0.000 C 
BRANCH  23  24
ATOM     24  C   UNL     1      16.830 -36.564  19.470  1.00  0.00    -0.000 C 
BRANCH  24  25
ATOM     25  C   UNL     1      17.750 -37.174  20.541  1.00  0.00    -0.000 C 
BRANCH  25  26
ATOM     26  C   UNL     1      18.428 -36.108  21.423  1.00  0.00    -0.000 C 
BRANCH  26  27
ATOM     27  C   UNL     1      19.236 -36.662  22.611  1.00  0.00    -0.000 C 
BRANCH  27  28
ATOM     28  C   UNL     1      19.610 -35.581  23.638  1.00  0.00    -0.000 C 
BRANCH  28  29
ATOM     29  C   UNL     1      18.460 -34.580  23.827  1.00  0.00    -0.000 C 
BRANCH  29  30
ATOM     30  C   UNL     1      17.910 -34.576  25.262  1.00  0.00    -0.000 C 
BRANCH  30  31
ATOM     31  C   UNL     1      16.703 -35.511  25.436  1.00  0.00    -0.003 C 
ATOM     32  C   UNL     1      17.066 -36.725  26.287  1.00  0.00     0.004 C 
ENDBRANCH  30  31
ENDBRANCH  29  30
ENDBRANCH  28  29
ENDBRANCH  27  28
ENDBRANCH  26  27
ENDBRANCH  25  26
ENDBRANCH  24  25
ENDBRANCH  23  24
ENDBRANCH  22  23
ENDBRANCH  21  22
ENDBRANCH  20  21
ENDBRANCH  19  20
ENDBRANCH  18  19
ENDBRANCH   1  18
TORSDOF 28
ENDMDL
MODEL 9
REMARK VINA RESULT:    -5.011      1.369      4.353
REMARK INTER + INTRA:         -17.883
REMARK INTER:                 -13.003
REMARK INTRA:                  -4.880
REMARK UNBOUND:                -4.670
REMARK SMILES CCCCCCCCCCCCCCCCCCCCCCCCCCCCCC(=O)[O-]
REMARK SMILES IDX 16 1 17 2 18 3 19 4 20 5 21 6 22 7 23 8 24 9 25 10 26 11
REMARK SMILES IDX 27 12 28 13 29 14 30 15 31 16 32 17 15 18 14 19 13 20 12 21
REMARK SMILES IDX 11 22 10 23 9 24 8 25 7 26 6 27 5 28 4 29 3 30 2 31 1 32
REMARK H PARENT
REMARK Flexibility Score: inf
ROOT
ATOM      1  C   UNL     1      16.652 -34.844  19.313  1.00  0.00     0.000 C 
ENDROOT
BRANCH   1   2
ATOM      2  C   UNL     1      17.579 -36.052  19.547  1.00  0.00     0.000 C 
BRANCH   2   3
ATOM      3  C   UNL     1      17.609 -36.591  20.993  1.00  0.00     0.000 C 
BRANCH   3   4
ATOM      4  C   UNL     1      18.573 -35.857  21.944  1.00  0.00     0.000 C 
BRANCH   4   5
ATOM      5  C   UNL     1      19.623 -36.790  22.563  1.00  0.00     0.000 C 
BRANCH   5   6
ATOM      6  C   UNL     1      20.872 -36.002  22.984  1.00  0.00     0.000 C 
BRANCH   6   7
ATOM      7  C   UNL     1      20.603 -34.496  23.156  1.00  0.00     0.000 C 
BRANCH   7   8
ATOM      8  C   UNL     1      21.824 -33.587  22.925  1.00  0.00     0.000 C 
BRANCH   8   9
ATOM      9  C   UNL     1      21.454 -32.100  22.821  1.00  0.00     0.000 C 
BRANCH   9  10
ATOM     10  C   UNL     1      21.318 -31.665  21.353  1.00  0.00     0.000 C 
BRANCH  10  11
ATOM     11  C   UNL     1      20.711 -30.260  21.205  1.00  0.00     0.000 C 
BRANCH  11  12
ATOM     12  C   UNL     1      21.627 -29.160  21.769  1.00  0.00     0.000 C 
BRANCH  12  13
ATOM     13  C   UNL     1      21.227 -27.749  21.299  1.00  0.00     0.006 C 
BRANCH  13  14
ATOM     14  C   UNL     1      22.411 -26.847  20.914  1.00  0.00     0.053 C 
BRANCH  14  15
ATOM     15  C   UNL     1      21.994 -25.726  20.014  1.00  0.00     0.041 C 
ATOM     16  O   UNL     1      22.863 -25.021  19.436  1.00  0.00    -0.550 OA
ATOM     17  O   UNL     1      20.647 -25.428  19.852  1.00  0.00    -0.550 OA
ENDBRANCH  14  15
ENDBRANCH  13  14
ENDBRANCH  12  13
ENDBRANCH  11  12
ENDBRANCH  10  11
ENDBRANCH   9  10
ENDBRANCH   8   9
ENDBRANCH   7   8
ENDBRANCH   6   7
ENDBRANCH   5   6
ENDBRANCH   4   5
ENDBRANCH   3   4
ENDBRANCH   2   3
ENDBRANCH   1   2
BRANCH   1  18
ATOM     18  C   UNL     1      15.538 -34.732  20.367  1.00  0.00     0.000 C 
BRANCH  18  19
ATOM     19  C   UNL     1      14.647 -33.493  20.164  1.00  0.00     0.000 C 
BRANCH  19  20
ATOM     20  C   UNL     1      14.134 -32.832  21.460  1.00  0.00     0.000 C 
BRANCH  20  21
ATOM     21  C   UNL     1      13.699 -31.363  21.316  1.00  0.00     0.000 C 
BRANCH  21  22
ATOM     22  C   UNL     1      13.496 -30.665  22.669  1.00  0.00     0.000 C 
BRANCH  22  23
ATOM     23  C   UNL     1      14.530 -29.546  22.869  1.00  0.00     0.000 C 
BRANCH  23  24
ATOM     24  C   UNL     1      15.540 -29.453  21.713  1.00  0.00    -0.000 C 
BRANCH  24  25
ATOM     25  C   UNL     1      16.957 -29.883  22.130  1.00  0.00    -0.000 C 
BRANCH  25  26
ATOM     26  C   UNL     1      17.459 -31.116  21.355  1.00  0.00    -0.000 C 
BRANCH  26  27
ATOM     27  C   UNL     1      17.709 -32.370  22.215  1.00  0.00    -0.000 C 
BRANCH  27  28
ATOM     28  C   UNL     1      17.393 -32.150  23.703  1.00  0.00    -0.000 C 
BRANCH  28  29
ATOM     29  C   UNL     1      16.081 -32.844  24.096  1.00  0.00    -0.000 C 
BRANCH  29  30
ATOM     30  C   UNL     1      16.264 -34.347  24.364  1.00  0.00    -0.000 C 
BRANCH  30  31
ATOM     31  C   UNL     1      17.529 -34.651  25.183  1.00  0.00    -0.003 C 
ATOM     32  C   UNL     1      17.431 -36.015  25.859  1.00  0.00     0.004 C 
ENDBRANCH  30  31
ENDBRANCH  29  30
ENDBRANCH  28  29
ENDBRANCH  27  28
ENDBRANCH  26  27
ENDBRANCH  25  26
ENDBRANCH  24  25
ENDBRANCH  23  24
ENDBRANCH  22  23
ENDBRANCH  21  22
ENDBRANCH  20  21
ENDBRANCH  19  20
ENDBRANCH  18  19
ENDBRANCH   1  18
TORSDOF 28
ENDMDL
