MODEL 1
REMARK VINA RESULT:    -3.971      0.000      0.000
REMARK INTER + INTRA:          -4.371
REMARK INTER:                  -4.319
REMARK INTRA:                  -0.052
REMARK UNBOUND:                -0.052
REMARK SMILES CCc1cccc(O)c1
REMARK SMILES IDX 3 1 9 2 7 3 6 4 5 5 4 6 2 7 1 8 8 9
REMARK H PARENT 8 10
REMARK Flexibility Score: inf
ROOT
ATOM      1  C   UNL     1      36.602  -8.460  53.849  1.00  0.00    -0.045 A 
ATOM      2  C   UNL     1      35.998  -9.341  52.936  1.00  0.00     0.049 A 
ATOM      3  C   UNL     1      35.546 -10.599  53.360  1.00  0.00     0.115 A 
ATOM      4  C   UNL     1      35.706 -10.981  54.696  1.00  0.00     0.046 A 
ATOM      5  C   UNL     1      36.319 -10.114  55.605  1.00  0.00     0.004 A 
ATOM      6  C   UNL     1      36.771  -8.860  55.185  1.00  0.00     0.004 A 
ENDROOT
BRANCH   1   7
ATOM      7  C   UNL     1      37.118  -7.123  53.386  1.00  0.00     0.032 C 
ATOM      8  C   UNL     1      36.988  -6.988  51.873  1.00  0.00     0.009 C 
ENDBRANCH   1   7
BRANCH   3   9
ATOM      9  O   UNL     1      34.940 -11.476  52.463  1.00  0.00    -0.508 OA
ATOM     10  H   UNL     1      35.180 -12.459  52.441  1.00  0.00     0.293 HD
ENDBRANCH   3   9
TORSDOF 2
ENDMDL
MODEL 2
REMARK VINA RESULT:    -3.863      7.543      8.655
REMARK INTER + INTRA:          -4.253
REMARK INTER:                  -4.186
REMARK INTRA:                  -0.067
REMARK UNBOUND:                -0.052
REMARK SMILES CCc1cccc(O)c1
REMARK SMILES IDX 3 1 9 2 7 3 6 4 5 5 4 6 2 7 1 8 8 9
REMARK H PARENT 8 10
REMARK Flexibility Score: inf
ROOT
ATOM      1  C   UNL     1      35.256  -4.442  59.510  1.00  0.00    -0.045 A 
ATOM      2  C   UNL     1      33.880  -4.331  59.771  1.00  0.00     0.049 A 
ATOM      3  C   UNL     1      33.206  -3.127  59.520  1.00  0.00     0.115 A 
ATOM      4  C   UNL     1      33.911  -2.029  59.016  1.00  0.00     0.046 A 
ATOM      5  C   UNL     1      35.282  -2.129  58.767  1.00  0.00     0.004 A 
ATOM      6  C   UNL     1      35.955  -3.328  59.017  1.00  0.00     0.004 A 
ENDROOT
BRANCH   1   7
ATOM      7  C   UNL     1      35.985  -5.724  59.811  1.00  0.00     0.032 C 
ATOM      8  C   UNL     1      36.892  -6.116  58.649  1.00  0.00     0.009 C 
ENDBRANCH   1   7
BRANCH   3   9
ATOM      9  O   UNL     1      31.840  -3.011  59.770  1.00  0.00    -0.508 OA
ATOM     10  H   UNL     1      31.303  -2.228  59.419  1.00  0.00     0.293 HD
ENDBRANCH   3   9
TORSDOF 2
ENDMDL
MODEL 3
REMARK VINA RESULT:    -3.860      1.690      3.006
REMARK INTER + INTRA:          -4.250
REMARK INTER:                  -4.200
REMARK INTRA:                  -0.050
REMARK UNBOUND:                -0.052
REMARK SMILES CCc1cccc(O)c1
REMARK SMILES IDX 3 1 9 2 7 3 6 4 5 5 4 6 2 7 1 8 8 9
REMARK H PARENT 8 10
REMARK Flexibility Score: inf
ROOT
ATOM      1  C   UNL     1      36.506  -9.731  55.218  1.00  0.00    -0.045 A 
ATOM      2  C   UNL     1      36.506  -8.704  54.259  1.00  0.00     0.049 A 
ATOM      3  C   UNL     1      35.987  -8.933  52.977  1.00  0.00     0.115 A 
ATOM      4  C   UNL     1      35.476 -10.193  52.649  1.00  0.00     0.046 A 
ATOM      5  C   UNL     1      35.486 -11.223  53.594  1.00  0.00     0.004 A 
ATOM      6  C   UNL     1      36.003 -10.996  54.872  1.00  0.00     0.004 A 
ENDROOT
BRANCH   1   7
ATOM      7  C   UNL     1      37.094  -9.495  56.584  1.00  0.00     0.032 C 
ATOM      8  C   UNL     1      37.125  -8.005  56.908  1.00  0.00     0.009 C 
ENDBRANCH   1   7
BRANCH   3   9
ATOM      9  O   UNL     1      35.977  -7.918  52.022  1.00  0.00    -0.508 OA
ATOM     10  H   UNL     1      36.718  -7.829  51.338  1.00  0.00     0.293 HD
ENDBRANCH   3   9
TORSDOF 2
ENDMDL
MODEL 4
REMARK VINA RESULT:    -3.784      8.103      9.303
REMARK INTER + INTRA:          -4.167
REMARK INTER:                  -4.120
REMARK INTRA:                  -0.048
REMARK UNBOUND:                -0.052
REMARK SMILES CCc1cccc(O)c1
REMARK SMILES IDX 3 1 9 2 7 3 6 4 5 5 4 6 2 7 1 8 8 9
REMARK H PARENT 8 10
REMARK Flexibility Score: inf
ROOT
ATOM      1  C   UNL     1      35.599  -2.997  58.904  1.00  0.00    -0.045 A 
ATOM      2  C   UNL     1      34.559  -2.542  59.732  1.00  0.00     0.049 A 
ATOM      3  C   UNL     1      33.596  -1.652  59.234  1.00  0.00     0.115 A 
ATOM      4  C   UNL     1      33.678  -1.208  57.910  1.00  0.00     0.046 A 
ATOM      5  C   UNL     1      34.719  -1.646  57.086  1.00  0.00     0.004 A 
ATOM      6  C   UNL     1      35.679  -2.533  57.580  1.00  0.00     0.004 A 
ENDROOT
BRANCH   1   7
ATOM      7  C   UNL     1      36.652  -3.926  59.448  1.00  0.00     0.032 C 
ATOM      8  C   UNL     1      36.160  -5.369  59.429  1.00  0.00     0.009 C 
ENDBRANCH   1   7
BRANCH   3   9
ATOM      9  O   UNL     1      32.558  -1.202  60.047  1.00  0.00    -0.508 OA
ATOM     10  H   UNL     1      31.613  -1.551  59.940  1.00  0.00     0.293 HD
ENDBRANCH   3   9
TORSDOF 2
ENDMDL
MODEL 5
REMARK VINA RESULT:    -3.637      8.045      8.907
REMARK INTER + INTRA:          -4.008
REMARK INTER:                  -3.933
REMARK INTRA:                  -0.075
REMARK UNBOUND:                -0.052
REMARK SMILES CCc1cccc(O)c1
REMARK SMILES IDX 3 1 9 2 7 3 6 4 5 5 4 6 2 7 1 8 8 9
REMARK H PARENT 8 10
REMARK Flexibility Score: inf
ROOT
ATOM      1  C   UNL     1      35.226  -1.990  57.608  1.00  0.00    -0.045 A 
ATOM      2  C   UNL     1      34.099  -1.395  58.200  1.00  0.00     0.049 A 
ATOM      3  C   UNL     1      33.642  -1.832  59.451  1.00  0.00     0.115 A 
ATOM      4  C   UNL     1      34.306  -2.873  60.109  1.00  0.00     0.046 A 
ATOM      5  C   UNL     1      35.420  -3.478  59.519  1.00  0.00     0.004 A 
ATOM      6  C   UNL     1      35.876  -3.044  58.272  1.00  0.00     0.004 A 
ENDROOT
BRANCH   1   7
ATOM      7  C   UNL     1      35.696  -1.543  56.250  1.00  0.00     0.032 C 
ATOM      8  C   UNL     1      36.578  -2.607  55.606  1.00  0.00     0.009 C 
ENDBRANCH   1   7
BRANCH   3   9
ATOM      9  O   UNL     1      32.529  -1.242  60.047  1.00  0.00    -0.508 OA
ATOM     10  H   UNL     1      32.118  -0.394  59.677  1.00  0.00     0.293 HD
ENDBRANCH   3   9
TORSDOF 2
ENDMDL
MODEL 6
REMARK VINA RESULT:    -3.594      7.652      8.955
REMARK INTER + INTRA:          -3.960
REMARK INTER:                  -3.906
REMARK INTRA:                  -0.054
REMARK UNBOUND:                -0.052
REMARK SMILES CCc1cccc(O)c1
REMARK SMILES IDX 3 1 9 2 7 3 6 4 5 5 4 6 2 7 1 8 8 9
REMARK H PARENT 8 10
REMARK Flexibility Score: inf
ROOT
ATOM      1  C   UNL     1      35.737  -3.175  59.248  1.00  0.00    -0.045 A 
ATOM      2  C   UNL     1      35.944  -3.135  57.859  1.00  0.00     0.049 A 
ATOM      3  C   UNL     1      35.618  -1.985  57.127  1.00  0.00     0.115 A 
ATOM      4  C   UNL     1      35.074  -0.875  57.782  1.00  0.00     0.046 A 
ATOM      5  C   UNL     1      34.852  -0.914  59.162  1.00  0.00     0.004 A 
ATOM      6  C   UNL     1      35.177  -2.059  59.893  1.00  0.00     0.004 A 
ENDROOT
BRANCH   1   7
ATOM      7  C   UNL     1      36.057  -4.422  60.028  1.00  0.00     0.032 C 
ATOM      8  C   UNL     1      34.840  -5.337  60.107  1.00  0.00     0.009 C 
ENDBRANCH   1   7
BRANCH   3   9
ATOM      9  O   UNL     1      35.826  -1.935  55.750  1.00  0.00    -0.508 OA
ATOM     10  H   UNL     1      36.578  -1.388  55.349  1.00  0.00     0.293 HD
ENDBRANCH   3   9
TORSDOF 2
ENDMDL
MODEL 7
REMARK VINA RESULT:    -3.509      7.556      8.582
REMARK INTER + INTRA:          -3.869
REMARK INTER:                  -3.821
REMARK INTRA:                  -0.047
REMARK UNBOUND:                -0.052
REMARK SMILES CCc1cccc(O)c1
REMARK SMILES IDX 3 1 9 2 7 3 6 4 5 5 4 6 2 7 1 8 8 9
REMARK H PARENT 8 10
REMARK Flexibility Score: inf
ROOT
ATOM      1  C   UNL     1      35.247  -2.341  59.067  1.00  0.00    -0.045 A 
ATOM      2  C   UNL     1      35.254  -1.881  57.740  1.00  0.00     0.049 A 
ATOM      3  C   UNL     1      35.998  -2.554  56.761  1.00  0.00     0.115 A 
ATOM      4  C   UNL     1      36.745  -3.684  57.110  1.00  0.00     0.046 A 
ATOM      5  C   UNL     1      36.754  -4.138  58.432  1.00  0.00     0.004 A 
ATOM      6  C   UNL     1      36.013  -3.468  59.409  1.00  0.00     0.004 A 
ENDROOT
BRANCH   1   7
ATOM      7  C   UNL     1      34.475  -1.599  60.125  1.00  0.00     0.032 C 
ATOM      8  C   UNL     1      33.002  -1.992  60.095  1.00  0.00     0.009 C 
ENDBRANCH   1   7
BRANCH   3   9
ATOM      9  O   UNL     1      36.004  -2.108  55.441  1.00  0.00    -0.508 OA
ATOM     10  H   UNL     1      36.802  -2.259  54.835  1.00  0.00     0.293 HD
ENDBRANCH   3   9
TORSDOF 2
ENDMDL
MODEL 8
REMARK VINA RESULT:    -3.457      1.796      2.416
REMARK INTER + INTRA:          -3.811
REMARK INTER:                  -3.761
REMARK INTRA:                  -0.050
REMARK UNBOUND:                -0.052
REMARK SMILES CCc1cccc(O)c1
REMARK SMILES IDX 3 1 9 2 7 3 6 4 5 5 4 6 2 7 1 8 8 9
REMARK H PARENT 8 10
REMARK Flexibility Score: inf
ROOT
ATOM      1  C   UNL     1      36.419  -8.791  53.099  1.00  0.00    -0.045 A 
ATOM      2  C   UNL     1      36.793  -8.704  54.451  1.00  0.00     0.049 A 
ATOM      3  C   UNL     1      36.496  -9.749  55.337  1.00  0.00     0.115 A 
ATOM      4  C   UNL     1      35.813 -10.879  54.874  1.00  0.00     0.046 A 
ATOM      5  C   UNL     1      35.425 -10.965  53.534  1.00  0.00     0.004 A 
ATOM      6  C   UNL     1      35.721  -9.924  52.650  1.00  0.00     0.004 A 
ENDROOT
BRANCH   1   7
ATOM      7  C   UNL     1      36.709  -7.654  52.156  1.00  0.00     0.032 C 
ATOM      8  C   UNL     1      36.284  -6.323  52.767  1.00  0.00     0.009 C 
ENDBRANCH   1   7
BRANCH   3   9
ATOM      9  O   UNL     1      36.870  -9.674  56.677  1.00  0.00    -0.508 OA
ATOM     10  H   UNL     1      37.237  -8.818  57.076  1.00  0.00     0.293 HD
ENDBRANCH   3   9
TORSDOF 2
ENDMDL
MODEL 9
REMARK VINA RESULT:    -3.443      7.902      8.717
REMARK INTER + INTRA:          -3.797
REMARK INTER:                  -3.748
REMARK INTRA:                  -0.049
REMARK UNBOUND:                -0.052
REMARK SMILES CCc1cccc(O)c1
REMARK SMILES IDX 3 1 9 2 7 3 6 4 5 5 4 6 2 7 1 8 8 9
REMARK H PARENT 8 10
REMARK Flexibility Score: inf
ROOT
ATOM      1  C   UNL     1      34.623  -1.757  58.103  1.00  0.00    -0.045 A 
ATOM      2  C   UNL     1      35.194  -3.003  58.412  1.00  0.00     0.049 A 
ATOM      3  C   UNL     1      34.636  -3.808  59.415  1.00  0.00     0.115 A 
ATOM      4  C   UNL     1      33.511  -3.363  60.118  1.00  0.00     0.046 A 
ATOM      5  C   UNL     1      32.947  -2.118  59.825  1.00  0.00     0.004 A 
ATOM      6  C   UNL     1      33.502  -1.315  58.825  1.00  0.00     0.004 A 
ENDROOT
BRANCH   1   7
ATOM      7  C   UNL     1      35.242  -0.879  57.049  1.00  0.00     0.032 C 
ATOM      8  C   UNL     1      36.052  -1.710  56.060  1.00  0.00     0.009 C 
ENDBRANCH   1   7
BRANCH   3   9
ATOM      9  O   UNL     1      35.192  -5.048  59.723  1.00  0.00    -0.508 OA
ATOM     10  H   UNL     1      35.303  -5.354  60.682  1.00  0.00     0.293 HD
ENDBRANCH   3   9
TORSDOF 2
ENDMDL
