MODEL 1
REMARK VINA RESULT:    -4.264      0.000      0.000
REMARK INTER + INTRA:          -4.988
REMARK INTER:                  -4.888
REMARK INTRA:                  -0.100
REMARK UNBOUND:                -0.100
REMARK SMILES COc1cc(C(=O)[O-])ccc1O
REMARK SMILES IDX 5 1 9 2 4 3 10 4 3 5 11 6 6 7 7 8 8 9 2 10 1 11 12 12
REMARK H PARENT 12 13
REMARK Flexibility Score: inf
ROOT
ATOM      1  C   UNL     1      -7.681 -14.469   6.584  1.00  0.00     0.001 A 
ATOM      2  C   UNL     1      -8.615 -14.830   7.568  1.00  0.00     0.014 A 
ATOM      3  C   UNL     1      -6.633 -13.594   6.925  1.00  0.00     0.060 A 
ATOM      4  C   UNL     1      -8.505 -14.328   8.867  1.00  0.00     0.051 A 
ATOM      5  C   UNL     1      -6.518 -13.085   8.234  1.00  0.00     0.161 A 
ATOM      6  C   UNL     1      -7.461 -13.459   9.202  1.00  0.00     0.157 A 
ENDROOT
BRANCH   1   7
ATOM      7  C   UNL     1      -7.802 -15.003   5.209  1.00  0.00     0.072 C 
ATOM      8  O   UNL     1      -7.211 -14.442   4.249  1.00  0.00    -0.545 OA
ATOM      9  O   UNL     1      -8.571 -16.134   4.959  1.00  0.00    -0.545 OA
ENDBRANCH   1   7
BRANCH   5  10
ATOM     10  O   UNL     1      -5.487 -12.210   8.610  1.00  0.00    -0.493 OA
ATOM     11  C   UNL     1      -5.347 -10.875   8.136  1.00  0.00     0.278 C 
ENDBRANCH   5  10
BRANCH   6  12
ATOM     12  O   UNL     1      -7.352 -12.959  10.499  1.00  0.00    -0.504 OA
ATOM     13  H   UNL     1      -6.454 -12.714  10.899  1.00  0.00     0.293 HD
ENDBRANCH   6  12
TORSDOF 3
ENDMDL
MODEL 2
REMARK VINA RESULT:    -4.186     12.219     13.897
REMARK INTER + INTRA:          -4.898
REMARK INTER:                  -4.816
REMARK INTRA:                  -0.082
REMARK UNBOUND:                -0.100
REMARK SMILES COc1cc(C(=O)[O-])ccc1O
REMARK SMILES IDX 5 1 9 2 4 3 10 4 3 5 11 6 6 7 7 8 8 9 2 10 1 11 12 12
REMARK H PARENT 12 13
REMARK Flexibility Score: inf
ROOT
ATOM      1  C   UNL     1       2.533 -18.051   0.288  1.00  0.00     0.001 A 
ATOM      2  C   UNL     1       3.768 -18.135   0.950  1.00  0.00     0.014 A 
ATOM      3  C   UNL     1       1.865 -19.239  -0.065  1.00  0.00     0.060 A 
ATOM      4  C   UNL     1       4.325 -19.379   1.254  1.00  0.00     0.051 A 
ATOM      5  C   UNL     1       2.424 -20.497   0.239  1.00  0.00     0.161 A 
ATOM      6  C   UNL     1       3.658 -20.557   0.901  1.00  0.00     0.157 A 
ENDROOT
BRANCH   1   7
ATOM      7  C   UNL     1       1.946 -16.731  -0.032  1.00  0.00     0.072 C 
ATOM      8  O   UNL     1       0.706 -16.608  -0.216  1.00  0.00    -0.545 OA
ATOM      9  O   UNL     1       2.757 -15.607  -0.133  1.00  0.00    -0.545 OA
ENDBRANCH   1   7
BRANCH   5  10
ATOM     10  O   UNL     1       1.787 -21.701  -0.097  1.00  0.00    -0.493 OA
ATOM     11  C   UNL     1       0.839 -22.371   0.727  1.00  0.00     0.278 C 
ENDBRANCH   5  10
BRANCH   6  12
ATOM     12  O   UNL     1       4.216 -21.798   1.205  1.00  0.00    -0.504 OA
ATOM     13  H   UNL     1       4.304 -22.120   2.162  1.00  0.00     0.293 HD
ENDBRANCH   6  12
TORSDOF 3
ENDMDL
MODEL 3
REMARK VINA RESULT:    -4.098     18.309     19.725
REMARK INTER + INTRA:          -4.797
REMARK INTER:                  -4.699
REMARK INTRA:                  -0.098
REMARK UNBOUND:                -0.100
REMARK SMILES COc1cc(C(=O)[O-])ccc1O
REMARK SMILES IDX 5 1 9 2 4 3 10 4 3 5 11 6 6 7 7 8 8 9 2 10 1 11 12 12
REMARK H PARENT 12 13
REMARK Flexibility Score: inf
ROOT
ATOM      1  C   UNL     1      -2.057 -25.200  -7.065  1.00  0.00     0.001 A 
ATOM      2  C   UNL     1      -2.032 -24.799  -5.719  1.00  0.00     0.014 A 
ATOM      3  C   UNL     1      -0.868 -25.659  -7.663  1.00  0.00     0.060 A 
ATOM      4  C   UNL     1      -0.846 -24.856  -4.985  1.00  0.00     0.051 A 
ATOM      5  C   UNL     1       0.332 -25.718  -6.925  1.00  0.00     0.161 A 
ATOM      6  C   UNL     1       0.334 -25.314  -5.583  1.00  0.00     0.157 A 
ENDROOT
BRANCH   1   7
ATOM      7  C   UNL     1      -3.316 -25.138  -7.839  1.00  0.00     0.072 C 
ATOM      8  O   UNL     1      -4.394 -25.562  -7.344  1.00  0.00    -0.545 OA
ATOM      9  O   UNL     1      -3.327 -24.609  -9.125  1.00  0.00    -0.545 OA
ENDBRANCH   1   7
BRANCH   5  10
ATOM     10  O   UNL     1       1.536 -26.170  -7.488  1.00  0.00    -0.493 OA
ATOM     11  C   UNL     1       1.889 -27.541  -7.643  1.00  0.00     0.278 C 
ENDBRANCH   5  10
BRANCH   6  12
ATOM     12  O   UNL     1       1.517 -25.370  -4.848  1.00  0.00    -0.504 OA
ATOM     13  H   UNL     1       1.514 -25.547  -3.851  1.00  0.00     0.293 HD
ENDBRANCH   6  12
TORSDOF 3
ENDMDL
MODEL 4
REMARK VINA RESULT:    -4.059     12.990     14.557
REMARK INTER + INTRA:          -4.753
REMARK INTER:                  -4.672
REMARK INTRA:                  -0.081
REMARK UNBOUND:                -0.100
REMARK SMILES COc1cc(C(=O)[O-])ccc1O
REMARK SMILES IDX 5 1 9 2 4 3 10 4 3 5 11 6 6 7 7 8 8 9 2 10 1 11 12 12
REMARK H PARENT 12 13
REMARK Flexibility Score: inf
ROOT
ATOM      1  C   UNL     1       4.259 -19.092   0.359  1.00  0.00     0.001 A 
ATOM      2  C   UNL     1       4.845 -20.235   0.928  1.00  0.00     0.014 A 
ATOM      3  C   UNL     1       2.894 -19.123   0.016  1.00  0.00     0.060 A 
ATOM      4  C   UNL     1       4.084 -21.384   1.151  1.00  0.00     0.051 A 
ATOM      5  C   UNL     1       2.123 -20.281   0.239  1.00  0.00     0.161 A 
ATOM      6  C   UNL     1       2.727 -21.410   0.809  1.00  0.00     0.157 A 
ENDROOT
BRANCH   1   7
ATOM      7  C   UNL     1       5.070 -17.876   0.125  1.00  0.00     0.072 C 
ATOM      8  O   UNL     1       6.195 -17.954  -0.436  1.00  0.00    -0.545 OA
ATOM      9  O   UNL     1       4.600 -16.630   0.523  1.00  0.00    -0.545 OA
ENDBRANCH   1   7
BRANCH   5  10
ATOM     10  O   UNL     1       0.760 -20.348  -0.091  1.00  0.00    -0.493 OA
ATOM     11  C   UNL     1      -0.133 -19.240  -0.061  1.00  0.00     0.278 C 
ENDBRANCH   5  10
BRANCH   6  12
ATOM     12  O   UNL     1       1.969 -22.559   1.032  1.00  0.00    -0.504 OA
ATOM     13  H   UNL     1       0.984 -22.507   1.264  1.00  0.00     0.293 HD
ENDBRANCH   6  12
TORSDOF 3
ENDMDL
MODEL 5
REMARK VINA RESULT:    -4.037     14.341     15.477
REMARK INTER + INTRA:          -4.727
REMARK INTER:                  -4.647
REMARK INTRA:                  -0.081
REMARK UNBOUND:                -0.100
REMARK SMILES COc1cc(C(=O)[O-])ccc1O
REMARK SMILES IDX 5 1 9 2 4 3 10 4 3 5 11 6 6 7 7 8 8 9 2 10 1 11 12 12
REMARK H PARENT 12 13
REMARK Flexibility Score: inf
ROOT
ATOM      1  C   UNL     1       4.463 -19.811   0.795  1.00  0.00     0.001 A 
ATOM      2  C   UNL     1       3.541 -18.792   1.088  1.00  0.00     0.014 A 
ATOM      3  C   UNL     1       5.622 -19.493   0.063  1.00  0.00     0.060 A 
ATOM      4  C   UNL     1       3.772 -17.484   0.659  1.00  0.00     0.051 A 
ATOM      5  C   UNL     1       5.859 -18.173  -0.372  1.00  0.00     0.161 A 
ATOM      6  C   UNL     1       4.926 -17.172  -0.069  1.00  0.00     0.157 A 
ENDROOT
BRANCH   1   7
ATOM      7  C   UNL     1       4.214 -21.196   1.252  1.00  0.00     0.072 C 
ATOM      8  O   UNL     1       5.137 -21.875   1.774  1.00  0.00    -0.545 OA
ATOM      9  O   UNL     1       2.954 -21.767   1.112  1.00  0.00    -0.545 OA
ENDBRANCH   1   7
BRANCH   5  10
ATOM     10  O   UNL     1       7.003 -17.820  -1.104  1.00  0.00    -0.493 OA
ATOM     11  C   UNL     1       7.731 -18.710  -1.945  1.00  0.00     0.278 C 
ENDBRANCH   5  10
BRANCH   6  12
ATOM     12  O   UNL     1       5.155 -15.865  -0.496  1.00  0.00    -0.504 OA
ATOM     13  H   UNL     1       4.739 -15.505  -1.347  1.00  0.00     0.293 HD
ENDBRANCH   6  12
TORSDOF 3
ENDMDL
MODEL 6
REMARK VINA RESULT:    -4.015     13.283     14.693
REMARK INTER + INTRA:          -4.702
REMARK INTER:                  -4.604
REMARK INTRA:                  -0.097
REMARK UNBOUND:                -0.100
REMARK SMILES COc1cc(C(=O)[O-])ccc1O
REMARK SMILES IDX 5 1 9 2 4 3 10 4 3 5 11 6 6 7 7 8 8 9 2 10 1 11 12 12
REMARK H PARENT 12 13
REMARK Flexibility Score: inf
ROOT
ATOM      1  C   UNL     1       2.437 -20.999   0.317  1.00  0.00     0.001 A 
ATOM      2  C   UNL     1       3.545 -21.358   1.102  1.00  0.00     0.014 A 
ATOM      3  C   UNL     1       2.589 -20.002  -0.665  1.00  0.00     0.060 A 
ATOM      4  C   UNL     1       4.780 -20.734   0.910  1.00  0.00     0.051 A 
ATOM      5  C   UNL     1       3.833 -19.370  -0.861  1.00  0.00     0.161 A 
ATOM      6  C   UNL     1       4.926 -19.743  -0.068  1.00  0.00     0.157 A 
ENDROOT
BRANCH   1   7
ATOM      7  C   UNL     1       1.131 -21.663   0.525  1.00  0.00     0.072 C 
ATOM      8  O   UNL     1       1.039 -22.919   0.502  1.00  0.00    -0.545 OA
ATOM      9  O   UNL     1      -0.015 -20.908   0.748  1.00  0.00    -0.545 OA
ENDBRANCH   1   7
BRANCH   5  10
ATOM     10  O   UNL     1       4.021 -18.372  -1.830  1.00  0.00    -0.493 OA
ATOM     11  C   UNL     1       3.505 -17.048  -1.736  1.00  0.00     0.278 C 
ENDBRANCH   5  10
BRANCH   6  12
ATOM     12  O   UNL     1       6.159 -19.122  -0.258  1.00  0.00    -0.504 OA
ATOM     13  H   UNL     1       6.260 -18.115  -0.205  1.00  0.00     0.293 HD
ENDBRANCH   6  12
TORSDOF 3
ENDMDL
MODEL 7
REMARK VINA RESULT:    -4.008     12.664     13.997
REMARK INTER + INTRA:          -4.694
REMARK INTER:                  -4.606
REMARK INTRA:                  -0.088
REMARK UNBOUND:                -0.100
REMARK SMILES COc1cc(C(=O)[O-])ccc1O
REMARK SMILES IDX 5 1 9 2 4 3 10 4 3 5 11 6 6 7 7 8 8 9 2 10 1 11 12 12
REMARK H PARENT 12 13
REMARK Flexibility Score: inf
ROOT
ATOM      1  C   UNL     1       2.716 -18.098   0.208  1.00  0.00     0.001 A 
ATOM      2  C   UNL     1       1.436 -18.555  -0.147  1.00  0.00     0.014 A 
ATOM      3  C   UNL     1       3.689 -19.034   0.606  1.00  0.00     0.060 A 
ATOM      4  C   UNL     1       1.134 -19.918  -0.106  1.00  0.00     0.051 A 
ATOM      5  C   UNL     1       3.388 -20.410   0.650  1.00  0.00     0.161 A 
ATOM      6  C   UNL     1       2.105 -20.844   0.291  1.00  0.00     0.157 A 
ENDROOT
BRANCH   1   7
ATOM      7  C   UNL     1       3.030 -16.653   0.162  1.00  0.00     0.072 C 
ATOM      8  O   UNL     1       4.136 -16.224   0.587  1.00  0.00    -0.545 OA
ATOM      9  O   UNL     1       2.109 -15.748  -0.352  1.00  0.00    -0.545 OA
ENDBRANCH   1   7
BRANCH   5  10
ATOM     10  O   UNL     1       4.333 -21.371   1.042  1.00  0.00    -0.493 OA
ATOM     11  C   UNL     1       5.261 -21.202   2.109  1.00  0.00     0.278 C 
ENDBRANCH   5  10
BRANCH   6  12
ATOM     12  O   UNL     1       1.802 -22.205   0.332  1.00  0.00    -0.504 OA
ATOM     13  H   UNL     1       1.139 -22.580   0.999  1.00  0.00     0.293 HD
ENDBRANCH   6  12
TORSDOF 3
ENDMDL
MODEL 8
REMARK VINA RESULT:    -3.967      1.341      4.315
REMARK INTER + INTRA:          -4.647
REMARK INTER:                  -4.545
REMARK INTRA:                  -0.102
REMARK UNBOUND:                -0.100
REMARK SMILES COc1cc(C(=O)[O-])ccc1O
REMARK SMILES IDX 5 1 9 2 4 3 10 4 3 5 11 6 6 7 7 8 8 9 2 10 1 11 12 12
REMARK H PARENT 12 13
REMARK Flexibility Score: inf
ROOT
ATOM      1  C   UNL     1      -6.357 -12.616   8.617  1.00  0.00     0.001 A 
ATOM      2  C   UNL     1      -7.436 -13.038   9.410  1.00  0.00     0.014 A 
ATOM      3  C   UNL     1      -6.210 -13.151   7.323  1.00  0.00     0.060 A 
ATOM      4  C   UNL     1      -8.351 -13.974   8.921  1.00  0.00     0.051 A 
ATOM      5  C   UNL     1      -7.130 -14.096   6.826  1.00  0.00     0.161 A 
ATOM      6  C   UNL     1      -8.200 -14.502   7.633  1.00  0.00     0.157 A 
ENDROOT
BRANCH   1   7
ATOM      7  C   UNL     1      -5.391 -11.625   9.139  1.00  0.00     0.072 C 
ATOM      8  O   UNL     1      -4.700 -10.925   8.351  1.00  0.00    -0.545 OA
ATOM      9  O   UNL     1      -5.232 -11.451  10.509  1.00  0.00    -0.545 OA
ENDBRANCH   1   7
BRANCH   5  10
ATOM     10  O   UNL     1      -7.014 -14.649   5.541  1.00  0.00    -0.493 OA
ATOM     11  C   UNL     1      -7.305 -13.954   4.333  1.00  0.00     0.278 C 
ENDBRANCH   5  10
BRANCH   6  12
ATOM     12  O   UNL     1      -9.114 -15.436   7.147  1.00  0.00    -0.504 OA
ATOM     13  H   UNL     1      -8.895 -16.425   7.114  1.00  0.00     0.293 HD
ENDBRANCH   6  12
TORSDOF 3
ENDMDL
MODEL 9
REMARK VINA RESULT:    -3.919     18.086     19.630
REMARK INTER + INTRA:          -4.593
REMARK INTER:                  -4.489
REMARK INTRA:                  -0.103
REMARK UNBOUND:                -0.100
REMARK SMILES COc1cc(C(=O)[O-])ccc1O
REMARK SMILES IDX 5 1 9 2 4 3 10 4 3 5 11 6 6 7 7 8 8 9 2 10 1 11 12 12
REMARK H PARENT 12 13
REMARK Flexibility Score: inf
ROOT
ATOM      1  C   UNL     1      -1.023 -25.389  -6.644  1.00  0.00     0.001 A 
ATOM      2  C   UNL     1      -1.235 -24.860  -5.361  1.00  0.00     0.014 A 
ATOM      3  C   UNL     1       0.263 -25.846  -6.991  1.00  0.00     0.060 A 
ATOM      4  C   UNL     1      -0.186 -24.789  -4.442  1.00  0.00     0.051 A 
ATOM      5  C   UNL     1       1.325 -25.776  -6.067  1.00  0.00     0.161 A 
ATOM      6  C   UNL     1       1.091 -25.245  -4.792  1.00  0.00     0.157 A 
ENDROOT
BRANCH   1   7
ATOM      7  C   UNL     1      -2.139 -25.463  -7.614  1.00  0.00     0.072 C 
ATOM      8  O   UNL     1      -1.931 -25.822  -8.803  1.00  0.00    -0.545 OA
ATOM      9  O   UNL     1      -3.432 -25.136  -7.224  1.00  0.00    -0.545 OA
ENDBRANCH   1   7
BRANCH   5  10
ATOM     10  O   UNL     1       2.619 -26.221  -6.378  1.00  0.00    -0.493 OA
ATOM     11  C   UNL     1       3.031 -27.584  -6.353  1.00  0.00     0.278 C 
ENDBRANCH   5  10
BRANCH   6  12
ATOM     12  O   UNL     1       2.137 -25.173  -3.873  1.00  0.00    -0.504 OA
ATOM     13  H   UNL     1       2.818 -25.918  -3.786  1.00  0.00     0.293 HD
ENDBRANCH   6  12
TORSDOF 3
ENDMDL
