MODEL 1
REMARK VINA RESULT:    -6.540      0.000      0.000
REMARK INTER + INTRA:          -8.310
REMARK INTER:                  -8.069
REMARK INTRA:                  -0.241
REMARK UNBOUND:                -0.241
REMARK SMILES Oc1cc(O)c2cc(O)c(-c3cc(O)c(O)c(O)c3)[o+]c2c1
REMARK SMILES IDX 10 1 20 2 21 3 22 4 2 5 3 6 4 7 6 8 7 9 8 10 11 11 12 12
REMARK SMILES IDX 13 13 19 14 15 15 17 16 14 17 16 19 18 21 9 23 1 25 5 27
REMARK H PARENT 14 18 16 20 18 22 9 24 1 26 5 28
REMARK Flexibility Score: inf
ROOT
ATOM      1  C   UNL     1       1.927 -11.710 -32.546  1.00  0.00     0.402 A 
ATOM      2  O   UNL     1       2.383 -12.272 -31.430  1.00  0.00    -0.202 OA
ATOM      3  C   UNL     1       1.734 -12.225 -30.270  1.00  0.00     0.368 A 
ATOM      4  C   UNL     1       2.293 -12.849 -29.153  1.00  0.00     0.162 A 
ATOM      5  C   UNL     1       1.633 -12.818 -27.924  1.00  0.00     0.128 A 
ATOM      6  C   UNL     1       0.403 -12.159 -27.810  1.00  0.00     0.093 A 
ATOM      7  C   UNL     1      -0.178 -11.527 -28.915  1.00  0.00     0.136 A 
ATOM      8  C   UNL     1       0.492 -11.553 -30.166  1.00  0.00     0.125 A 
ATOM      9  C   UNL     1      -0.009 -10.936 -31.324  1.00  0.00     0.078 A 
ATOM     10  C   UNL     1       0.711 -11.001 -32.521  1.00  0.00     0.223 A 
ENDROOT
BRANCH   1  11
ATOM     11  C   UNL     1       2.737 -11.841 -33.778  1.00  0.00     0.091 A 
ATOM     12  C   UNL     1       2.222 -12.555 -34.869  1.00  0.00     0.068 A 
ATOM     13  C   UNL     1       2.951 -12.682 -36.058  1.00  0.00     0.162 A 
ATOM     14  C   UNL     1       3.988 -11.218 -33.901  1.00  0.00     0.068 A 
ATOM     15  C   UNL     1       4.222 -12.070 -36.166  1.00  0.00     0.200 A 
ATOM     16  C   UNL     1       4.729 -11.336 -35.084  1.00  0.00     0.162 A 
BRANCH  13  17
ATOM     17  O   UNL     1       2.377 -13.418 -37.097  1.00  0.00    -0.504 OA
ATOM     18  H   UNL     1       2.087 -13.021 -37.978  1.00  0.00     0.293 HD
ENDBRANCH  13  17
BRANCH  15  19
ATOM     19  O   UNL     1       5.005 -12.163 -37.319  1.00  0.00    -0.502 OA
ATOM     20  H   UNL     1       5.477 -11.380 -37.747  1.00  0.00     0.293 HD
ENDBRANCH  15  19
BRANCH  16  21
ATOM     21  O   UNL     1       5.974 -10.719 -35.194  1.00  0.00    -0.504 OA
ATOM     22  H   UNL     1       6.804 -11.239 -35.457  1.00  0.00     0.293 HD
ENDBRANCH  16  21
ENDBRANCH   1  11
BRANCH  10  23
ATOM     23  O   UNL     1       0.239 -10.346 -33.658  1.00  0.00    -0.500 OA
ATOM     24  H   UNL     1      -0.580  -9.749 -33.627  1.00  0.00     0.294 HD
ENDBRANCH  10  23
BRANCH   5  25
ATOM     25  O   UNL     1       2.207 -13.446 -26.820  1.00  0.00    -0.507 OA
ATOM     26  H   UNL     1       2.317 -14.452 -26.782  1.00  0.00     0.293 HD
ENDBRANCH   5  25
BRANCH   7  27
ATOM     27  O   UNL     1      -1.409 -10.894 -28.721  1.00  0.00    -0.507 OA
ATOM     28  H   UNL     1      -1.609  -9.941 -28.988  1.00  0.00     0.293 HD
ENDBRANCH   7  27
TORSDOF 7
ENDMDL
MODEL 2
REMARK VINA RESULT:    -6.526      0.076      1.800
REMARK INTER + INTRA:          -8.294
REMARK INTER:                  -8.021
REMARK INTRA:                  -0.272
REMARK UNBOUND:                -0.241
REMARK SMILES Oc1cc(O)c2cc(O)c(-c3cc(O)c(O)c(O)c3)[o+]c2c1
REMARK SMILES IDX 10 1 20 2 21 3 22 4 2 5 3 6 4 7 6 8 7 9 8 10 11 11 12 12
REMARK SMILES IDX 13 13 19 14 15 15 17 16 14 17 16 19 18 21 9 23 1 25 5 27
REMARK H PARENT 14 18 16 20 18 22 9 24 1 26 5 28
REMARK Flexibility Score: inf
ROOT
ATOM      1  C   UNL     1       1.874 -11.696 -32.559  1.00  0.00     0.402 A 
ATOM      2  O   UNL     1       2.350 -12.271 -31.459  1.00  0.00    -0.202 OA
ATOM      3  C   UNL     1       1.718 -12.243 -30.289  1.00  0.00     0.368 A 
ATOM      4  C   UNL     1       2.296 -12.881 -29.189  1.00  0.00     0.162 A 
ATOM      5  C   UNL     1       1.656 -12.870 -27.950  1.00  0.00     0.128 A 
ATOM      6  C   UNL     1       0.426 -12.217 -27.807  1.00  0.00     0.093 A 
ATOM      7  C   UNL     1      -0.175 -11.571 -28.895  1.00  0.00     0.136 A 
ATOM      8  C   UNL     1       0.476 -11.578 -30.156  1.00  0.00     0.125 A 
ATOM      9  C   UNL     1      -0.045 -10.945 -31.297  1.00  0.00     0.078 A 
ATOM     10  C   UNL     1       0.657 -10.991 -32.506  1.00  0.00     0.223 A 
ENDROOT
BRANCH   1  11
ATOM     11  C   UNL     1       2.665 -11.806 -33.806  1.00  0.00     0.091 A 
ATOM     12  C   UNL     1       3.941 -11.226 -33.866  1.00  0.00     0.068 A 
ATOM     13  C   UNL     1       4.726 -11.329 -35.021  1.00  0.00     0.162 A 
ATOM     14  C   UNL     1       2.191 -12.526 -34.913  1.00  0.00     0.068 A 
ATOM     15  C   UNL     1       4.231 -12.038 -36.141  1.00  0.00     0.200 A 
ATOM     16  C   UNL     1       2.965 -12.637 -36.075  1.00  0.00     0.162 A 
BRANCH  13  17
ATOM     17  O   UNL     1       5.981 -10.716 -35.010  1.00  0.00    -0.504 OA
ATOM     18  H   UNL     1       6.604 -10.719 -34.215  1.00  0.00     0.293 HD
ENDBRANCH  13  17
BRANCH  15  19
ATOM     19  O   UNL     1       4.959 -12.172 -37.327  1.00  0.00    -0.502 OA
ATOM     20  H   UNL     1       5.827 -11.693 -37.514  1.00  0.00     0.293 HD
ENDBRANCH  15  19
BRANCH  16  21
ATOM     21  O   UNL     1       2.483 -13.349 -37.171  1.00  0.00    -0.504 OA
ATOM     22  H   UNL     1       2.568 -12.991 -38.117  1.00  0.00     0.293 HD
ENDBRANCH  16  21
ENDBRANCH   1  11
BRANCH  10  23
ATOM     23  O   UNL     1       0.165 -10.321 -33.626  1.00  0.00    -0.500 OA
ATOM     24  H   UNL     1       0.108 -10.770 -34.532  1.00  0.00     0.294 HD
ENDBRANCH  10  23
BRANCH   5  25
ATOM     25  O   UNL     1       2.248 -13.512 -26.865  1.00  0.00    -0.507 OA
ATOM     26  H   UNL     1       1.737 -13.684 -26.007  1.00  0.00     0.293 HD
ENDBRANCH   5  25
BRANCH   7  27
ATOM     27  O   UNL     1      -1.404 -10.945 -28.672  1.00  0.00    -0.507 OA
ATOM     28  H   UNL     1      -1.848 -10.312 -29.321  1.00  0.00     0.293 HD
ENDBRANCH   7  27
TORSDOF 7
ENDMDL
MODEL 3
REMARK VINA RESULT:    -6.423      1.132      7.247
REMARK INTER + INTRA:          -8.166
REMARK INTER:                  -7.862
REMARK INTRA:                  -0.304
REMARK UNBOUND:                -0.241
REMARK SMILES Oc1cc(O)c2cc(O)c(-c3cc(O)c(O)c(O)c3)[o+]c2c1
REMARK SMILES IDX 10 1 20 2 21 3 22 4 2 5 3 6 4 7 6 8 7 9 8 10 11 11 12 12
REMARK SMILES IDX 13 13 19 14 15 15 17 16 14 17 16 19 18 21 9 23 1 25 5 27
REMARK H PARENT 14 18 16 20 18 22 9 24 1 26 5 28
REMARK Flexibility Score: inf
ROOT
ATOM      1  C   UNL     1       2.829 -11.734 -31.792  1.00  0.00     0.402 A 
ATOM      2  O   UNL     1       2.350 -12.246 -32.922  1.00  0.00    -0.202 OA
ATOM      3  C   UNL     1       2.985 -12.163 -34.088  1.00  0.00     0.368 A 
ATOM      4  C   UNL     1       2.403 -12.736 -35.221  1.00  0.00     0.162 A 
ATOM      5  C   UNL     1       3.047 -12.667 -36.456  1.00  0.00     0.128 A 
ATOM      6  C   UNL     1       4.285 -12.022 -36.561  1.00  0.00     0.093 A 
ATOM      7  C   UNL     1       4.890 -11.440 -35.440  1.00  0.00     0.136 A 
ATOM      8  C   UNL     1       4.235 -11.506 -34.182  1.00  0.00     0.125 A 
ATOM      9  C   UNL     1       4.760 -10.941 -33.009  1.00  0.00     0.078 A 
ATOM     10  C   UNL     1       4.054 -11.042 -31.806  1.00  0.00     0.223 A 
ENDROOT
BRANCH   1  11
ATOM     11  C   UNL     1       2.033 -11.901 -30.555  1.00  0.00     0.091 A 
ATOM     12  C   UNL     1       0.796 -11.250 -30.437  1.00  0.00     0.068 A 
ATOM     13  C   UNL     1       0.007 -11.401 -29.291  1.00  0.00     0.162 A 
ATOM     14  C   UNL     1       2.462 -12.742 -29.516  1.00  0.00     0.068 A 
ATOM     15  C   UNL     1       0.457 -12.233 -28.238  1.00  0.00     0.200 A 
ATOM     16  C   UNL     1       1.683 -12.902 -28.363  1.00  0.00     0.162 A 
BRANCH  13  17
ATOM     17  O   UNL     1      -1.207 -10.712 -29.243  1.00  0.00    -0.504 OA
ATOM     18  H   UNL     1      -1.980 -10.971 -28.647  1.00  0.00     0.293 HD
ENDBRANCH  13  17
BRANCH  15  19
ATOM     19  O   UNL     1      -0.277 -12.422 -27.065  1.00  0.00    -0.502 OA
ATOM     20  H   UNL     1       0.136 -12.512 -26.148  1.00  0.00     0.293 HD
ENDBRANCH  15  19
BRANCH  16  21
ATOM     21  O   UNL     1       2.120 -13.734 -27.334  1.00  0.00    -0.504 OA
ATOM     22  H   UNL     1       2.377 -13.366 -26.425  1.00  0.00     0.293 HD
ENDBRANCH  16  21
ENDBRANCH   1  11
BRANCH  10  23
ATOM     23  O   UNL     1       4.551 -10.437 -30.651  1.00  0.00    -0.500 OA
ATOM     24  H   UNL     1       5.242  -9.697 -30.692  1.00  0.00     0.294 HD
ENDBRANCH  10  23
BRANCH   5  25
ATOM     25  O   UNL     1       2.451 -13.244 -37.575  1.00  0.00    -0.507 OA
ATOM     26  H   UNL     1       2.395 -14.249 -37.686  1.00  0.00     0.293 HD
ENDBRANCH   5  25
BRANCH   7  27
ATOM     27  O   UNL     1       6.127 -10.818 -35.627  1.00  0.00    -0.507 OA
ATOM     28  H   UNL     1       6.561 -10.199 -34.958  1.00  0.00     0.293 HD
ENDBRANCH   7  27
TORSDOF 7
ENDMDL
MODEL 4
REMARK VINA RESULT:    -6.132      1.189      2.627
REMARK INTER + INTRA:          -7.806
REMARK INTER:                  -7.497
REMARK INTRA:                  -0.309
REMARK UNBOUND:                -0.241
REMARK SMILES Oc1cc(O)c2cc(O)c(-c3cc(O)c(O)c(O)c3)[o+]c2c1
REMARK SMILES IDX 10 1 20 2 21 3 22 4 2 5 3 6 4 7 6 8 7 9 8 10 11 11 12 12
REMARK SMILES IDX 13 13 19 14 15 15 17 16 14 17 16 19 18 21 9 23 1 25 5 27
REMARK H PARENT 14 18 16 20 18 22 9 24 1 26 5 28
REMARK Flexibility Score: inf
ROOT
ATOM      1  C   UNL     1       2.884 -11.936 -32.725  1.00  0.00     0.402 A 
ATOM      2  O   UNL     1       1.731 -11.315 -32.493  1.00  0.00    -0.202 OA
ATOM      3  C   UNL     1       1.121 -11.327 -31.311  1.00  0.00     0.368 A 
ATOM      4  C   UNL     1      -0.087 -10.641 -31.163  1.00  0.00     0.162 A 
ATOM      5  C   UNL     1      -0.748 -10.633 -29.935  1.00  0.00     0.128 A 
ATOM      6  C   UNL     1      -0.199 -11.316 -28.844  1.00  0.00     0.093 A 
ATOM      7  C   UNL     1       1.011 -12.011 -28.966  1.00  0.00     0.136 A 
ATOM      8  C   UNL     1       1.685 -12.023 -30.216  1.00  0.00     0.125 A 
ATOM      9  C   UNL     1       2.894 -12.703 -30.434  1.00  0.00     0.078 A 
ATOM     10  C   UNL     1       3.498 -12.673 -31.695  1.00  0.00     0.223 A 
ENDROOT
BRANCH   1  11
ATOM     11  C   UNL     1       3.471 -11.840 -34.081  1.00  0.00     0.091 A 
ATOM     12  C   UNL     1       2.820 -12.458 -35.159  1.00  0.00     0.068 A 
ATOM     13  C   UNL     1       3.335 -12.370 -36.459  1.00  0.00     0.162 A 
ATOM     14  C   UNL     1       4.636 -11.096 -34.324  1.00  0.00     0.068 A 
ATOM     15  C   UNL     1       4.523 -11.637 -36.691  1.00  0.00     0.200 A 
ATOM     16  C   UNL     1       5.162 -11.000 -35.619  1.00  0.00     0.162 A 
BRANCH  13  17
ATOM     17  O   UNL     1       2.637 -13.022 -37.479  1.00  0.00    -0.504 OA
ATOM     18  H   UNL     1       1.831 -13.609 -37.326  1.00  0.00     0.293 HD
ENDBRANCH  13  17
BRANCH  15  19
ATOM     19  O   UNL     1       5.093 -11.516 -37.961  1.00  0.00    -0.502 OA
ATOM     20  H   UNL     1       5.147 -12.269 -38.631  1.00  0.00     0.293 HD
ENDBRANCH  15  19
BRANCH  16  21
ATOM     21  O   UNL     1       6.323 -10.265 -35.849  1.00  0.00    -0.504 OA
ATOM     22  H   UNL     1       6.391  -9.604 -36.615  1.00  0.00     0.293 HD
ENDBRANCH  16  21
ENDBRANCH   1  11
BRANCH  10  23
ATOM     23  O   UNL     1       4.672 -13.389 -31.926  1.00  0.00    -0.500 OA
ATOM     24  H   UNL     1       5.585 -12.966 -31.810  1.00  0.00     0.294 HD
ENDBRANCH  10  23
BRANCH   5  25
ATOM     25  O   UNL     1      -1.952  -9.944 -29.807  1.00  0.00    -0.507 OA
ATOM     26  H   UNL     1      -2.025  -8.960 -30.037  1.00  0.00     0.293 HD
ENDBRANCH   5  25
BRANCH   7  27
ATOM     27  O   UNL     1       1.495 -12.665 -27.831  1.00  0.00    -0.507 OA
ATOM     28  H   UNL     1       2.300 -13.274 -27.822  1.00  0.00     0.293 HD
ENDBRANCH   7  27
TORSDOF 7
ENDMDL
MODEL 5
REMARK VINA RESULT:    -6.059      2.040      2.716
REMARK INTER + INTRA:          -7.717
REMARK INTER:                  -7.814
REMARK INTRA:                   0.097
REMARK UNBOUND:                -0.241
REMARK SMILES Oc1cc(O)c2cc(O)c(-c3cc(O)c(O)c(O)c3)[o+]c2c1
REMARK SMILES IDX 10 1 20 2 21 3 22 4 2 5 3 6 4 7 6 8 7 9 8 10 11 11 12 12
REMARK SMILES IDX 13 13 19 14 15 15 17 16 14 17 16 19 18 21 9 23 1 25 5 27
REMARK H PARENT 14 18 16 20 18 22 9 24 1 26 5 28
REMARK Flexibility Score: inf
ROOT
ATOM      1  C   UNL     1       3.036 -12.023 -31.556  1.00  0.00     0.402 A 
ATOM      2  O   UNL     1       3.321 -10.900 -30.904  1.00  0.00    -0.202 OA
ATOM      3  C   UNL     1       3.115 -10.740 -29.600  1.00  0.00     0.368 A 
ATOM      4  C   UNL     1       3.450  -9.523 -29.003  1.00  0.00     0.162 A 
ATOM      5  C   UNL     1       3.247  -9.327 -27.637  1.00  0.00     0.128 A 
ATOM      6  C   UNL     1       2.706 -10.357 -26.859  1.00  0.00     0.093 A 
ATOM      7  C   UNL     1       2.362 -11.587 -27.434  1.00  0.00     0.136 A 
ATOM      8  C   UNL     1       2.564 -11.788 -28.824  1.00  0.00     0.125 A 
ATOM      9  C   UNL     1       2.237 -12.982 -29.487  1.00  0.00     0.078 A 
ATOM     10  C   UNL     1       2.461 -13.104 -30.862  1.00  0.00     0.223 A 
ENDROOT
BRANCH   1  11
ATOM     11  C   UNL     1       3.322 -12.083 -33.008  1.00  0.00     0.091 A 
ATOM     12  C   UNL     1       2.382 -12.660 -33.873  1.00  0.00     0.068 A 
ATOM     13  C   UNL     1       2.609 -12.715 -35.254  1.00  0.00     0.162 A 
ATOM     14  C   UNL     1       4.491 -11.523 -33.547  1.00  0.00     0.068 A 
ATOM     15  C   UNL     1       3.801 -12.169 -35.787  1.00  0.00     0.200 A 
ATOM     16  C   UNL     1       4.732 -11.571 -34.926  1.00  0.00     0.162 A 
BRANCH  13  17
ATOM     17  O   UNL     1       1.631 -13.315 -36.050  1.00  0.00    -0.504 OA
ATOM     18  H   UNL     1       1.653 -13.326 -37.059  1.00  0.00     0.293 HD
ENDBRANCH  13  17
BRANCH  15  19
ATOM     19  O   UNL     1       4.094 -12.197 -37.153  1.00  0.00    -0.502 OA
ATOM     20  H   UNL     1       3.422 -12.425 -37.871  1.00  0.00     0.293 HD
ENDBRANCH  15  19
BRANCH  16  21
ATOM     21  O   UNL     1       5.899 -11.019 -35.452  1.00  0.00    -0.504 OA
ATOM     22  H   UNL     1       5.987 -10.023 -35.620  1.00  0.00     0.293 HD
ENDBRANCH  16  21
ENDBRANCH   1  11
BRANCH  10  23
ATOM     23  O   UNL     1       2.090 -14.271 -31.530  1.00  0.00    -0.500 OA
ATOM     24  H   UNL     1       1.931 -14.284 -32.531  1.00  0.00     0.294 HD
ENDBRANCH  10  23
BRANCH   5  25
ATOM     25  O   UNL     1       3.588  -8.106 -27.059  1.00  0.00    -0.507 OA
ATOM     26  H   UNL     1       3.885  -7.319 -27.623  1.00  0.00     0.293 HD
ENDBRANCH   5  25
BRANCH   7  27
ATOM     27  O   UNL     1       1.829 -12.565 -26.590  1.00  0.00    -0.507 OA
ATOM     28  H   UNL     1       2.378 -13.253 -26.095  1.00  0.00     0.293 HD
ENDBRANCH   7  27
TORSDOF 7
ENDMDL
MODEL 6
REMARK VINA RESULT:    -6.042      2.072      3.242
REMARK INTER + INTRA:          -7.696
REMARK INTER:                  -7.791
REMARK INTRA:                   0.095
REMARK UNBOUND:                -0.241
REMARK SMILES Oc1cc(O)c2cc(O)c(-c3cc(O)c(O)c(O)c3)[o+]c2c1
REMARK SMILES IDX 10 1 20 2 21 3 22 4 2 5 3 6 4 7 6 8 7 9 8 10 11 11 12 12
REMARK SMILES IDX 13 13 19 14 15 15 17 16 14 17 16 19 18 21 9 23 1 25 5 27
REMARK H PARENT 14 18 16 20 18 22 9 24 1 26 5 28
REMARK Flexibility Score: inf
ROOT
ATOM      1  C   UNL     1       2.952 -11.964 -31.557  1.00  0.00     0.402 A 
ATOM      2  O   UNL     1       3.273 -10.843 -30.919  1.00  0.00    -0.202 OA
ATOM      3  C   UNL     1       3.099 -10.671 -29.611  1.00  0.00     0.368 A 
ATOM      4  C   UNL     1       3.471  -9.457 -29.029  1.00  0.00     0.162 A 
ATOM      5  C   UNL     1       3.302  -9.250 -27.660  1.00  0.00     0.128 A 
ATOM      6  C   UNL     1       2.758 -10.265 -26.864  1.00  0.00     0.093 A 
ATOM      7  C   UNL     1       2.378 -11.491 -27.423  1.00  0.00     0.136 A 
ATOM      8  C   UNL     1       2.545 -11.704 -28.817  1.00  0.00     0.125 A 
ATOM      9  C   UNL     1       2.181 -12.895 -29.465  1.00  0.00     0.078 A 
ATOM     10  C   UNL     1       2.372 -13.030 -30.844  1.00  0.00     0.223 A 
ENDROOT
BRANCH   1  11
ATOM     11  C   UNL     1       3.205 -12.038 -33.014  1.00  0.00     0.091 A 
ATOM     12  C   UNL     1       4.401 -11.523 -33.533  1.00  0.00     0.068 A 
ATOM     13  C   UNL     1       4.684 -11.594 -34.903  1.00  0.00     0.162 A 
ATOM     14  C   UNL     1       2.297 -12.661 -33.884  1.00  0.00     0.068 A 
ATOM     15  C   UNL     1       3.753 -12.204 -35.777  1.00  0.00     0.200 A 
ATOM     16  C   UNL     1       2.566 -12.739 -35.256  1.00  0.00     0.162 A 
BRANCH  13  17
ATOM     17  O   UNL     1       5.891 -11.049 -35.347  1.00  0.00    -0.504 OA
ATOM     18  H   UNL     1       6.082 -10.059 -35.390  1.00  0.00     0.293 HD
ENDBRANCH  13  17
BRANCH  15  19
ATOM     19  O   UNL     1       3.968 -12.302 -37.154  1.00  0.00    -0.502 OA
ATOM     20  H   UNL     1       3.790 -13.134 -37.697  1.00  0.00     0.293 HD
ENDBRANCH  15  19
BRANCH  16  21
ATOM     21  O   UNL     1       1.655 -13.355 -36.114  1.00  0.00    -0.504 OA
ATOM     22  H   UNL     1       0.960 -14.008 -35.771  1.00  0.00     0.293 HD
ENDBRANCH  16  21
ENDBRANCH   1  11
BRANCH  10  23
ATOM     23  O   UNL     1       1.964 -14.193 -31.496  1.00  0.00    -0.500 OA
ATOM     24  H   UNL     1       2.388 -15.091 -31.299  1.00  0.00     0.294 HD
ENDBRANCH  10  23
BRANCH   5  25
ATOM     25  O   UNL     1       3.679  -8.033 -27.098  1.00  0.00    -0.507 OA
ATOM     26  H   UNL     1       4.494  -7.954 -26.502  1.00  0.00     0.293 HD
ENDBRANCH   5  25
BRANCH   7  27
ATOM     27  O   UNL     1       1.846 -12.454 -26.562  1.00  0.00    -0.507 OA
ATOM     28  H   UNL     1       2.047 -12.509 -25.574  1.00  0.00     0.293 HD
ENDBRANCH   7  27
TORSDOF 7
ENDMDL
MODEL 7
REMARK VINA RESULT:    -6.041      1.202      3.153
REMARK INTER + INTRA:          -7.694
REMARK INTER:                  -7.314
REMARK INTRA:                  -0.380
REMARK UNBOUND:                -0.241
REMARK SMILES Oc1cc(O)c2cc(O)c(-c3cc(O)c(O)c(O)c3)[o+]c2c1
REMARK SMILES IDX 10 1 20 2 21 3 22 4 2 5 3 6 4 7 6 8 7 9 8 10 11 11 12 12
REMARK SMILES IDX 13 13 19 14 15 15 17 16 14 17 16 19 18 21 9 23 1 25 5 27
REMARK H PARENT 14 18 16 20 18 22 9 24 1 26 5 28
REMARK Flexibility Score: inf
ROOT
ATOM      1  C   UNL     1       1.994 -12.032 -32.306  1.00  0.00     0.402 A 
ATOM      2  O   UNL     1       1.152 -11.032 -32.061  1.00  0.00    -0.202 OA
ATOM      3  C   UNL     1       0.479 -10.907 -30.921  1.00  0.00     0.368 A 
ATOM      4  C   UNL     1      -0.382  -9.820 -30.755  1.00  0.00     0.162 A 
ATOM      5  C   UNL     1      -1.099  -9.661 -29.569  1.00  0.00     0.128 A 
ATOM      6  C   UNL     1      -0.955 -10.597 -28.538  1.00  0.00     0.093 A 
ATOM      7  C   UNL     1      -0.099 -11.696 -28.679  1.00  0.00     0.136 A 
ATOM      8  C   UNL     1       0.630 -11.861 -29.886  1.00  0.00     0.125 A 
ATOM      9  C   UNL     1       1.501 -12.938 -30.121  1.00  0.00     0.078 A 
ATOM     10  C   UNL     1       2.182 -13.036 -31.338  1.00  0.00     0.223 A 
ENDROOT
BRANCH   1  11
ATOM     11  C   UNL     1       2.694 -12.055 -33.610  1.00  0.00     0.091 A 
ATOM     12  C   UNL     1       3.957 -11.456 -33.726  1.00  0.00     0.068 A 
ATOM     13  C   UNL     1       4.657 -11.476 -34.939  1.00  0.00     0.162 A 
ATOM     14  C   UNL     1       2.147 -12.712 -34.723  1.00  0.00     0.068 A 
ATOM     15  C   UNL     1       4.088 -12.122 -36.062  1.00  0.00     0.200 A 
ATOM     16  C   UNL     1       2.836 -12.741 -35.942  1.00  0.00     0.162 A 
BRANCH  13  17
ATOM     17  O   UNL     1       5.904 -10.849 -34.979  1.00  0.00    -0.504 OA
ATOM     18  H   UNL     1       6.772 -11.301 -34.733  1.00  0.00     0.293 HD
ENDBRANCH  13  17
BRANCH  15  19
ATOM     19  O   UNL     1       4.729 -12.173 -37.303  1.00  0.00    -0.502 OA
ATOM     20  H   UNL     1       5.580 -12.686 -37.479  1.00  0.00     0.293 HD
ENDBRANCH  15  19
BRANCH  16  21
ATOM     21  O   UNL     1       2.281 -13.390 -37.043  1.00  0.00    -0.504 OA
ATOM     22  H   UNL     1       2.702 -14.225 -37.436  1.00  0.00     0.293 HD
ENDBRANCH  16  21
ENDBRANCH   1  11
BRANCH  10  23
ATOM     23  O   UNL     1       3.008 -14.132 -31.591  1.00  0.00    -0.500 OA
ATOM     24  H   UNL     1       3.300 -14.760 -30.852  1.00  0.00     0.294 HD
ENDBRANCH  10  23
BRANCH   5  25
ATOM     25  O   UNL     1      -1.952  -8.570 -29.423  1.00  0.00    -0.507 OA
ATOM     26  H   UNL     1      -2.959  -8.677 -29.455  1.00  0.00     0.293 HD
ENDBRANCH   5  25
BRANCH   7  27
ATOM     27  O   UNL     1      -0.008 -12.583 -27.604  1.00  0.00    -0.507 OA
ATOM     28  H   UNL     1      -0.626 -12.579 -26.806  1.00  0.00     0.293 HD
ENDBRANCH   7  27
TORSDOF 7
ENDMDL
MODEL 8
REMARK VINA RESULT:    -6.027      1.746      7.075
REMARK INTER + INTRA:          -7.677
REMARK INTER:                  -7.500
REMARK INTRA:                  -0.177
REMARK UNBOUND:                -0.241
REMARK SMILES Oc1cc(O)c2cc(O)c(-c3cc(O)c(O)c(O)c3)[o+]c2c1
REMARK SMILES IDX 10 1 20 2 21 3 22 4 2 5 3 6 4 7 6 8 7 9 8 10 11 11 12 12
REMARK SMILES IDX 13 13 19 14 15 15 17 16 14 17 16 19 18 21 9 23 1 25 5 27
REMARK H PARENT 14 18 16 20 18 22 9 24 1 26 5 28
REMARK Flexibility Score: inf
ROOT
ATOM      1  C   UNL     1       2.603 -11.852 -32.033  1.00  0.00     0.402 A 
ATOM      2  O   UNL     1       3.688 -11.307 -32.578  1.00  0.00    -0.202 OA
ATOM      3  C   UNL     1       3.996 -11.425 -33.866  1.00  0.00     0.368 A 
ATOM      4  C   UNL     1       5.156 -10.813 -34.346  1.00  0.00     0.162 A 
ATOM      5  C   UNL     1       5.503 -10.918 -35.693  1.00  0.00     0.128 A 
ATOM      6  C   UNL     1       4.683 -11.638 -36.570  1.00  0.00     0.093 A 
ATOM      7  C   UNL     1       3.515 -12.261 -36.113  1.00  0.00     0.136 A 
ATOM      8  C   UNL     1       3.161 -12.159 -34.742  1.00  0.00     0.125 A 
ATOM      9  C   UNL     1       2.016 -12.760 -34.194  1.00  0.00     0.078 A 
ATOM     10  C   UNL     1       1.735 -12.620 -32.832  1.00  0.00     0.223 A 
ENDROOT
BRANCH   1  11
ATOM     11  C   UNL     1       2.363 -11.641 -30.588  1.00  0.00     0.091 A 
ATOM     12  C   UNL     1       2.355 -12.743 -29.721  1.00  0.00     0.068 A 
ATOM     13  C   UNL     1       2.152 -12.579 -28.346  1.00  0.00     0.162 A 
ATOM     14  C   UNL     1       2.198 -10.353 -30.054  1.00  0.00     0.068 A 
ATOM     15  C   UNL     1       1.964 -11.279 -27.818  1.00  0.00     0.200 A 
ATOM     16  C   UNL     1       1.995 -10.174 -28.680  1.00  0.00     0.162 A 
BRANCH  13  17
ATOM     17  O   UNL     1       2.146 -13.726 -27.549  1.00  0.00    -0.504 OA
ATOM     18  H   UNL     1       1.447 -13.923 -26.848  1.00  0.00     0.293 HD
ENDBRANCH  13  17
BRANCH  15  19
ATOM     19  O   UNL     1       1.750 -11.045 -26.458  1.00  0.00    -0.502 OA
ATOM     20  H   UNL     1       2.160 -11.595 -25.718  1.00  0.00     0.293 HD
ENDBRANCH  15  19
BRANCH  16  21
ATOM     21  O   UNL     1       1.825  -8.892 -28.159  1.00  0.00    -0.504 OA
ATOM     22  H   UNL     1       2.263  -8.083 -28.585  1.00  0.00     0.293 HD
ENDBRANCH  16  21
ENDBRANCH   1  11
BRANCH  10  23
ATOM     23  O   UNL     1       0.626 -13.258 -32.277  1.00  0.00    -0.500 OA
ATOM     24  H   UNL     1       0.662 -14.226 -31.979  1.00  0.00     0.294 HD
ENDBRANCH  10  23
BRANCH   5  25
ATOM     25  O   UNL     1       6.664 -10.300 -36.153  1.00  0.00    -0.507 OA
ATOM     26  H   UNL     1       6.651  -9.676 -36.950  1.00  0.00     0.293 HD
ENDBRANCH   5  25
BRANCH   7  27
ATOM     27  O   UNL     1       2.749 -12.959 -37.051  1.00  0.00    -0.507 OA
ATOM     28  H   UNL     1       3.027 -13.122 -38.007  1.00  0.00     0.293 HD
ENDBRANCH   7  27
TORSDOF 7
ENDMDL
MODEL 9
REMARK VINA RESULT:    -5.927      1.754      3.594
REMARK INTER + INTRA:          -7.554
REMARK INTER:                  -7.175
REMARK INTRA:                  -0.379
REMARK UNBOUND:                -0.241
REMARK SMILES Oc1cc(O)c2cc(O)c(-c3cc(O)c(O)c(O)c3)[o+]c2c1
REMARK SMILES IDX 10 1 20 2 21 3 22 4 2 5 3 6 4 7 6 8 7 9 8 10 11 11 12 12
REMARK SMILES IDX 13 13 19 14 15 15 17 16 14 17 16 19 18 21 9 23 1 25 5 27
REMARK H PARENT 14 18 16 20 18 22 9 24 1 26 5 28
REMARK Flexibility Score: inf
ROOT
ATOM      1  C   UNL     1       3.598 -11.198 -32.784  1.00  0.00     0.402 A 
ATOM      2  O   UNL     1       2.415 -10.703 -32.430  1.00  0.00    -0.202 OA
ATOM      3  C   UNL     1       1.743 -11.112 -31.358  1.00  0.00     0.368 A 
ATOM      4  C   UNL     1       0.508 -10.529 -31.066  1.00  0.00     0.162 A 
ATOM      5  C   UNL     1      -0.218 -10.936 -29.947  1.00  0.00     0.128 A 
ATOM      6  C   UNL     1       0.295 -11.934 -29.110  1.00  0.00     0.093 A 
ATOM      7  C   UNL     1       1.531 -12.534 -29.380  1.00  0.00     0.136 A 
ATOM      8  C   UNL     1       2.270 -12.124 -30.521  1.00  0.00     0.125 A 
ATOM      9  C   UNL     1       3.510 -12.678 -30.876  1.00  0.00     0.078 A 
ATOM     10  C   UNL     1       4.179 -12.226 -32.018  1.00  0.00     0.223 A 
ENDROOT
BRANCH   1  11
ATOM     11  C   UNL     1       4.252 -10.651 -33.994  1.00  0.00     0.091 A 
ATOM     12  C   UNL     1       5.190  -9.616 -33.864  1.00  0.00     0.068 A 
ATOM     13  C   UNL     1       5.844  -9.090 -34.984  1.00  0.00     0.162 A 
ATOM     14  C   UNL     1       3.998 -11.184 -35.268  1.00  0.00     0.068 A 
ATOM     15  C   UNL     1       5.564  -9.617 -36.267  1.00  0.00     0.200 A 
ATOM     16  C   UNL     1       4.645 -10.667 -36.397  1.00  0.00     0.162 A 
BRANCH  13  17
ATOM     17  O   UNL     1       6.756  -8.053 -34.776  1.00  0.00    -0.504 OA
ATOM     18  H   UNL     1       7.729  -8.193 -34.550  1.00  0.00     0.293 HD
ENDBRANCH  13  17
BRANCH  15  19
ATOM     19  O   UNL     1       6.175  -9.133 -37.427  1.00  0.00    -0.502 OA
ATOM     20  H   UNL     1       6.615  -8.227 -37.499  1.00  0.00     0.293 HD
ENDBRANCH  15  19
BRANCH  16  21
ATOM     21  O   UNL     1       4.380 -11.197 -37.658  1.00  0.00    -0.504 OA
ATOM     22  H   UNL     1       3.533 -10.968 -38.165  1.00  0.00     0.293 HD
ENDBRANCH  16  21
ENDBRANCH   1  11
BRANCH  10  23
ATOM     23  O   UNL     1       5.386 -12.811 -32.400  1.00  0.00    -0.500 OA
ATOM     24  H   UNL     1       6.027 -12.346 -33.032  1.00  0.00     0.294 HD
ENDBRANCH  10  23
BRANCH   5  25
ATOM     25  O   UNL     1      -1.448 -10.343 -29.672  1.00  0.00    -0.507 OA
ATOM     26  H   UNL     1      -2.189 -10.851 -29.206  1.00  0.00     0.293 HD
ENDBRANCH   5  25
BRANCH   7  27
ATOM     27  O   UNL     1       1.974 -13.521 -28.496  1.00  0.00    -0.507 OA
ATOM     28  H   UNL     1       2.690 -13.381 -27.797  1.00  0.00     0.293 HD
ENDBRANCH   7  27
TORSDOF 7
ENDMDL
