MODEL 1
REMARK VINA RESULT:    -3.148      0.000      0.000
REMARK INTER + INTRA:          -4.549
REMARK INTER:                  -4.068
REMARK INTRA:                  -0.481
REMARK UNBOUND:                -0.481
REMARK SMILES CCO[C@@H]1O[C@H](CO)[C@@H](O)[C@@H](O)[C@@H]1O
REMARK SMILES IDX 4 1 13 2 11 3 9 4 6 5 5 6 3 7 2 8 1 9 14 10 12 12 7 14 8 15
REMARK SMILES IDX 10 17
REMARK H PARENT 14 11 12 13 8 16 10 18
REMARK Flexibility Score: inf
ROOT
ATOM      1  C   UNL     1       7.865  -5.879  -1.738  1.00  0.00     0.281 C 
ATOM      2  C   UNL     1       9.302  -5.345  -1.868  1.00  0.00     0.202 C 
ATOM      3  C   UNL     1       9.314  -4.035  -2.661  1.00  0.00     0.179 C 
ATOM      4  C   UNL     1       8.357  -3.035  -1.996  1.00  0.00     0.177 C 
ATOM      5  C   UNL     1       6.952  -3.656  -1.824  1.00  0.00     0.178 C 
ATOM      6  O   UNL     1       6.966  -4.927  -1.175  1.00  0.00    -0.341 OA
ENDROOT
BRANCH   1   7
ATOM      7  O   UNL     1       7.400  -6.343  -2.995  1.00  0.00    -0.350 OA
BRANCH   7   8
ATOM      8  C   UNL     1       6.617  -7.508  -2.836  1.00  0.00     0.160 C 
ATOM      9  C   UNL     1       7.175  -8.331  -1.687  1.00  0.00     0.035 C 
ENDBRANCH   7   8
ENDBRANCH   1   7
BRANCH   2  10
ATOM     10  O   UNL     1      10.099  -6.307  -2.510  1.00  0.00    -0.385 OA
ATOM     11  H   UNL     1      10.318  -7.000  -1.835  1.00  0.00     0.211 HD
ENDBRANCH   2  10
BRANCH   3  12
ATOM     12  O   UNL     1      10.619  -3.515  -2.692  1.00  0.00    -0.387 OA
ATOM     13  H   UNL     1      10.627  -2.727  -2.088  1.00  0.00     0.211 HD
ENDBRANCH   3  12
BRANCH   5  14
ATOM     14  C   UNL     1       6.122  -3.647  -3.125  1.00  0.00     0.191 C 
BRANCH  14  15
ATOM     15  O   UNL     1       4.949  -4.398  -2.965  1.00  0.00    -0.394 OA
ATOM     16  H   UNL     1       4.234  -3.922  -3.459  1.00  0.00     0.210 HD
ENDBRANCH  14  15
ENDBRANCH   5  14
BRANCH   4  17
ATOM     17  O   UNL     1       8.845  -2.661  -0.731  1.00  0.00    -0.387 OA
ATOM     18  H   UNL     1       8.365  -1.833  -0.466  1.00  0.00     0.211 HD
ENDBRANCH   4  17
TORSDOF 7
ENDMDL
MODEL 2
REMARK VINA RESULT:    -2.978      1.623      4.214
REMARK INTER + INTRA:          -4.330
REMARK INTER:                  -3.821
REMARK INTRA:                  -0.508
REMARK UNBOUND:                -0.481
REMARK SMILES CCO[C@@H]1O[C@H](CO)[C@@H](O)[C@@H](O)[C@@H]1O
REMARK SMILES IDX 4 1 13 2 11 3 9 4 6 5 5 6 3 7 2 8 1 9 14 10 12 12 7 14 8 15
REMARK SMILES IDX 10 17
REMARK H PARENT 14 11 12 13 8 16 10 18
REMARK Flexibility Score: inf
ROOT
ATOM      1  C   UNL     1       7.834  -4.841  -1.814  1.00  0.00     0.281 C 
ATOM      2  C   UNL     1       7.297  -6.267  -2.025  1.00  0.00     0.202 C 
ATOM      3  C   UNL     1       8.341  -7.130  -2.739  1.00  0.00     0.179 C 
ATOM      4  C   UNL     1       9.654  -7.092  -1.943  1.00  0.00     0.177 C 
ATOM      5  C   UNL     1      10.102  -5.633  -1.698  1.00  0.00     0.178 C 
ATOM      6  O   UNL     1       9.083  -4.812  -1.127  1.00  0.00    -0.341 OA
ENDROOT
BRANCH   1   7
ATOM      7  O   UNL     1       7.916  -4.159  -3.055  1.00  0.00    -0.350 OA
BRANCH   7   8
ATOM      8  C   UNL     1       7.577  -2.797  -2.897  1.00  0.00     0.160 C 
ATOM      9  C   UNL     1       6.190  -2.696  -2.283  1.00  0.00     0.035 C 
ENDBRANCH   7   8
ENDBRANCH   1   7
BRANCH   2  10
ATOM     10  O   UNL     1       6.115  -6.210  -2.783  1.00  0.00    -0.385 OA
ATOM     11  H   UNL     1       5.613  -7.046  -2.601  1.00  0.00     0.211 HD
ENDBRANCH   2  10
BRANCH   3  12
ATOM     12  O   UNL     1       7.871  -8.449  -2.843  1.00  0.00    -0.387 OA
ATOM     13  H   UNL     1       7.683  -8.610  -3.805  1.00  0.00     0.211 HD
ENDBRANCH   3  12
BRANCH   5  14
ATOM     14  C   UNL     1      10.781  -4.993  -2.927  1.00  0.00     0.191 C 
BRANCH  14  15
ATOM     15  O   UNL     1      10.958  -3.616  -2.728  1.00  0.00    -0.394 OA
ATOM     16  H   UNL     1      11.642  -3.514  -2.019  1.00  0.00     0.210 HD
ENDBRANCH  14  15
ENDBRANCH   5  14
BRANCH   4  17
ATOM     17  O   UNL     1       9.490  -7.732  -0.702  1.00  0.00    -0.387 OA
ATOM     18  H   UNL     1       9.014  -7.096  -0.106  1.00  0.00     0.211 HD
ENDBRANCH   4  17
TORSDOF 7
ENDMDL
MODEL 3
REMARK VINA RESULT:    -2.946      1.529      3.257
REMARK INTER + INTRA:          -4.288
REMARK INTER:                  -3.887
REMARK INTRA:                  -0.401
REMARK UNBOUND:                -0.481
REMARK SMILES CCO[C@@H]1O[C@H](CO)[C@@H](O)[C@@H](O)[C@@H]1O
REMARK SMILES IDX 4 1 13 2 11 3 9 4 6 5 5 6 3 7 2 8 1 9 14 10 12 12 7 14 8 15
REMARK SMILES IDX 10 17
REMARK H PARENT 14 11 12 13 8 16 10 18
REMARK Flexibility Score: inf
ROOT
ATOM      1  C   UNL     1       6.686  -4.760  -1.615  1.00  0.00     0.281 C 
ATOM      2  C   UNL     1       7.321  -6.121  -1.945  1.00  0.00     0.202 C 
ATOM      3  C   UNL     1       8.634  -5.925  -2.708  1.00  0.00     0.179 C 
ATOM      4  C   UNL     1       9.558  -5.011  -1.891  1.00  0.00     0.177 C 
ATOM      5  C   UNL     1       8.839  -3.693  -1.525  1.00  0.00     0.178 C 
ATOM      6  O   UNL     1       7.567  -3.890  -0.908  1.00  0.00    -0.341 OA
ENDROOT
BRANCH   1   7
ATOM      7  O   UNL     1       6.199  -4.146  -2.798  1.00  0.00    -0.350 OA
BRANCH   7   8
ATOM      8  C   UNL     1       4.815  -3.887  -2.690  1.00  0.00     0.160 C 
ATOM      9  C   UNL     1       4.609  -2.575  -1.951  1.00  0.00     0.035 C 
ENDBRANCH   7   8
ENDBRANCH   1   7
BRANCH   2  10
ATOM     10  O   UNL     1       6.423  -6.879  -2.715  1.00  0.00    -0.385 OA
ATOM     11  H   UNL     1       6.859  -7.751  -2.896  1.00  0.00     0.211 HD
ENDBRANCH   2  10
BRANCH   3  12
ATOM     12  O   UNL     1       9.246  -7.172  -2.922  1.00  0.00    -0.387 OA
ATOM     13  H   UNL     1       9.998  -7.236  -2.277  1.00  0.00     0.211 HD
ENDBRANCH   3  12
BRANCH   5  14
ATOM     14  C   UNL     1       8.799  -2.681  -2.689  1.00  0.00     0.191 C 
BRANCH  14  15
ATOM     15  O   UNL     1       7.905  -1.639  -2.404  1.00  0.00    -0.394 OA
ATOM     16  H   UNL     1       8.186  -1.248  -1.538  1.00  0.00     0.210 HD
ENDBRANCH  14  15
ENDBRANCH   5  14
BRANCH   4  17
ATOM     17  O   UNL     1       9.957  -5.654  -0.706  1.00  0.00    -0.387 OA
ATOM     18  H   UNL     1      10.896  -5.384  -0.528  1.00  0.00     0.211 HD
ENDBRANCH   4  17
TORSDOF 7
ENDMDL
MODEL 4
REMARK VINA RESULT:    -2.862      1.963      4.074
REMARK INTER + INTRA:          -4.179
REMARK INTER:                  -3.762
REMARK INTRA:                  -0.418
REMARK UNBOUND:                -0.481
REMARK SMILES CCO[C@@H]1O[C@H](CO)[C@@H](O)[C@@H](O)[C@@H]1O
REMARK SMILES IDX 4 1 13 2 11 3 9 4 6 5 5 6 3 7 2 8 1 9 14 10 12 12 7 14 8 15
REMARK SMILES IDX 10 17
REMARK H PARENT 14 11 12 13 8 16 10 18
REMARK Flexibility Score: inf
ROOT
ATOM      1  C   UNL     1       8.904  -5.998  -2.661  1.00  0.00     0.281 C 
ATOM      2  C   UNL     1      10.276  -5.401  -2.309  1.00  0.00     0.202 C 
ATOM      3  C   UNL     1      10.948  -6.222  -1.205  1.00  0.00     0.179 C 
ATOM      4  C   UNL     1      11.025  -7.691  -1.647  1.00  0.00     0.177 C 
ATOM      5  C   UNL     1       9.629  -8.211  -2.059  1.00  0.00     0.178 C 
ATOM      6  O   UNL     1       8.970  -7.378  -3.012  1.00  0.00    -0.341 OA
ENDROOT
BRANCH   1   7
ATOM      7  O   UNL     1       7.989  -5.784  -1.598  1.00  0.00    -0.350 OA
BRANCH   7   8
ATOM      8  C   UNL     1       6.862  -5.062  -2.049  1.00  0.00     0.160 C 
ATOM      9  C   UNL     1       6.630  -3.874  -1.131  1.00  0.00     0.035 C 
ENDBRANCH   7   8
ENDBRANCH   1   7
BRANCH   2  10
ATOM     10  O   UNL     1      10.111  -4.070  -1.889  1.00  0.00    -0.385 OA
ATOM     11  H   UNL     1       9.135  -3.905  -1.827  1.00  0.00     0.211 HD
ENDBRANCH   2  10
BRANCH   3  12
ATOM     12  O   UNL     1      12.236  -5.718  -0.959  1.00  0.00    -0.387 OA
ATOM     13  H   UNL     1      12.375  -4.967  -1.595  1.00  0.00     0.211 HD
ENDBRANCH   3  12
BRANCH   5  14
ATOM     14  C   UNL     1       8.738  -8.577  -0.854  1.00  0.00     0.191 C 
BRANCH  14  15
ATOM     15  O   UNL     1       7.399  -8.701  -1.252  1.00  0.00    -0.394 OA
ATOM     16  H   UNL     1       7.195  -7.915  -1.819  1.00  0.00     0.210 HD
ENDBRANCH  14  15
ENDBRANCH   5  14
BRANCH   4  17
ATOM     17  O   UNL     1      11.901  -7.826  -2.738  1.00  0.00    -0.387 OA
ATOM     18  H   UNL     1      11.806  -8.755  -3.075  1.00  0.00     0.211 HD
ENDBRANCH   4  17
TORSDOF 7
ENDMDL
MODEL 5
REMARK VINA RESULT:    -2.738      2.796      4.121
REMARK INTER + INTRA:          -4.019
REMARK INTER:                  -3.511
REMARK INTRA:                  -0.508
REMARK UNBOUND:                -0.481
REMARK SMILES CCO[C@@H]1O[C@H](CO)[C@@H](O)[C@@H](O)[C@@H]1O
REMARK SMILES IDX 4 1 13 2 11 3 9 4 6 5 5 6 3 7 2 8 1 9 14 10 12 12 7 14 8 15
REMARK SMILES IDX 10 17
REMARK H PARENT 14 11 12 13 8 16 10 18
REMARK Flexibility Score: inf
ROOT
ATOM      1  C   UNL     1      11.616  -7.081  -1.602  1.00  0.00     0.281 C 
ATOM      2  C   UNL     1      11.789  -5.571  -1.841  1.00  0.00     0.202 C 
ATOM      3  C   UNL     1      10.577  -5.007  -2.587  1.00  0.00     0.179 C 
ATOM      4  C   UNL     1       9.301  -5.351  -1.806  1.00  0.00     0.177 C 
ATOM      5  C   UNL     1       9.221  -6.870  -1.532  1.00  0.00     0.178 C 
ATOM      6  O   UNL     1      10.401  -7.403  -0.930  1.00  0.00    -0.341 OA
ENDROOT
BRANCH   1   7
ATOM      7  O   UNL     1      11.726  -7.786  -2.828  1.00  0.00    -0.350 OA
BRANCH   7   8
ATOM      8  C   UNL     1      12.369  -9.028  -2.631  1.00  0.00     0.160 C 
ATOM      9  C   UNL     1      13.743  -8.788  -2.027  1.00  0.00     0.035 C 
ENDBRANCH   7   8
ENDBRANCH   1   7
BRANCH   2  10
ATOM     10  O   UNL     1      12.961  -5.350  -2.583  1.00  0.00    -0.385 OA
ATOM     11  H   UNL     1      12.718  -4.755  -3.339  1.00  0.00     0.211 HD
ENDBRANCH   2  10
BRANCH   3  12
ATOM     12  O   UNL     1      10.710  -3.614  -2.716  1.00  0.00    -0.387 OA
ATOM     13  H   UNL     1      11.304  -3.455  -3.496  1.00  0.00     0.211 HD
ENDBRANCH   3  12
BRANCH   5  14
ATOM     14  C   UNL     1       8.742  -7.682  -2.753  1.00  0.00     0.191 C 
BRANCH  14  15
ATOM     15  O   UNL     1       8.865  -9.057  -2.508  1.00  0.00    -0.394 OA
ATOM     16  H   UNL     1       9.827  -9.237  -2.355  1.00  0.00     0.210 HD
ENDBRANCH  14  15
ENDBRANCH   5  14
BRANCH   4  17
ATOM     17  O   UNL     1       9.281  -4.666  -0.578  1.00  0.00    -0.387 OA
ATOM     18  H   UNL     1       8.846  -5.266   0.083  1.00  0.00     0.211 HD
ENDBRANCH   4  17
TORSDOF 7
ENDMDL
MODEL 6
REMARK VINA RESULT:    -2.712      1.342      3.377
REMARK INTER + INTRA:          -3.986
REMARK INTER:                  -3.788
REMARK INTRA:                  -0.198
REMARK UNBOUND:                -0.481
REMARK SMILES CCO[C@@H]1O[C@H](CO)[C@@H](O)[C@@H](O)[C@@H]1O
REMARK SMILES IDX 4 1 13 2 11 3 9 4 6 5 5 6 3 7 2 8 1 9 14 10 12 12 7 14 8 15
REMARK SMILES IDX 10 17
REMARK H PARENT 14 11 12 13 8 16 10 18
REMARK Flexibility Score: inf
ROOT
ATOM      1  C   UNL     1       7.681  -6.094  -2.571  1.00  0.00     0.281 C 
ATOM      2  C   UNL     1       7.564  -4.598  -2.232  1.00  0.00     0.202 C 
ATOM      3  C   UNL     1       8.708  -4.170  -1.308  1.00  0.00     0.179 C 
ATOM      4  C   UNL     1      10.047  -4.537  -1.963  1.00  0.00     0.177 C 
ATOM      5  C   UNL     1      10.075  -6.034  -2.349  1.00  0.00     0.178 C 
ATOM      6  O   UNL     1       8.948  -6.443  -3.124  1.00  0.00    -0.341 OA
ENDROOT
BRANCH   1   7
ATOM      7  O   UNL     1       7.387  -6.880  -1.428  1.00  0.00    -0.350 OA
BRANCH   7   8
ATOM      8  C   UNL     1       6.917  -8.156  -1.809  1.00  0.00     0.160 C 
ATOM      9  C   UNL     1       6.938  -9.078  -0.600  1.00  0.00     0.035 C 
ENDBRANCH   7   8
ENDBRANCH   1   7
BRANCH   2  10
ATOM     10  O   UNL     1       6.326  -4.357  -1.613  1.00  0.00    -0.385 OA
ATOM     11  H   UNL     1       6.278  -4.951  -0.819  1.00  0.00     0.211 HD
ENDBRANCH   2  10
BRANCH   3  12
ATOM     12  O   UNL     1       8.638  -2.786  -1.082  1.00  0.00    -0.387 OA
ATOM     13  H   UNL     1       8.021  -2.652  -0.315  1.00  0.00     0.211 HD
ENDBRANCH   3  12
BRANCH   5  14
ATOM     14  C   UNL     1      10.359  -6.964  -1.152  1.00  0.00     0.191 C 
BRANCH  14  15
ATOM     15  O   UNL     1      11.026  -6.267  -0.135  1.00  0.00    -0.394 OA
ATOM     16  H   UNL     1      11.912  -6.010  -0.496  1.00  0.00     0.210 HD
ENDBRANCH  14  15
ENDBRANCH   5  14
BRANCH   4  17
ATOM     17  O   UNL     1      10.252  -3.766  -3.121  1.00  0.00    -0.387 OA
ATOM     18  H   UNL     1       9.394  -3.759  -3.622  1.00  0.00     0.211 HD
ENDBRANCH   4  17
TORSDOF 7
ENDMDL
MODEL 7
REMARK VINA RESULT:    -2.706      1.822      3.945
REMARK INTER + INTRA:          -3.978
REMARK INTER:                  -3.525
REMARK INTRA:                  -0.453
REMARK UNBOUND:                -0.481
REMARK SMILES CCO[C@@H]1O[C@H](CO)[C@@H](O)[C@@H](O)[C@@H]1O
REMARK SMILES IDX 4 1 13 2 11 3 9 4 6 5 5 6 3 7 2 8 1 9 14 10 12 12 7 14 8 15
REMARK SMILES IDX 10 17
REMARK H PARENT 14 11 12 13 8 16 10 18
REMARK Flexibility Score: inf
ROOT
ATOM      1  C   UNL     1       9.585  -5.396  -3.125  1.00  0.00     0.281 C 
ATOM      2  C   UNL     1       9.157  -6.859  -2.922  1.00  0.00     0.202 C 
ATOM      3  C   UNL     1       8.325  -6.998  -1.644  1.00  0.00     0.179 C 
ATOM      4  C   UNL     1       7.139  -6.025  -1.707  1.00  0.00     0.177 C 
ATOM      5  C   UNL     1       7.627  -4.586  -1.988  1.00  0.00     0.178 C 
ATOM      6  O   UNL     1       8.487  -4.487  -3.124  1.00  0.00    -0.341 OA
ENDROOT
BRANCH   1   7
ATOM      7  O   UNL     1      10.554  -5.029  -2.155  1.00  0.00    -0.350 OA
BRANCH   7   8
ATOM      8  C   UNL     1      11.702  -4.491  -2.777  1.00  0.00     0.160 C 
ATOM      9  C   UNL     1      12.914  -5.323  -2.393  1.00  0.00     0.035 C 
ENDBRANCH   7   8
ENDBRANCH   1   7
BRANCH   2  10
ATOM     10  O   UNL     1      10.300  -7.672  -2.846  1.00  0.00    -0.385 OA
ATOM     11  H   UNL     1       9.992  -8.612  -2.914  1.00  0.00     0.211 HD
ENDBRANCH   2  10
BRANCH   3  12
ATOM     12  O   UNL     1       7.866  -8.320  -1.521  1.00  0.00    -0.387 OA
ATOM     13  H   UNL     1       7.361  -8.525  -2.351  1.00  0.00     0.211 HD
ENDBRANCH   3  12
BRANCH   5  14
ATOM     14  C   UNL     1       8.190  -3.881  -0.737  1.00  0.00     0.191 C 
BRANCH  14  15
ATOM     15  O   UNL     1       8.866  -2.706  -1.097  1.00  0.00    -0.394 OA
ATOM     16  H   UNL     1       9.029  -2.201  -0.260  1.00  0.00     0.210 HD
ENDBRANCH  14  15
ENDBRANCH   5  14
BRANCH   4  17
ATOM     17  O   UNL     1       6.247  -6.409  -2.725  1.00  0.00    -0.387 OA
ATOM     18  H   UNL     1       5.383  -6.628  -2.288  1.00  0.00     0.211 HD
ENDBRANCH   4  17
TORSDOF 7
ENDMDL
MODEL 8
REMARK VINA RESULT:    -2.661      2.616      5.286
REMARK INTER + INTRA:          -3.920
REMARK INTER:                  -3.453
REMARK INTRA:                  -0.467
REMARK UNBOUND:                -0.481
REMARK SMILES CCO[C@@H]1O[C@H](CO)[C@@H](O)[C@@H](O)[C@@H]1O
REMARK SMILES IDX 4 1 13 2 11 3 9 4 6 5 5 6 3 7 2 8 1 9 14 10 12 12 7 14 8 15
REMARK SMILES IDX 10 17
REMARK H PARENT 14 11 12 13 8 16 10 18
REMARK Flexibility Score: inf
ROOT
ATOM      1  C   UNL     1      11.062  -6.105  -1.261  1.00  0.00     0.281 C 
ATOM      2  C   UNL     1       9.715  -5.439  -1.588  1.00  0.00     0.202 C 
ATOM      3  C   UNL     1       8.968  -6.242  -2.657  1.00  0.00     0.179 C 
ATOM      4  C   UNL     1       8.823  -7.696  -2.184  1.00  0.00     0.177 C 
ATOM      5  C   UNL     1      10.199  -8.285  -1.799  1.00  0.00     0.178 C 
ATOM      6  O   UNL     1      10.930  -7.473  -0.880  1.00  0.00    -0.341 OA
ENDROOT
BRANCH   1   7
ATOM      7  O   UNL     1      11.957  -5.962  -2.352  1.00  0.00    -0.350 OA
BRANCH   7   8
ATOM      8  C   UNL     1      13.206  -5.474  -1.909  1.00  0.00     0.160 C 
ATOM      9  C   UNL     1      13.566  -4.229  -2.703  1.00  0.00     0.035 C 
ENDBRANCH   7   8
ENDBRANCH   1   7
BRANCH   2  10
ATOM     10  O   UNL     1       9.942  -4.128  -2.038  1.00  0.00    -0.385 OA
ATOM     11  H   UNL     1       9.687  -3.518  -1.298  1.00  0.00     0.211 HD
ENDBRANCH   2  10
BRANCH   3  12
ATOM     12  O   UNL     1       7.704  -5.672  -2.878  1.00  0.00    -0.387 OA
ATOM     13  H   UNL     1       7.839  -4.689  -2.934  1.00  0.00     0.211 HD
ENDBRANCH   3  12
BRANCH   5  14
ATOM     14  C   UNL     1      11.035  -8.722  -3.019  1.00  0.00     0.191 C 
BRANCH  14  15
ATOM     15  O   UNL     1      12.367  -8.950  -2.647  1.00  0.00    -0.394 OA
ATOM     16  H   UNL     1      12.923  -8.314  -3.164  1.00  0.00     0.210 HD
ENDBRANCH  14  15
ENDBRANCH   5  14
BRANCH   4  17
ATOM     17  O   UNL     1       7.972  -7.762  -1.067  1.00  0.00    -0.387 OA
ATOM     18  H   UNL     1       8.506  -8.126  -0.314  1.00  0.00     0.211 HD
ENDBRANCH   4  17
TORSDOF 7
ENDMDL
