MODEL 1
REMARK VINA RESULT:    -3.914      0.000      0.000
REMARK INTER + INTRA:          -5.538
REMARK INTER:                  -5.286
REMARK INTRA:                  -0.252
REMARK UNBOUND:                -0.252
REMARK SMILES CCCCCCCC(=O)[O-]
REMARK SMILES IDX 5 1 6 2 7 3 8 4 9 5 10 6 4 7 3 8 2 9 1 10
REMARK H PARENT
REMARK Flexibility Score: inf
ROOT
ATOM      1  C   UNL     1      28.420  40.594  44.272  1.00  0.00     0.000 C 
ENDROOT
BRANCH   1   2
ATOM      2  C   UNL     1      28.050  41.452  45.496  1.00  0.00     0.006 C 
BRANCH   2   3
ATOM      3  C   UNL     1      27.642  42.895  45.156  1.00  0.00     0.053 C 
BRANCH   3   4
ATOM      4  C   UNL     1      26.641  43.438  46.130  1.00  0.00     0.041 C 
ATOM      5  O   UNL     1      25.500  43.792  45.735  1.00  0.00    -0.550 OA
ATOM      6  O   UNL     1      26.981  43.581  47.469  1.00  0.00    -0.550 OA
ENDBRANCH   3   4
ENDBRANCH   2   3
ENDBRANCH   1   2
BRANCH   1   7
ATOM      7  C   UNL     1      29.780  39.897  44.422  1.00  0.00     0.000 C 
BRANCH   7   8
ATOM      8  C   UNL     1      29.780  38.951  45.633  1.00  0.00    -0.000 C 
BRANCH   8   9
ATOM      9  C   UNL     1      28.822  37.763  45.454  1.00  0.00    -0.003 C 
ATOM     10  C   UNL     1      29.227  36.845  44.301  1.00  0.00     0.004 C 
ENDBRANCH   8   9
ENDBRANCH   7   8
ENDBRANCH   1   7
TORSDOF 6
ENDMDL
MODEL 2
REMARK VINA RESULT:    -3.896      3.013      5.494
REMARK INTER + INTRA:          -5.514
REMARK INTER:                  -5.208
REMARK INTRA:                  -0.306
REMARK UNBOUND:                -0.252
REMARK SMILES CCCCCCCC(=O)[O-]
REMARK SMILES IDX 5 1 6 2 7 3 8 4 9 5 10 6 4 7 3 8 2 9 1 10
REMARK H PARENT
REMARK Flexibility Score: inf
ROOT
ATOM      1  C   UNL     1      27.435  40.866  45.365  1.00  0.00     0.000 C 
ENDROOT
BRANCH   1   2
ATOM      2  C   UNL     1      28.353  40.546  44.171  1.00  0.00     0.006 C 
BRANCH   2   3
ATOM      3  C   UNL     1      29.680  39.872  44.555  1.00  0.00     0.053 C 
BRANCH   3   4
ATOM      4  C   UNL     1      29.464  38.555  45.235  1.00  0.00     0.041 C 
ATOM      5  O   UNL     1      29.720  38.424  46.460  1.00  0.00    -0.550 OA
ATOM      6  O   UNL     1      29.008  37.464  44.506  1.00  0.00    -0.550 OA
ENDBRANCH   3   4
ENDBRANCH   2   3
ENDBRANCH   1   2
BRANCH   1   7
ATOM      7  C   UNL     1      27.780  42.202  46.039  1.00  0.00     0.000 C 
BRANCH   7   8
ATOM      8  C   UNL     1      27.278  43.386  45.197  1.00  0.00    -0.000 C 
BRANCH   8   9
ATOM      9  C   UNL     1      26.073  44.095  45.833  1.00  0.00    -0.003 C 
ATOM     10  C   UNL     1      25.859  43.703  47.295  1.00  0.00     0.004 C 
ENDBRANCH   8   9
ENDBRANCH   7   8
ENDBRANCH   1   7
TORSDOF 6
ENDMDL
MODEL 3
REMARK VINA RESULT:    -3.886     11.794     12.965
REMARK INTER + INTRA:          -5.501
REMARK INTER:                  -5.100
REMARK INTRA:                  -0.401
REMARK UNBOUND:                -0.252
REMARK SMILES CCCCCCCC(=O)[O-]
REMARK SMILES IDX 5 1 6 2 7 3 8 4 9 5 10 6 4 7 3 8 2 9 1 10
REMARK H PARENT
REMARK Flexibility Score: inf
ROOT
ATOM      1  C   UNL     1      19.704  31.401  44.097  1.00  0.00     0.000 C 
ENDROOT
BRANCH   1   2
ATOM      2  C   UNL     1      19.209  32.842  43.875  1.00  0.00     0.006 C 
BRANCH   2   3
ATOM      3  C   UNL     1      18.162  33.315  44.897  1.00  0.00     0.053 C 
BRANCH   3   4
ATOM      4  C   UNL     1      18.788  34.066  46.032  1.00  0.00     0.041 C 
ATOM      5  O   UNL     1      18.524  33.752  47.222  1.00  0.00    -0.550 OA
ATOM      6  O   UNL     1      19.638  35.134  45.774  1.00  0.00    -0.550 OA
ENDBRANCH   3   4
ENDBRANCH   2   3
ENDBRANCH   1   2
BRANCH   1   7
ATOM      7  C   UNL     1      18.603  30.352  43.877  1.00  0.00     0.000 C 
BRANCH   7   8
ATOM      8  C   UNL     1      18.503  29.402  45.080  1.00  0.00    -0.000 C 
BRANCH   8   9
ATOM      9  C   UNL     1      18.559  30.144  46.425  1.00  0.00    -0.003 C 
ATOM     10  C   UNL     1      19.604  29.564  47.377  1.00  0.00     0.004 C 
ENDBRANCH   8   9
ENDBRANCH   7   8
ENDBRANCH   1   7
TORSDOF 6
ENDMDL
MODEL 4
REMARK VINA RESULT:    -3.870     11.748     13.070
REMARK INTER + INTRA:          -5.480
REMARK INTER:                  -5.053
REMARK INTRA:                  -0.426
REMARK UNBOUND:                -0.252
REMARK SMILES CCCCCCCC(=O)[O-]
REMARK SMILES IDX 5 1 6 2 7 3 8 4 9 5 10 6 4 7 3 8 2 9 1 10
REMARK H PARENT
REMARK Flexibility Score: inf
ROOT
ATOM      1  C   UNL     1      20.818  32.359  44.104  1.00  0.00     0.000 C 
ENDROOT
BRANCH   1   2
ATOM      2  C   UNL     1      19.393  31.822  43.876  1.00  0.00     0.006 C 
BRANCH   2   3
ATOM      3  C   UNL     1      18.646  31.440  45.164  1.00  0.00     0.053 C 
BRANCH   3   4
ATOM      4  C   UNL     1      18.773  29.980  45.473  1.00  0.00     0.041 C 
ATOM      5  O   UNL     1      18.308  29.121  44.679  1.00  0.00    -0.550 OA
ATOM      6  O   UNL     1      19.378  29.569  46.654  1.00  0.00    -0.550 OA
ENDBRANCH   3   4
ENDBRANCH   2   3
ENDBRANCH   1   2
BRANCH   1   7
ATOM      7  C   UNL     1      20.895  33.370  45.258  1.00  0.00     0.000 C 
BRANCH   7   8
ATOM      8  C   UNL     1      20.221  34.695  44.872  1.00  0.00    -0.000 C 
BRANCH   8   9
ATOM      9  C   UNL     1      19.321  35.247  45.987  1.00  0.00    -0.003 C 
ATOM     10  C   UNL     1      19.705  34.725  47.371  1.00  0.00     0.004 C 
ENDBRANCH   8   9
ENDBRANCH   7   8
ENDBRANCH   1   7
TORSDOF 6
ENDMDL
MODEL 5
REMARK VINA RESULT:    -3.799      1.322      1.885
REMARK INTER + INTRA:          -5.384
REMARK INTER:                  -5.027
REMARK INTRA:                  -0.357
REMARK UNBOUND:                -0.252
REMARK SMILES CCCCCCCC(=O)[O-]
REMARK SMILES IDX 5 1 6 2 7 3 8 4 9 5 10 6 4 7 3 8 2 9 1 10
REMARK H PARENT
REMARK Flexibility Score: inf
ROOT
ATOM      1  C   UNL     1      27.902  40.896  45.008  1.00  0.00     0.000 C 
ENDROOT
BRANCH   1   2
ATOM      2  C   UNL     1      27.779  42.431  45.048  1.00  0.00     0.006 C 
BRANCH   2   3
ATOM      3  C   UNL     1      27.708  43.023  46.465  1.00  0.00     0.053 C 
BRANCH   3   4
ATOM      4  C   UNL     1      26.354  43.588  46.768  1.00  0.00     0.041 C 
ATOM      5  O   UNL     1      25.560  43.870  45.833  1.00  0.00    -0.550 OA
ATOM      6  O   UNL     1      25.982  43.831  48.085  1.00  0.00    -0.550 OA
ENDBRANCH   3   4
ENDBRANCH   2   3
ENDBRANCH   1   2
BRANCH   1   7
ATOM      7  C   UNL     1      29.009  40.412  44.061  1.00  0.00     0.000 C 
BRANCH   7   8
ATOM      8  C   UNL     1      30.009  39.512  44.803  1.00  0.00    -0.000 C 
BRANCH   8   9
ATOM      9  C   UNL     1      30.722  40.242  45.952  1.00  0.00    -0.003 C 
ATOM     10  C   UNL     1      30.754  39.425  47.243  1.00  0.00     0.004 C 
ENDBRANCH   8   9
ENDBRANCH   7   8
ENDBRANCH   1   7
TORSDOF 6
ENDMDL
MODEL 6
REMARK VINA RESULT:    -3.774      1.542      1.929
REMARK INTER + INTRA:          -5.350
REMARK INTER:                  -4.886
REMARK INTRA:                  -0.463
REMARK UNBOUND:                -0.252
REMARK SMILES CCCCCCCC(=O)[O-]
REMARK SMILES IDX 5 1 6 2 7 3 8 4 9 5 10 6 4 7 3 8 2 9 1 10
REMARK H PARENT
REMARK Flexibility Score: inf
ROOT
ATOM      1  C   UNL     1      29.815  40.349  46.884  1.00  0.00     0.000 C 
ENDROOT
BRANCH   1   2
ATOM      2  C   UNL     1      29.207  41.764  46.875  1.00  0.00     0.006 C 
BRANCH   2   3
ATOM      3  C   UNL     1      27.693  41.800  46.610  1.00  0.00     0.053 C 
BRANCH   3   4
ATOM      4  C   UNL     1      27.347  42.702  45.465  1.00  0.00     0.041 C 
ATOM      5  O   UNL     1      26.514  43.633  45.621  1.00  0.00    -0.550 OA
ATOM      6  O   UNL     1      27.921  42.494  44.218  1.00  0.00    -0.550 OA
ENDBRANCH   3   4
ENDBRANCH   2   3
ENDBRANCH   1   2
BRANCH   1   7
ATOM      7  C   UNL     1      30.785  40.111  45.717  1.00  0.00     0.000 C 
BRANCH   7   8
ATOM      8  C   UNL     1      30.026  39.677  44.454  1.00  0.00    -0.000 C 
BRANCH   8   9
ATOM      9  C   UNL     1      28.821  38.777  44.768  1.00  0.00    -0.003 C 
ATOM     10  C   UNL     1      29.142  37.290  44.636  1.00  0.00     0.004 C 
ENDBRANCH   8   9
ENDBRANCH   7   8
ENDBRANCH   1   7
TORSDOF 6
ENDMDL
MODEL 7
REMARK VINA RESULT:    -3.720     11.548     12.602
REMARK INTER + INTRA:          -5.277
REMARK INTER:                  -5.145
REMARK INTRA:                  -0.132
REMARK UNBOUND:                -0.252
REMARK SMILES CCCCCCCC(=O)[O-]
REMARK SMILES IDX 5 1 6 2 7 3 8 4 9 5 10 6 4 7 3 8 2 9 1 10
REMARK H PARENT
REMARK Flexibility Score: inf
ROOT
ATOM      1  C   UNL     1      31.165  28.410  47.086  1.00  0.00     0.000 C 
ENDROOT
BRANCH   1   2
ATOM      2  C   UNL     1      32.438  28.993  46.446  1.00  0.00     0.006 C 
BRANCH   2   3
ATOM      3  C   UNL     1      33.515  29.422  47.456  1.00  0.00     0.053 C 
BRANCH   3   4
ATOM      4  C   UNL     1      34.016  30.808  47.186  1.00  0.00     0.041 C 
ATOM      5  O   UNL     1      34.415  31.534  48.133  1.00  0.00    -0.550 OA
ATOM      6  O   UNL     1      34.011  31.308  45.890  1.00  0.00    -0.550 OA
ENDBRANCH   3   4
ENDBRANCH   2   3
ENDBRANCH   1   2
BRANCH   1   7
ATOM      7  C   UNL     1      30.125  27.965  46.047  1.00  0.00     0.000 C 
BRANCH   7   8
ATOM      8  C   UNL     1      29.137  29.100  45.740  1.00  0.00    -0.000 C 
BRANCH   8   9
ATOM      9  C   UNL     1      28.187  28.760  44.582  1.00  0.00    -0.003 C 
ATOM     10  C   UNL     1      27.638  30.002  43.882  1.00  0.00     0.004 C 
ENDBRANCH   8   9
ENDBRANCH   7   8
ENDBRANCH   1   7
TORSDOF 6
ENDMDL
MODEL 8
REMARK VINA RESULT:    -3.682      3.206      5.451
REMARK INTER + INTRA:          -5.226
REMARK INTER:                  -4.988
REMARK INTRA:                  -0.238
REMARK UNBOUND:                -0.252
REMARK SMILES CCCCCCCC(=O)[O-]
REMARK SMILES IDX 5 1 6 2 7 3 8 4 9 5 10 6 4 7 3 8 2 9 1 10
REMARK H PARENT
REMARK Flexibility Score: inf
ROOT
ATOM      1  C   UNL     1      28.365  40.609  44.274  1.00  0.00     0.000 C 
ENDROOT
BRANCH   1   2
ATOM      2  C   UNL     1      29.694  39.976  44.728  1.00  0.00     0.006 C 
BRANCH   2   3
ATOM      3  C   UNL     1      29.554  38.976  45.887  1.00  0.00     0.053 C 
BRANCH   3   4
ATOM      4  C   UNL     1      28.906  37.699  45.450  1.00  0.00     0.041 C 
ATOM      5  O   UNL     1      29.216  37.175  44.348  1.00  0.00    -0.550 OA
ATOM      6  O   UNL     1      27.935  37.103  46.246  1.00  0.00    -0.550 OA
ENDBRANCH   3   4
ENDBRANCH   2   3
ENDBRANCH   1   2
BRANCH   1   7
ATOM      7  C   UNL     1      27.534  41.153  45.445  1.00  0.00     0.000 C 
BRANCH   7   8
ATOM      8  C   UNL     1      27.712  42.673  45.584  1.00  0.00    -0.000 C 
BRANCH   8   9
ATOM      9  C   UNL     1      26.378  43.409  45.776  1.00  0.00    -0.003 C 
ATOM     10  C   UNL     1      26.083  43.728  47.241  1.00  0.00     0.004 C 
ENDBRANCH   8   9
ENDBRANCH   7   8
ENDBRANCH   1   7
TORSDOF 6
ENDMDL
MODEL 9
REMARK VINA RESULT:    -3.613     11.999     13.402
REMARK INTER + INTRA:          -5.133
REMARK INTER:                  -4.724
REMARK INTRA:                  -0.408
REMARK UNBOUND:                -0.252
REMARK SMILES CCCCCCCC(=O)[O-]
REMARK SMILES IDX 5 1 6 2 7 3 8 4 9 5 10 6 4 7 3 8 2 9 1 10
REMARK H PARENT
REMARK Flexibility Score: inf
ROOT
ATOM      1  C   UNL     1      19.362  31.124  44.047  1.00  0.00     0.000 C 
ENDROOT
BRANCH   1   2
ATOM      2  C   UNL     1      18.631  30.016  44.826  1.00  0.00     0.006 C 
BRANCH   2   3
ATOM      3  C   UNL     1      18.279  30.389  46.276  1.00  0.00     0.053 C 
BRANCH   3   4
ATOM      4  C   UNL     1      19.476  30.337  47.174  1.00  0.00     0.041 C 
ATOM      5  O   UNL     1      19.878  29.236  47.632  1.00  0.00    -0.550 OA
ATOM      6  O   UNL     1      20.129  31.511  47.529  1.00  0.00    -0.550 OA
ENDBRANCH   3   4
ENDBRANCH   2   3
ENDBRANCH   1   2
BRANCH   1   7
ATOM      7  C   UNL     1      18.750  32.515  44.274  1.00  0.00     0.000 C 
BRANCH   7   8
ATOM      8  C   UNL     1      19.741  33.620  43.878  1.00  0.00    -0.000 C 
BRANCH   8   9
ATOM      9  C   UNL     1      20.406  34.282  45.094  1.00  0.00    -0.003 C 
ATOM     10  C   UNL     1      19.394  34.900  46.058  1.00  0.00     0.004 C 
ENDBRANCH   8   9
ENDBRANCH   7   8
ENDBRANCH   1   7
TORSDOF 6
ENDMDL
