MODEL 1
REMARK VINA RESULT:    -3.997      0.000      0.000
REMARK INTER + INTRA:          -6.410
REMARK INTER:                  -5.867
REMARK INTRA:                  -0.544
REMARK UNBOUND:                -0.544
REMARK SMILES O=C([O-])CCCCCCCC(=O)[O-]
REMARK SMILES IDX 7 1 6 2 5 3 4 4 2 5 1 6 3 7 8 8 9 9 10 10 11 11 12 12 13 13
REMARK H PARENT
REMARK Flexibility Score: inf
ROOT
ATOM      1  C   UNL     1       4.065  27.564  57.188  1.00  0.00     0.000 C 
ENDROOT
BRANCH   1   2
ATOM      2  C   UNL     1       4.826  28.879  56.942  1.00  0.00     0.000 C 
BRANCH   2   3
ATOM      3  C   UNL     1       5.097  29.134  55.450  1.00  0.00     0.006 C 
BRANCH   3   4
ATOM      4  C   UNL     1       4.201  28.292  54.533  1.00  0.00     0.053 C 
BRANCH   4   5
ATOM      5  C   UNL     1       4.191  28.862  53.150  1.00  0.00     0.041 C 
ATOM      6  O   UNL     1       4.569  28.163  52.174  1.00  0.00    -0.550 OA
ATOM      7  O   UNL     1       3.809  30.182  52.944  1.00  0.00    -0.550 OA
ENDBRANCH   4   5
ENDBRANCH   3   4
ENDBRANCH   2   3
ENDBRANCH   1   2
BRANCH   1   8
ATOM      8  C   UNL     1       2.767  27.774  57.984  1.00  0.00     0.000 C 
BRANCH   8   9
ATOM      9  C   UNL     1       1.916  28.932  57.439  1.00  0.00     0.006 C 
BRANCH   9  10
ATOM     10  C   UNL     1       0.951  28.442  56.356  1.00  0.00     0.053 C 
BRANCH  10  11
ATOM     11  C   UNL     1      -0.145  29.436  56.139  1.00  0.00     0.041 C 
ATOM     12  O   UNL     1      -0.941  29.715  57.073  1.00  0.00    -0.550 OA
ATOM     13  O   UNL     1      -0.318  30.018  54.889  1.00  0.00    -0.550 OA
ENDBRANCH  10  11
ENDBRANCH   9  10
ENDBRANCH   8   9
ENDBRANCH   1   8
TORSDOF 8
ENDMDL
MODEL 2
REMARK VINA RESULT:    -3.834      1.533      4.474
REMARK INTER + INTRA:          -6.170
REMARK INTER:                  -5.565
REMARK INTRA:                  -0.605
REMARK UNBOUND:                -0.544
REMARK SMILES O=C([O-])CCCCCCCC(=O)[O-]
REMARK SMILES IDX 7 1 6 2 5 3 4 4 2 5 1 6 3 7 8 8 9 9 10 10 11 11 12 12 13 13
REMARK H PARENT
REMARK Flexibility Score: inf
ROOT
ATOM      1  C   UNL     1       4.172  27.747  56.152  1.00  0.00     0.000 C 
ENDROOT
BRANCH   1   2
ATOM      2  C   UNL     1       3.480  28.322  57.401  1.00  0.00     0.000 C 
BRANCH   2   3
ATOM      3  C   UNL     1       1.967  28.047  57.416  1.00  0.00     0.006 C 
BRANCH   3   4
ATOM      4  C   UNL     1       1.142  29.240  56.919  1.00  0.00     0.053 C 
BRANCH   4   5
ATOM      5  C   UNL     1       0.554  28.943  55.576  1.00  0.00     0.041 C 
ATOM      6  O   UNL     1       0.704  27.808  55.055  1.00  0.00    -0.550 OA
ATOM      7  O   UNL     1      -0.122  29.937  54.878  1.00  0.00    -0.550 OA
ENDBRANCH   4   5
ENDBRANCH   3   4
ENDBRANCH   2   3
ENDBRANCH   1   2
BRANCH   1   8
ATOM      8  C   UNL     1       4.626  28.842  55.173  1.00  0.00     0.000 C 
BRANCH   8   9
ATOM      9  C   UNL     1       3.895  28.774  53.824  1.00  0.00     0.006 C 
BRANCH   9  10
ATOM     10  C   UNL     1       4.623  29.605  52.763  1.00  0.00     0.053 C 
BRANCH  10  11
ATOM     11  C   UNL     1       4.172  31.031  52.814  1.00  0.00     0.041 C 
ATOM     12  O   UNL     1       5.008  31.964  52.688  1.00  0.00    -0.550 OA
ATOM     13  O   UNL     1       2.836  31.329  53.050  1.00  0.00    -0.550 OA
ENDBRANCH  10  11
ENDBRANCH   9  10
ENDBRANCH   8   9
ENDBRANCH   1   8
TORSDOF 8
ENDMDL
MODEL 3
REMARK VINA RESULT:    -3.766      1.135      1.769
REMARK INTER + INTRA:          -6.070
REMARK INTER:                  -5.600
REMARK INTRA:                  -0.471
REMARK UNBOUND:                -0.544
REMARK SMILES O=C([O-])CCCCCCCC(=O)[O-]
REMARK SMILES IDX 7 1 6 2 5 3 4 4 2 5 1 6 3 7 8 8 9 9 10 10 11 11 12 12 13 13
REMARK H PARENT
REMARK Flexibility Score: inf
ROOT
ATOM      1  C   UNL     1       3.827  28.100  55.781  1.00  0.00     0.000 C 
ENDROOT
BRANCH   1   2
ATOM      2  C   UNL     1       4.995  29.055  55.474  1.00  0.00     0.000 C 
BRANCH   2   3
ATOM      3  C   UNL     1       5.010  29.516  54.007  1.00  0.00     0.006 C 
BRANCH   3   4
ATOM      4  C   UNL     1       4.220  28.580  53.084  1.00  0.00     0.053 C 
BRANCH   4   5
ATOM      5  C   UNL     1       4.901  28.462  51.757  1.00  0.00     0.041 C 
ATOM      6  O   UNL     1       5.616  29.403  51.325  1.00  0.00    -0.550 OA
ATOM      7  O   UNL     1       4.707  27.330  50.974  1.00  0.00    -0.550 OA
ENDBRANCH   4   5
ENDBRANCH   3   4
ENDBRANCH   2   3
ENDBRANCH   1   2
BRANCH   1   8
ATOM      8  C   UNL     1       3.231  28.328  57.179  1.00  0.00     0.000 C 
BRANCH   8   9
ATOM      9  C   UNL     1       1.705  28.501  57.155  1.00  0.00     0.006 C 
BRANCH   9  10
ATOM     10  C   UNL     1       1.176  28.498  55.717  1.00  0.00     0.053 C 
BRANCH  10  11
ATOM     11  C   UNL     1      -0.113  29.252  55.630  1.00  0.00     0.041 C 
ATOM     12  O   UNL     1      -0.585  29.572  54.508  1.00  0.00    -0.550 OA
ATOM     13  O   UNL     1      -0.767  29.646  56.790  1.00  0.00    -0.550 OA
ENDBRANCH  10  11
ENDBRANCH   9  10
ENDBRANCH   8   9
ENDBRANCH   1   8
TORSDOF 8
ENDMDL
MODEL 4
REMARK VINA RESULT:    -3.574      2.731      4.761
REMARK INTER + INTRA:          -5.790
REMARK INTER:                  -5.284
REMARK INTRA:                  -0.506
REMARK UNBOUND:                -0.544
REMARK SMILES O=C([O-])CCCCCCCC(=O)[O-]
REMARK SMILES IDX 7 1 6 2 5 3 4 4 2 5 1 6 3 7 8 8 9 9 10 10 11 11 12 12 13 13
REMARK H PARENT
REMARK Flexibility Score: inf
ROOT
ATOM      1  C   UNL     1       1.253  28.633  56.494  1.00  0.00     0.000 C 
ENDROOT
BRANCH   1   2
ATOM      2  C   UNL     1       2.449  28.844  57.439  1.00  0.00     0.000 C 
BRANCH   2   3
ATOM      3  C   UNL     1       3.163  27.528  57.789  1.00  0.00     0.006 C 
BRANCH   3   4
ATOM      4  C   UNL     1       4.529  27.395  57.104  1.00  0.00     0.053 C 
BRANCH   4   5
ATOM      5  C   UNL     1       5.604  27.973  57.968  1.00  0.00     0.041 C 
ATOM      6  O   UNL     1       6.010  27.345  58.980  1.00  0.00    -0.550 OA
ATOM      7  O   UNL     1       6.125  29.230  57.683  1.00  0.00    -0.550 OA
ENDBRANCH   4   5
ENDBRANCH   3   4
ENDBRANCH   2   3
ENDBRANCH   1   2
BRANCH   1   8
ATOM      8  C   UNL     1       1.682  28.154  55.098  1.00  0.00     0.000 C 
BRANCH   8   9
ATOM      9  C   UNL     1       2.434  29.233  54.304  1.00  0.00     0.006 C 
BRANCH   9  10
ATOM     10  C   UNL     1       3.744  28.683  53.734  1.00  0.00     0.053 C 
BRANCH  10  11
ATOM     11  C   UNL     1       4.444  29.726  52.922  1.00  0.00     0.041 C 
ATOM     12  O   UNL     1       4.018  30.027  51.776  1.00  0.00    -0.550 OA
ATOM     13  O   UNL     1       5.596  30.329  53.409  1.00  0.00    -0.550 OA
ENDBRANCH  10  11
ENDBRANCH   9  10
ENDBRANCH   8   9
ENDBRANCH   1   8
TORSDOF 8
ENDMDL
MODEL 5
REMARK VINA RESULT:    -3.526      2.142      3.416
REMARK INTER + INTRA:          -5.718
REMARK INTER:                  -5.410
REMARK INTRA:                  -0.308
REMARK UNBOUND:                -0.544
REMARK SMILES O=C([O-])CCCCCCCC(=O)[O-]
REMARK SMILES IDX 7 1 6 2 5 3 4 4 2 5 1 6 3 7 8 8 9 9 10 10 11 11 12 12 13 13
REMARK H PARENT
REMARK Flexibility Score: inf
ROOT
ATOM      1  C   UNL     1       3.498  28.968  53.641  1.00  0.00     0.000 C 
ENDROOT
BRANCH   1   2
ATOM      2  C   UNL     1       4.775  29.012  52.784  1.00  0.00     0.000 C 
BRANCH   2   3
ATOM      3  C   UNL     1       4.490  28.783  51.290  1.00  0.00     0.006 C 
BRANCH   3   4
ATOM      4  C   UNL     1       5.172  27.523  50.743  1.00  0.00     0.053 C 
BRANCH   4   5
ATOM      5  C   UNL     1       4.264  26.812  49.790  1.00  0.00     0.041 C 
ATOM      6  O   UNL     1       3.566  27.466  48.972  1.00  0.00    -0.550 OA
ATOM      7  O   UNL     1       4.152  25.427  49.837  1.00  0.00    -0.550 OA
ENDBRANCH   4   5
ENDBRANCH   3   4
ENDBRANCH   2   3
ENDBRANCH   1   2
BRANCH   1   8
ATOM      8  C   UNL     1       3.696  28.193  54.954  1.00  0.00     0.000 C 
BRANCH   8   9
ATOM      9  C   UNL     1       2.523  28.367  55.930  1.00  0.00     0.006 C 
BRANCH   9  10
ATOM     10  C   UNL     1       1.181  28.182  55.214  1.00  0.00     0.053 C 
BRANCH  10  11
ATOM     11  C   UNL     1       0.271  29.334  55.498  1.00  0.00     0.041 C 
ATOM     12  O   UNL     1       0.154  30.270  54.663  1.00  0.00    -0.550 OA
ATOM     13  O   UNL     1      -0.410  29.400  56.707  1.00  0.00    -0.550 OA
ENDBRANCH  10  11
ENDBRANCH   9  10
ENDBRANCH   8   9
ENDBRANCH   1   8
TORSDOF 8
ENDMDL
MODEL 6
REMARK VINA RESULT:    -3.491      2.667      6.207
REMARK INTER + INTRA:          -5.667
REMARK INTER:                  -5.273
REMARK INTRA:                  -0.394
REMARK UNBOUND:                -0.544
REMARK SMILES O=C([O-])CCCCCCCC(=O)[O-]
REMARK SMILES IDX 7 1 6 2 5 3 4 4 2 5 1 6 3 7 8 8 9 9 10 10 11 11 12 12 13 13
REMARK H PARENT
REMARK Flexibility Score: inf
ROOT
ATOM      1  C   UNL     1       4.265  29.615  53.255  1.00  0.00     0.000 C 
ENDROOT
BRANCH   1   2
ATOM      2  C   UNL     1       4.761  29.167  54.641  1.00  0.00     0.000 C 
BRANCH   2   3
ATOM      3  C   UNL     1       3.904  28.037  55.237  1.00  0.00     0.006 C 
BRANCH   3   4
ATOM      4  C   UNL     1       2.405  28.230  54.978  1.00  0.00     0.053 C 
BRANCH   4   5
ATOM      5  C   UNL     1       1.682  28.473  56.265  1.00  0.00     0.041 C 
ATOM      6  O   UNL     1       0.424  28.504  56.288  1.00  0.00    -0.550 OA
ATOM      7  O   UNL     1       2.398  28.713  57.431  1.00  0.00    -0.550 OA
ENDBRANCH   4   5
ENDBRANCH   3   4
ENDBRANCH   2   3
ENDBRANCH   1   2
BRANCH   1   8
ATOM      8  C   UNL     1       5.142  29.075  52.113  1.00  0.00     0.000 C 
BRANCH   8   9
ATOM      9  C   UNL     1       4.594  27.775  51.506  1.00  0.00     0.006 C 
BRANCH   9  10
ATOM     10  C   UNL     1       5.327  27.424  50.208  1.00  0.00     0.053 C 
BRANCH  10  11
ATOM     11  C   UNL     1       4.562  26.399  49.433  1.00  0.00     0.041 C 
ATOM     12  O   UNL     1       4.262  25.297  49.964  1.00  0.00    -0.550 OA
ATOM     13  O   UNL     1       4.223  26.640  48.108  1.00  0.00    -0.550 OA
ENDBRANCH  10  11
ENDBRANCH   9  10
ENDBRANCH   8   9
ENDBRANCH   1   8
TORSDOF 8
ENDMDL
MODEL 7
REMARK VINA RESULT:    -3.429      2.556      3.793
REMARK INTER + INTRA:          -5.576
REMARK INTER:                  -5.266
REMARK INTRA:                  -0.310
REMARK UNBOUND:                -0.544
REMARK SMILES O=C([O-])CCCCCCCC(=O)[O-]
REMARK SMILES IDX 7 1 6 2 5 3 4 4 2 5 1 6 3 7 8 8 9 9 10 10 11 11 12 12 13 13
REMARK H PARENT
REMARK Flexibility Score: inf
ROOT
ATOM      1  C   UNL     1       4.847  29.541  53.674  1.00  0.00     0.000 C 
ENDROOT
BRANCH   1   2
ATOM      2  C   UNL     1       5.484  29.227  52.308  1.00  0.00     0.000 C 
BRANCH   2   3
ATOM      3  C   UNL     1       4.671  28.203  51.499  1.00  0.00     0.006 C 
BRANCH   3   4
ATOM      4  C   UNL     1       5.506  27.501  50.422  1.00  0.00     0.053 C 
BRANCH   4   5
ATOM      5  C   UNL     1       4.636  26.626  49.576  1.00  0.00     0.041 C 
ATOM      6  O   UNL     1       4.205  25.533  50.029  1.00  0.00    -0.550 OA
ATOM      7  O   UNL     1       4.339  26.994  48.269  1.00  0.00    -0.550 OA
ENDBRANCH   4   5
ENDBRANCH   3   4
ENDBRANCH   2   3
ENDBRANCH   1   2
BRANCH   1   8
ATOM      8  C   UNL     1       3.777  28.512  54.075  1.00  0.00     0.000 C 
BRANCH   8   9
ATOM      9  C   UNL     1       2.447  29.165  54.479  1.00  0.00     0.006 C 
BRANCH   9  10
ATOM     10  C   UNL     1       1.544  28.165  55.207  1.00  0.00     0.053 C 
BRANCH  10  11
ATOM     11  C   UNL     1       1.375  28.555  56.640  1.00  0.00     0.041 C 
ATOM     12  O   UNL     1       2.383  28.697  57.381  1.00  0.00    -0.550 OA
ATOM     13  O   UNL     1       0.101  28.712  57.172  1.00  0.00    -0.550 OA
ENDBRANCH  10  11
ENDBRANCH   9  10
ENDBRANCH   8   9
ENDBRANCH   1   8
TORSDOF 8
ENDMDL
MODEL 8
REMARK VINA RESULT:    -3.355      1.523      2.530
REMARK INTER + INTRA:          -5.468
REMARK INTER:                  -4.972
REMARK INTRA:                  -0.496
REMARK UNBOUND:                -0.544
REMARK SMILES O=C([O-])CCCCCCCC(=O)[O-]
REMARK SMILES IDX 7 1 6 2 5 3 4 4 2 5 1 6 3 7 8 8 9 9 10 10 11 11 12 12 13 13
REMARK H PARENT
REMARK Flexibility Score: inf
ROOT
ATOM      1  C   UNL     1       5.748  29.141  55.687  1.00  0.00     0.000 C 
ENDROOT
BRANCH   1   2
ATOM      2  C   UNL     1       4.872  29.758  54.583  1.00  0.00     0.000 C 
BRANCH   2   3
ATOM      3  C   UNL     1       4.657  28.802  53.398  1.00  0.00     0.006 C 
BRANCH   3   4
ATOM      4  C   UNL     1       4.137  29.519  52.145  1.00  0.00     0.053 C 
BRANCH   4   5
ATOM      5  C   UNL     1       4.388  28.688  50.927  1.00  0.00     0.041 C 
ATOM      6  O   UNL     1       4.003  29.087  49.797  1.00  0.00    -0.550 OA
ATOM      7  O   UNL     1       5.006  27.448  51.046  1.00  0.00    -0.550 OA
ENDBRANCH   4   5
ENDBRANCH   3   4
ENDBRANCH   2   3
ENDBRANCH   1   2
BRANCH   1   8
ATOM      8  C   UNL     1       4.981  28.938  57.004  1.00  0.00     0.000 C 
BRANCH   8   9
ATOM      9  C   UNL     1       3.993  27.763  56.942  1.00  0.00     0.006 C 
BRANCH   9  10
ATOM     10  C   UNL     1       2.647  28.145  57.566  1.00  0.00     0.053 C 
BRANCH  10  11
ATOM     11  C   UNL     1       1.682  28.578  56.508  1.00  0.00     0.041 C 
ATOM     12  O   UNL     1       0.762  29.391  56.785  1.00  0.00    -0.550 OA
ATOM     13  O   UNL     1       1.767  28.043  55.229  1.00  0.00    -0.550 OA
ENDBRANCH  10  11
ENDBRANCH   9  10
ENDBRANCH   8   9
ENDBRANCH   1   8
TORSDOF 8
ENDMDL
MODEL 9
REMARK VINA RESULT:    -3.347      3.285      4.690
REMARK INTER + INTRA:          -5.456
REMARK INTER:                  -5.261
REMARK INTRA:                  -0.195
REMARK UNBOUND:                -0.544
REMARK SMILES O=C([O-])CCCCCCCC(=O)[O-]
REMARK SMILES IDX 7 1 6 2 5 3 4 4 2 5 1 6 3 7 8 8 9 9 10 10 11 11 12 12 13 13
REMARK H PARENT
REMARK Flexibility Score: inf
ROOT
ATOM      1  C   UNL     1       3.853  28.761  53.268  1.00  0.00     0.000 C 
ENDROOT
BRANCH   1   2
ATOM      2  C   UNL     1       4.998  28.851  52.243  1.00  0.00     0.000 C 
BRANCH   2   3
ATOM      3  C   UNL     1       4.606  28.283  50.869  1.00  0.00     0.006 C 
BRANCH   3   4
ATOM      4  C   UNL     1       5.741  27.489  50.210  1.00  0.00     0.053 C 
BRANCH   4   5
ATOM      5  C   UNL     1       5.217  26.211  49.635  1.00  0.00     0.041 C 
ATOM      6  O   UNL     1       6.011  25.356  49.163  1.00  0.00    -0.550 OA
ATOM      7  O   UNL     1       3.847  25.984  49.577  1.00  0.00    -0.550 OA
ENDBRANCH   4   5
ENDBRANCH   3   4
ENDBRANCH   2   3
ENDBRANCH   1   2
BRANCH   1   8
ATOM      8  C   UNL     1       4.364  28.575  54.706  1.00  0.00     0.000 C 
BRANCH   8   9
ATOM      9  C   UNL     1       3.259  28.127  55.676  1.00  0.00     0.006 C 
BRANCH   9  10
ATOM     10  C   UNL     1       3.598  28.526  57.115  1.00  0.00     0.053 C 
BRANCH  10  11
ATOM     11  C   UNL     1       4.187  27.369  57.857  1.00  0.00     0.041 C 
ATOM     12  O   UNL     1       3.494  26.736  58.697  1.00  0.00    -0.550 OA
ATOM     13  O   UNL     1       5.517  27.021  57.658  1.00  0.00    -0.550 OA
ENDBRANCH  10  11
ENDBRANCH   9  10
ENDBRANCH   8   9
ENDBRANCH   1   8
TORSDOF 8
ENDMDL
