MODEL 1
REMARK VINA RESULT:    -1.251      0.000      0.000
REMARK INTER + INTRA:          -4.307
REMARK INTER:                  -2.129
REMARK INTRA:                  -2.177
REMARK UNBOUND:                -2.177
REMARK SMILES CCCCCCCCCCCCCC(=O)[O-]
REMARK SMILES IDX 8 1 9 2 10 3 11 4 12 5 13 6 14 7 15 8 16 9 7 10 6 11 5 12
REMARK SMILES IDX 4 13 3 14 2 15 1 16
REMARK H PARENT
REMARK Flexibility Score: inf
ROOT
ATOM      1  C   UNL     1     142.486  52.718 -10.925  1.00  0.00     0.000 C 
ENDROOT
BRANCH   1   2
ATOM      2  C   UNL     1     142.443  53.190 -12.386  1.00  0.00     0.000 C 
BRANCH   2   3
ATOM      3  C   UNL     1     141.457  52.381 -13.247  1.00  0.00     0.000 C 
BRANCH   3   4
ATOM      4  C   UNL     1     140.309  53.201 -13.869  1.00  0.00     0.000 C 
BRANCH   4   5
ATOM      5  C   UNL     1     139.037  53.309 -13.003  1.00  0.00     0.006 C 
BRANCH   5   6
ATOM      6  C   UNL     1     138.735  52.057 -12.164  1.00  0.00     0.053 C 
BRANCH   6   7
ATOM      7  C   UNL     1     137.938  51.049 -12.933  1.00  0.00     0.041 C 
ATOM      8  O   UNL     1     138.346  49.861 -13.032  1.00  0.00    -0.550 OA
ATOM      9  O   UNL     1     136.762  51.428 -13.566  1.00  0.00    -0.550 OA
ENDBRANCH   6   7
ENDBRANCH   5   6
ENDBRANCH   4   5
ENDBRANCH   3   4
ENDBRANCH   2   3
ENDBRANCH   1   2
BRANCH   1  10
ATOM     10  C   UNL     1     142.127  53.862  -9.969  1.00  0.00     0.000 C 
BRANCH  10  11
ATOM     11  C   UNL     1     140.716  53.674  -9.389  1.00  0.00    -0.000 C 
BRANCH  11  12
ATOM     12  C   UNL     1     139.757  54.809  -9.808  1.00  0.00    -0.000 C 
BRANCH  12  13
ATOM     13  C   UNL     1     140.441  55.926 -10.614  1.00  0.00    -0.000 C 
BRANCH  13  14
ATOM     14  C   UNL     1     139.440  56.817 -11.367  1.00  0.00    -0.000 C 
BRANCH  14  15
ATOM     15  C   UNL     1     139.805  56.990 -12.849  1.00  0.00    -0.003 C 
ATOM     16  C   UNL     1     141.280  56.704 -13.131  1.00  0.00     0.004 C 
ENDBRANCH  14  15
ENDBRANCH  13  14
ENDBRANCH  12  13
ENDBRANCH  11  12
ENDBRANCH  10  11
ENDBRANCH   1  10
TORSDOF 12
ENDMDL
MODEL 2
REMARK VINA RESULT:    -1.154      3.513      4.946
REMARK INTER + INTRA:          -4.141
REMARK INTER:                  -2.006
REMARK INTRA:                  -2.135
REMARK UNBOUND:                -2.177
REMARK SMILES CCCCCCCCCCCCCC(=O)[O-]
REMARK SMILES IDX 8 1 9 2 10 3 11 4 12 5 13 6 14 7 15 8 16 9 7 10 6 11 5 12
REMARK SMILES IDX 4 13 3 14 2 15 1 16
REMARK H PARENT
REMARK Flexibility Score: inf
ROOT
ATOM      1  C   UNL     1     139.530  53.082 -11.777  1.00  0.00     0.000 C 
ENDROOT
BRANCH   1   2
ATOM      2  C   UNL     1     140.987  53.125 -11.294  1.00  0.00     0.000 C 
BRANCH   2   3
ATOM      3  C   UNL     1     141.143  52.696  -9.824  1.00  0.00     0.000 C 
BRANCH   3   4
ATOM      4  C   UNL     1     139.847  52.212  -9.144  1.00  0.00     0.000 C 
BRANCH   4   5
ATOM      5  C   UNL     1     139.747  52.512  -7.635  1.00  0.00     0.006 C 
BRANCH   5   6
ATOM      6  C   UNL     1     138.316  52.753  -7.131  1.00  0.00     0.053 C 
BRANCH   6   7
ATOM      7  C   UNL     1     138.247  53.902  -6.172  1.00  0.00     0.041 C 
ATOM      8  O   UNL     1     139.305  54.409  -5.714  1.00  0.00    -0.550 OA
ATOM      9  O   UNL     1     137.015  54.391  -5.760  1.00  0.00    -0.550 OA
ENDBRANCH   6   7
ENDBRANCH   5   6
ENDBRANCH   4   5
ENDBRANCH   3   4
ENDBRANCH   2   3
ENDBRANCH   1   2
BRANCH   1  10
ATOM     10  C   UNL     1     139.264  54.175 -12.819  1.00  0.00     0.000 C 
BRANCH  10  11
ATOM     11  C   UNL     1     140.463  55.130 -12.935  1.00  0.00    -0.000 C 
BRANCH  11  12
ATOM     12  C   UNL     1     140.044  56.611 -12.816  1.00  0.00    -0.000 C 
BRANCH  12  13
ATOM     13  C   UNL     1     139.446  56.972 -11.446  1.00  0.00    -0.000 C 
BRANCH  13  14
ATOM     14  C   UNL     1     140.407  56.686 -10.281  1.00  0.00    -0.000 C 
BRANCH  14  15
ATOM     15  C   UNL     1     139.705  56.020  -9.088  1.00  0.00    -0.003 C 
ATOM     16  C   UNL     1     138.217  55.776  -9.341  1.00  0.00     0.004 C 
ENDBRANCH  14  15
ENDBRANCH  13  14
ENDBRANCH  12  13
ENDBRANCH  11  12
ENDBRANCH  10  11
ENDBRANCH   1  10
TORSDOF 12
ENDMDL
MODEL 3
REMARK VINA RESULT:    -1.121      2.863      4.530
REMARK INTER + INTRA:          -4.085
REMARK INTER:                  -2.206
REMARK INTRA:                  -1.879
REMARK UNBOUND:                -2.177
REMARK SMILES CCCCCCCCCCCCCC(=O)[O-]
REMARK SMILES IDX 8 1 9 2 10 3 11 4 12 5 13 6 14 7 15 8 16 9 7 10 6 11 5 12
REMARK SMILES IDX 4 13 3 14 2 15 1 16
REMARK H PARENT
REMARK Flexibility Score: inf
ROOT
ATOM      1  C   UNL     1     143.791  55.545 -12.522  1.00  0.00     0.000 C 
ENDROOT
BRANCH   1   2
ATOM      2  C   UNL     1     142.625  55.332 -13.497  1.00  0.00     0.000 C 
BRANCH   2   3
ATOM      3  C   UNL     1     141.750  56.587 -13.668  1.00  0.00     0.000 C 
BRANCH   3   4
ATOM      4  C   UNL     1     140.395  56.543 -12.933  1.00  0.00     0.000 C 
BRANCH   4   5
ATOM      5  C   UNL     1     140.466  56.796 -11.413  1.00  0.00     0.006 C 
BRANCH   5   6
ATOM      6  C   UNL     1     139.101  57.015 -10.743  1.00  0.00     0.053 C 
BRANCH   6   7
ATOM      7  C   UNL     1     139.035  56.377  -9.389  1.00  0.00     0.041 C 
ATOM      8  O   UNL     1     140.011  56.464  -8.599  1.00  0.00    -0.550 OA
ATOM      9  O   UNL     1     137.907  55.660  -9.013  1.00  0.00    -0.550 OA
ENDBRANCH   6   7
ENDBRANCH   5   6
ENDBRANCH   4   5
ENDBRANCH   3   4
ENDBRANCH   2   3
ENDBRANCH   1   2
BRANCH   1  10
ATOM     10  C   UNL     1     143.569  54.764 -11.221  1.00  0.00     0.000 C 
BRANCH  10  11
ATOM     11  C   UNL     1     142.714  53.512 -11.468  1.00  0.00    -0.000 C 
BRANCH  11  12
ATOM     12  C   UNL     1     141.655  53.300 -10.365  1.00  0.00    -0.000 C 
BRANCH  12  13
ATOM     13  C   UNL     1     140.211  53.269 -10.896  1.00  0.00    -0.000 C 
BRANCH  13  14
ATOM     14  C   UNL     1     140.127  52.849 -12.372  1.00  0.00    -0.000 C 
BRANCH  14  15
ATOM     15  C   UNL     1     138.765  53.179 -13.001  1.00  0.00    -0.003 C 
ATOM     16  C   UNL     1     138.386  52.214 -14.125  1.00  0.00     0.004 C 
ENDBRANCH  14  15
ENDBRANCH  13  14
ENDBRANCH  12  13
ENDBRANCH  11  12
ENDBRANCH  10  11
ENDBRANCH   1  10
TORSDOF 12
ENDMDL
MODEL 4
REMARK VINA RESULT:    -1.112      3.186      4.624
REMARK INTER + INTRA:          -4.069
REMARK INTER:                  -2.044
REMARK INTRA:                  -2.025
REMARK UNBOUND:                -2.177
REMARK SMILES CCCCCCCCCCCCCC(=O)[O-]
REMARK SMILES IDX 8 1 9 2 10 3 11 4 12 5 13 6 14 7 15 8 16 9 7 10 6 11 5 12
REMARK SMILES IDX 4 13 3 14 2 15 1 16
REMARK H PARENT
REMARK Flexibility Score: inf
ROOT
ATOM      1  C   UNL     1     141.511  53.092 -12.946  1.00  0.00     0.000 C 
ENDROOT
BRANCH   1   2
ATOM      2  C   UNL     1     142.194  52.318 -11.810  1.00  0.00     0.000 C 
BRANCH   2   3
ATOM      3  C   UNL     1     142.269  53.120 -10.499  1.00  0.00     0.000 C 
BRANCH   3   4
ATOM      4  C   UNL     1     143.130  54.398 -10.564  1.00  0.00     0.000 C 
BRANCH   4   5
ATOM      5  C   UNL     1     142.665  55.549  -9.650  1.00  0.00     0.006 C 
BRANCH   5   6
ATOM      6  C   UNL     1     141.749  55.112  -8.497  1.00  0.00     0.053 C 
BRANCH   6   7
ATOM      7  C   UNL     1     140.576  56.029  -8.336  1.00  0.00     0.041 C 
ATOM      8  O   UNL     1     139.704  55.795  -7.459  1.00  0.00    -0.550 OA
ATOM      9  O   UNL     1     140.430  57.125  -9.176  1.00  0.00    -0.550 OA
ENDBRANCH   6   7
ENDBRANCH   5   6
ENDBRANCH   4   5
ENDBRANCH   3   4
ENDBRANCH   2   3
ENDBRANCH   1   2
BRANCH   1  10
ATOM     10  C   UNL     1     139.993  52.879 -12.920  1.00  0.00     0.000 C 
BRANCH  10  11
ATOM     11  C   UNL     1     139.246  54.208 -13.115  1.00  0.00    -0.000 C 
BRANCH  11  12
ATOM     12  C   UNL     1     139.692  55.282 -12.101  1.00  0.00    -0.000 C 
BRANCH  12  13
ATOM     13  C   UNL     1     139.865  56.679 -12.722  1.00  0.00    -0.000 C 
BRANCH  13  14
ATOM     14  C   UNL     1     141.335  57.121 -12.795  1.00  0.00    -0.000 C 
BRANCH  14  15
ATOM     15  C   UNL     1     142.033  56.637 -14.076  1.00  0.00    -0.003 C 
ATOM     16  C   UNL     1     143.464  56.164 -13.825  1.00  0.00     0.004 C 
ENDBRANCH  14  15
ENDBRANCH  13  14
ENDBRANCH  12  13
ENDBRANCH  11  12
ENDBRANCH  10  11
ENDBRANCH   1  10
TORSDOF 12
ENDMDL
MODEL 5
REMARK VINA RESULT:    -1.096      3.346      5.113
REMARK INTER + INTRA:          -4.043
REMARK INTER:                  -1.774
REMARK INTRA:                  -2.269
REMARK UNBOUND:                -2.177
REMARK SMILES CCCCCCCCCCCCCC(=O)[O-]
REMARK SMILES IDX 8 1 9 2 10 3 11 4 12 5 13 6 14 7 15 8 16 9 7 10 6 11 5 12
REMARK SMILES IDX 4 13 3 14 2 15 1 16
REMARK H PARENT
REMARK Flexibility Score: inf
ROOT
ATOM      1  C   UNL     1     139.842  56.413 -12.601  1.00  0.00     0.000 C 
ENDROOT
BRANCH   1   2
ATOM      2  C   UNL     1     139.742  54.896 -12.819  1.00  0.00     0.000 C 
BRANCH   2   3
ATOM      3  C   UNL     1     141.049  54.279 -13.347  1.00  0.00     0.000 C 
BRANCH   3   4
ATOM      4  C   UNL     1     142.139  55.298 -13.739  1.00  0.00     0.000 C 
BRANCH   4   5
ATOM      5  C   UNL     1     143.533  55.029 -13.137  1.00  0.00     0.006 C 
BRANCH   5   6
ATOM      6  C   UNL     1     143.793  53.560 -12.771  1.00  0.00     0.053 C 
BRANCH   6   7
ATOM      7  C   UNL     1     144.950  53.414 -11.831  1.00  0.00     0.041 C 
ATOM      8  O   UNL     1     144.869  52.643 -10.840  1.00  0.00    -0.550 OA
ATOM      9  O   UNL     1     146.108  54.154 -12.034  1.00  0.00    -0.550 OA
ENDBRANCH   6   7
ENDBRANCH   5   6
ENDBRANCH   4   5
ENDBRANCH   3   4
ENDBRANCH   2   3
ENDBRANCH   1   2
BRANCH   1  10
ATOM     10  C   UNL     1     139.801  56.757 -11.108  1.00  0.00     0.000 C 
BRANCH  10  11
ATOM     11  C   UNL     1     141.200  57.125 -10.588  1.00  0.00    -0.000 C 
BRANCH  11  12
ATOM     12  C   UNL     1     141.582  56.326  -9.324  1.00  0.00    -0.000 C 
BRANCH  12  13
ATOM     13  C   UNL     1     142.446  55.087  -9.617  1.00  0.00    -0.000 C 
BRANCH  13  14
ATOM     14  C   UNL     1     141.624  53.791  -9.692  1.00  0.00    -0.000 C 
BRANCH  14  15
ATOM     15  C   UNL     1     140.408  53.809  -8.753  1.00  0.00    -0.003 C 
ATOM     16  C   UNL     1     139.113  53.404  -9.457  1.00  0.00     0.004 C 
ENDBRANCH  14  15
ENDBRANCH  13  14
ENDBRANCH  12  13
ENDBRANCH  11  12
ENDBRANCH  10  11
ENDBRANCH   1  10
TORSDOF 12
ENDMDL
MODEL 6
REMARK VINA RESULT:    -1.082     14.708     16.582
REMARK INTER + INTRA:          -4.018
REMARK INTER:                  -2.103
REMARK INTRA:                  -1.916
REMARK UNBOUND:                -2.177
REMARK SMILES CCCCCCCCCCCCCC(=O)[O-]
REMARK SMILES IDX 8 1 9 2 10 3 11 4 12 5 13 6 14 7 15 8 16 9 7 10 6 11 5 12
REMARK SMILES IDX 4 13 3 14 2 15 1 16
REMARK H PARENT
REMARK Flexibility Score: inf
ROOT
ATOM      1  C   UNL     1     145.173  38.894 -11.582  1.00  0.00     0.000 C 
ENDROOT
BRANCH   1   2
ATOM      2  C   UNL     1     145.043  37.542 -10.867  1.00  0.00     0.000 C 
BRANCH   2   3
ATOM      3  C   UNL     1     146.387  37.017 -10.330  1.00  0.00     0.000 C 
BRANCH   3   4
ATOM      4  C   UNL     1     147.534  38.048 -10.321  1.00  0.00     0.000 C 
BRANCH   4   5
ATOM      5  C   UNL     1     148.008  38.488  -8.922  1.00  0.00     0.006 C 
BRANCH   5   6
ATOM      6  C   UNL     1     147.016  39.391  -8.171  1.00  0.00     0.053 C 
BRANCH   6   7
ATOM      7  C   UNL     1     146.350  38.670  -7.040  1.00  0.00     0.041 C 
ATOM      8  O   UNL     1     146.845  37.603  -6.589  1.00  0.00    -0.550 OA
ATOM      9  O   UNL     1     145.166  39.159  -6.504  1.00  0.00    -0.550 OA
ENDBRANCH   6   7
ENDBRANCH   5   6
ENDBRANCH   4   5
ENDBRANCH   3   4
ENDBRANCH   2   3
ENDBRANCH   1   2
BRANCH   1  10
ATOM     10  C   UNL     1     144.306  39.960 -10.902  1.00  0.00     0.000 C 
BRANCH  10  11
ATOM     11  C   UNL     1     143.472  39.350  -9.765  1.00  0.00    -0.000 C 
BRANCH  11  12
ATOM     12  C   UNL     1     142.045  39.937  -9.707  1.00  0.00    -0.000 C 
BRANCH  12  13
ATOM     13  C   UNL     1     141.033  39.182 -10.587  1.00  0.00    -0.000 C 
BRANCH  13  14
ATOM     14  C   UNL     1     141.279  37.666 -10.611  1.00  0.00    -0.000 C 
BRANCH  14  15
ATOM     15  C   UNL     1     141.554  37.136 -12.027  1.00  0.00    -0.003 C 
ATOM     16  C   UNL     1     141.647  38.253 -13.066  1.00  0.00     0.004 C 
ENDBRANCH  14  15
ENDBRANCH  13  14
ENDBRANCH  12  13
ENDBRANCH  11  12
ENDBRANCH  10  11
ENDBRANCH   1  10
TORSDOF 12
ENDMDL
MODEL 7
REMARK VINA RESULT:    -1.071     13.628     16.113
REMARK INTER + INTRA:          -3.999
REMARK INTER:                  -1.869
REMARK INTRA:                  -2.130
REMARK UNBOUND:                -2.177
REMARK SMILES CCCCCCCCCCCCCC(=O)[O-]
REMARK SMILES IDX 8 1 9 2 10 3 11 4 12 5 13 6 14 7 15 8 16 9 7 10 6 11 5 12
REMARK SMILES IDX 4 13 3 14 2 15 1 16
REMARK H PARENT
REMARK Flexibility Score: inf
ROOT
ATOM      1  C   UNL     1     142.185  40.963 -12.187  1.00  0.00     0.000 C 
ENDROOT
BRANCH   1   2
ATOM      2  C   UNL     1     141.689  40.873 -10.736  1.00  0.00     0.000 C 
BRANCH   2   3
ATOM      3  C   UNL     1     142.796  40.461  -9.750  1.00  0.00     0.000 C 
BRANCH   3   4
ATOM      4  C   UNL     1     144.103  39.967 -10.404  1.00  0.00     0.000 C 
BRANCH   4   5
ATOM      5  C   UNL     1     144.745  38.735  -9.735  1.00  0.00     0.006 C 
BRANCH   5   6
ATOM      6  C   UNL     1     145.939  38.148 -10.503  1.00  0.00     0.053 C 
BRANCH   6   7
ATOM      7  C   UNL     1     147.231  38.790 -10.102  1.00  0.00     0.041 C 
ATOM      8  O   UNL     1     148.025  38.190  -9.331  1.00  0.00    -0.550 OA
ATOM      9  O   UNL     1     147.544  40.064 -10.556  1.00  0.00    -0.550 OA
ENDBRANCH   6   7
ENDBRANCH   5   6
ENDBRANCH   4   5
ENDBRANCH   3   4
ENDBRANCH   2   3
ENDBRANCH   1   2
BRANCH   1  10
ATOM     10  C   UNL     1     141.078  40.569 -13.171  1.00  0.00     0.000 C 
BRANCH  10  11
ATOM     11  C   UNL     1     141.007  39.044 -13.341  1.00  0.00    -0.000 C 
BRANCH  11  12
ATOM     12  C   UNL     1     142.407  38.399 -13.419  1.00  0.00    -0.000 C 
BRANCH  12  13
ATOM     13  C   UNL     1     142.604  37.234 -12.433  1.00  0.00    -0.000 C 
BRANCH  13  14
ATOM     14  C   UNL     1     141.320  36.878 -11.667  1.00  0.00    -0.000 C 
BRANCH  14  15
ATOM     15  C   UNL     1     141.499  36.972 -10.144  1.00  0.00    -0.003 C 
ATOM     16  C   UNL     1     140.304  37.625  -9.449  1.00  0.00     0.004 C 
ENDBRANCH  14  15
ENDBRANCH  13  14
ENDBRANCH  12  13
ENDBRANCH  11  12
ENDBRANCH  10  11
ENDBRANCH   1  10
TORSDOF 12
ENDMDL
MODEL 8
REMARK VINA RESULT:    -1.064     14.356     15.790
REMARK INTER + INTRA:          -3.988
REMARK INTER:                  -2.015
REMARK INTRA:                  -1.973
REMARK UNBOUND:                -2.177
REMARK SMILES CCCCCCCCCCCCCC(=O)[O-]
REMARK SMILES IDX 8 1 9 2 10 3 11 4 12 5 13 6 14 7 15 8 16 9 7 10 6 11 5 12
REMARK SMILES IDX 4 13 3 14 2 15 1 16
REMARK H PARENT
REMARK Flexibility Score: inf
ROOT
ATOM      1  C   UNL     1     143.288  39.929  -8.605  1.00  0.00     0.000 C 
ENDROOT
BRANCH   1   2
ATOM      2  C   UNL     1     144.130  40.224  -9.855  1.00  0.00     0.000 C 
BRANCH   2   3
ATOM      3  C   UNL     1     144.520  38.952 -10.628  1.00  0.00     0.000 C 
BRANCH   3   4
ATOM      4  C   UNL     1     143.808  37.664 -10.167  1.00  0.00     0.000 C 
BRANCH   4   5
ATOM      5  C   UNL     1     143.092  36.876 -11.283  1.00  0.00     0.006 C 
BRANCH   5   6
ATOM      6  C   UNL     1     141.611  37.240 -11.466  1.00  0.00     0.053 C 
BRANCH   6   7
ATOM      7  C   UNL     1     141.423  38.329 -12.477  1.00  0.00     0.041 C 
ATOM      8  O   UNL     1     141.576  38.087 -13.704  1.00  0.00    -0.550 OA
ATOM      9  O   UNL     1     141.111  39.616 -12.063  1.00  0.00    -0.550 OA
ENDBRANCH   6   7
ENDBRANCH   5   6
ENDBRANCH   4   5
ENDBRANCH   3   4
ENDBRANCH   2   3
ENDBRANCH   1   2
BRANCH   1  10
ATOM     10  C   UNL     1     144.087  40.211  -7.327  1.00  0.00     0.000 C 
BRANCH  10  11
ATOM     11  C   UNL     1     144.564  38.904  -6.674  1.00  0.00    -0.000 C 
BRANCH  11  12
ATOM     12  C   UNL     1     146.103  38.806  -6.621  1.00  0.00    -0.000 C 
BRANCH  12  13
ATOM     13  C   UNL     1     146.707  37.980  -7.770  1.00  0.00    -0.000 C 
BRANCH  13  14
ATOM     14  C   UNL     1     147.753  38.761  -8.581  1.00  0.00    -0.000 C 
BRANCH  14  15
ATOM     15  C   UNL     1     147.739  40.264  -8.266  1.00  0.00    -0.003 C 
ATOM     16  C   UNL     1     147.660  41.130  -9.524  1.00  0.00     0.004 C 
ENDBRANCH  14  15
ENDBRANCH  13  14
ENDBRANCH  12  13
ENDBRANCH  11  12
ENDBRANCH  10  11
ENDBRANCH   1  10
TORSDOF 12
ENDMDL
MODEL 9
REMARK VINA RESULT:    -1.035     14.787     16.787
REMARK INTER + INTRA:          -3.939
REMARK INTER:                  -1.892
REMARK INTRA:                  -2.046
REMARK UNBOUND:                -2.177
REMARK SMILES CCCCCCCCCCCCCC(=O)[O-]
REMARK SMILES IDX 8 1 9 2 10 3 11 4 12 5 13 6 14 7 15 8 16 9 7 10 6 11 5 12
REMARK SMILES IDX 4 13 3 14 2 15 1 16
REMARK H PARENT
REMARK Flexibility Score: inf
ROOT
ATOM      1  C   UNL     1     141.409  37.996 -11.574  1.00  0.00     0.000 C 
ENDROOT
BRANCH   1   2
ATOM      2  C   UNL     1     141.773  38.955 -10.431  1.00  0.00     0.000 C 
BRANCH   2   3
ATOM      3  C   UNL     1     143.155  38.661  -9.821  1.00  0.00     0.000 C 
BRANCH   3   4
ATOM      4  C   UNL     1     143.607  37.189  -9.908  1.00  0.00     0.000 C 
BRANCH   4   5
ATOM      5  C   UNL     1     145.084  36.935  -9.547  1.00  0.00     0.006 C 
BRANCH   5   6
ATOM      6  C   UNL     1     145.695  37.983  -8.604  1.00  0.00     0.053 C 
BRANCH   6   7
ATOM      7  C   UNL     1     146.883  38.660  -9.215  1.00  0.00     0.041 C 
ATOM      8  O   UNL     1     147.919  37.998  -9.487  1.00  0.00    -0.550 OA
ATOM      9  O   UNL     1     146.856  40.027  -9.455  1.00  0.00    -0.550 OA
ENDBRANCH   6   7
ENDBRANCH   5   6
ENDBRANCH   4   5
ENDBRANCH   3   4
ENDBRANCH   2   3
ENDBRANCH   1   2
BRANCH   1  10
ATOM     10  C   UNL     1     141.417  38.722 -12.924  1.00  0.00     0.000 C 
BRANCH  10  11
ATOM     11  C   UNL     1     142.122  37.881 -13.999  1.00  0.00    -0.000 C 
BRANCH  11  12
ATOM     12  C   UNL     1     143.127  36.880 -13.391  1.00  0.00    -0.000 C 
BRANCH  12  13
ATOM     13  C   UNL     1     144.494  36.875 -14.097  1.00  0.00    -0.000 C 
BRANCH  13  14
ATOM     14  C   UNL     1     145.156  38.262 -14.125  1.00  0.00    -0.000 C 
BRANCH  14  15
ATOM     15  C   UNL     1     145.466  38.795 -12.718  1.00  0.00    -0.003 C 
ATOM     16  C   UNL     1     145.043  40.252 -12.533  1.00  0.00     0.004 C 
ENDBRANCH  14  15
ENDBRANCH  13  14
ENDBRANCH  12  13
ENDBRANCH  11  12
ENDBRANCH  10  11
ENDBRANCH   1  10
TORSDOF 12
ENDMDL
