MODEL 1
REMARK VINA RESULT:    -5.585      0.000      0.000
REMARK INTER + INTRA:          -6.812
REMARK INTER:                  -6.565
REMARK INTRA:                  -0.247
REMARK UNBOUND:                -0.247
REMARK SMILES O=c1c(O)c(-c2ccc(O)c(O)c2)oc2cc(O)ccc12
REMARK SMILES IDX 5 1 3 2 2 3 1 4 21 5 15 6 14 7 16 8 17 9 19 10 20 11 6 12
REMARK SMILES IDX 7 13 8 14 9 15 13 16 11 17 10 18 12 20 4 22 18 24
REMARK H PARENT 10 19 12 21 4 23 18 25
REMARK Flexibility Score: inf
ROOT
ATOM      1  C   UNL     1      43.455  18.494  -3.002  1.00  0.00     0.180 A 
ATOM      2  C   UNL     1      43.902  18.981  -4.248  1.00  0.00     0.208 A 
ATOM      3  C   UNL     1      44.812  18.209  -4.988  1.00  0.00     0.235 A 
ATOM      4  O   UNL     1      45.218  18.617  -6.110  1.00  0.00    -0.285 OA
ATOM      5  C   UNL     1      45.266  16.988  -4.466  1.00  0.00     0.069 A 
ATOM      6  C   UNL     1      44.788  16.581  -3.201  1.00  0.00     0.142 A 
ATOM      7  O   UNL     1      43.922  17.338  -2.536  1.00  0.00    -0.452 OA
ATOM      8  C   UNL     1      45.226  15.376  -2.642  1.00  0.00     0.094 A 
ATOM      9  C   UNL     1      46.137  14.566  -3.335  1.00  0.00     0.119 A 
ATOM     10  C   UNL     1      46.609  14.966  -4.588  1.00  0.00     0.047 A 
ATOM     11  C   UNL     1      46.180  16.169  -5.156  1.00  0.00     0.020 A 
ENDROOT
BRANCH   1  12
ATOM     12  C   UNL     1      42.483  19.240  -2.170  1.00  0.00     0.025 A 
ATOM     13  C   UNL     1      42.858  20.397  -1.466  1.00  0.00     0.016 A 
ATOM     14  C   UNL     1      41.916  21.098  -0.707  1.00  0.00     0.051 A 
ATOM     15  C   UNL     1      40.586  20.662  -0.651  1.00  0.00     0.157 A 
ATOM     16  C   UNL     1      41.144  18.818  -2.127  1.00  0.00     0.062 A 
ATOM     17  C   UNL     1      40.198  19.517  -1.368  1.00  0.00     0.158 A 
BRANCH  15  18
ATOM     18  O   UNL     1      39.651  21.362   0.108  1.00  0.00    -0.504 OA
ATOM     19  H   UNL     1      39.131  20.915   0.855  1.00  0.00     0.293 HD
ENDBRANCH  15  18
BRANCH  17  20
ATOM     20  O   UNL     1      38.882  19.060  -1.337  1.00  0.00    -0.504 OA
ATOM     21  H   UNL     1      38.294  19.164  -0.519  1.00  0.00     0.293 HD
ENDBRANCH  17  20
ENDBRANCH   1  12
BRANCH   2  22
ATOM     22  O   UNL     1      43.470  20.222  -4.719  1.00  0.00    -0.502 OA
ATOM     23  H   UNL     1      42.488  20.446  -4.835  1.00  0.00     0.293 HD
ENDBRANCH   2  22
BRANCH   9  24
ATOM     24  O   UNL     1      46.576  13.364  -2.785  1.00  0.00    -0.508 OA
ATOM     25  H   UNL     1      46.852  13.296  -1.813  1.00  0.00     0.293 HD
ENDBRANCH   9  24
TORSDOF 5
ENDMDL
MODEL 2
REMARK VINA RESULT:    -5.312      2.118      3.283
REMARK INTER + INTRA:          -6.491
REMARK INTER:                  -6.734
REMARK INTRA:                   0.242
REMARK UNBOUND:                -0.247
REMARK SMILES O=c1c(O)c(-c2ccc(O)c(O)c2)oc2cc(O)ccc12
REMARK SMILES IDX 5 1 3 2 2 3 1 4 21 5 15 6 14 7 16 8 17 9 19 10 20 11 6 12
REMARK SMILES IDX 7 13 8 14 9 15 13 16 11 17 10 18 12 20 4 22 18 24
REMARK H PARENT 10 19 12 21 4 23 18 25
REMARK Flexibility Score: inf
ROOT
ATOM      1  C   UNL     1      45.389  16.117  -3.292  1.00  0.00     0.180 A 
ATOM      2  C   UNL     1      46.054  16.560  -4.455  1.00  0.00     0.208 A 
ATOM      3  C   UNL     1      47.217  15.888  -4.866  1.00  0.00     0.235 A 
ATOM      4  O   UNL     1      47.824  16.257  -5.908  1.00  0.00    -0.285 OA
ATOM      5  C   UNL     1      47.697  14.811  -4.104  1.00  0.00     0.069 A 
ATOM      6  C   UNL     1      46.987  14.444  -2.940  1.00  0.00     0.142 A 
ATOM      7  O   UNL     1      45.886  15.101  -2.591  1.00  0.00    -0.452 OA
ATOM      8  C   UNL     1      47.440  13.384  -2.149  1.00  0.00     0.094 A 
ATOM      9  C   UNL     1      48.597  12.679  -2.508  1.00  0.00     0.119 A 
ATOM     10  C   UNL     1      49.301  13.040  -3.661  1.00  0.00     0.047 A 
ATOM     11  C   UNL     1      48.858  14.099  -4.458  1.00  0.00     0.020 A 
ENDROOT
BRANCH   1  12
ATOM     12  C   UNL     1      44.147  16.761  -2.805  1.00  0.00     0.025 A 
ATOM     13  C   UNL     1      43.922  18.138  -2.973  1.00  0.00     0.016 A 
ATOM     14  C   UNL     1      42.732  18.718  -2.526  1.00  0.00     0.051 A 
ATOM     15  C   UNL     1      41.745  17.931  -1.918  1.00  0.00     0.157 A 
ATOM     16  C   UNL     1      43.147  15.972  -2.214  1.00  0.00     0.062 A 
ATOM     17  C   UNL     1      41.954  16.550  -1.764  1.00  0.00     0.158 A 
BRANCH  15  18
ATOM     18  O   UNL     1      40.561  18.513  -1.471  1.00  0.00    -0.504 OA
ATOM     19  H   UNL     1      40.374  19.502  -1.598  1.00  0.00     0.293 HD
ENDBRANCH  15  18
BRANCH  17  20
ATOM     20  O   UNL     1      40.990  15.738  -1.169  1.00  0.00    -0.504 OA
ATOM     21  H   UNL     1      40.002  15.843  -1.364  1.00  0.00     0.293 HD
ENDBRANCH  17  20
ENDBRANCH   1  12
BRANCH   2  22
ATOM     22  O   UNL     1      45.580  17.664  -5.165  1.00  0.00    -0.502 OA
ATOM     23  H   UNL     1      46.127  18.510  -5.281  1.00  0.00     0.293 HD
ENDBRANCH   2  22
BRANCH   9  24
ATOM     24  O   UNL     1      49.054  11.621  -1.726  1.00  0.00    -0.508 OA
ATOM     25  H   UNL     1      49.945  11.174  -1.907  1.00  0.00     0.293 HD
ENDBRANCH   9  24
TORSDOF 5
ENDMDL
MODEL 3
REMARK VINA RESULT:    -5.307      2.410      3.569
REMARK INTER + INTRA:          -6.486
REMARK INTER:                  -6.164
REMARK INTRA:                  -0.322
REMARK UNBOUND:                -0.247
REMARK SMILES O=c1c(O)c(-c2ccc(O)c(O)c2)oc2cc(O)ccc12
REMARK SMILES IDX 5 1 3 2 2 3 1 4 21 5 15 6 14 7 16 8 17 9 19 10 20 11 6 12
REMARK SMILES IDX 7 13 8 14 9 15 13 16 11 17 10 18 12 20 4 22 18 24
REMARK H PARENT 10 19 12 21 4 23 18 25
REMARK Flexibility Score: inf
ROOT
ATOM      1  C   UNL     1      45.120  15.977  -3.557  1.00  0.00     0.180 A 
ATOM      2  C   UNL     1      45.847  16.834  -4.411  1.00  0.00     0.208 A 
ATOM      3  C   UNL     1      47.179  16.512  -4.717  1.00  0.00     0.235 A 
ATOM      4  O   UNL     1      47.846  17.255  -5.487  1.00  0.00    -0.285 OA
ATOM      5  C   UNL     1      47.758  15.365  -4.153  1.00  0.00     0.069 A 
ATOM      6  C   UNL     1      46.972  14.572  -3.290  1.00  0.00     0.142 A 
ATOM      7  O   UNL     1      45.713  14.907  -3.032  1.00  0.00    -0.452 OA
ATOM      8  C   UNL     1      47.517  13.427  -2.700  1.00  0.00     0.094 A 
ATOM      9  C   UNL     1      48.844  13.059  -2.966  1.00  0.00     0.119 A 
ATOM     10  C   UNL     1      49.624  13.842  -3.823  1.00  0.00     0.047 A 
ATOM     11  C   UNL     1      49.090  14.989  -4.416  1.00  0.00     0.020 A 
ENDROOT
BRANCH   1  12
ATOM     12  C   UNL     1      43.706  16.238  -3.202  1.00  0.00     0.025 A 
ATOM     13  C   UNL     1      42.650  15.692  -3.953  1.00  0.00     0.016 A 
ATOM     14  C   UNL     1      41.324  15.933  -3.583  1.00  0.00     0.051 A 
ATOM     15  C   UNL     1      41.034  16.708  -2.453  1.00  0.00     0.157 A 
ATOM     16  C   UNL     1      43.410  16.997  -2.058  1.00  0.00     0.062 A 
ATOM     17  C   UNL     1      42.083  17.240  -1.686  1.00  0.00     0.158 A 
BRANCH  15  18
ATOM     18  O   UNL     1      39.710  16.947  -2.089  1.00  0.00    -0.504 OA
ATOM     19  H   UNL     1      38.935  16.612  -2.651  1.00  0.00     0.293 HD
ENDBRANCH  15  18
BRANCH  17  20
ATOM     20  O   UNL     1      41.828  18.010  -0.553  1.00  0.00    -0.504 OA
ATOM     21  H   UNL     1      42.486  18.700  -0.211  1.00  0.00     0.293 HD
ENDBRANCH  17  20
ENDBRANCH   1  12
BRANCH   2  22
ATOM     22  O   UNL     1      45.258  17.994  -4.918  1.00  0.00    -0.502 OA
ATOM     23  H   UNL     1      45.111  18.820  -4.349  1.00  0.00     0.293 HD
ENDBRANCH   2  22
BRANCH   9  24
ATOM     24  O   UNL     1      49.393  11.919  -2.384  1.00  0.00    -0.508 OA
ATOM     25  H   UNL     1      48.841  11.304  -1.799  1.00  0.00     0.293 HD
ENDBRANCH   9  24
TORSDOF 5
ENDMDL
MODEL 4
REMARK VINA RESULT:    -5.249      2.578      4.841
REMARK INTER + INTRA:          -6.417
REMARK INTER:                  -6.420
REMARK INTRA:                   0.003
REMARK UNBOUND:                -0.247
REMARK SMILES O=c1c(O)c(-c2ccc(O)c(O)c2)oc2cc(O)ccc12
REMARK SMILES IDX 5 1 3 2 2 3 1 4 21 5 15 6 14 7 16 8 17 9 19 10 20 11 6 12
REMARK SMILES IDX 7 13 8 14 9 15 13 16 11 17 10 18 12 20 4 22 18 24
REMARK H PARENT 10 19 12 21 4 23 18 25
REMARK Flexibility Score: inf
ROOT
ATOM      1  C   UNL     1      46.255  15.871  -3.839  1.00  0.00     0.180 A 
ATOM      2  C   UNL     1      46.025  14.512  -3.537  1.00  0.00     0.208 A 
ATOM      3  C   UNL     1      47.109  13.621  -3.564  1.00  0.00     0.235 A 
ATOM      4  O   UNL     1      46.931  12.403  -3.287  1.00  0.00    -0.285 OA
ATOM      5  C   UNL     1      48.384  14.096  -3.909  1.00  0.00     0.069 A 
ATOM      6  C   UNL     1      48.527  15.465  -4.221  1.00  0.00     0.142 A 
ATOM      7  O   UNL     1      47.477  16.277  -4.176  1.00  0.00    -0.452 OA
ATOM      8  C   UNL     1      49.780  15.973  -4.579  1.00  0.00     0.094 A 
ATOM      9  C   UNL     1      50.898  15.129  -4.627  1.00  0.00     0.119 A 
ATOM     10  C   UNL     1      50.758  13.772  -4.317  1.00  0.00     0.047 A 
ATOM     11  C   UNL     1      49.511  13.253  -3.959  1.00  0.00     0.020 A 
ENDROOT
BRANCH   1  12
ATOM     12  C   UNL     1      45.168  16.876  -3.814  1.00  0.00     0.025 A 
ATOM     13  C   UNL     1      44.902  17.695  -4.924  1.00  0.00     0.016 A 
ATOM     14  C   UNL     1      43.854  18.620  -4.885  1.00  0.00     0.051 A 
ATOM     15  C   UNL     1      43.050  18.730  -3.743  1.00  0.00     0.157 A 
ATOM     16  C   UNL     1      44.346  16.976  -2.679  1.00  0.00     0.062 A 
ATOM     17  C   UNL     1      43.297  17.901  -2.636  1.00  0.00     0.158 A 
BRANCH  15  18
ATOM     18  O   UNL     1      42.008  19.655  -3.706  1.00  0.00    -0.504 OA
ATOM     19  H   UNL     1      42.025  20.496  -4.270  1.00  0.00     0.293 HD
ENDBRANCH  15  18
BRANCH  17  20
ATOM     20  O   UNL     1      42.512  17.982  -1.487  1.00  0.00    -0.504 OA
ATOM     21  H   UNL     1      42.651  17.367  -0.694  1.00  0.00     0.293 HD
ENDBRANCH  17  20
ENDBRANCH   1  12
BRANCH   2  22
ATOM     22  O   UNL     1      44.736  14.060  -3.245  1.00  0.00    -0.502 OA
ATOM     23  H   UNL     1      44.464  13.090  -3.354  1.00  0.00     0.293 HD
ENDBRANCH   2  22
BRANCH   9  24
ATOM     24  O   UNL     1      52.149  15.628  -4.982  1.00  0.00    -0.508 OA
ATOM     25  H   UNL     1      52.294  16.125  -5.853  1.00  0.00     0.293 HD
ENDBRANCH   9  24
TORSDOF 5
ENDMDL
MODEL 5
REMARK VINA RESULT:    -5.208      2.564      7.201
REMARK INTER + INTRA:          -6.368
REMARK INTER:                  -6.758
REMARK INTRA:                   0.390
REMARK UNBOUND:                -0.247
REMARK SMILES O=c1c(O)c(-c2ccc(O)c(O)c2)oc2cc(O)ccc12
REMARK SMILES IDX 5 1 3 2 2 3 1 4 21 5 15 6 14 7 16 8 17 9 19 10 20 11 6 12
REMARK SMILES IDX 7 13 8 14 9 15 13 16 11 17 10 18 12 20 4 22 18 24
REMARK H PARENT 10 19 12 21 4 23 18 25
REMARK Flexibility Score: inf
ROOT
ATOM      1  C   UNL     1      46.489  16.467  -4.271  1.00  0.00     0.180 A 
ATOM      2  C   UNL     1      46.147  17.520  -5.145  1.00  0.00     0.208 A 
ATOM      3  C   UNL     1      44.878  18.110  -5.030  1.00  0.00     0.235 A 
ATOM      4  O   UNL     1      44.553  19.060  -5.792  1.00  0.00    -0.285 OA
ATOM      5  C   UNL     1      43.978  17.626  -4.067  1.00  0.00     0.069 A 
ATOM      6  C   UNL     1      44.387  16.554  -3.246  1.00  0.00     0.142 A 
ATOM      7  O   UNL     1      45.600  16.029  -3.382  1.00  0.00    -0.452 OA
ATOM      8  C   UNL     1      43.514  16.038  -2.282  1.00  0.00     0.094 A 
ATOM      9  C   UNL     1      42.233  16.584  -2.125  1.00  0.00     0.119 A 
ATOM     10  C   UNL     1      41.826  17.648  -2.937  1.00  0.00     0.047 A 
ATOM     11  C   UNL     1      42.690  18.170  -3.904  1.00  0.00     0.020 A 
ENDROOT
BRANCH   1  12
ATOM     12  C   UNL     1      47.814  15.807  -4.317  1.00  0.00     0.025 A 
ATOM     13  C   UNL     1      48.906  16.401  -4.973  1.00  0.00     0.016 A 
ATOM     14  C   UNL     1      50.152  15.769  -4.981  1.00  0.00     0.051 A 
ATOM     15  C   UNL     1      50.330  14.544  -4.325  1.00  0.00     0.157 A 
ATOM     16  C   UNL     1      48.001  14.589  -3.643  1.00  0.00     0.062 A 
ATOM     17  C   UNL     1      49.249  13.953  -3.650  1.00  0.00     0.158 A 
BRANCH  15  18
ATOM     18  O   UNL     1      51.574  13.917  -4.338  1.00  0.00    -0.504 OA
ATOM     19  H   UNL     1      51.663  12.911  -4.244  1.00  0.00     0.293 HD
ENDBRANCH  15  18
BRANCH  17  20
ATOM     20  O   UNL     1      49.394  12.738  -2.983  1.00  0.00    -0.504 OA
ATOM     21  H   UNL     1      49.347  12.669  -1.974  1.00  0.00     0.293 HD
ENDBRANCH  17  20
ENDBRANCH   1  12
BRANCH   2  22
ATOM     22  O   UNL     1      47.046  17.947  -6.125  1.00  0.00    -0.502 OA
ATOM     23  H   UNL     1      47.239  18.927  -6.294  1.00  0.00     0.293 HD
ENDBRANCH   2  22
BRANCH   9  24
ATOM     24  O   UNL     1      41.359  16.077  -1.167  1.00  0.00    -0.508 OA
ATOM     25  H   UNL     1      41.324  16.455  -0.228  1.00  0.00     0.293 HD
ENDBRANCH   9  24
TORSDOF 5
ENDMDL
MODEL 6
REMARK VINA RESULT:    -5.105      1.943      6.833
REMARK INTER + INTRA:          -6.248
REMARK INTER:                  -5.923
REMARK INTRA:                  -0.324
REMARK UNBOUND:                -0.247
REMARK SMILES O=c1c(O)c(-c2ccc(O)c(O)c2)oc2cc(O)ccc12
REMARK SMILES IDX 5 1 3 2 2 3 1 4 21 5 15 6 14 7 16 8 17 9 19 10 20 11 6 12
REMARK SMILES IDX 7 13 8 14 9 15 13 16 11 17 10 18 12 20 4 22 18 24
REMARK H PARENT 10 19 12 21 4 23 18 25
REMARK Flexibility Score: inf
ROOT
ATOM      1  C   UNL     1      43.507  17.576  -3.832  1.00  0.00     0.180 A 
ATOM      2  C   UNL     1      42.397  16.795  -4.217  1.00  0.00     0.208 A 
ATOM      3  C   UNL     1      41.128  17.133  -3.720  1.00  0.00     0.235 A 
ATOM      4  O   UNL     1      40.118  16.457  -4.058  1.00  0.00    -0.285 OA
ATOM      5  C   UNL     1      40.998  18.221  -2.842  1.00  0.00     0.069 A 
ATOM      6  C   UNL     1      42.161  18.938  -2.487  1.00  0.00     0.142 A 
ATOM      7  O   UNL     1      43.342  18.590  -2.986  1.00  0.00    -0.452 OA
ATOM      8  C   UNL     1      42.074  20.021  -1.607  1.00  0.00     0.094 A 
ATOM      9  C   UNL     1      40.833  20.402  -1.076  1.00  0.00     0.119 A 
ATOM     10  C   UNL     1      39.680  19.694  -1.428  1.00  0.00     0.047 A 
ATOM     11  C   UNL     1      39.756  18.609  -2.305  1.00  0.00     0.020 A 
ENDROOT
BRANCH   1  12
ATOM     12  C   UNL     1      44.874  17.296  -4.328  1.00  0.00     0.025 A 
ATOM     13  C   UNL     1      45.359  17.880  -5.510  1.00  0.00     0.016 A 
ATOM     14  C   UNL     1      46.662  17.618  -5.944  1.00  0.00     0.051 A 
ATOM     15  C   UNL     1      47.502  16.782  -5.198  1.00  0.00     0.157 A 
ATOM     16  C   UNL     1      45.727  16.474  -3.572  1.00  0.00     0.062 A 
ATOM     17  C   UNL     1      47.032  16.209  -4.004  1.00  0.00     0.158 A 
BRANCH  15  18
ATOM     18  O   UNL     1      48.799  16.521  -5.635  1.00  0.00    -0.504 OA
ATOM     19  H   UNL     1      49.548  16.313  -4.984  1.00  0.00     0.293 HD
ENDBRANCH  15  18
BRANCH  17  20
ATOM     20  O   UNL     1      47.844  15.377  -3.236  1.00  0.00    -0.504 OA
ATOM     21  H   UNL     1      48.762  15.084  -3.547  1.00  0.00     0.293 HD
ENDBRANCH  17  20
ENDBRANCH   1  12
BRANCH   2  22
ATOM     22  O   UNL     1      42.565  15.689  -5.052  1.00  0.00    -0.502 OA
ATOM     23  H   UNL     1      42.279  14.756  -4.780  1.00  0.00     0.293 HD
ENDBRANCH   2  22
BRANCH   9  24
ATOM     24  O   UNL     1      40.738  21.480  -0.200  1.00  0.00    -0.508 OA
ATOM     25  H   UNL     1      40.017  21.524   0.510  1.00  0.00     0.293 HD
ENDBRANCH   9  24
TORSDOF 5
ENDMDL
MODEL 7
REMARK VINA RESULT:    -5.040      3.137      5.570
REMARK INTER + INTRA:          -6.171
REMARK INTER:                  -6.142
REMARK INTRA:                  -0.030
REMARK UNBOUND:                -0.247
REMARK SMILES O=c1c(O)c(-c2ccc(O)c(O)c2)oc2cc(O)ccc12
REMARK SMILES IDX 5 1 3 2 2 3 1 4 21 5 15 6 14 7 16 8 17 9 19 10 20 11 6 12
REMARK SMILES IDX 7 13 8 14 9 15 13 16 11 17 10 18 12 20 4 22 18 24
REMARK H PARENT 10 19 12 21 4 23 18 25
REMARK Flexibility Score: inf
ROOT
ATOM      1  C   UNL     1      46.204  14.709  -3.284  1.00  0.00     0.180 A 
ATOM      2  C   UNL     1      46.766  13.542  -2.727  1.00  0.00     0.208 A 
ATOM      3  C   UNL     1      48.126  13.273  -2.951  1.00  0.00     0.235 A 
ATOM      4  O   UNL     1      48.656  12.243  -2.454  1.00  0.00    -0.285 OA
ATOM      5  C   UNL     1      48.884  14.157  -3.736  1.00  0.00     0.069 A 
ATOM      6  C   UNL     1      48.241  15.291  -4.277  1.00  0.00     0.142 A 
ATOM      7  O   UNL     1      46.954  15.513  -4.035  1.00  0.00    -0.452 OA
ATOM      8  C   UNL     1      48.960  16.189  -5.073  1.00  0.00     0.094 A 
ATOM      9  C   UNL     1      50.319  15.970  -5.334  1.00  0.00     0.119 A 
ATOM     10  C   UNL     1      50.958  14.848  -4.797  1.00  0.00     0.047 A 
ATOM     11  C   UNL     1      50.250  13.944  -4.001  1.00  0.00     0.020 A 
ENDROOT
BRANCH   1  12
ATOM     12  C   UNL     1      44.783  15.071  -3.078  1.00  0.00     0.025 A 
ATOM     13  C   UNL     1      43.747  14.169  -3.373  1.00  0.00     0.016 A 
ATOM     14  C   UNL     1      42.414  14.525  -3.147  1.00  0.00     0.051 A 
ATOM     15  C   UNL     1      42.099  15.780  -2.612  1.00  0.00     0.157 A 
ATOM     16  C   UNL     1      44.463  16.321  -2.522  1.00  0.00     0.062 A 
ATOM     17  C   UNL     1      43.129  16.681  -2.295  1.00  0.00     0.158 A 
BRANCH  15  18
ATOM     18  O   UNL     1      40.769  16.133  -2.390  1.00  0.00    -0.504 OA
ATOM     19  H   UNL     1      40.445  16.442  -1.480  1.00  0.00     0.293 HD
ENDBRANCH  15  18
BRANCH  17  20
ATOM     20  O   UNL     1      42.849  17.935  -1.755  1.00  0.00    -0.504 OA
ATOM     21  H   UNL     1      42.055  18.487  -2.058  1.00  0.00     0.293 HD
ENDBRANCH  17  20
ENDBRANCH   1  12
BRANCH   2  22
ATOM     22  O   UNL     1      45.976  12.657  -1.991  1.00  0.00    -0.502 OA
ATOM     23  H   UNL     1      46.103  12.516  -0.995  1.00  0.00     0.293 HD
ENDBRANCH   2  22
BRANCH   9  24
ATOM     24  O   UNL     1      51.042  16.860  -6.125  1.00  0.00    -0.508 OA
ATOM     25  H   UNL     1      50.762  17.072  -7.075  1.00  0.00     0.293 HD
ENDBRANCH   9  24
TORSDOF 5
ENDMDL
MODEL 8
REMARK VINA RESULT:    -4.970      1.851      6.904
REMARK INTER + INTRA:          -6.089
REMARK INTER:                  -5.882
REMARK INTRA:                  -0.208
REMARK UNBOUND:                -0.247
REMARK SMILES O=c1c(O)c(-c2ccc(O)c(O)c2)oc2cc(O)ccc12
REMARK SMILES IDX 5 1 3 2 2 3 1 4 21 5 15 6 14 7 16 8 17 9 19 10 20 11 6 12
REMARK SMILES IDX 7 13 8 14 9 15 13 16 11 17 10 18 12 20 4 22 18 24
REMARK H PARENT 10 19 12 21 4 23 18 25
REMARK Flexibility Score: inf
ROOT
ATOM      1  C   UNL     1      43.538  16.840  -3.092  1.00  0.00     0.180 A 
ATOM      2  C   UNL     1      42.415  16.269  -3.727  1.00  0.00     0.208 A 
ATOM      3  C   UNL     1      41.158  16.867  -3.543  1.00  0.00     0.235 A 
ATOM      4  O   UNL     1      40.141  16.382  -4.109  1.00  0.00    -0.285 OA
ATOM      5  C   UNL     1      41.046  17.999  -2.721  1.00  0.00     0.069 A 
ATOM      6  C   UNL     1      42.214  18.496  -2.102  1.00  0.00     0.142 A 
ATOM      7  O   UNL     1      43.386  17.905  -2.308  1.00  0.00    -0.452 OA
ATOM      8  C   UNL     1      42.141  19.616  -1.267  1.00  0.00     0.094 A 
ATOM      9  C   UNL     1      40.911  20.251  -1.044  1.00  0.00     0.119 A 
ATOM     10  C   UNL     1      39.754  19.762  -1.657  1.00  0.00     0.047 A 
ATOM     11  C   UNL     1      39.815  18.643  -2.492  1.00  0.00     0.020 A 
ENDROOT
BRANCH   1  12
ATOM     12  C   UNL     1      44.900  16.280  -3.251  1.00  0.00     0.025 A 
ATOM     13  C   UNL     1      45.250  15.037  -2.696  1.00  0.00     0.016 A 
ATOM     14  C   UNL     1      46.534  14.518  -2.880  1.00  0.00     0.051 A 
ATOM     15  C   UNL     1      47.482  15.225  -3.632  1.00  0.00     0.157 A 
ATOM     16  C   UNL     1      45.846  16.975  -4.021  1.00  0.00     0.062 A 
ATOM     17  C   UNL     1      47.134  16.458  -4.207  1.00  0.00     0.158 A 
BRANCH  15  18
ATOM     18  O   UNL     1      48.762  14.705  -3.812  1.00  0.00    -0.504 OA
ATOM     19  H   UNL     1      49.572  15.120  -3.366  1.00  0.00     0.293 HD
ENDBRANCH  15  18
BRANCH  17  20
ATOM     20  O   UNL     1      48.052  17.183  -4.966  1.00  0.00    -0.504 OA
ATOM     21  H   UNL     1      48.842  17.658  -4.546  1.00  0.00     0.293 HD
ENDBRANCH  17  20
ENDBRANCH   1  12
BRANCH   2  22
ATOM     22  O   UNL     1      42.550  15.114  -4.499  1.00  0.00    -0.502 OA
ATOM     23  H   UNL     1      42.125  14.232  -4.235  1.00  0.00     0.293 HD
ENDBRANCH   2  22
BRANCH   9  24
ATOM     24  O   UNL     1      40.831  21.368  -0.215  1.00  0.00    -0.508 OA
ATOM     25  H   UNL     1      40.086  21.471   0.464  1.00  0.00     0.293 HD
ENDBRANCH   9  24
TORSDOF 5
ENDMDL
MODEL 9
REMARK VINA RESULT:    -4.927      1.534      6.527
REMARK INTER + INTRA:          -6.039
REMARK INTER:                  -5.754
REMARK INTRA:                  -0.285
REMARK UNBOUND:                -0.247
REMARK SMILES O=c1c(O)c(-c2ccc(O)c(O)c2)oc2cc(O)ccc12
REMARK SMILES IDX 5 1 3 2 2 3 1 4 21 5 15 6 14 7 16 8 17 9 19 10 20 11 6 12
REMARK SMILES IDX 7 13 8 14 9 15 13 16 11 17 10 18 12 20 4 22 18 24
REMARK H PARENT 10 19 12 21 4 23 18 25
REMARK Flexibility Score: inf
ROOT
ATOM      1  C   UNL     1      44.009  16.748  -3.321  1.00  0.00     0.180 A 
ATOM      2  C   UNL     1      44.426  17.455  -4.468  1.00  0.00     0.208 A 
ATOM      3  C   UNL     1      44.115  18.820  -4.571  1.00  0.00     0.235 A 
ATOM      4  O   UNL     1      44.486  19.477  -5.581  1.00  0.00    -0.285 OA
ATOM      5  C   UNL     1      43.383  19.440  -3.546  1.00  0.00     0.069 A 
ATOM      6  C   UNL     1      42.983  18.658  -2.441  1.00  0.00     0.142 A 
ATOM      7  O   UNL     1      43.305  17.370  -2.379  1.00  0.00    -0.452 OA
ATOM      8  C   UNL     1      42.244  19.237  -1.405  1.00  0.00     0.094 A 
ATOM      9  C   UNL     1      41.900  20.595  -1.455  1.00  0.00     0.119 A 
ATOM     10  C   UNL     1      42.298  21.372  -2.548  1.00  0.00     0.047 A 
ATOM     11  C   UNL     1      43.035  20.803  -3.590  1.00  0.00     0.020 A 
ENDROOT
BRANCH   1  12
ATOM     12  C   UNL     1      44.315  15.311  -3.129  1.00  0.00     0.025 A 
ATOM     13  C   UNL     1      43.368  14.316  -3.425  1.00  0.00     0.016 A 
ATOM     14  C   UNL     1      43.688  12.965  -3.259  1.00  0.00     0.051 A 
ATOM     15  C   UNL     1      44.961  12.590  -2.810  1.00  0.00     0.157 A 
ATOM     16  C   UNL     1      45.596  14.929  -2.699  1.00  0.00     0.062 A 
ATOM     17  C   UNL     1      45.920  13.578  -2.532  1.00  0.00     0.158 A 
BRANCH  15  18
ATOM     18  O   UNL     1      45.276  11.243  -2.644  1.00  0.00    -0.504 OA
ATOM     19  H   UNL     1      45.479  10.643  -3.435  1.00  0.00     0.293 HD
ENDBRANCH  15  18
BRANCH  17  20
ATOM     20  O   UNL     1      47.197  13.237  -2.089  1.00  0.00    -0.504 OA
ATOM     21  H   UNL     1      47.762  13.869  -1.534  1.00  0.00     0.293 HD
ENDBRANCH  17  20
ENDBRANCH   1  12
BRANCH   2  22
ATOM     22  O   UNL     1      45.110  16.799  -5.494  1.00  0.00    -0.502 OA
ATOM     23  H   UNL     1      45.100  15.791  -5.594  1.00  0.00     0.293 HD
ENDBRANCH   2  22
BRANCH   9  24
ATOM     24  O   UNL     1      41.166  21.180  -0.427  1.00  0.00    -0.508 OA
ATOM     25  H   UNL     1      41.619  21.642   0.352  1.00  0.00     0.293 HD
ENDBRANCH   9  24
TORSDOF 5
ENDMDL
