MODEL 1
REMARK VINA RESULT:    -3.552      0.000      0.000
REMARK INTER + INTRA:          -6.306
REMARK INTER:                  -5.420
REMARK INTRA:                  -0.886
REMARK UNBOUND:                -0.886
REMARK SMILES CCCCCCCCCCC(=O)[O-]
REMARK SMILES IDX 7 1 8 2 9 3 10 4 11 5 12 6 13 7 6 8 5 9 4 10 3 11 2 12 1 13
REMARK H PARENT
REMARK Flexibility Score: inf
ROOT
ATOM      1  C   UNL     1       1.915   0.012   9.578  1.00  0.00     0.000 C 
ENDROOT
BRANCH   1   2
ATOM      2  C   UNL     1       3.360   0.418   9.259  1.00  0.00     0.000 C 
BRANCH   2   3
ATOM      3  C   UNL     1       3.411   1.808   8.609  1.00  0.00     0.006 C 
BRANCH   3   4
ATOM      4  C   UNL     1       2.122   2.607   8.843  1.00  0.00     0.053 C 
BRANCH   4   5
ATOM      5  C   UNL     1       1.744   3.415   7.640  1.00  0.00     0.041 C 
ATOM      6  O   UNL     1       2.618   3.746   6.797  1.00  0.00    -0.550 OA
ATOM      7  O   UNL     1       0.429   3.831   7.468  1.00  0.00    -0.550 OA
ENDBRANCH   4   5
ENDBRANCH   3   4
ENDBRANCH   2   3
ENDBRANCH   1   2
BRANCH   1   8
ATOM      8  C   UNL     1       1.539  -1.292   8.858  1.00  0.00     0.000 C 
BRANCH   8   9
ATOM      9  C   UNL     1       0.109  -1.267   8.292  1.00  0.00    -0.000 C 
BRANCH   9  10
ATOM     10  C   UNL     1      -0.227   0.064   7.596  1.00  0.00    -0.000 C 
BRANCH  10  11
ATOM     11  C   UNL     1      -1.515   0.704   8.140  1.00  0.00    -0.000 C 
BRANCH  11  12
ATOM     12  C   UNL     1      -2.420  -0.305   8.860  1.00  0.00    -0.003 C 
ATOM     13  C   UNL     1      -3.883  -0.102   8.475  1.00  0.00     0.004 C 
ENDBRANCH  11  12
ENDBRANCH  10  11
ENDBRANCH   9  10
ENDBRANCH   8   9
ENDBRANCH   1   8
TORSDOF 9
ENDMDL
MODEL 2
REMARK VINA RESULT:    -3.479     11.325     12.733
REMARK INTER + INTRA:          -6.196
REMARK INTER:                  -5.305
REMARK INTRA:                  -0.891
REMARK UNBOUND:                -0.886
REMARK SMILES CCCCCCCCCCC(=O)[O-]
REMARK SMILES IDX 7 1 8 2 9 3 10 4 11 5 12 6 13 7 6 8 5 9 4 10 3 11 2 12 1 13
REMARK H PARENT
REMARK Flexibility Score: inf
ROOT
ATOM      1  C   UNL     1       1.079  -2.257  -2.336  1.00  0.00     0.000 C 
ENDROOT
BRANCH   1   2
ATOM      2  C   UNL     1       0.247  -3.142  -3.274  1.00  0.00     0.000 C 
BRANCH   2   3
ATOM      3  C   UNL     1       0.077  -4.553  -2.692  1.00  0.00     0.006 C 
BRANCH   3   4
ATOM      4  C   UNL     1       0.778  -4.711  -1.337  1.00  0.00     0.053 C 
BRANCH   4   5
ATOM      5  C   UNL     1      -0.130  -5.318  -0.310  1.00  0.00     0.041 C 
ATOM      6  O   UNL     1      -0.382  -4.702   0.758  1.00  0.00    -0.550 OA
ATOM      7  O   UNL     1      -0.672  -6.580  -0.522  1.00  0.00    -0.550 OA
ENDBRANCH   4   5
ENDBRANCH   3   4
ENDBRANCH   2   3
ENDBRANCH   1   2
BRANCH   1   8
ATOM      8  C   UNL     1       1.401  -0.908  -2.996  1.00  0.00     0.000 C 
BRANCH   8   9
ATOM      9  C   UNL     1       2.719  -0.933  -3.789  1.00  0.00    -0.000 C 
BRANCH   9  10
ATOM     10  C   UNL     1       3.956  -0.972  -2.874  1.00  0.00    -0.000 C 
BRANCH  10  11
ATOM     11  C   UNL     1       5.016  -1.974  -3.362  1.00  0.00    -0.000 C 
BRANCH  11  12
ATOM     12  C   UNL     1       5.115  -3.216  -2.465  1.00  0.00    -0.003 C 
ATOM     13  C   UNL     1       4.133  -4.295  -2.910  1.00  0.00     0.004 C 
ENDBRANCH  11  12
ENDBRANCH  10  11
ENDBRANCH   9  10
ENDBRANCH   8   9
ENDBRANCH   1   8
TORSDOF 9
ENDMDL
MODEL 3
REMARK VINA RESULT:    -3.421      1.048      1.862
REMARK INTER + INTRA:          -6.107
REMARK INTER:                  -5.053
REMARK INTRA:                  -1.054
REMARK UNBOUND:                -0.886
REMARK SMILES CCCCCCCCCCC(=O)[O-]
REMARK SMILES IDX 7 1 8 2 9 3 10 4 11 5 12 6 13 7 6 8 5 9 4 10 3 11 2 12 1 13
REMARK H PARENT
REMARK Flexibility Score: inf
ROOT
ATOM      1  C   UNL     1       3.360   0.339   9.461  1.00  0.00     0.000 C 
ENDROOT
BRANCH   1   2
ATOM      2  C   UNL     1       3.489   1.647   8.669  1.00  0.00     0.000 C 
BRANCH   2   3
ATOM      3  C   UNL     1       2.286   2.566   8.924  1.00  0.00     0.006 C 
BRANCH   3   4
ATOM      4  C   UNL     1       1.667   3.087   7.621  1.00  0.00     0.053 C 
BRANCH   4   5
ATOM      5  C   UNL     1       2.382   4.302   7.114  1.00  0.00     0.041 C 
ATOM      6  O   UNL     1       1.957   5.453   7.393  1.00  0.00    -0.550 OA
ATOM      7  O   UNL     1       3.502   4.160   6.303  1.00  0.00    -0.550 OA
ENDBRANCH   4   5
ENDBRANCH   3   4
ENDBRANCH   2   3
ENDBRANCH   1   2
BRANCH   1   8
ATOM      8  C   UNL     1       1.887  -0.070   9.610  1.00  0.00     0.000 C 
BRANCH   8   9
ATOM      9  C   UNL     1       1.547  -1.357   8.840  1.00  0.00    -0.000 C 
BRANCH   9  10
ATOM     10  C   UNL     1       0.129  -1.330   8.243  1.00  0.00    -0.000 C 
BRANCH  10  11
ATOM     11  C   UNL     1      -0.229   0.039   7.639  1.00  0.00    -0.000 C 
BRANCH  11  12
ATOM     12  C   UNL     1      -1.584   0.566   8.129  1.00  0.00    -0.003 C 
ATOM     13  C   UNL     1      -1.403   1.615   9.223  1.00  0.00     0.004 C 
ENDBRANCH  11  12
ENDBRANCH  10  11
ENDBRANCH   9  10
ENDBRANCH   8   9
ENDBRANCH   1   8
TORSDOF 9
ENDMDL
MODEL 4
REMARK VINA RESULT:    -3.406     11.995     12.727
REMARK INTER + INTRA:          -6.083
REMARK INTER:                  -5.007
REMARK INTRA:                  -1.076
REMARK UNBOUND:                -0.886
REMARK SMILES CCCCCCCCCCC(=O)[O-]
REMARK SMILES IDX 7 1 8 2 9 3 10 4 11 5 12 6 13 7 6 8 5 9 4 10 3 11 2 12 1 13
REMARK H PARENT
REMARK Flexibility Score: inf
ROOT
ATOM      1  C   UNL     1       4.271  -3.976  -2.860  1.00  0.00     0.000 C 
ENDROOT
BRANCH   1   2
ATOM      2  C   UNL     1       5.095  -2.722  -2.542  1.00  0.00     0.000 C 
BRANCH   2   3
ATOM      3  C   UNL     1       5.235  -1.825  -3.780  1.00  0.00     0.006 C 
BRANCH   3   4
ATOM      4  C   UNL     1       5.355  -0.341  -3.412  1.00  0.00     0.053 C 
BRANCH   4   5
ATOM      5  C   UNL     1       5.710   0.499  -4.601  1.00  0.00     0.041 C 
ATOM      6  O   UNL     1       6.326   1.586  -4.450  1.00  0.00    -0.550 OA
ATOM      7  O   UNL     1       5.329   0.095  -5.875  1.00  0.00    -0.550 OA
ENDBRANCH   4   5
ENDBRANCH   3   4
ENDBRANCH   2   3
ENDBRANCH   1   2
BRANCH   1   8
ATOM      8  C   UNL     1       2.893  -3.599  -3.425  1.00  0.00     0.000 C 
BRANCH   8   9
ATOM      9  C   UNL     1       1.757  -3.810  -2.410  1.00  0.00    -0.000 C 
BRANCH   9  10
ATOM     10  C   UNL     1       0.976  -2.516  -2.123  1.00  0.00    -0.000 C 
BRANCH  10  11
ATOM     11  C   UNL     1       1.680  -1.267  -2.681  1.00  0.00    -0.000 C 
BRANCH  11  12
ATOM     12  C   UNL     1       0.913  -0.626  -3.846  1.00  0.00    -0.003 C 
ATOM     13  C   UNL     1       1.846  -0.317  -5.013  1.00  0.00     0.004 C 
ENDBRANCH  11  12
ENDBRANCH  10  11
ENDBRANCH   9  10
ENDBRANCH   8   9
ENDBRANCH   1   8
TORSDOF 9
ENDMDL
MODEL 5
REMARK VINA RESULT:    -3.380      1.146      1.905
REMARK INTER + INTRA:          -6.043
REMARK INTER:                  -5.533
REMARK INTRA:                  -0.510
REMARK UNBOUND:                -0.886
REMARK SMILES CCCCCCCCCCC(=O)[O-]
REMARK SMILES IDX 7 1 8 2 9 3 10 4 11 5 12 6 13 7 6 8 5 9 4 10 3 11 2 12 1 13
REMARK H PARENT
REMARK Flexibility Score: inf
ROOT
ATOM      1  C   UNL     1       1.449  -1.218   8.789  1.00  0.00     0.000 C 
ENDROOT
BRANCH   1   2
ATOM      2  C   UNL     1       1.869   0.149   9.344  1.00  0.00     0.000 C 
BRANCH   2   3
ATOM      3  C   UNL     1       3.397   0.252   9.454  1.00  0.00     0.006 C 
BRANCH   3   4
ATOM      4  C   UNL     1       3.880   1.708   9.491  1.00  0.00     0.053 C 
BRANCH   4   5
ATOM      5  C   UNL     1       3.791   2.356   8.143  1.00  0.00     0.041 C 
ATOM      6  O   UNL     1       4.755   2.280   7.337  1.00  0.00    -0.550 OA
ATOM      7  O   UNL     1       2.654   3.072   7.790  1.00  0.00    -0.550 OA
ENDBRANCH   4   5
ENDBRANCH   3   4
ENDBRANCH   2   3
ENDBRANCH   1   2
BRANCH   1   8
ATOM      8  C   UNL     1       0.090  -1.129   8.079  1.00  0.00     0.000 C 
BRANCH   8   9
ATOM      9  C   UNL     1      -0.278   0.309   7.678  1.00  0.00    -0.000 C 
BRANCH   9  10
ATOM     10  C   UNL     1      -1.642   0.747   8.239  1.00  0.00    -0.000 C 
BRANCH  10  11
ATOM     11  C   UNL     1      -2.419  -0.418   8.875  1.00  0.00    -0.000 C 
BRANCH  11  12
ATOM     12  C   UNL     1      -3.911  -0.404   8.511  1.00  0.00    -0.003 C 
ATOM     13  C   UNL     1      -4.616  -1.652   9.036  1.00  0.00     0.004 C 
ENDBRANCH  11  12
ENDBRANCH  10  11
ENDBRANCH   9  10
ENDBRANCH   8   9
ENDBRANCH   1   8
TORSDOF 9
ENDMDL
MODEL 6
REMARK VINA RESULT:    -3.364      2.657      3.611
REMARK INTER + INTRA:          -6.019
REMARK INTER:                  -5.545
REMARK INTRA:                  -0.475
REMARK UNBOUND:                -0.886
REMARK SMILES CCCCCCCCCCC(=O)[O-]
REMARK SMILES IDX 7 1 8 2 9 3 10 4 11 5 12 6 13 7 6 8 5 9 4 10 3 11 2 12 1 13
REMARK H PARENT
REMARK Flexibility Score: inf
ROOT
ATOM      1  C   UNL     1       3.512   1.267   9.138  1.00  0.00     0.000 C 
ENDROOT
BRANCH   1   2
ATOM      2  C   UNL     1       3.839   2.688   8.662  1.00  0.00     0.000 C 
BRANCH   2   3
ATOM      3  C   UNL     1       4.761   2.658   7.434  1.00  0.00     0.006 C 
BRANCH   3   4
ATOM      4  C   UNL     1       6.029   1.830   7.679  1.00  0.00     0.053 C 
BRANCH   4   5
ATOM      5  C   UNL     1       7.256   2.689   7.707  1.00  0.00     0.041 C 
ATOM      6  O   UNL     1       7.223   3.858   7.243  1.00  0.00    -0.550 OA
ATOM      7  O   UNL     1       8.446   2.184   8.217  1.00  0.00    -0.550 OA
ENDBRANCH   4   5
ENDBRANCH   3   4
ENDBRANCH   2   3
ENDBRANCH   1   2
BRANCH   1   8
ATOM      8  C   UNL     1       2.025   0.945   8.925  1.00  0.00     0.000 C 
BRANCH   8   9
ATOM      9  C   UNL     1       1.716  -0.555   9.061  1.00  0.00    -0.000 C 
BRANCH   9  10
ATOM     10  C   UNL     1       0.448  -0.968   8.294  1.00  0.00    -0.000 C 
BRANCH  10  11
ATOM     11  C   UNL     1      -0.247   0.227   7.619  1.00  0.00    -0.000 C 
BRANCH  11  12
ATOM     12  C   UNL     1      -1.591   0.577   8.274  1.00  0.00    -0.003 C 
ATOM     13  C   UNL     1      -2.147  -0.609   9.056  1.00  0.00     0.004 C 
ENDBRANCH  11  12
ENDBRANCH  10  11
ENDBRANCH   9  10
ENDBRANCH   8   9
ENDBRANCH   1   8
TORSDOF 9
ENDMDL
MODEL 7
REMARK VINA RESULT:    -3.319      2.125      4.670
REMARK INTER + INTRA:          -5.952
REMARK INTER:                  -5.041
REMARK INTRA:                  -0.910
REMARK UNBOUND:                -0.886
REMARK SMILES CCCCCCCCCCC(=O)[O-]
REMARK SMILES IDX 7 1 8 2 9 3 10 4 11 5 12 6 13 7 6 8 5 9 4 10 3 11 2 12 1 13
REMARK H PARENT
REMARK Flexibility Score: inf
ROOT
ATOM      1  C   UNL     1       2.275  -1.379   9.126  1.00  0.00     0.000 C 
ENDROOT
BRANCH   1   2
ATOM      2  C   UNL     1       0.988  -0.553   9.236  1.00  0.00     0.000 C 
BRANCH   2   3
ATOM      3  C   UNL     1       0.137  -0.686   7.964  1.00  0.00     0.006 C 
BRANCH   3   4
ATOM      4  C   UNL     1      -0.700   0.571   7.692  1.00  0.00     0.053 C 
BRANCH   4   5
ATOM      5  C   UNL     1      -1.894   0.648   8.594  1.00  0.00     0.041 C 
ATOM      6  O   UNL     1      -2.236   1.747   9.103  1.00  0.00    -0.550 OA
ATOM      7  O   UNL     1      -2.610  -0.503   8.898  1.00  0.00    -0.550 OA
ENDBRANCH   4   5
ENDBRANCH   3   4
ENDBRANCH   2   3
ENDBRANCH   1   2
BRANCH   1   8
ATOM      8  C   UNL     1       3.470  -0.617   9.718  1.00  0.00     0.000 C 
BRANCH   8   9
ATOM      9  C   UNL     1       3.294   0.909   9.650  1.00  0.00    -0.000 C 
BRANCH   9  10
ATOM     10  C   UNL     1       4.358   1.587   8.769  1.00  0.00    -0.000 C 
BRANCH  10  11
ATOM     11  C   UNL     1       3.771   2.707   7.893  1.00  0.00    -0.000 C 
BRANCH  11  12
ATOM     12  C   UNL     1       2.241   2.791   7.987  1.00  0.00    -0.003 C 
ATOM     13  C   UNL     1       1.689   3.844   7.029  1.00  0.00     0.004 C 
ENDBRANCH  11  12
ENDBRANCH  10  11
ENDBRANCH   9  10
ENDBRANCH   8   9
ENDBRANCH   1   8
TORSDOF 9
ENDMDL
MODEL 8
REMARK VINA RESULT:    -3.311     11.381     12.817
REMARK INTER + INTRA:          -5.938
REMARK INTER:                  -5.381
REMARK INTRA:                  -0.557
REMARK UNBOUND:                -0.886
REMARK SMILES CCCCCCCCCCC(=O)[O-]
REMARK SMILES IDX 7 1 8 2 9 3 10 4 11 5 12 6 13 7 6 8 5 9 4 10 3 11 2 12 1 13
REMARK H PARENT
REMARK Flexibility Score: inf
ROOT
ATOM      1  C   UNL     1       1.068  -2.502  -2.211  1.00  0.00     0.000 C 
ENDROOT
BRANCH   1   2
ATOM      2  C   UNL     1       2.080  -3.612  -2.520  1.00  0.00     0.000 C 
BRANCH   2   3
ATOM      3  C   UNL     1       1.519  -4.990  -2.140  1.00  0.00     0.006 C 
BRANCH   3   4
ATOM      4  C   UNL     1       0.181  -4.888  -1.396  1.00  0.00     0.053 C 
BRANCH   4   5
ATOM      5  C   UNL     1       0.270  -5.460  -0.014  1.00  0.00     0.041 C 
ATOM      6  O   UNL     1       0.987  -6.469   0.211  1.00  0.00    -0.550 OA
ATOM      7  O   UNL     1      -0.468  -4.896   1.020  1.00  0.00    -0.550 OA
ENDBRANCH   4   5
ENDBRANCH   3   4
ENDBRANCH   2   3
ENDBRANCH   1   2
BRANCH   1   8
ATOM      8  C   UNL     1       1.637  -1.122  -2.575  1.00  0.00     0.000 C 
BRANCH   8   9
ATOM      9  C   UNL     1       1.880  -0.960  -4.085  1.00  0.00    -0.000 C 
BRANCH   9  10
ATOM     10  C   UNL     1       3.377  -0.892  -4.437  1.00  0.00    -0.000 C 
BRANCH  10  11
ATOM     11  C   UNL     1       4.266  -0.712  -3.195  1.00  0.00    -0.000 C 
BRANCH  11  12
ATOM     12  C   UNL     1       5.646  -0.131  -3.534  1.00  0.00    -0.003 C 
ATOM     13  C   UNL     1       5.579   0.754  -4.775  1.00  0.00     0.004 C 
ENDBRANCH  11  12
ENDBRANCH  10  11
ENDBRANCH   9  10
ENDBRANCH   8   9
ENDBRANCH   1   8
TORSDOF 9
ENDMDL
MODEL 9
REMARK VINA RESULT:    -3.183      1.755      2.334
REMARK INTER + INTRA:          -5.743
REMARK INTER:                  -4.400
REMARK INTRA:                  -1.344
REMARK UNBOUND:                -0.886
REMARK SMILES CCCCCCCCCCC(=O)[O-]
REMARK SMILES IDX 7 1 8 2 9 3 10 4 11 5 12 6 13 7 6 8 5 9 4 10 3 11 2 12 1 13
REMARK H PARENT
REMARK Flexibility Score: inf
ROOT
ATOM      1  C   UNL     1       2.341  -0.768   9.087  1.00  0.00     0.000 C 
ENDROOT
BRANCH   1   2
ATOM      2  C   UNL     1       2.550  -0.013  10.406  1.00  0.00     0.000 C 
BRANCH   2   3
ATOM      3  C   UNL     1       3.080   1.405  10.151  1.00  0.00     0.006 C 
BRANCH   3   4
ATOM      4  C   UNL     1       2.948   1.819   8.680  1.00  0.00     0.053 C 
BRANCH   4   5
ATOM      5  C   UNL     1       4.259   2.270   8.111  1.00  0.00     0.041 C 
ATOM      6  O   UNL     1       4.292   3.155   7.216  1.00  0.00    -0.550 OA
ATOM      7  O   UNL     1       5.442   1.689   8.548  1.00  0.00    -0.550 OA
ENDBRANCH   4   5
ENDBRANCH   3   4
ENDBRANCH   2   3
ENDBRANCH   1   2
BRANCH   1   8
ATOM      8  C   UNL     1       1.275  -1.863   9.242  1.00  0.00     0.000 C 
BRANCH   8   9
ATOM      9  C   UNL     1       0.088  -1.677   8.283  1.00  0.00    -0.000 C 
BRANCH   9  10
ATOM     10  C   UNL     1       0.041  -0.267   7.669  1.00  0.00    -0.000 C 
BRANCH  10  11
ATOM     11  C   UNL     1      -1.163   0.552   8.166  1.00  0.00    -0.000 C 
BRANCH  11  12
ATOM     12  C   UNL     1      -0.776   1.584   9.234  1.00  0.00    -0.003 C 
ATOM     13  C   UNL     1      -1.036   1.045  10.638  1.00  0.00     0.004 C 
ENDBRANCH  11  12
ENDBRANCH  10  11
ENDBRANCH   9  10
ENDBRANCH   8   9
ENDBRANCH   1   8
TORSDOF 9
ENDMDL
