MODEL 1
REMARK VINA RESULT:    -3.607      0.000      0.000
REMARK INTER + INTRA:          -5.356
REMARK INTER:                  -4.873
REMARK INTRA:                  -0.484
REMARK UNBOUND:                -0.484
REMARK SMILES O=C[C@@H](O)[C@H](O)[C@H](O)CO
REMARK SMILES IDX 7 1 9 2 10 3 5 5 3 6 2 7 1 8 4 9 6 11 8 13
REMARK H PARENT 10 4 4 10 6 12 8 14
REMARK Flexibility Score: inf
ROOT
ATOM      1  C   UNL     1      -5.760 -12.489   0.085  1.00  0.00     0.171 C 
ENDROOT
BRANCH   1   2
ATOM      2  C   UNL     1      -6.967 -11.718  -0.492  1.00  0.00     0.190 C 
BRANCH   2   3
ATOM      3  O   UNL     1      -7.711 -12.507  -1.383  1.00  0.00    -0.394 OA
ATOM      4  H   UNL     1      -7.059 -13.006  -1.939  1.00  0.00     0.210 HD
ENDBRANCH   2   3
ENDBRANCH   1   2
BRANCH   1   5
ATOM      5  C   UNL     1      -4.656 -12.848  -0.953  1.00  0.00     0.181 C 
BRANCH   5   6
ATOM      6  C   UNL     1      -4.297 -14.358  -0.984  1.00  0.00     0.209 C 
BRANCH   6   7
ATOM      7  C   UNL     1      -3.355 -14.702  -2.110  1.00  0.00     0.258 C 
ATOM      8  O   UNL     1      -2.198 -14.315  -2.096  1.00  0.00    -0.300 OA
ENDBRANCH   6   7
BRANCH   6   9
ATOM      9  O   UNL     1      -3.745 -14.767   0.243  1.00  0.00    -0.383 OA
ATOM     10  H   UNL     1      -3.675 -15.758   0.229  1.00  0.00     0.211 HD
ENDBRANCH   6   9
ENDBRANCH   5   6
BRANCH   5  11
ATOM     11  O   UNL     1      -3.497 -12.095  -0.695  1.00  0.00    -0.387 OA
ATOM     12  H   UNL     1      -2.771 -12.737  -0.485  1.00  0.00     0.211 HD
ENDBRANCH   5  11
ENDBRANCH   1   5
BRANCH   1  13
ATOM     13  O   UNL     1      -6.189 -13.641   0.767  1.00  0.00    -0.388 OA
ATOM     14  H   UNL     1      -6.907 -13.376   1.398  1.00  0.00     0.211 HD
ENDBRANCH   1  13
TORSDOF 8
ENDMDL
MODEL 2
REMARK VINA RESULT:    -3.317     15.463     16.520
REMARK INTER + INTRA:          -4.964
REMARK INTER:                  -4.571
REMARK INTRA:                  -0.393
REMARK UNBOUND:                -0.484
REMARK SMILES O=C[C@@H](O)[C@H](O)[C@H](O)CO
REMARK SMILES IDX 7 1 9 2 10 3 5 5 3 6 2 7 1 8 4 9 6 11 8 13
REMARK H PARENT 10 4 4 10 6 12 8 14
REMARK Flexibility Score: inf
ROOT
ATOM      1  C   UNL     1       0.248  -1.626  10.543  1.00  0.00     0.171 C 
ENDROOT
BRANCH   1   2
ATOM      2  C   UNL     1      -0.119  -2.893  11.347  1.00  0.00     0.190 C 
BRANCH   2   3
ATOM      3  O   UNL     1      -1.445  -3.290  11.115  1.00  0.00    -0.394 OA
ATOM      4  H   UNL     1      -1.731  -2.861  10.268  1.00  0.00     0.210 HD
ENDBRANCH   2   3
ENDBRANCH   1   2
BRANCH   1   5
ATOM      5  C   UNL     1       1.583  -1.719   9.749  1.00  0.00     0.181 C 
BRANCH   5   6
ATOM      6  C   UNL     1       1.569  -0.927   8.413  1.00  0.00     0.209 C 
BRANCH   6   7
ATOM      7  C   UNL     1       2.125  -1.729   7.263  1.00  0.00     0.258 C 
ATOM      8  O   UNL     1       1.380  -2.321   6.498  1.00  0.00    -0.300 OA
ENDBRANCH   6   7
BRANCH   6   9
ATOM      9  O   UNL     1       0.270  -0.486   8.105  1.00  0.00    -0.383 OA
ATOM     10  H   UNL     1       0.307   0.497   7.972  1.00  0.00     0.211 HD
ENDBRANCH   6   9
ENDBRANCH   5   6
BRANCH   5  11
ATOM     11  O   UNL     1       1.891  -3.067   9.492  1.00  0.00    -0.387 OA
ATOM     12  H   UNL     1       1.773  -3.214   8.517  1.00  0.00     0.211 HD
ENDBRANCH   5  11
ENDBRANCH   1   5
BRANCH   1  13
ATOM     13  O   UNL     1       0.248  -0.494  11.378  1.00  0.00    -0.388 OA
ATOM     14  H   UNL     1      -0.507   0.089  11.105  1.00  0.00     0.211 HD
ENDBRANCH   1  13
TORSDOF 8
ENDMDL
MODEL 3
REMARK VINA RESULT:    -3.305      1.098      4.066
REMARK INTER + INTRA:          -4.947
REMARK INTER:                  -4.464
REMARK INTRA:                  -0.483
REMARK UNBOUND:                -0.484
REMARK SMILES O=C[C@@H](O)[C@H](O)[C@H](O)CO
REMARK SMILES IDX 7 1 9 2 10 3 5 5 3 6 2 7 1 8 4 9 6 11 8 13
REMARK H PARENT 10 4 4 10 6 12 8 14
REMARK Flexibility Score: inf
ROOT
ATOM      1  C   UNL     1      -4.046 -13.348  -1.133  1.00  0.00     0.171 C 
ENDROOT
BRANCH   1   2
ATOM      2  C   UNL     1      -3.397 -14.442  -2.008  1.00  0.00     0.190 C 
BRANCH   2   3
ATOM      3  O   UNL     1      -2.774 -15.429  -1.229  1.00  0.00    -0.394 OA
ATOM      4  H   UNL     1      -3.455 -15.769  -0.593  1.00  0.00     0.210 HD
ENDBRANCH   2   3
ENDBRANCH   1   2
BRANCH   1   5
ATOM      5  C   UNL     1      -5.476 -13.684  -0.619  1.00  0.00     0.181 C 
BRANCH   5   6
ATOM      6  C   UNL     1      -6.088 -12.581   0.287  1.00  0.00     0.209 C 
BRANCH   6   7
ATOM      7  C   UNL     1      -7.099 -11.732  -0.441  1.00  0.00     0.258 C 
ATOM      8  O   UNL     1      -6.851 -11.279  -1.548  1.00  0.00    -0.300 OA
ENDBRANCH   6   7
BRANCH   6   9
ATOM      9  O   UNL     1      -6.675 -13.144   1.434  1.00  0.00    -0.383 OA
ATOM     10  H   UNL     1      -5.949 -13.332   2.086  1.00  0.00     0.211 HD
ENDBRANCH   6   9
ENDBRANCH   5   6
BRANCH   5  11
ATOM     11  O   UNL     1      -5.458 -14.906   0.076  1.00  0.00    -0.387 OA
ATOM     12  H   UNL     1      -5.474 -14.692   1.045  1.00  0.00     0.211 HD
ENDBRANCH   5  11
ENDBRANCH   1   5
BRANCH   1  13
ATOM     13  O   UNL     1      -4.040 -12.112  -1.803  1.00  0.00    -0.388 OA
ATOM     14  H   UNL     1      -4.849 -12.068  -2.375  1.00  0.00     0.211 HD
ENDBRANCH   1  13
TORSDOF 8
ENDMDL
MODEL 4
REMARK VINA RESULT:    -3.247      1.472      2.473
REMARK INTER + INTRA:          -4.869
REMARK INTER:                  -4.219
REMARK INTRA:                  -0.650
REMARK UNBOUND:                -0.484
REMARK SMILES O=C[C@@H](O)[C@H](O)[C@H](O)CO
REMARK SMILES IDX 7 1 9 2 10 3 5 5 3 6 2 7 1 8 4 9 6 11 8 13
REMARK H PARENT 10 4 4 10 6 12 8 14
REMARK Flexibility Score: inf
ROOT
ATOM      1  C   UNL     1      -5.655 -12.632  -0.893  1.00  0.00     0.171 C 
ENDROOT
BRANCH   1   2
ATOM      2  C   UNL     1      -6.576 -11.776   0.003  1.00  0.00     0.190 C 
BRANCH   2   3
ATOM      3  O   UNL     1      -6.784 -12.374   1.256  1.00  0.00    -0.394 OA
ATOM      4  H   UNL     1      -6.280 -13.228   1.256  1.00  0.00     0.210 HD
ENDBRANCH   2   3
ENDBRANCH   1   2
BRANCH   1   5
ATOM      5  C   UNL     1      -5.056 -13.892  -0.202  1.00  0.00     0.181 C 
BRANCH   5   6
ATOM      6  C   UNL     1      -3.715 -14.366  -0.826  1.00  0.00     0.209 C 
BRANCH   6   7
ATOM      7  C   UNL     1      -3.022 -15.403   0.021  1.00  0.00     0.258 C 
ATOM      8  O   UNL     1      -3.471 -15.721   1.111  1.00  0.00    -0.300 OA
ENDBRANCH   6   7
BRANCH   6   9
ATOM      9  O   UNL     1      -3.915 -14.866  -2.125  1.00  0.00    -0.383 OA
ATOM     10  H   UNL     1      -4.020 -15.851  -2.058  1.00  0.00     0.211 HD
ENDBRANCH   6   9
ENDBRANCH   5   6
BRANCH   5  11
ATOM     11  O   UNL     1      -5.988 -14.944  -0.239  1.00  0.00    -0.387 OA
ATOM     12  H   UNL     1      -5.478 -15.791  -0.158  1.00  0.00     0.211 HD
ENDBRANCH   5  11
ENDBRANCH   1   5
BRANCH   1  13
ATOM     13  O   UNL     1      -4.634 -11.842  -1.450  1.00  0.00    -0.388 OA
ATOM     14  H   UNL     1      -4.134 -12.399  -2.101  1.00  0.00     0.211 HD
ENDBRANCH   1  13
TORSDOF 8
ENDMDL
MODEL 5
REMARK VINA RESULT:    -3.017      6.905      7.993
REMARK INTER + INTRA:          -4.559
REMARK INTER:                  -4.291
REMARK INTRA:                  -0.268
REMARK UNBOUND:                -0.484
REMARK SMILES O=C[C@@H](O)[C@H](O)[C@H](O)CO
REMARK SMILES IDX 7 1 9 2 10 3 5 5 3 6 2 7 1 8 4 9 6 11 8 13
REMARK H PARENT 10 4 4 10 6 12 8 14
REMARK Flexibility Score: inf
ROOT
ATOM      1  C   UNL     1       0.115  -8.862   1.828  1.00  0.00     0.171 C 
ENDROOT
BRANCH   1   2
ATOM      2  C   UNL     1       1.113  -8.537   2.960  1.00  0.00     0.190 C 
BRANCH   2   3
ATOM      3  O   UNL     1       0.577  -7.621   3.879  1.00  0.00    -0.394 OA
ATOM      4  H   UNL     1       1.144  -6.808   3.839  1.00  0.00     0.210 HD
ENDBRANCH   2   3
ENDBRANCH   1   2
BRANCH   1   5
ATOM      5  C   UNL     1       0.294  -8.015   0.535  1.00  0.00     0.181 C 
BRANCH   5   6
ATOM      6  C   UNL     1       1.589  -8.347  -0.253  1.00  0.00     0.209 C 
BRANCH   6   7
ATOM      7  C   UNL     1       1.617  -9.774  -0.740  1.00  0.00     0.258 C 
ATOM      8  O   UNL     1       0.659 -10.252  -1.326  1.00  0.00    -0.300 OA
ENDBRANCH   6   7
BRANCH   6   9
ATOM      9  O   UNL     1       1.755  -7.469  -1.339  1.00  0.00    -0.383 OA
ATOM     10  H   UNL     1       2.505  -6.855  -1.122  1.00  0.00     0.211 HD
ENDBRANCH   6   9
ENDBRANCH   5   6
BRANCH   5  11
ATOM     11  O   UNL     1       0.278  -6.646   0.857  1.00  0.00    -0.387 OA
ATOM     12  H   UNL     1      -0.674  -6.370   0.918  1.00  0.00     0.211 HD
ENDBRANCH   5  11
ENDBRANCH   1   5
BRANCH   1  13
ATOM     13  O   UNL     1      -1.209  -8.777   2.296  1.00  0.00    -0.388 OA
ATOM     14  H   UNL     1      -1.553  -7.872   2.080  1.00  0.00     0.211 HD
ENDBRANCH   1  13
TORSDOF 8
ENDMDL
MODEL 6
REMARK VINA RESULT:    -2.781      1.902      3.480
REMARK INTER + INTRA:          -4.239
REMARK INTER:                  -3.717
REMARK INTRA:                  -0.523
REMARK UNBOUND:                -0.484
REMARK SMILES O=C[C@@H](O)[C@H](O)[C@H](O)CO
REMARK SMILES IDX 7 1 9 2 10 3 5 5 3 6 2 7 1 8 4 9 6 11 8 13
REMARK H PARENT 10 4 4 10 6 12 8 14
REMARK Flexibility Score: inf
ROOT
ATOM      1  C   UNL     1      -3.570 -12.554  -1.508  1.00  0.00     0.171 C 
ENDROOT
BRANCH   1   2
ATOM      2  C   UNL     1      -2.249 -12.046  -2.125  1.00  0.00     0.190 C 
BRANCH   2   3
ATOM      3  O   UNL     1      -1.709 -10.978  -1.392  1.00  0.00    -0.394 OA
ATOM      4  H   UNL     1      -1.754 -11.233  -0.434  1.00  0.00     0.210 HD
ENDBRANCH   2   3
ENDBRANCH   1   2
BRANCH   1   5
ATOM      5  C   UNL     1      -3.874 -14.059  -1.762  1.00  0.00     0.181 C 
BRANCH   5   6
ATOM      6  C   UNL     1      -4.694 -14.729  -0.627  1.00  0.00     0.209 C 
BRANCH   6   7
ATOM      7  C   UNL     1      -3.887 -14.916   0.633  1.00  0.00     0.258 C 
ATOM      8  O   UNL     1      -3.128 -15.864   0.754  1.00  0.00    -0.300 OA
ENDBRANCH   6   7
BRANCH   6   9
ATOM      9  O   UNL     1      -5.856 -13.990  -0.345  1.00  0.00    -0.383 OA
ATOM     10  H   UNL     1      -6.540 -14.620   0.005  1.00  0.00     0.211 HD
ENDBRANCH   6   9
ENDBRANCH   5   6
BRANCH   5  11
ATOM     11  O   UNL     1      -2.671 -14.763  -1.951  1.00  0.00    -0.387 OA
ATOM     12  H   UNL     1      -2.448 -14.709  -2.916  1.00  0.00     0.211 HD
ENDBRANCH   5  11
ENDBRANCH   1   5
BRANCH   1  13
ATOM     13  O   UNL     1      -4.649 -11.755  -1.924  1.00  0.00    -0.388 OA
ATOM     14  H   UNL     1      -4.782 -11.041  -1.248  1.00  0.00     0.211 HD
ENDBRANCH   1  13
TORSDOF 8
ENDMDL
MODEL 7
REMARK VINA RESULT:    -2.746      6.407      7.760
REMARK INTER + INTRA:          -4.193
REMARK INTER:                  -3.725
REMARK INTRA:                  -0.468
REMARK UNBOUND:                -0.484
REMARK SMILES O=C[C@@H](O)[C@H](O)[C@H](O)CO
REMARK SMILES IDX 7 1 9 2 10 3 5 5 3 6 2 7 1 8 4 9 6 11 8 13
REMARK H PARENT 10 4 4 10 6 12 8 14
REMARK Flexibility Score: inf
ROOT
ATOM      1  C   UNL     1       1.149  -7.338   0.964  1.00  0.00     0.171 C 
ENDROOT
BRANCH   1   2
ATOM      2  C   UNL     1       1.905  -7.260  -0.380  1.00  0.00     0.190 C 
BRANCH   2   3
ATOM      3  O   UNL     1       2.094  -8.530  -0.946  1.00  0.00    -0.394 OA
ATOM      4  H   UNL     1       1.656  -9.183  -0.341  1.00  0.00     0.210 HD
ENDBRANCH   2   3
ENDBRANCH   1   2
BRANCH   1   5
ATOM      5  C   UNL     1       0.544  -8.734   1.294  1.00  0.00     0.181 C 
BRANCH   5   6
ATOM      6  C   UNL     1      -0.935  -8.892   0.849  1.00  0.00     0.209 C 
BRANCH   6   7
ATOM      7  C   UNL     1      -1.097  -9.894  -0.266  1.00  0.00     0.258 C 
ATOM      8  O   UNL     1      -0.131 -10.270  -0.912  1.00  0.00    -0.300 OA
ENDBRANCH   6   7
BRANCH   6   9
ATOM      9  O   UNL     1      -1.750  -9.252   1.937  1.00  0.00    -0.383 OA
ATOM     10  H   UNL     1      -1.507 -10.177   2.205  1.00  0.00     0.211 HD
ENDBRANCH   6   9
ENDBRANCH   5   6
BRANCH   5  11
ATOM     11  O   UNL     1       0.649  -8.984   2.673  1.00  0.00    -0.387 OA
ATOM     12  H   UNL     1       1.441  -9.568   2.806  1.00  0.00     0.211 HD
ENDBRANCH   5  11
ENDBRANCH   1   5
BRANCH   1  13
ATOM     13  O   UNL     1       0.160  -6.342   1.034  1.00  0.00    -0.388 OA
ATOM     14  H   UNL     1      -0.683  -6.719   0.674  1.00  0.00     0.211 HD
ENDBRANCH   1  13
TORSDOF 8
ENDMDL
MODEL 8
REMARK VINA RESULT:    -2.562      7.342      8.441
REMARK INTER + INTRA:          -3.944
REMARK INTER:                  -3.164
REMARK INTRA:                  -0.780
REMARK UNBOUND:                -0.484
REMARK SMILES O=C[C@@H](O)[C@H](O)[C@H](O)CO
REMARK SMILES IDX 7 1 9 2 10 3 5 5 3 6 2 7 1 8 4 9 6 11 8 13
REMARK H PARENT 10 4 4 10 6 12 8 14
REMARK Flexibility Score: inf
ROOT
ATOM      1  C   UNL     1       0.642  -7.986   2.343  1.00  0.00     0.171 C 
ENDROOT
BRANCH   1   2
ATOM      2  C   UNL     1      -0.423  -9.038   1.963  1.00  0.00     0.190 C 
BRANCH   2   3
ATOM      3  O   UNL     1      -0.741  -8.985   0.597  1.00  0.00    -0.394 OA
ATOM      4  H   UNL     1      -1.407  -9.701   0.429  1.00  0.00     0.210 HD
ENDBRANCH   2   3
ENDBRANCH   1   2
BRANCH   1   5
ATOM      5  C   UNL     1       1.972  -8.081   1.541  1.00  0.00     0.181 C 
BRANCH   5   6
ATOM      6  C   UNL     1       2.078  -7.049   0.386  1.00  0.00     0.209 C 
BRANCH   6   7
ATOM      7  C   UNL     1       2.123  -7.706  -0.971  1.00  0.00     0.258 C 
ATOM      8  O   UNL     1       1.271  -8.517  -1.300  1.00  0.00    -0.300 OA
ENDBRANCH   6   7
BRANCH   6   9
ATOM      9  O   UNL     1       1.016  -6.130   0.436  1.00  0.00    -0.383 OA
ATOM     10  H   UNL     1       0.641  -6.148   1.356  1.00  0.00     0.211 HD
ENDBRANCH   6   9
ENDBRANCH   5   6
BRANCH   5  11
ATOM     11  O   UNL     1       2.125  -9.380   1.026  1.00  0.00    -0.387 OA
ATOM     12  H   UNL     1       1.232  -9.813   1.050  1.00  0.00     0.211 HD
ENDBRANCH   5  11
ENDBRANCH   1   5
BRANCH   1  13
ATOM     13  O   UNL     1       0.896  -8.017   3.726  1.00  0.00    -0.388 OA
ATOM     14  H   UNL     1       0.192  -7.485   4.180  1.00  0.00     0.211 HD
ENDBRANCH   1  13
TORSDOF 8
ENDMDL
