MODEL 1
REMARK VINA RESULT:    -3.582      0.000      0.000
REMARK INTER + INTRA:          -5.969
REMARK INTER:                  -5.467
REMARK INTRA:                  -0.501
REMARK UNBOUND:                -0.501
REMARK SMILES O=C([O-])CCCCCCCCC(=O)[O-]
REMARK SMILES IDX 7 1 6 2 5 3 4 4 2 5 1 6 3 7 8 8 9 9 10 10 11 11 12 12 13 13
REMARK SMILES IDX 14 14
REMARK H PARENT
REMARK Flexibility Score: inf
ROOT
ATOM      1  C   UNL     1      56.732  28.066  50.723  1.00  0.00     0.000 C 
ENDROOT
BRANCH   1   2
ATOM      2  C   UNL     1      55.330  28.710  50.757  1.00  0.00     0.000 C 
BRANCH   2   3
ATOM      3  C   UNL     1      54.222  27.731  50.341  1.00  0.00     0.006 C 
BRANCH   3   4
ATOM      4  C   UNL     1      54.789  26.329  50.101  1.00  0.00     0.053 C 
BRANCH   4   5
ATOM      5  C   UNL     1      53.712  25.401  49.636  1.00  0.00     0.041 C 
ATOM      6  O   UNL     1      52.885  25.777  48.763  1.00  0.00    -0.550 OA
ATOM      7  O   UNL     1      53.650  24.104  50.129  1.00  0.00    -0.550 OA
ENDBRANCH   4   5
ENDBRANCH   3   4
ENDBRANCH   2   3
ENDBRANCH   1   2
BRANCH   1   8
ATOM      8  C   UNL     1      57.873  29.045  51.056  1.00  0.00     0.000 C 
BRANCH   8   9
ATOM      9  C   UNL     1      59.000  29.113  50.008  1.00  0.00     0.000 C 
BRANCH   9  10
ATOM     10  C   UNL     1      59.568  27.747  49.569  1.00  0.00     0.006 C 
BRANCH  10  11
ATOM     11  C   UNL     1      60.584  27.135  50.547  1.00  0.00     0.053 C 
BRANCH  11  12
ATOM     12  C   UNL     1      60.008  25.981  51.310  1.00  0.00     0.041 C 
ATOM     13  O   UNL     1      60.302  25.814  52.523  1.00  0.00    -0.550 OA
ATOM     14  O   UNL     1      59.174  25.072  50.671  1.00  0.00    -0.550 OA
ENDBRANCH  11  12
ENDBRANCH  10  11
ENDBRANCH   9  10
ENDBRANCH   8   9
ENDBRANCH   1   8
TORSDOF 9
ENDMDL
MODEL 2
REMARK VINA RESULT:    -3.568      1.614      2.156
REMARK INTER + INTRA:          -5.946
REMARK INTER:                  -5.347
REMARK INTRA:                  -0.600
REMARK UNBOUND:                -0.501
REMARK SMILES O=C([O-])CCCCCCCCC(=O)[O-]
REMARK SMILES IDX 7 1 6 2 5 3 4 4 2 5 1 6 3 7 8 8 9 9 10 10 11 11 12 12 13 13
REMARK SMILES IDX 14 14
REMARK H PARENT
REMARK Flexibility Score: inf
ROOT
ATOM      1  C   UNL     1      55.406  30.464  50.829  1.00  0.00     0.000 C 
ENDROOT
BRANCH   1   2
ATOM      2  C   UNL     1      54.123  29.606  50.818  1.00  0.00     0.000 C 
BRANCH   2   3
ATOM      3  C   UNL     1      54.403  28.123  51.107  1.00  0.00     0.006 C 
BRANCH   3   4
ATOM      4  C   UNL     1      53.842  27.230  49.997  1.00  0.00     0.053 C 
BRANCH   4   5
ATOM      5  C   UNL     1      54.552  25.914  49.975  1.00  0.00     0.041 C 
ATOM      6  O   UNL     1      53.942  24.872  49.618  1.00  0.00    -0.550 OA
ATOM      7  O   UNL     1      55.900  25.845  50.301  1.00  0.00    -0.550 OA
ENDBRANCH   4   5
ENDBRANCH   3   4
ENDBRANCH   2   3
ENDBRANCH   1   2
BRANCH   1   8
ATOM      8  C   UNL     1      56.298  30.228  52.062  1.00  0.00     0.000 C 
BRANCH   8   9
ATOM      9  C   UNL     1      57.709  29.694  51.751  1.00  0.00     0.000 C 
BRANCH   9  10
ATOM     10  C   UNL     1      57.860  29.003  50.379  1.00  0.00     0.006 C 
BRANCH  10  11
ATOM     11  C   UNL     1      59.284  29.035  49.801  1.00  0.00     0.053 C 
BRANCH  11  12
ATOM     12  C   UNL     1      59.928  27.682  49.819  1.00  0.00     0.041 C 
ATOM     13  O   UNL     1      61.166  27.569  49.618  1.00  0.00    -0.550 OA
ATOM     14  O   UNL     1      59.156  26.546  50.023  1.00  0.00    -0.550 OA
ENDBRANCH  11  12
ENDBRANCH  10  11
ENDBRANCH   9  10
ENDBRANCH   8   9
ENDBRANCH   1   8
TORSDOF 9
ENDMDL
MODEL 3
REMARK VINA RESULT:    -3.479      1.497      5.589
REMARK INTER + INTRA:          -5.811
REMARK INTER:                  -5.327
REMARK INTRA:                  -0.484
REMARK UNBOUND:                -0.501
REMARK SMILES O=C([O-])CCCCCCCCC(=O)[O-]
REMARK SMILES IDX 7 1 6 2 5 3 4 4 2 5 1 6 3 7 8 8 9 9 10 10 11 11 12 12 13 13
REMARK SMILES IDX 14 14
REMARK H PARENT
REMARK Flexibility Score: inf
ROOT
ATOM      1  C   UNL     1      56.762  30.143  50.658  1.00  0.00     0.000 C 
ENDROOT
BRANCH   1   2
ATOM      2  C   UNL     1      57.758  30.020  51.831  1.00  0.00     0.000 C 
BRANCH   2   3
ATOM      3  C   UNL     1      58.943  29.099  51.503  1.00  0.00     0.006 C 
BRANCH   3   4
ATOM      4  C   UNL     1      58.872  28.607  50.054  1.00  0.00     0.053 C 
BRANCH   4   5
ATOM      5  C   UNL     1      59.770  27.428  49.858  1.00  0.00     0.041 C 
ATOM      6  O   UNL     1      61.014  27.591  49.747  1.00  0.00    -0.550 OA
ATOM      7  O   UNL     1      59.241  26.143  49.846  1.00  0.00    -0.550 OA
ENDBRANCH   4   5
ENDBRANCH   3   4
ENDBRANCH   2   3
ENDBRANCH   1   2
BRANCH   1   8
ATOM      8  C   UNL     1      55.396  30.728  51.064  1.00  0.00     0.000 C 
BRANCH   8   9
ATOM      9  C   UNL     1      54.205  29.763  50.913  1.00  0.00     0.000 C 
BRANCH   9  10
ATOM     10  C   UNL     1      54.578  28.323  50.504  1.00  0.00     0.006 C 
BRANCH  10  11
ATOM     11  C   UNL     1      53.381  27.440  50.114  1.00  0.00     0.053 C 
BRANCH  11  12
ATOM     12  C   UNL     1      53.812  26.090  49.629  1.00  0.00     0.041 C 
ATOM     13  O   UNL     1      54.979  25.676  49.863  1.00  0.00    -0.550 OA
ATOM     14  O   UNL     1      52.938  25.304  48.889  1.00  0.00    -0.550 OA
ENDBRANCH  11  12
ENDBRANCH  10  11
ENDBRANCH   9  10
ENDBRANCH   8   9
ENDBRANCH   1   8
TORSDOF 9
ENDMDL
MODEL 4
REMARK VINA RESULT:    -3.462      0.932      5.276
REMARK INTER + INTRA:          -5.785
REMARK INTER:                  -5.128
REMARK INTRA:                  -0.657
REMARK UNBOUND:                -0.501
REMARK SMILES O=C([O-])CCCCCCCCC(=O)[O-]
REMARK SMILES IDX 7 1 6 2 5 3 4 4 2 5 1 6 3 7 8 8 9 9 10 10 11 11 12 12 13 13
REMARK SMILES IDX 14 14
REMARK H PARENT
REMARK Flexibility Score: inf
ROOT
ATOM      1  C   UNL     1      58.166  29.327  50.699  1.00  0.00     0.000 C 
ENDROOT
BRANCH   1   2
ATOM      2  C   UNL     1      59.190  28.561  49.835  1.00  0.00     0.000 C 
BRANCH   2   3
ATOM      3  C   UNL     1      58.981  27.039  49.887  1.00  0.00     0.006 C 
BRANCH   3   4
ATOM      4  C   UNL     1      60.088  26.360  50.698  1.00  0.00     0.053 C 
BRANCH   4   5
ATOM      5  C   UNL     1      59.598  25.069  51.272  1.00  0.00     0.041 C 
ATOM      6  O   UNL     1      60.415  24.161  51.578  1.00  0.00    -0.550 OA
ATOM      7  O   UNL     1      58.242  24.886  51.517  1.00  0.00    -0.550 OA
ENDBRANCH   4   5
ENDBRANCH   3   4
ENDBRANCH   2   3
ENDBRANCH   1   2
BRANCH   1   8
ATOM      8  C   UNL     1      57.054  28.434  51.281  1.00  0.00     0.000 C 
BRANCH   8   9
ATOM      9  C   UNL     1      55.620  28.938  51.035  1.00  0.00     0.000 C 
BRANCH   9  10
ATOM     10  C   UNL     1      54.657  27.897  50.427  1.00  0.00     0.006 C 
BRANCH  10  11
ATOM     11  C   UNL     1      55.237  26.478  50.319  1.00  0.00     0.053 C 
BRANCH  11  12
ATOM     12  C   UNL     1      54.166  25.443  50.152  1.00  0.00     0.041 C 
ATOM     13  O   UNL     1      53.560  25.331  49.053  1.00  0.00    -0.550 OA
ATOM     14  O   UNL     1      53.813  24.628  51.220  1.00  0.00    -0.550 OA
ENDBRANCH  11  12
ENDBRANCH  10  11
ENDBRANCH   9  10
ENDBRANCH   8   9
ENDBRANCH   1   8
TORSDOF 9
ENDMDL
MODEL 5
REMARK VINA RESULT:    -3.401      2.413      4.958
REMARK INTER + INTRA:          -5.691
REMARK INTER:                  -4.866
REMARK INTRA:                  -0.825
REMARK UNBOUND:                -0.501
REMARK SMILES O=C([O-])CCCCCCCCC(=O)[O-]
REMARK SMILES IDX 7 1 6 2 5 3 4 4 2 5 1 6 3 7 8 8 9 9 10 10 11 11 12 12 13 13
REMARK SMILES IDX 14 14
REMARK H PARENT
REMARK Flexibility Score: inf
ROOT
ATOM      1  C   UNL     1      54.433  29.919  51.477  1.00  0.00     0.000 C 
ENDROOT
BRANCH   1   2
ATOM      2  C   UNL     1      55.634  30.636  50.825  1.00  0.00     0.000 C 
BRANCH   2   3
ATOM      3  C   UNL     1      56.982  30.156  51.386  1.00  0.00     0.006 C 
BRANCH   3   4
ATOM      4  C   UNL     1      57.657  29.173  50.425  1.00  0.00     0.053 C 
BRANCH   4   5
ATOM      5  C   UNL     1      59.080  28.943  50.827  1.00  0.00     0.041 C 
ATOM      6  O   UNL     1      59.459  29.215  51.996  1.00  0.00    -0.550 OA
ATOM      7  O   UNL     1      59.976  28.383  49.925  1.00  0.00    -0.550 OA
ENDBRANCH   4   5
ENDBRANCH   3   4
ENDBRANCH   2   3
ENDBRANCH   1   2
BRANCH   1   8
ATOM      8  C   UNL     1      53.419  29.361  50.461  1.00  0.00     0.000 C 
BRANCH   8   9
ATOM      9  C   UNL     1      53.591  27.868  50.123  1.00  0.00     0.000 C 
BRANCH   9  10
ATOM     10  C   UNL     1      54.628  27.118  50.985  1.00  0.00     0.006 C 
BRANCH  10  11
ATOM     11  C   UNL     1      55.454  26.071  50.221  1.00  0.00     0.053 C 
BRANCH  11  12
ATOM     12  C   UNL     1      56.658  25.629  50.996  1.00  0.00     0.041 C 
ATOM     13  O   UNL     1      56.544  25.293  52.205  1.00  0.00    -0.550 OA
ATOM     14  O   UNL     1      57.909  25.621  50.394  1.00  0.00    -0.550 OA
ENDBRANCH  11  12
ENDBRANCH  10  11
ENDBRANCH   9  10
ENDBRANCH   8   9
ENDBRANCH   1   8
TORSDOF 9
ENDMDL
MODEL 6
REMARK VINA RESULT:    -3.385      2.365      3.198
REMARK INTER + INTRA:          -5.668
REMARK INTER:                  -4.689
REMARK INTRA:                  -0.979
REMARK UNBOUND:                -0.501
REMARK SMILES O=C([O-])CCCCCCCCC(=O)[O-]
REMARK SMILES IDX 7 1 6 2 5 3 4 4 2 5 1 6 3 7 8 8 9 9 10 10 11 11 12 12 13 13
REMARK SMILES IDX 14 14
REMARK H PARENT
REMARK Flexibility Score: inf
ROOT
ATOM      1  C   UNL     1      58.946  29.372  51.447  1.00  0.00     0.000 C 
ENDROOT
BRANCH   1   2
ATOM      2  C   UNL     1      57.500  29.603  51.935  1.00  0.00     0.000 C 
BRANCH   2   3
ATOM      3  C   UNL     1      56.503  29.742  50.774  1.00  0.00     0.006 C 
BRANCH   3   4
ATOM      4  C   UNL     1      55.346  28.748  50.921  1.00  0.00     0.053 C 
BRANCH   4   5
ATOM      5  C   UNL     1      54.034  29.446  50.756  1.00  0.00     0.041 C 
ATOM      6  O   UNL     1      53.135  28.941  50.033  1.00  0.00    -0.550 OA
ATOM      7  O   UNL     1      53.783  30.628  51.441  1.00  0.00    -0.550 OA
ENDBRANCH   4   5
ENDBRANCH   3   4
ENDBRANCH   2   3
ENDBRANCH   1   2
BRANCH   1   8
ATOM      8  C   UNL     1      59.046  29.010  49.953  1.00  0.00     0.000 C 
BRANCH   8   9
ATOM      9  C   UNL     1      59.812  27.708  49.649  1.00  0.00     0.000 C 
BRANCH   9  10
ATOM     10  C   UNL     1      59.517  26.537  50.610  1.00  0.00     0.006 C 
BRANCH  10  11
ATOM     11  C   UNL     1      58.130  25.898  50.430  1.00  0.00     0.053 C 
BRANCH  11  12
ATOM     12  C   UNL     1      57.377  25.816  51.722  1.00  0.00     0.041 C 
ATOM     13  O   UNL     1      57.917  26.196  52.795  1.00  0.00    -0.550 OA
ATOM     14  O   UNL     1      56.092  25.288  51.746  1.00  0.00    -0.550 OA
ENDBRANCH  11  12
ENDBRANCH  10  11
ENDBRANCH   9  10
ENDBRANCH   8   9
ENDBRANCH   1   8
TORSDOF 9
ENDMDL
MODEL 7
REMARK VINA RESULT:    -3.354      2.784      5.929
REMARK INTER + INTRA:          -5.619
REMARK INTER:                  -4.659
REMARK INTRA:                  -0.961
REMARK UNBOUND:                -0.501
REMARK SMILES O=C([O-])CCCCCCCCC(=O)[O-]
REMARK SMILES IDX 7 1 6 2 5 3 4 4 2 5 1 6 3 7 8 8 9 9 10 10 11 11 12 12 13 13
REMARK SMILES IDX 14 14
REMARK H PARENT
REMARK Flexibility Score: inf
ROOT
ATOM      1  C   UNL     1      56.663  27.261  51.959  1.00  0.00     0.000 C 
ENDROOT
BRANCH   1   2
ATOM      2  C   UNL     1      57.687  28.413  51.877  1.00  0.00     0.000 C 
BRANCH   2   3
ATOM      3  C   UNL     1      57.982  28.837  50.430  1.00  0.00     0.006 C 
BRANCH   3   4
ATOM      4  C   UNL     1      59.490  28.942  50.185  1.00  0.00     0.053 C 
BRANCH   4   5
ATOM      5  C   UNL     1      60.117  27.585  50.194  1.00  0.00     0.041 C 
ATOM      6  O   UNL     1      59.507  26.601  49.697  1.00  0.00    -0.550 OA
ATOM      7  O   UNL     1      61.397  27.413  50.707  1.00  0.00    -0.550 OA
ENDBRANCH   4   5
ENDBRANCH   3   4
ENDBRANCH   2   3
ENDBRANCH   1   2
BRANCH   1   8
ATOM      8  C   UNL     1      56.154  26.785  50.585  1.00  0.00     0.000 C 
BRANCH   8   9
ATOM      9  C   UNL     1      54.658  27.037  50.323  1.00  0.00     0.000 C 
BRANCH   9  10
ATOM     10  C   UNL     1      54.021  28.149  51.181  1.00  0.00     0.006 C 
BRANCH  10  11
ATOM     11  C   UNL     1      53.975  29.529  50.505  1.00  0.00     0.053 C 
BRANCH  11  12
ATOM     12  C   UNL     1      54.732  30.562  51.283  1.00  0.00     0.041 C 
ATOM     13  O   UNL     1      55.380  31.459  50.681  1.00  0.00    -0.550 OA
ATOM     14  O   UNL     1      54.750  30.514  52.671  1.00  0.00    -0.550 OA
ENDBRANCH  11  12
ENDBRANCH  10  11
ENDBRANCH   9  10
ENDBRANCH   8   9
ENDBRANCH   1   8
TORSDOF 9
ENDMDL
MODEL 8
REMARK VINA RESULT:    -3.335      2.297      5.438
REMARK INTER + INTRA:          -5.591
REMARK INTER:                  -4.761
REMARK INTRA:                  -0.829
REMARK UNBOUND:                -0.501
REMARK SMILES O=C([O-])CCCCCCCCC(=O)[O-]
REMARK SMILES IDX 7 1 6 2 5 3 4 4 2 5 1 6 3 7 8 8 9 9 10 10 11 11 12 12 13 13
REMARK SMILES IDX 14 14
REMARK H PARENT
REMARK Flexibility Score: inf
ROOT
ATOM      1  C   UNL     1      59.626  26.663  50.591  1.00  0.00     0.000 C 
ENDROOT
BRANCH   1   2
ATOM      2  C   UNL     1      59.536  27.861  49.622  1.00  0.00     0.000 C 
BRANCH   2   3
ATOM      3  C   UNL     1      59.218  29.180  50.343  1.00  0.00     0.006 C 
BRANCH   3   4
ATOM      4  C   UNL     1      57.712  29.331  50.574  1.00  0.00     0.053 C 
BRANCH   4   5
ATOM      5  C   UNL     1      57.438  29.742  51.986  1.00  0.00     0.041 C 
ATOM      6  O   UNL     1      56.989  30.892  52.235  1.00  0.00    -0.550 OA
ATOM      7  O   UNL     1      57.630  28.838  53.023  1.00  0.00    -0.550 OA
ENDBRANCH   4   5
ENDBRANCH   3   4
ENDBRANCH   2   3
ENDBRANCH   1   2
BRANCH   1   8
ATOM      8  C   UNL     1      58.445  25.681  50.475  1.00  0.00     0.000 C 
BRANCH   8   9
ATOM      9  C   UNL     1      57.606  25.518  51.756  1.00  0.00     0.000 C 
BRANCH   9  10
ATOM     10  C   UNL     1      56.079  25.605  51.553  1.00  0.00     0.006 C 
BRANCH  10  11
ATOM     11  C   UNL     1      55.647  26.072  50.154  1.00  0.00     0.053 C 
BRANCH  11  12
ATOM     12  C   UNL     1      54.198  25.796  49.891  1.00  0.00     0.041 C 
ATOM     13  O   UNL     1      53.395  26.749  49.710  1.00  0.00    -0.550 OA
ATOM     14  O   UNL     1      53.729  24.489  49.881  1.00  0.00    -0.550 OA
ENDBRANCH  11  12
ENDBRANCH  10  11
ENDBRANCH   9  10
ENDBRANCH   8   9
ENDBRANCH   1   8
TORSDOF 9
ENDMDL
MODEL 9
REMARK VINA RESULT:    -3.278      3.226      4.422
REMARK INTER + INTRA:          -5.505
REMARK INTER:                  -4.644
REMARK INTRA:                  -0.861
REMARK UNBOUND:                -0.501
REMARK SMILES O=C([O-])CCCCCCCCC(=O)[O-]
REMARK SMILES IDX 7 1 6 2 5 3 4 4 2 5 1 6 3 7 8 8 9 9 10 10 11 11 12 12 13 13
REMARK SMILES IDX 14 14
REMARK H PARENT
REMARK Flexibility Score: inf
ROOT
ATOM      1  C   UNL     1      54.689  27.303  51.195  1.00  0.00     0.000 C 
ENDROOT
BRANCH   1   2
ATOM      2  C   UNL     1      54.063  28.434  50.350  1.00  0.00     0.000 C 
BRANCH   2   3
ATOM      3  C   UNL     1      54.227  29.815  51.001  1.00  0.00     0.006 C 
BRANCH   3   4
ATOM      4  C   UNL     1      55.626  30.382  50.742  1.00  0.00     0.053 C 
BRANCH   4   5
ATOM      5  C   UNL     1      56.094  31.180  51.917  1.00  0.00     0.041 C 
ATOM      6  O   UNL     1      55.348  32.058  52.424  1.00  0.00    -0.550 OA
ATOM      7  O   UNL     1      57.335  30.919  52.485  1.00  0.00    -0.550 OA
ENDBRANCH   4   5
ENDBRANCH   3   4
ENDBRANCH   2   3
ENDBRANCH   1   2
BRANCH   1   8
ATOM      8  C   UNL     1      55.525  26.305  50.372  1.00  0.00     0.000 C 
BRANCH   8   9
ATOM      9  C   UNL     1      57.036  26.322  50.669  1.00  0.00     0.000 C 
BRANCH   9  10
ATOM     10  C   UNL     1      57.490  27.385  51.690  1.00  0.00     0.006 C 
BRANCH  10  11
ATOM     11  C   UNL     1      58.975  27.769  51.594  1.00  0.00     0.053 C 
BRANCH  11  12
ATOM     12  C   UNL     1      59.364  28.172  50.205  1.00  0.00     0.041 C 
ATOM     13  O   UNL     1      60.217  27.501  49.566  1.00  0.00    -0.550 OA
ATOM     14  O   UNL     1      58.810  29.309  49.629  1.00  0.00    -0.550 OA
ENDBRANCH  11  12
ENDBRANCH  10  11
ENDBRANCH   9  10
ENDBRANCH   8   9
ENDBRANCH   1   8
TORSDOF 9
ENDMDL
