MODEL 1
REMARK VINA RESULT:    -3.663      0.000      0.000
REMARK INTER + INTRA:          -5.467
REMARK INTER:                  -4.948
REMARK INTRA:                  -0.519
REMARK UNBOUND:                -0.519
REMARK SMILES CCCCCCCC(=O)[O-]
REMARK SMILES IDX 5 1 6 2 7 3 8 4 9 5 10 6 4 7 3 8 2 9 1 10
REMARK H PARENT
REMARK Flexibility Score: inf
ROOT
ATOM      1  C   UNL     1      58.916  35.201  81.186  1.00  0.00     0.000 C 
ENDROOT
BRANCH   1   2
ATOM      2  C   UNL     1      59.152  34.238  80.017  1.00  0.00     0.006 C 
BRANCH   2   3
ATOM      3  C   UNL     1      57.862  33.498  79.645  1.00  0.00     0.053 C 
BRANCH   3   4
ATOM      4  C   UNL     1      57.857  33.155  78.188  1.00  0.00     0.041 C 
ATOM      5  O   UNL     1      58.181  32.000  77.808  1.00  0.00    -0.550 OA
ATOM      6  O   UNL     1      57.447  34.099  77.254  1.00  0.00    -0.550 OA
ENDBRANCH   3   4
ENDBRANCH   2   3
ENDBRANCH   1   2
BRANCH   1   7
ATOM      7  C   UNL     1      58.375  36.549  80.687  1.00  0.00     0.000 C 
BRANCH   7   8
ATOM      8  C   UNL     1      58.986  36.969  79.340  1.00  0.00    -0.000 C 
BRANCH   8   9
ATOM      9  C   UNL     1      57.922  37.372  78.309  1.00  0.00    -0.003 C 
ATOM     10  C   UNL     1      56.542  37.471  78.954  1.00  0.00     0.004 C 
ENDBRANCH   8   9
ENDBRANCH   7   8
ENDBRANCH   1   7
TORSDOF 6
ENDMDL
MODEL 2
REMARK VINA RESULT:    -3.598      2.565      3.674
REMARK INTER + INTRA:          -5.379
REMARK INTER:                  -4.830
REMARK INTRA:                  -0.549
REMARK UNBOUND:                -0.519
REMARK SMILES CCCCCCCC(=O)[O-]
REMARK SMILES IDX 5 1 6 2 7 3 8 4 9 5 10 6 4 7 3 8 2 9 1 10
REMARK H PARENT
REMARK Flexibility Score: inf
ROOT
ATOM      1  C   UNL     1      58.975  33.815  79.400  1.00  0.00     0.000 C 
ENDROOT
BRANCH   1   2
ATOM      2  C   UNL     1      58.371  34.291  80.726  1.00  0.00     0.006 C 
BRANCH   2   3
ATOM      3  C   UNL     1      59.008  35.609  81.180  1.00  0.00     0.053 C 
BRANCH   3   4
ATOM      4  C   UNL     1      58.376  36.766  80.473  1.00  0.00     0.041 C 
ATOM      5  O   UNL     1      57.239  37.177  80.823  1.00  0.00    -0.550 OA
ATOM      6  O   UNL     1      59.063  37.422  79.459  1.00  0.00    -0.550 OA
ENDBRANCH   3   4
ENDBRANCH   2   3
ENDBRANCH   1   2
BRANCH   1   7
ATOM      7  C   UNL     1      57.936  33.048  78.567  1.00  0.00     0.000 C 
BRANCH   7   8
ATOM      8  C   UNL     1      57.802  33.597  77.137  1.00  0.00    -0.000 C 
BRANCH   8   9
ATOM      9  C   UNL     1      58.042  35.111  77.060  1.00  0.00    -0.003 C 
ATOM     10  C   UNL     1      56.737  35.883  77.230  1.00  0.00     0.004 C 
ENDBRANCH   8   9
ENDBRANCH   7   8
ENDBRANCH   1   7
TORSDOF 6
ENDMDL
MODEL 3
REMARK VINA RESULT:    -3.547      2.462      4.744
REMARK INTER + INTRA:          -5.310
REMARK INTER:                  -4.987
REMARK INTRA:                  -0.323
REMARK UNBOUND:                -0.519
REMARK SMILES CCCCCCCC(=O)[O-]
REMARK SMILES IDX 5 1 6 2 7 3 8 4 9 5 10 6 4 7 3 8 2 9 1 10
REMARK H PARENT
REMARK Flexibility Score: inf
ROOT
ATOM      1  C   UNL     1      57.934  33.253  79.011  1.00  0.00     0.000 C 
ENDROOT
BRANCH   1   2
ATOM      2  C   UNL     1      59.171  33.854  79.688  1.00  0.00     0.006 C 
BRANCH   2   3
ATOM      3  C   UNL     1      58.774  34.737  80.876  1.00  0.00     0.053 C 
BRANCH   3   4
ATOM      4  C   UNL     1      58.682  36.170  80.456  1.00  0.00     0.041 C 
ATOM      5  O   UNL     1      58.063  37.001  81.170  1.00  0.00    -0.550 OA
ATOM      6  O   UNL     1      59.323  36.597  79.299  1.00  0.00    -0.550 OA
ENDBRANCH   3   4
ENDBRANCH   2   3
ENDBRANCH   1   2
BRANCH   1   7
ATOM      7  C   UNL     1      57.776  33.789  77.580  1.00  0.00     0.000 C 
BRANCH   7   8
ATOM      8  C   UNL     1      57.947  32.694  76.515  1.00  0.00    -0.000 C 
BRANCH   8   9
ATOM      9  C   UNL     1      58.249  31.318  77.127  1.00  0.00    -0.003 C 
ATOM     10  C   UNL     1      59.106  30.475  76.187  1.00  0.00     0.004 C 
ENDBRANCH   8   9
ENDBRANCH   7   8
ENDBRANCH   1   7
TORSDOF 6
ENDMDL
MODEL 4
REMARK VINA RESULT:    -3.544      0.907      1.428
REMARK INTER + INTRA:          -5.306
REMARK INTER:                  -4.840
REMARK INTRA:                  -0.466
REMARK UNBOUND:                -0.519
REMARK SMILES CCCCCCCC(=O)[O-]
REMARK SMILES IDX 5 1 6 2 7 3 8 4 9 5 10 6 4 7 3 8 2 9 1 10
REMARK H PARENT
REMARK Flexibility Score: inf
ROOT
ATOM      1  C   UNL     1      58.758  34.691  80.777  1.00  0.00     0.000 C 
ENDROOT
BRANCH   1   2
ATOM      2  C   UNL     1      59.076  33.877  79.517  1.00  0.00     0.006 C 
BRANCH   2   3
ATOM      3  C   UNL     1      57.817  33.195  78.970  1.00  0.00     0.053 C 
BRANCH   3   4
ATOM      4  C   UNL     1      58.048  32.714  77.572  1.00  0.00     0.041 C 
ATOM      5  O   UNL     1      57.666  33.407  76.593  1.00  0.00    -0.550 OA
ATOM      6  O   UNL     1      58.729  31.523  77.350  1.00  0.00    -0.550 OA
ENDBRANCH   3   4
ENDBRANCH   2   3
ENDBRANCH   1   2
BRANCH   1   7
ATOM      7  C   UNL     1      58.765  36.197  80.473  1.00  0.00     0.000 C 
BRANCH   7   8
ATOM      8  C   UNL     1      57.372  36.732  80.100  1.00  0.00    -0.000 C 
BRANCH   8   9
ATOM      9  C   UNL     1      57.351  37.416  78.726  1.00  0.00    -0.003 C 
ATOM     10  C   UNL     1      56.563  36.589  77.714  1.00  0.00     0.004 C 
ENDBRANCH   8   9
ENDBRANCH   7   8
ENDBRANCH   1   7
TORSDOF 6
ENDMDL
MODEL 5
REMARK VINA RESULT:    -3.535      2.407      4.056
REMARK INTER + INTRA:          -5.293
REMARK INTER:                  -4.915
REMARK INTRA:                  -0.378
REMARK UNBOUND:                -0.519
REMARK SMILES CCCCCCCC(=O)[O-]
REMARK SMILES IDX 5 1 6 2 7 3 8 4 9 5 10 6 4 7 3 8 2 9 1 10
REMARK H PARENT
REMARK Flexibility Score: inf
ROOT
ATOM      1  C   UNL     1      57.871  33.572  80.027  1.00  0.00     0.000 C 
ENDROOT
BRANCH   1   2
ATOM      2  C   UNL     1      59.182  34.246  80.447  1.00  0.00     0.006 C 
BRANCH   2   3
ATOM      3  C   UNL     1      58.911  35.515  81.264  1.00  0.00     0.053 C 
BRANCH   3   4
ATOM      4  C   UNL     1      58.430  36.617  80.374  1.00  0.00     0.041 C 
ATOM      5  O   UNL     1      59.134  36.999  79.403  1.00  0.00    -0.550 OA
ATOM      6  O   UNL     1      57.182  37.189  80.588  1.00  0.00    -0.550 OA
ENDBRANCH   3   4
ENDBRANCH   2   3
ENDBRANCH   1   2
BRANCH   1   7
ATOM      7  C   UNL     1      57.945  33.088  78.570  1.00  0.00     0.000 C 
BRANCH   7   8
ATOM      8  C   UNL     1      57.689  34.217  77.558  1.00  0.00    -0.000 C 
BRANCH   8   9
ATOM      9  C   UNL     1      57.744  33.729  76.104  1.00  0.00    -0.003 C 
ATOM     10  C   UNL     1      57.859  32.209  76.038  1.00  0.00     0.004 C 
ENDBRANCH   8   9
ENDBRANCH   7   8
ENDBRANCH   1   7
TORSDOF 6
ENDMDL
MODEL 6
REMARK VINA RESULT:    -3.530      1.701      3.446
REMARK INTER + INTRA:          -5.288
REMARK INTER:                  -4.751
REMARK INTRA:                  -0.536
REMARK UNBOUND:                -0.519
REMARK SMILES CCCCCCCC(=O)[O-]
REMARK SMILES IDX 5 1 6 2 7 3 8 4 9 5 10 6 4 7 3 8 2 9 1 10
REMARK H PARENT
REMARK Flexibility Score: inf
ROOT
ATOM      1  C   UNL     1      58.012  36.860  80.900  1.00  0.00     0.000 C 
ENDROOT
BRANCH   1   2
ATOM      2  C   UNL     1      58.087  37.404  79.468  1.00  0.00     0.006 C 
BRANCH   2   3
ATOM      3  C   UNL     1      56.725  37.309  78.772  1.00  0.00     0.053 C 
BRANCH   3   4
ATOM      4  C   UNL     1      56.860  36.620  77.451  1.00  0.00     0.041 C 
ATOM      5  O   UNL     1      57.994  36.268  77.033  1.00  0.00    -0.550 OA
ATOM      6  O   UNL     1      55.727  36.323  76.703  1.00  0.00    -0.550 OA
ENDBRANCH   3   4
ENDBRANCH   2   3
ENDBRANCH   1   2
BRANCH   1   7
ATOM      7  C   UNL     1      59.006  35.706  81.101  1.00  0.00     0.000 C 
BRANCH   7   8
ATOM      8  C   UNL     1      58.406  34.339  80.734  1.00  0.00    -0.000 C 
BRANCH   8   9
ATOM      9  C   UNL     1      58.957  33.788  79.411  1.00  0.00    -0.003 C 
ATOM     10  C   UNL     1      57.857  33.112  78.597  1.00  0.00     0.004 C 
ENDBRANCH   8   9
ENDBRANCH   7   8
ENDBRANCH   1   7
TORSDOF 6
ENDMDL
MODEL 7
REMARK VINA RESULT:    -3.521      2.259      4.129
REMARK INTER + INTRA:          -5.275
REMARK INTER:                  -4.955
REMARK INTRA:                  -0.320
REMARK UNBOUND:                -0.519
REMARK SMILES CCCCCCCC(=O)[O-]
REMARK SMILES IDX 5 1 6 2 7 3 8 4 9 5 10 6 4 7 3 8 2 9 1 10
REMARK H PARENT
REMARK Flexibility Score: inf
ROOT
ATOM      1  C   UNL     1      59.046  35.523  81.142  1.00  0.00     0.000 C 
ENDROOT
BRANCH   1   2
ATOM      2  C   UNL     1      58.097  36.716  80.978  1.00  0.00     0.006 C 
BRANCH   2   3
ATOM      3  C   UNL     1      57.819  37.000  79.498  1.00  0.00     0.053 C 
BRANCH   3   4
ATOM      4  C   UNL     1      59.013  37.631  78.853  1.00  0.00     0.041 C 
ATOM      5  O   UNL     1      59.687  36.990  78.005  1.00  0.00    -0.550 OA
ATOM      6  O   UNL     1      59.352  38.944  79.154  1.00  0.00    -0.550 OA
ENDBRANCH   3   4
ENDBRANCH   2   3
ENDBRANCH   1   2
BRANCH   1   7
ATOM      7  C   UNL     1      58.369  34.218  80.697  1.00  0.00     0.000 C 
BRANCH   7   8
ATOM      8  C   UNL     1      58.961  33.659  79.393  1.00  0.00    -0.000 C 
BRANCH   8   9
ATOM      9  C   UNL     1      57.890  33.077  78.460  1.00  0.00    -0.003 C 
ATOM     10  C   UNL     1      58.492  32.051  77.504  1.00  0.00     0.004 C 
ENDBRANCH   8   9
ENDBRANCH   7   8
ENDBRANCH   1   7
TORSDOF 6
ENDMDL
MODEL 8
REMARK VINA RESULT:    -3.499      2.530      4.439
REMARK INTER + INTRA:          -5.245
REMARK INTER:                  -4.685
REMARK INTRA:                  -0.560
REMARK UNBOUND:                -0.519
REMARK SMILES CCCCCCCC(=O)[O-]
REMARK SMILES IDX 5 1 6 2 7 3 8 4 9 5 10 6 4 7 3 8 2 9 1 10
REMARK H PARENT
REMARK Flexibility Score: inf
ROOT
ATOM      1  C   UNL     1      57.931  35.261  77.176  1.00  0.00     0.000 C 
ENDROOT
BRANCH   1   2
ATOM      2  C   UNL     1      56.669  36.099  77.414  1.00  0.00     0.006 C 
BRANCH   2   3
ATOM      3  C   UNL     1      57.029  37.520  77.863  1.00  0.00     0.053 C 
BRANCH   3   4
ATOM      4  C   UNL     1      57.476  37.520  79.290  1.00  0.00     0.041 C 
ATOM      5  O   UNL     1      56.682  37.172  80.203  1.00  0.00    -0.550 OA
ATOM      6  O   UNL     1      58.786  37.859  79.609  1.00  0.00    -0.550 OA
ENDBRANCH   3   4
ENDBRANCH   2   3
ENDBRANCH   1   2
BRANCH   1   7
ATOM      7  C   UNL     1      57.671  33.778  77.483  1.00  0.00     0.000 C 
BRANCH   7   8
ATOM      8  C   UNL     1      58.477  33.275  78.692  1.00  0.00    -0.000 C 
BRANCH   8   9
ATOM      9  C   UNL     1      57.914  33.778  80.029  1.00  0.00    -0.003 C 
ATOM     10  C   UNL     1      58.985  34.507  80.836  1.00  0.00     0.004 C 
ENDBRANCH   8   9
ENDBRANCH   7   8
ENDBRANCH   1   7
TORSDOF 6
ENDMDL
MODEL 9
REMARK VINA RESULT:    -3.441      2.291      4.252
REMARK INTER + INTRA:          -5.167
REMARK INTER:                  -4.755
REMARK INTRA:                  -0.412
REMARK UNBOUND:                -0.519
REMARK SMILES CCCCCCCC(=O)[O-]
REMARK SMILES IDX 5 1 6 2 7 3 8 4 9 5 10 6 4 7 3 8 2 9 1 10
REMARK H PARENT
REMARK Flexibility Score: inf
ROOT
ATOM      1  C   UNL     1      58.547  34.499  80.229  1.00  0.00     0.000 C 
ENDROOT
BRANCH   1   2
ATOM      2  C   UNL     1      58.880  35.811  79.508  1.00  0.00     0.006 C 
BRANCH   2   3
ATOM      3  C   UNL     1      58.335  37.017  80.280  1.00  0.00     0.053 C 
BRANCH   3   4
ATOM      4  C   UNL     1      56.899  37.254  79.936  1.00  0.00     0.041 C 
ATOM      5  O   UNL     1      56.073  37.553  80.837  1.00  0.00    -0.550 OA
ATOM      6  O   UNL     1      56.482  37.192  78.612  1.00  0.00    -0.550 OA
ENDBRANCH   3   4
ENDBRANCH   2   3
ENDBRANCH   1   2
BRANCH   1   7
ATOM      7  C   UNL     1      57.994  33.457  79.245  1.00  0.00     0.000 C 
BRANCH   7   8
ATOM      8  C   UNL     1      57.763  34.034  77.839  1.00  0.00    -0.000 C 
BRANCH   8   9
ATOM      9  C   UNL     1      57.950  32.987  76.733  1.00  0.00    -0.003 C 
ATOM     10  C   UNL     1      58.368  31.640  77.316  1.00  0.00     0.004 C 
ENDBRANCH   8   9
ENDBRANCH   7   8
ENDBRANCH   1   7
TORSDOF 6
ENDMDL
