MODEL 1
REMARK VINA RESULT:    -4.462      0.000      0.000
REMARK INTER + INTRA:          -7.215
REMARK INTER:                  -6.810
REMARK INTRA:                  -0.405
REMARK UNBOUND:                -0.405
REMARK SMILES O=C([O-])CCCCCCCCC(=O)[O-]
REMARK SMILES IDX 7 1 6 2 5 3 4 4 2 5 1 6 3 7 8 8 9 9 10 10 11 11 12 12 13 13
REMARK SMILES IDX 14 14
REMARK H PARENT
REMARK Flexibility Score: inf
ROOT
ATOM      1  C   UNL     1      73.264 -36.198   8.169  1.00  0.00     0.000 C 
ENDROOT
BRANCH   1   2
ATOM      2  C   UNL     1      72.578 -35.929   6.818  1.00  0.00     0.000 C 
BRANCH   2   3
ATOM      3  C   UNL     1      72.771 -34.483   6.336  1.00  0.00     0.006 C 
BRANCH   3   4
ATOM      4  C   UNL     1      71.878 -33.487   7.085  1.00  0.00     0.053 C 
BRANCH   4   5
ATOM      5  C   UNL     1      70.569 -33.326   6.378  1.00  0.00     0.041 C 
ATOM      6  O   UNL     1      69.489 -33.379   7.023  1.00  0.00    -0.550 OA
ATOM      7  O   UNL     1      70.539 -33.166   4.998  1.00  0.00    -0.550 OA
ENDBRANCH   4   5
ENDBRANCH   3   4
ENDBRANCH   2   3
ENDBRANCH   1   2
BRANCH   1   8
ATOM      8  C   UNL     1      72.263 -36.560   9.278  1.00  0.00     0.000 C 
BRANCH   8   9
ATOM      9  C   UNL     1      72.948 -37.132  10.529  1.00  0.00     0.000 C 
BRANCH   9  10
ATOM     10  C   UNL     1      74.426 -37.433  10.255  1.00  0.00     0.006 C 
BRANCH  10  11
ATOM     11  C   UNL     1      75.148 -37.847  11.541  1.00  0.00     0.053 C 
BRANCH  11  12
ATOM     12  C   UNL     1      76.509 -37.227  11.600  1.00  0.00     0.041 C 
ATOM     13  O   UNL     1      77.512 -37.928  11.894  1.00  0.00    -0.550 OA
ATOM     14  O   UNL     1      76.662 -35.864  11.379  1.00  0.00    -0.550 OA
ENDBRANCH  11  12
ENDBRANCH  10  11
ENDBRANCH   9  10
ENDBRANCH   8   9
ENDBRANCH   1   8
TORSDOF 9
ENDMDL
MODEL 2
REMARK VINA RESULT:    -4.264      2.004      2.576
REMARK INTER + INTRA:          -6.913
REMARK INTER:                  -6.466
REMARK INTRA:                  -0.447
REMARK UNBOUND:                -0.405
REMARK SMILES O=C([O-])CCCCCCCCC(=O)[O-]
REMARK SMILES IDX 7 1 6 2 5 3 4 4 2 5 1 6 3 7 8 8 9 9 10 10 11 11 12 12 13 13
REMARK SMILES IDX 14 14
REMARK H PARENT
REMARK Flexibility Score: inf
ROOT
ATOM      1  C   UNL     1      70.286 -36.310   8.165  1.00  0.00     0.000 C 
ENDROOT
BRANCH   1   2
ATOM      2  C   UNL     1      69.209 -35.545   7.375  1.00  0.00     0.000 C 
BRANCH   2   3
ATOM      3  C   UNL     1      69.508 -34.041   7.275  1.00  0.00     0.006 C 
BRANCH   3   4
ATOM      4  C   UNL     1      70.220 -33.667   5.969  1.00  0.00     0.053 C 
BRANCH   4   5
ATOM      5  C   UNL     1      71.643 -33.289   6.241  1.00  0.00     0.041 C 
ATOM      6  O   UNL     1      72.089 -33.310   7.418  1.00  0.00    -0.550 OA
ATOM      7  O   UNL     1      72.461 -32.868   5.201  1.00  0.00    -0.550 OA
ENDBRANCH   4   5
ENDBRANCH   3   4
ENDBRANCH   2   3
ENDBRANCH   1   2
BRANCH   1   8
ATOM      8  C   UNL     1      69.691 -37.393   9.078  1.00  0.00     0.000 C 
BRANCH   8   9
ATOM      9  C   UNL     1      70.593 -37.715  10.279  1.00  0.00     0.000 C 
BRANCH   9  10
ATOM     10  C   UNL     1      71.974 -37.068  10.117  1.00  0.00     0.006 C 
BRANCH  10  11
ATOM     11  C   UNL     1      72.927 -37.526  11.224  1.00  0.00     0.053 C 
BRANCH  11  12
ATOM     12  C   UNL     1      74.346 -37.469  10.751  1.00  0.00     0.041 C 
ATOM     13  O   UNL     1      75.289 -37.729  11.543  1.00  0.00    -0.550 OA
ATOM     14  O   UNL     1      74.629 -37.082   9.447  1.00  0.00    -0.550 OA
ENDBRANCH  11  12
ENDBRANCH  10  11
ENDBRANCH   9  10
ENDBRANCH   8   9
ENDBRANCH   1   8
TORSDOF 9
ENDMDL
MODEL 3
REMARK VINA RESULT:    -4.221      1.566      6.921
REMARK INTER + INTRA:          -6.847
REMARK INTER:                  -6.440
REMARK INTRA:                  -0.407
REMARK UNBOUND:                -0.405
REMARK SMILES O=C([O-])CCCCCCCCC(=O)[O-]
REMARK SMILES IDX 7 1 6 2 5 3 4 4 2 5 1 6 3 7 8 8 9 9 10 10 11 11 12 12 13 13
REMARK SMILES IDX 14 14
REMARK H PARENT
REMARK Flexibility Score: inf
ROOT
ATOM      1  C   UNL     1      71.315 -37.865  10.459  1.00  0.00     0.000 C 
ENDROOT
BRANCH   1   2
ATOM      2  C   UNL     1      72.434 -37.986  11.509  1.00  0.00     0.000 C 
BRANCH   2   3
ATOM      3  C   UNL     1      73.807 -37.570  10.957  1.00  0.00     0.006 C 
BRANCH   3   4
ATOM      4  C   UNL     1      74.960 -37.954  11.893  1.00  0.00     0.053 C 
BRANCH   4   5
ATOM      5  C   UNL     1      76.245 -37.360  11.409  1.00  0.00     0.041 C 
ATOM      6  O   UNL     1      77.346 -37.797  11.837  1.00  0.00    -0.550 OA
ATOM      7  O   UNL     1      76.227 -36.291  10.522  1.00  0.00    -0.550 OA
ENDBRANCH   4   5
ENDBRANCH   3   4
ENDBRANCH   2   3
ENDBRANCH   1   2
BRANCH   1   8
ATOM      8  C   UNL     1      71.613 -36.792   9.400  1.00  0.00     0.000 C 
BRANCH   8   9
ATOM      9  C   UNL     1      70.845 -37.026   8.090  1.00  0.00     0.000 C 
BRANCH   9  10
ATOM     10  C   UNL     1      69.903 -35.853   7.790  1.00  0.00     0.006 C 
BRANCH  10  11
ATOM     11  C   UNL     1      70.331 -35.119   6.516  1.00  0.00     0.053 C 
BRANCH  11  12
ATOM     12  C   UNL     1      71.132 -33.902   6.857  1.00  0.00     0.041 C 
ATOM     13  O   UNL     1      70.582 -32.770   6.886  1.00  0.00    -0.550 OA
ATOM     14  O   UNL     1      72.496 -34.012   7.094  1.00  0.00    -0.550 OA
ENDBRANCH  11  12
ENDBRANCH  10  11
ENDBRANCH   9  10
ENDBRANCH   8   9
ENDBRANCH   1   8
TORSDOF 9
ENDMDL
MODEL 4
REMARK VINA RESULT:    -4.205      1.993      2.933
REMARK INTER + INTRA:          -6.824
REMARK INTER:                  -6.261
REMARK INTRA:                  -0.563
REMARK UNBOUND:                -0.405
REMARK SMILES O=C([O-])CCCCCCCCC(=O)[O-]
REMARK SMILES IDX 7 1 6 2 5 3 4 4 2 5 1 6 3 7 8 8 9 9 10 10 11 11 12 12 13 13
REMARK SMILES IDX 14 14
REMARK H PARENT
REMARK Flexibility Score: inf
ROOT
ATOM      1  C   UNL     1      70.570 -38.862  10.248  1.00  0.00     0.000 C 
ENDROOT
BRANCH   1   2
ATOM      2  C   UNL     1      69.719 -37.608   9.979  1.00  0.00     0.000 C 
BRANCH   2   3
ATOM      3  C   UNL     1      69.573 -37.306   8.479  1.00  0.00     0.006 C 
BRANCH   3   4
ATOM      4  C   UNL     1      70.493 -36.170   8.014  1.00  0.00     0.053 C 
BRANCH   4   5
ATOM      5  C   UNL     1      69.725 -35.177   7.199  1.00  0.00     0.041 C 
ATOM      6  O   UNL     1      70.205 -34.737   6.121  1.00  0.00    -0.550 OA
ATOM      7  O   UNL     1      68.503 -34.701   7.654  1.00  0.00    -0.550 OA
ENDBRANCH   4   5
ENDBRANCH   3   4
ENDBRANCH   2   3
ENDBRANCH   1   2
BRANCH   1   8
ATOM      8  C   UNL     1      71.378 -38.759  11.551  1.00  0.00     0.000 C 
BRANCH   8   9
ATOM      9  C   UNL     1      72.148 -37.434  11.666  1.00  0.00     0.000 C 
BRANCH   9  10
ATOM     10  C   UNL     1      73.358 -37.420  10.723  1.00  0.00     0.006 C 
BRANCH  10  11
ATOM     11  C   UNL     1      74.633 -37.837  11.462  1.00  0.00     0.053 C 
BRANCH  11  12
ATOM     12  C   UNL     1      75.813 -37.084  10.934  1.00  0.00     0.041 C 
ATOM     13  O   UNL     1      75.748 -36.505   9.819  1.00  0.00    -0.550 OA
ATOM     14  O   UNL     1      77.003 -37.063  11.652  1.00  0.00    -0.550 OA
ENDBRANCH  11  12
ENDBRANCH  10  11
ENDBRANCH   9  10
ENDBRANCH   8   9
ENDBRANCH   1   8
TORSDOF 9
ENDMDL
MODEL 5
REMARK VINA RESULT:    -4.160      1.120      7.239
REMARK INTER + INTRA:          -6.755
REMARK INTER:                  -6.348
REMARK INTRA:                  -0.407
REMARK UNBOUND:                -0.405
REMARK SMILES O=C([O-])CCCCCCCCC(=O)[O-]
REMARK SMILES IDX 7 1 6 2 5 3 4 4 2 5 1 6 3 7 8 8 9 9 10 10 11 11 12 12 13 13
REMARK SMILES IDX 14 14
REMARK H PARENT
REMARK Flexibility Score: inf
ROOT
ATOM      1  C   UNL     1      74.297 -36.453   6.639  1.00  0.00     0.000 C 
ENDROOT
BRANCH   1   2
ATOM      2  C   UNL     1      73.907 -36.407   8.128  1.00  0.00     0.000 C 
BRANCH   2   3
ATOM      3  C   UNL     1      75.092 -36.716   9.057  1.00  0.00     0.006 C 
BRANCH   3   4
ATOM      4  C   UNL     1      74.665 -37.465  10.326  1.00  0.00     0.053 C 
BRANCH   4   5
ATOM      5  C   UNL     1      75.727 -37.359  11.376  1.00  0.00     0.041 C 
ATOM      6  O   UNL     1      75.780 -38.202  12.309  1.00  0.00    -0.550 OA
ATOM      7  O   UNL     1      76.628 -36.303  11.350  1.00  0.00    -0.550 OA
ENDBRANCH   4   5
ENDBRANCH   3   4
ENDBRANCH   2   3
ENDBRANCH   1   2
BRANCH   1   8
ATOM      8  C   UNL     1      73.258 -35.771   5.736  1.00  0.00     0.000 C 
BRANCH   8   9
ATOM      9  C   UNL     1      73.813 -34.522   5.035  1.00  0.00     0.000 C 
BRANCH   9  10
ATOM     10  C   UNL     1      72.976 -33.283   5.378  1.00  0.00     0.006 C 
BRANCH  10  11
ATOM     11  C   UNL     1      72.002 -33.579   6.522  1.00  0.00     0.053 C 
BRANCH  11  12
ATOM     12  C   UNL     1      70.592 -33.337   6.084  1.00  0.00     0.041 C 
ATOM     13  O   UNL     1      70.337 -33.093   4.875  1.00  0.00    -0.550 OA
ATOM     14  O   UNL     1      69.564 -33.333   7.018  1.00  0.00    -0.550 OA
ENDBRANCH  11  12
ENDBRANCH  10  11
ENDBRANCH   9  10
ENDBRANCH   8   9
ENDBRANCH   1   8
TORSDOF 9
ENDMDL
MODEL 6
REMARK VINA RESULT:    -4.116      2.301      6.891
REMARK INTER + INTRA:          -6.686
REMARK INTER:                  -6.263
REMARK INTRA:                  -0.423
REMARK UNBOUND:                -0.405
REMARK SMILES O=C([O-])CCCCCCCCC(=O)[O-]
REMARK SMILES IDX 7 1 6 2 5 3 4 4 2 5 1 6 3 7 8 8 9 9 10 10 11 11 12 12 13 13
REMARK SMILES IDX 14 14
REMARK H PARENT
REMARK Flexibility Score: inf
ROOT
ATOM      1  C   UNL     1      70.605 -37.887  10.148  1.00  0.00     0.000 C 
ENDROOT
BRANCH   1   2
ATOM      2  C   UNL     1      71.212 -38.629  11.351  1.00  0.00     0.000 C 
BRANCH   2   3
ATOM      3  C   UNL     1      72.491 -37.956  11.875  1.00  0.00     0.006 C 
BRANCH   3   4
ATOM      4  C   UNL     1      73.331 -37.333  10.753  1.00  0.00     0.053 C 
BRANCH   4   5
ATOM      5  C   UNL     1      74.790 -37.476  11.052  1.00  0.00     0.041 C 
ATOM      6  O   UNL     1      75.172 -38.193  12.015  1.00  0.00    -0.550 OA
ATOM      7  O   UNL     1      75.726 -36.780  10.299  1.00  0.00    -0.550 OA
ENDBRANCH   4   5
ENDBRANCH   3   4
ENDBRANCH   2   3
ENDBRANCH   1   2
BRANCH   1   8
ATOM      8  C   UNL     1      69.069 -37.855  10.187  1.00  0.00     0.000 C 
BRANCH   8   9
ATOM      9  C   UNL     1      68.462 -37.122   8.981  1.00  0.00     0.000 C 
BRANCH   9  10
ATOM     10  C   UNL     1      69.561 -36.557   8.073  1.00  0.00     0.006 C 
BRANCH  10  11
ATOM     11  C   UNL     1      69.045 -35.360   7.268  1.00  0.00     0.053 C 
BRANCH  11  12
ATOM     12  C   UNL     1      70.156 -34.396   6.993  1.00  0.00     0.041 C 
ATOM     13  O   UNL     1      71.354 -34.758   7.123  1.00  0.00    -0.550 OA
ATOM     14  O   UNL     1      69.867 -33.084   6.640  1.00  0.00    -0.550 OA
ENDBRANCH  11  12
ENDBRANCH  10  11
ENDBRANCH   9  10
ENDBRANCH   8   9
ENDBRANCH   1   8
TORSDOF 9
ENDMDL
MODEL 7
REMARK VINA RESULT:    -4.072     10.761     11.785
REMARK INTER + INTRA:          -6.620
REMARK INTER:                  -6.260
REMARK INTRA:                  -0.360
REMARK UNBOUND:                -0.405
REMARK SMILES O=C([O-])CCCCCCCCC(=O)[O-]
REMARK SMILES IDX 7 1 6 2 5 3 4 4 2 5 1 6 3 7 8 8 9 9 10 10 11 11 12 12 13 13
REMARK SMILES IDX 14 14
REMARK H PARENT
REMARK Flexibility Score: inf
ROOT
ATOM      1  C   UNL     1      71.655 -31.261  19.374  1.00  0.00     0.000 C 
ENDROOT
BRANCH   1   2
ATOM      2  C   UNL     1      73.005 -30.944  18.705  1.00  0.00     0.000 C 
BRANCH   2   3
ATOM      3  C   UNL     1      72.859 -30.621  17.209  1.00  0.00     0.006 C 
BRANCH   3   4
ATOM      4  C   UNL     1      71.818 -29.528  16.940  1.00  0.00     0.053 C 
BRANCH   4   5
ATOM      5  C   UNL     1      72.492 -28.218  16.678  1.00  0.00     0.041 C 
ATOM      6  O   UNL     1      72.524 -27.745  15.511  1.00  0.00    -0.550 OA
ATOM      7  O   UNL     1      73.128 -27.543  17.712  1.00  0.00    -0.550 OA
ENDBRANCH   4   5
ENDBRANCH   3   4
ENDBRANCH   2   3
ENDBRANCH   1   2
BRANCH   1   8
ATOM      8  C   UNL     1      71.686 -32.576  20.169  1.00  0.00     0.000 C 
BRANCH   8   9
ATOM      9  C   UNL     1      72.200 -32.386  21.605  1.00  0.00     0.000 C 
BRANCH   9  10
ATOM     10  C   UNL     1      73.503 -33.164  21.828  1.00  0.00     0.006 C 
BRANCH  10  11
ATOM     11  C   UNL     1      73.280 -34.346  22.776  1.00  0.00     0.053 C 
BRANCH  11  12
ATOM     12  C   UNL     1      73.762 -35.616  22.149  1.00  0.00     0.041 C 
ATOM     13  O   UNL     1      74.994 -35.870  22.100  1.00  0.00    -0.550 OA
ATOM     14  O   UNL     1      72.854 -36.498  21.576  1.00  0.00    -0.550 OA
ENDBRANCH  11  12
ENDBRANCH  10  11
ENDBRANCH   9  10
ENDBRANCH   8   9
ENDBRANCH   1   8
TORSDOF 9
ENDMDL
MODEL 8
REMARK VINA RESULT:    -4.043      1.692      6.667
REMARK INTER + INTRA:          -6.576
REMARK INTER:                  -5.994
REMARK INTRA:                  -0.582
REMARK UNBOUND:                -0.405
REMARK SMILES O=C([O-])CCCCCCCCC(=O)[O-]
REMARK SMILES IDX 7 1 6 2 5 3 4 4 2 5 1 6 3 7 8 8 9 9 10 10 11 11 12 12 13 13
REMARK SMILES IDX 14 14
REMARK H PARENT
REMARK Flexibility Score: inf
ROOT
ATOM      1  C   UNL     1      71.737 -36.659   7.271  1.00  0.00     0.000 C 
ENDROOT
BRANCH   1   2
ATOM      2  C   UNL     1      72.986 -35.980   7.861  1.00  0.00     0.000 C 
BRANCH   2   3
ATOM      3  C   UNL     1      73.336 -36.506   9.263  1.00  0.00     0.006 C 
BRANCH   3   4
ATOM      4  C   UNL     1      74.735 -37.129   9.325  1.00  0.00     0.053 C 
BRANCH   4   5
ATOM      5  C   UNL     1      75.201 -37.223  10.745  1.00  0.00     0.041 C 
ATOM      6  O   UNL     1      76.171 -36.524  11.140  1.00  0.00    -0.550 OA
ATOM      7  O   UNL     1      74.597 -38.118  11.617  1.00  0.00    -0.550 OA
ENDBRANCH   4   5
ENDBRANCH   3   4
ENDBRANCH   2   3
ENDBRANCH   1   2
BRANCH   1   8
ATOM      8  C   UNL     1      70.459 -36.331   8.059  1.00  0.00     0.000 C 
BRANCH   8   9
ATOM      9  C   UNL     1      69.366 -35.705   7.180  1.00  0.00     0.000 C 
BRANCH   9  10
ATOM     10  C   UNL     1      69.485 -34.177   7.161  1.00  0.00     0.006 C 
BRANCH  10  11
ATOM     11  C   UNL     1      70.198 -33.697   5.894  1.00  0.00     0.053 C 
BRANCH  11  12
ATOM     12  C   UNL     1      71.497 -33.040   6.240  1.00  0.00     0.041 C 
ATOM     13  O   UNL     1      71.746 -32.721   7.432  1.00  0.00    -0.550 OA
ATOM     14  O   UNL     1      72.411 -32.736   5.240  1.00  0.00    -0.550 OA
ENDBRANCH  11  12
ENDBRANCH  10  11
ENDBRANCH   9  10
ENDBRANCH   8   9
ENDBRANCH   1   8
TORSDOF 9
ENDMDL
MODEL 9
REMARK VINA RESULT:    -4.036      3.335      6.584
REMARK INTER + INTRA:          -6.565
REMARK INTER:                  -6.118
REMARK INTRA:                  -0.447
REMARK UNBOUND:                -0.405
REMARK SMILES O=C([O-])CCCCCCCCC(=O)[O-]
REMARK SMILES IDX 7 1 6 2 5 3 4 4 2 5 1 6 3 7 8 8 9 9 10 10 11 11 12 12 13 13
REMARK SMILES IDX 14 14
REMARK H PARENT
REMARK Flexibility Score: inf
ROOT
ATOM      1  C   UNL     1      68.326 -36.376   8.290  1.00  0.00     0.000 C 
ENDROOT
BRANCH   1   2
ATOM      2  C   UNL     1      68.880 -37.802   8.459  1.00  0.00     0.000 C 
BRANCH   2   3
ATOM      3  C   UNL     1      69.312 -38.099   9.904  1.00  0.00     0.006 C 
BRANCH   3   4
ATOM      4  C   UNL     1      70.749 -37.648  10.194  1.00  0.00     0.053 C 
BRANCH   4   5
ATOM      5  C   UNL     1      71.382 -38.545  11.212  1.00  0.00     0.041 C 
ATOM      6  O   UNL     1      70.875 -39.669  11.468  1.00  0.00    -0.550 OA
ATOM      7  O   UNL     1      72.502 -38.119  11.913  1.00  0.00    -0.550 OA
ENDBRANCH   4   5
ENDBRANCH   3   4
ENDBRANCH   2   3
ENDBRANCH   1   2
BRANCH   1   8
ATOM      8  C   UNL     1      68.960 -35.632   7.104  1.00  0.00     0.000 C 
BRANCH   8   9
ATOM      9  C   UNL     1      69.134 -34.130   7.373  1.00  0.00     0.000 C 
BRANCH   9  10
ATOM     10  C   UNL     1      70.060 -33.490   6.331  1.00  0.00     0.006 C 
BRANCH  10  11
ATOM     11  C   UNL     1      71.345 -32.972   6.984  1.00  0.00     0.053 C 
BRANCH  11  12
ATOM     12  C   UNL     1      72.428 -34.001   6.896  1.00  0.00     0.041 C 
ATOM     13  O   UNL     1      73.214 -34.009   5.913  1.00  0.00    -0.550 OA
ATOM     14  O   UNL     1      72.538 -34.981   7.874  1.00  0.00    -0.550 OA
ENDBRANCH  11  12
ENDBRANCH  10  11
ENDBRANCH   9  10
ENDBRANCH   8   9
ENDBRANCH   1   8
TORSDOF 9
ENDMDL
