MODEL 1
REMARK VINA RESULT:    -4.216      0.000      0.000
REMARK INTER + INTRA:          -5.358
REMARK INTER:                  -5.201
REMARK INTRA:                  -0.157
REMARK UNBOUND:                -0.157
REMARK SMILES CCCCCC(=O)[O-]
REMARK SMILES IDX 4 1 5 2 6 3 7 4 8 5 3 6 2 7 1 8
REMARK H PARENT
REMARK Flexibility Score: inf
ROOT
ATOM      1  C   UNL     1      20.030   0.065 -15.163  1.00  0.00     0.006 C 
ENDROOT
BRANCH   1   2
ATOM      2  C   UNL     1      19.388   0.958 -16.233  1.00  0.00     0.053 C 
BRANCH   2   3
ATOM      3  C   UNL     1      17.950   1.247 -15.927  1.00  0.00     0.041 C 
ATOM      4  O   UNL     1      17.427   0.812 -14.867  1.00  0.00    -0.550 OA
ATOM      5  O   UNL     1      17.177   1.968 -16.828  1.00  0.00    -0.550 OA
ENDBRANCH   2   3
ENDBRANCH   1   2
BRANCH   1   6
ATOM      6  C   UNL     1      20.112  -1.404 -15.604  1.00  0.00     0.000 C 
BRANCH   6   7
ATOM      7  C   UNL     1      20.587  -1.516 -17.057  1.00  0.00    -0.003 C 
ATOM      8  C   UNL     1      19.690  -2.452 -17.861  1.00  0.00     0.004 C 
ENDBRANCH   6   7
ENDBRANCH   1   6
TORSDOF 4
ENDMDL
MODEL 2
REMARK VINA RESULT:    -4.050      8.179      9.261
REMARK INTER + INTRA:          -5.155
REMARK INTER:                  -4.924
REMARK INTRA:                  -0.230
REMARK UNBOUND:                -0.157
REMARK SMILES CCCCCC(=O)[O-]
REMARK SMILES IDX 4 1 5 2 6 3 7 4 8 5 3 6 2 7 1 8
REMARK H PARENT
REMARK Flexibility Score: inf
ROOT
ATOM      1  C   UNL     1      16.681   0.382 -23.141  1.00  0.00     0.006 C 
ENDROOT
BRANCH   1   2
ATOM      2  C   UNL     1      17.877  -0.575 -23.218  1.00  0.00     0.053 C 
BRANCH   2   3
ATOM      3  C   UNL     1      17.741  -1.545 -24.352  1.00  0.00     0.041 C 
ATOM      4  O   UNL     1      18.233  -1.276 -25.479  1.00  0.00    -0.550 OA
ATOM      5  O   UNL     1      17.041  -2.732 -24.173  1.00  0.00    -0.550 OA
ENDBRANCH   2   3
ENDBRANCH   1   2
BRANCH   1   6
ATOM      6  C   UNL     1      16.937   1.696 -23.896  1.00  0.00     0.000 C 
BRANCH   6   7
ATOM      7  C   UNL     1      16.022   1.812 -25.120  1.00  0.00    -0.003 C 
ATOM      8  C   UNL     1      16.833   1.860 -26.412  1.00  0.00     0.004 C 
ENDBRANCH   6   7
ENDBRANCH   1   6
TORSDOF 4
ENDMDL
MODEL 3
REMARK VINA RESULT:    -3.987      1.237      1.800
REMARK INTER + INTRA:          -5.076
REMARK INTER:                  -4.947
REMARK INTRA:                  -0.129
REMARK UNBOUND:                -0.157
REMARK SMILES CCCCCC(=O)[O-]
REMARK SMILES IDX 4 1 5 2 6 3 7 4 8 5 3 6 2 7 1 8
REMARK H PARENT
REMARK Flexibility Score: inf
ROOT
ATOM      1  C   UNL     1      20.132   0.172 -15.313  1.00  0.00     0.006 C 
ENDROOT
BRANCH   1   2
ATOM      2  C   UNL     1      19.228   0.597 -16.478  1.00  0.00     0.053 C 
BRANCH   2   3
ATOM      3  C   UNL     1      17.922   1.151 -15.994  1.00  0.00     0.041 C 
ATOM      4  O   UNL     1      17.484   0.839 -14.856  1.00  0.00    -0.550 OA
ATOM      5  O   UNL     1      17.173   1.985 -16.814  1.00  0.00    -0.550 OA
ENDBRANCH   2   3
ENDBRANCH   1   2
BRANCH   1   6
ATOM      6  C   UNL     1      20.433  -1.335 -15.330  1.00  0.00     0.000 C 
BRANCH   6   7
ATOM      7  C   UNL     1      21.885  -1.609 -14.923  1.00  0.00    -0.003 C 
ATOM      8  C   UNL     1      22.823  -0.536 -15.468  1.00  0.00     0.004 C 
ENDBRANCH   6   7
ENDBRANCH   1   6
TORSDOF 4
ENDMDL
MODEL 4
REMARK VINA RESULT:    -3.767      1.776      2.474
REMARK INTER + INTRA:          -4.805
REMARK INTER:                  -4.589
REMARK INTRA:                  -0.217
REMARK UNBOUND:                -0.157
REMARK SMILES CCCCCC(=O)[O-]
REMARK SMILES IDX 4 1 5 2 6 3 7 4 8 5 3 6 2 7 1 8
REMARK H PARENT
REMARK Flexibility Score: inf
ROOT
ATOM      1  C   UNL     1      19.968  -1.507 -15.596  1.00  0.00     0.006 C 
ENDROOT
BRANCH   1   2
ATOM      2  C   UNL     1      19.537  -0.175 -16.224  1.00  0.00     0.053 C 
BRANCH   2   3
ATOM      3  C   UNL     1      18.959   0.758 -15.205  1.00  0.00     0.041 C 
ATOM      4  O   UNL     1      19.717   1.459 -14.484  1.00  0.00    -0.550 OA
ATOM      5  O   UNL     1      17.582   0.830 -15.029  1.00  0.00    -0.550 OA
ENDBRANCH   2   3
ENDBRANCH   1   2
BRANCH   1   6
ATOM      6  C   UNL     1      21.438  -1.491 -15.147  1.00  0.00     0.000 C 
BRANCH   6   7
ATOM      7  C   UNL     1      22.298  -0.668 -16.112  1.00  0.00    -0.003 C 
ATOM      8  C   UNL     1      23.217   0.287 -15.356  1.00  0.00     0.004 C 
ENDBRANCH   6   7
ENDBRANCH   1   6
TORSDOF 4
ENDMDL
MODEL 5
REMARK VINA RESULT:    -3.758      1.433      2.128
REMARK INTER + INTRA:          -4.793
REMARK INTER:                  -4.582
REMARK INTRA:                  -0.211
REMARK UNBOUND:                -0.157
REMARK SMILES CCCCCC(=O)[O-]
REMARK SMILES IDX 4 1 5 2 6 3 7 4 8 5 3 6 2 7 1 8
REMARK H PARENT
REMARK Flexibility Score: inf
ROOT
ATOM      1  C   UNL     1      19.236   0.389 -17.910  1.00  0.00     0.006 C 
ENDROOT
BRANCH   1   2
ATOM      2  C   UNL     1      19.189   1.342 -16.709  1.00  0.00     0.053 C 
BRANCH   2   3
ATOM      3  C   UNL     1      18.716   0.649 -15.467  1.00  0.00     0.041 C 
ATOM      4  O   UNL     1      17.548   0.844 -15.038  1.00  0.00    -0.550 OA
ATOM      5  O   UNL     1      19.575  -0.187 -14.766  1.00  0.00    -0.550 OA
ENDBRANCH   2   3
ENDBRANCH   1   2
BRANCH   1   6
ATOM      6  C   UNL     1      20.671  -0.025 -18.269  1.00  0.00     0.000 C 
BRANCH   6   7
ATOM      7  C   UNL     1      20.754  -1.529 -18.553  1.00  0.00    -0.003 C 
ATOM      8  C   UNL     1      19.823  -2.316 -17.635  1.00  0.00     0.004 C 
ENDBRANCH   6   7
ENDBRANCH   1   6
TORSDOF 4
ENDMDL
MODEL 6
REMARK VINA RESULT:    -3.699      8.028      8.795
REMARK INTER + INTRA:          -4.721
REMARK INTER:                  -4.495
REMARK INTRA:                  -0.226
REMARK UNBOUND:                -0.157
REMARK SMILES CCCCCC(=O)[O-]
REMARK SMILES IDX 4 1 5 2 6 3 7 4 8 5 3 6 2 7 1 8
REMARK H PARENT
REMARK Flexibility Score: inf
ROOT
ATOM      1  C   UNL     1      16.636   0.212 -23.205  1.00  0.00     0.006 C 
ENDROOT
BRANCH   1   2
ATOM      2  C   UNL     1      16.738   1.469 -24.079  1.00  0.00     0.053 C 
BRANCH   2   3
ATOM      3  C   UNL     1      15.938   1.337 -25.339  1.00  0.00     0.041 C 
ATOM      4  O   UNL     1      15.242   2.301 -25.752  1.00  0.00    -0.550 OA
ATOM      5  O   UNL     1      15.934   0.137 -26.039  1.00  0.00    -0.550 OA
ENDBRANCH   2   3
ENDBRANCH   1   2
BRANCH   1   6
ATOM      6  C   UNL     1      17.995  -0.480 -23.019  1.00  0.00     0.000 C 
BRANCH   6   7
ATOM      7  C   UNL     1      18.102  -1.726 -23.907  1.00  0.00    -0.003 C 
ATOM      8  C   UNL     1      19.122  -1.522 -25.023  1.00  0.00     0.004 C 
ENDBRANCH   6   7
ENDBRANCH   1   6
TORSDOF 4
ENDMDL
MODEL 7
REMARK VINA RESULT:    -3.696      8.448      9.645
REMARK INTER + INTRA:          -4.718
REMARK INTER:                  -4.483
REMARK INTRA:                  -0.235
REMARK UNBOUND:                -0.157
REMARK SMILES CCCCCC(=O)[O-]
REMARK SMILES IDX 4 1 5 2 6 3 7 4 8 5 3 6 2 7 1 8
REMARK H PARENT
REMARK Flexibility Score: inf
ROOT
ATOM      1  C   UNL     1      18.443  -0.236 -26.020  1.00  0.00     0.006 C 
ENDROOT
BRANCH   1   2
ATOM      2  C   UNL     1      18.503  -0.287 -24.487  1.00  0.00     0.053 C 
BRANCH   2   3
ATOM      3  C   UNL     1      17.313  -0.989 -23.907  1.00  0.00     0.041 C 
ATOM      4  O   UNL     1      16.523  -0.373 -23.144  1.00  0.00    -0.550 OA
ATOM      5  O   UNL     1      17.094  -2.332 -24.183  1.00  0.00    -0.550 OA
ENDBRANCH   2   3
ENDBRANCH   1   2
BRANCH   1   6
ATOM      6  C   UNL     1      17.058   0.185 -26.534  1.00  0.00     0.000 C 
BRANCH   6   7
ATOM      7  C   UNL     1      16.919   1.712 -26.551  1.00  0.00    -0.003 C 
ATOM      8  C   UNL     1      15.854   2.180 -25.565  1.00  0.00     0.004 C 
ENDBRANCH   6   7
ENDBRANCH   1   6
TORSDOF 4
ENDMDL
MODEL 8
REMARK VINA RESULT:    -3.672      8.868      9.859
REMARK INTER + INTRA:          -4.688
REMARK INTER:                  -4.426
REMARK INTRA:                  -0.261
REMARK UNBOUND:                -0.157
REMARK SMILES CCCCCC(=O)[O-]
REMARK SMILES IDX 4 1 5 2 6 3 7 4 8 5 3 6 2 7 1 8
REMARK H PARENT
REMARK Flexibility Score: inf
ROOT
ATOM      1  C   UNL     1      16.076   1.730 -25.149  1.00  0.00     0.006 C 
ENDROOT
BRANCH   1   2
ATOM      2  C   UNL     1      17.013   1.836 -26.359  1.00  0.00     0.053 C 
BRANCH   2   3
ATOM      3  C   UNL     1      17.569   0.501 -26.752  1.00  0.00     0.041 C 
ATOM      4  O   UNL     1      16.812  -0.503 -26.828  1.00  0.00    -0.550 OA
ATOM      5  O   UNL     1      18.928   0.357 -27.000  1.00  0.00    -0.550 OA
ENDBRANCH   2   3
ENDBRANCH   1   2
BRANCH   1   6
ATOM      6  C   UNL     1      16.846   1.648 -23.822  1.00  0.00     0.000 C 
BRANCH   6   7
ATOM      7  C   UNL     1      16.622   0.293 -23.141  1.00  0.00    -0.003 C 
ATOM      8  C   UNL     1      17.897  -0.545 -23.146  1.00  0.00     0.004 C 
ENDBRANCH   6   7
ENDBRANCH   1   6
TORSDOF 4
ENDMDL
MODEL 9
REMARK VINA RESULT:    -3.591      8.457      9.515
REMARK INTER + INTRA:          -4.588
REMARK INTER:                  -4.379
REMARK INTRA:                  -0.209
REMARK UNBOUND:                -0.157
REMARK SMILES CCCCCC(=O)[O-]
REMARK SMILES IDX 4 1 5 2 6 3 7 4 8 5 3 6 2 7 1 8
REMARK H PARENT
REMARK Flexibility Score: inf
ROOT
ATOM      1  C   UNL     1      16.855  -0.421 -24.053  1.00  0.00     0.006 C 
ENDROOT
BRANCH   1   2
ATOM      2  C   UNL     1      15.955   0.081 -25.190  1.00  0.00     0.053 C 
BRANCH   2   3
ATOM      3  C   UNL     1      16.740   0.377 -26.431  1.00  0.00     0.041 C 
ATOM      4  O   UNL     1      17.222  -0.563 -27.115  1.00  0.00    -0.550 OA
ATOM      5  O   UNL     1      16.966   1.693 -26.815  1.00  0.00    -0.550 OA
ENDBRANCH   2   3
ENDBRANCH   1   2
BRANCH   1   6
ATOM      6  C   UNL     1      16.745   0.453 -22.794  1.00  0.00     0.000 C 
BRANCH   6   7
ATOM      7  C   UNL     1      17.150   1.900 -23.093  1.00  0.00    -0.003 C 
ATOM      8  C   UNL     1      18.646   2.008 -23.374  1.00  0.00     0.004 C 
ENDBRANCH   6   7
ENDBRANCH   1   6
TORSDOF 4
ENDMDL
