MODEL 1
REMARK VINA RESULT:    -5.193      0.000      0.000
REMARK INTER + INTRA:          -6.442
REMARK INTER:                  -6.255
REMARK INTRA:                  -0.187
REMARK UNBOUND:                -0.187
REMARK SMILES O=c1c(O)c(-c2ccc(O)c(O)c2)oc2cc(O)cc(O)c12
REMARK SMILES IDX 5 1 3 2 2 3 1 4 22 5 20 6 19 7 17 8 16 9 15 10 14 11 6 12
REMARK SMILES IDX 7 13 8 14 9 15 13 16 11 17 10 18 12 20 4 22 21 24 18 26
REMARK H PARENT 10 19 12 21 4 23 21 25 18 27
REMARK Flexibility Score: inf
ROOT
ATOM      1  C   UNL     1       7.920  10.525   7.317  1.00  0.00     0.180 A 
ATOM      2  C   UNL     1       8.109  11.893   7.595  1.00  0.00     0.208 A 
ATOM      3  C   UNL     1       6.984  12.694   7.849  1.00  0.00     0.238 A 
ATOM      4  O   UNL     1       7.140  13.923   8.089  1.00  0.00    -0.285 OA
ATOM      5  C   UNL     1       5.699  12.115   7.842  1.00  0.00     0.111 A 
ATOM      6  C   UNL     1       4.516  12.852   8.090  1.00  0.00     0.134 A 
ATOM      7  C   UNL     1       3.275  12.200   8.073  1.00  0.00     0.093 A 
ATOM      8  C   UNL     1       3.192  10.830   7.813  1.00  0.00     0.123 A 
ATOM      9  C   UNL     1       4.357  10.098   7.565  1.00  0.00     0.094 A 
ATOM     10  C   UNL     1       5.605  10.728   7.576  1.00  0.00     0.146 A 
ATOM     11  O   UNL     1       6.694  10.011   7.332  1.00  0.00    -0.452 OA
ENDROOT
BRANCH   1  12
ATOM     12  C   UNL     1       9.054   9.620   7.021  1.00  0.00     0.025 A 
ATOM     13  C   UNL     1       9.305   8.529   7.868  1.00  0.00     0.016 A 
ATOM     14  C   UNL     1      10.357   7.649   7.596  1.00  0.00     0.051 A 
ATOM     15  C   UNL     1      11.162   7.838   6.465  1.00  0.00     0.157 A 
ATOM     16  C   UNL     1       9.851   9.794   5.876  1.00  0.00     0.062 A 
ATOM     17  C   UNL     1      10.904   8.914   5.599  1.00  0.00     0.158 A 
BRANCH  15  18
ATOM     18  O   UNL     1      12.211   6.960   6.198  1.00  0.00    -0.504 OA
ATOM     19  H   UNL     1      12.094   5.956   6.270  1.00  0.00     0.293 HD
ENDBRANCH  15  18
BRANCH  17  20
ATOM     20  O   UNL     1      11.678   9.121   4.458  1.00  0.00    -0.504 OA
ATOM     21  H   UNL     1      11.634   8.502   3.657  1.00  0.00     0.293 HD
ENDBRANCH  17  20
ENDBRANCH   1  12
BRANCH   2  22
ATOM     22  O   UNL     1       9.397  12.433   7.647  1.00  0.00    -0.502 OA
ATOM     23  H   UNL     1      10.125  12.162   6.998  1.00  0.00     0.293 HD
ENDBRANCH   2  22
BRANCH   6  24
ATOM     24  O   UNL     1       4.565  14.221   8.355  1.00  0.00    -0.507 OA
ATOM     25  H   UNL     1       3.749  14.813   8.254  1.00  0.00     0.293 HD
ENDBRANCH   6  24
BRANCH   8  26
ATOM     26  O   UNL     1       1.946  10.207   7.802  1.00  0.00    -0.508 OA
ATOM     27  H   UNL     1       1.550   9.803   8.642  1.00  0.00     0.293 HD
ENDBRANCH   8  26
TORSDOF 6
ENDMDL
MODEL 2
REMARK VINA RESULT:    -5.086      2.300      2.899
REMARK INTER + INTRA:          -6.314
REMARK INTER:                  -5.998
REMARK INTRA:                  -0.316
REMARK UNBOUND:                -0.187
REMARK SMILES O=c1c(O)c(-c2ccc(O)c(O)c2)oc2cc(O)cc(O)c12
REMARK SMILES IDX 5 1 3 2 2 3 1 4 22 5 20 6 19 7 17 8 16 9 15 10 14 11 6 12
REMARK SMILES IDX 7 13 8 14 9 15 13 16 11 17 10 18 12 20 4 22 21 24 18 26
REMARK H PARENT 10 19 12 21 4 23 21 25 18 27
REMARK Flexibility Score: inf
ROOT
ATOM      1  C   UNL     1       7.697  11.477   8.009  1.00  0.00     0.180 A 
ATOM      2  C   UNL     1       8.169  11.755   9.307  1.00  0.00     0.208 A 
ATOM      3  C   UNL     1       7.636  12.854  10.000  1.00  0.00     0.238 A 
ATOM      4  O   UNL     1       8.057  13.119  11.160  1.00  0.00    -0.285 OA
ATOM      5  C   UNL     1       6.633  13.639   9.398  1.00  0.00     0.111 A 
ATOM      6  C   UNL     1       6.043  14.760  10.029  1.00  0.00     0.134 A 
ATOM      7  C   UNL     1       5.043  15.486   9.366  1.00  0.00     0.093 A 
ATOM      8  C   UNL     1       4.623  15.115   8.086  1.00  0.00     0.123 A 
ATOM      9  C   UNL     1       5.204  14.010   7.456  1.00  0.00     0.094 A 
ATOM     10  C   UNL     1       6.202  13.273   8.100  1.00  0.00     0.146 A 
ATOM     11  O   UNL     1       6.740  12.232   7.477  1.00  0.00    -0.452 OA
ENDROOT
BRANCH   1  12
ATOM     12  C   UNL     1       8.223  10.348   7.207  1.00  0.00     0.025 A 
ATOM     13  C   UNL     1       7.473   9.166   7.106  1.00  0.00     0.016 A 
ATOM     14  C   UNL     1       7.939   8.096   6.337  1.00  0.00     0.051 A 
ATOM     15  C   UNL     1       9.155   8.198   5.647  1.00  0.00     0.157 A 
ATOM     16  C   UNL     1       9.432  10.455   6.496  1.00  0.00     0.062 A 
ATOM     17  C   UNL     1       9.901   9.386   5.724  1.00  0.00     0.158 A 
BRANCH  15  18
ATOM     18  O   UNL     1       9.618   7.128   4.883  1.00  0.00    -0.504 OA
ATOM     19  H   UNL     1      10.328   7.253   4.171  1.00  0.00     0.293 HD
ENDBRANCH  15  18
BRANCH  17  20
ATOM     20  O   UNL     1      11.106   9.524   5.037  1.00  0.00    -0.504 OA
ATOM     21  H   UNL     1      11.980   9.713   5.514  1.00  0.00     0.293 HD
ENDBRANCH  17  20
ENDBRANCH   1  12
BRANCH   2  22
ATOM     22  O   UNL     1       9.127  10.931   9.903  1.00  0.00    -0.502 OA
ATOM     23  H   UNL     1       8.997   9.931  10.002  1.00  0.00     0.293 HD
ENDBRANCH   2  22
BRANCH   6  24
ATOM     24  O   UNL     1       6.439  15.155  11.307  1.00  0.00    -0.507 OA
ATOM     25  H   UNL     1       6.631  14.482  12.039  1.00  0.00     0.293 HD
ENDBRANCH   6  24
BRANCH   8  26
ATOM     26  O   UNL     1       3.628  15.854   7.449  1.00  0.00    -0.508 OA
ATOM     27  H   UNL     1       3.629  16.867   7.464  1.00  0.00     0.293 HD
ENDBRANCH   8  26
TORSDOF 6
ENDMDL
MODEL 3
REMARK VINA RESULT:    -4.875      1.536      7.064
REMARK INTER + INTRA:          -6.059
REMARK INTER:                  -5.773
REMARK INTRA:                  -0.286
REMARK UNBOUND:                -0.187
REMARK SMILES O=c1c(O)c(-c2ccc(O)c(O)c2)oc2cc(O)cc(O)c12
REMARK SMILES IDX 5 1 3 2 2 3 1 4 22 5 20 6 19 7 17 8 16 9 15 10 14 11 6 12
REMARK SMILES IDX 7 13 8 14 9 15 13 16 11 17 10 18 12 20 4 22 21 24 18 26
REMARK H PARENT 10 19 12 21 4 23 21 25 18 27
REMARK Flexibility Score: inf
ROOT
ATOM      1  C   UNL     1       7.574  10.633   7.837  1.00  0.00     0.180 A 
ATOM      2  C   UNL     1       7.850   9.840   8.968  1.00  0.00     0.208 A 
ATOM      3  C   UNL     1       8.876   8.884   8.892  1.00  0.00     0.238 A 
ATOM      4  O   UNL     1       9.125   8.161   9.895  1.00  0.00    -0.285 OA
ATOM      5  C   UNL     1       9.619   8.753   7.701  1.00  0.00     0.111 A 
ATOM      6  C   UNL     1      10.670   7.818   7.544  1.00  0.00     0.134 A 
ATOM      7  C   UNL     1      11.368   7.754   6.329  1.00  0.00     0.093 A 
ATOM      8  C   UNL     1      11.037   8.604   5.271  1.00  0.00     0.123 A 
ATOM      9  C   UNL     1       9.999   9.529   5.421  1.00  0.00     0.094 A 
ATOM     10  C   UNL     1       9.290   9.608   6.623  1.00  0.00     0.146 A 
ATOM     11  O   UNL     1       8.305  10.491   6.736  1.00  0.00    -0.452 OA
ENDROOT
BRANCH   1  12
ATOM     12  C   UNL     1       6.495  11.648   7.834  1.00  0.00     0.025 A 
ATOM     13  C   UNL     1       6.831  13.010   7.880  1.00  0.00     0.016 A 
ATOM     14  C   UNL     1       5.831  13.987   7.857  1.00  0.00     0.051 A 
ATOM     15  C   UNL     1       4.482  13.615   7.770  1.00  0.00     0.157 A 
ATOM     16  C   UNL     1       5.143  11.280   7.726  1.00  0.00     0.062 A 
ATOM     17  C   UNL     1       4.138  12.254   7.699  1.00  0.00     0.158 A 
BRANCH  15  18
ATOM     18  O   UNL     1       3.487  14.591   7.748  1.00  0.00    -0.504 OA
ATOM     19  H   UNL     1       2.514  14.360   7.912  1.00  0.00     0.293 HD
ENDBRANCH  15  18
BRANCH  17  20
ATOM     20  O   UNL     1       2.807  11.853   7.598  1.00  0.00    -0.504 OA
ATOM     21  H   UNL     1       2.293  11.486   8.390  1.00  0.00     0.293 HD
ENDBRANCH  17  20
ENDBRANCH   1  12
BRANCH   2  22
ATOM     22  O   UNL     1       7.133  10.024  10.153  1.00  0.00    -0.502 OA
ATOM     23  H   UNL     1       6.659   9.264  10.626  1.00  0.00     0.293 HD
ENDBRANCH   2  22
BRANCH   6  24
ATOM     24  O   UNL     1      11.026   6.956   8.582  1.00  0.00    -0.507 OA
ATOM     25  H   UNL     1      11.837   6.352   8.519  1.00  0.00     0.293 HD
ENDBRANCH   6  24
BRANCH   8  26
ATOM     26  O   UNL     1      11.747   8.521   4.075  1.00  0.00    -0.508 OA
ATOM     27  H   UNL     1      12.011   9.351   3.558  1.00  0.00     0.293 HD
ENDBRANCH   8  26
TORSDOF 6
ENDMDL
MODEL 4
REMARK VINA RESULT:    -4.796      3.297      5.171
REMARK INTER + INTRA:          -5.964
REMARK INTER:                  -5.647
REMARK INTRA:                  -0.317
REMARK UNBOUND:                -0.187
REMARK SMILES O=c1c(O)c(-c2ccc(O)c(O)c2)oc2cc(O)cc(O)c12
REMARK SMILES IDX 5 1 3 2 2 3 1 4 22 5 20 6 19 7 17 8 16 9 15 10 14 11 6 12
REMARK SMILES IDX 7 13 8 14 9 15 13 16 11 17 10 18 12 20 4 22 21 24 18 26
REMARK H PARENT 10 19 12 21 4 23 21 25 18 27
REMARK Flexibility Score: inf
ROOT
ATOM      1  C   UNL     1       5.196  14.380   7.747  1.00  0.00     0.180 A 
ATOM      2  C   UNL     1       5.051  15.235   8.857  1.00  0.00     0.208 A 
ATOM      3  C   UNL     1       4.076  16.245   8.811  1.00  0.00     0.238 A 
ATOM      4  O   UNL     1       3.943  17.023   9.796  1.00  0.00    -0.285 OA
ATOM      5  C   UNL     1       3.254  16.370   7.673  1.00  0.00     0.111 A 
ATOM      6  C   UNL     1       2.247  17.357   7.550  1.00  0.00     0.134 A 
ATOM      7  C   UNL     1       1.464  17.411   6.387  1.00  0.00     0.093 A 
ATOM      8  C   UNL     1       1.668  16.499   5.348  1.00  0.00     0.123 A 
ATOM      9  C   UNL     1       2.661  15.522   5.464  1.00  0.00     0.094 A 
ATOM     10  C   UNL     1       3.453  15.452   6.614  1.00  0.00     0.146 A 
ATOM     11  O   UNL     1       4.393  14.519   6.696  1.00  0.00    -0.452 OA
ENDROOT
BRANCH   1  12
ATOM     12  C   UNL     1       6.214  13.304   7.712  1.00  0.00     0.025 A 
ATOM     13  C   UNL     1       5.824  11.979   7.958  1.00  0.00     0.016 A 
ATOM     14  C   UNL     1       6.763  10.944   7.909  1.00  0.00     0.051 A 
ATOM     15  C   UNL     1       8.101  11.219   7.598  1.00  0.00     0.157 A 
ATOM     16  C   UNL     1       7.553  13.573   7.380  1.00  0.00     0.062 A 
ATOM     17  C   UNL     1       8.496  12.540   7.328  1.00  0.00     0.158 A 
BRANCH  15  18
ATOM     18  O   UNL     1       9.036  10.185   7.552  1.00  0.00    -0.504 OA
ATOM     19  H   UNL     1       9.088   9.552   6.763  1.00  0.00     0.293 HD
ENDBRANCH  15  18
BRANCH  17  20
ATOM     20  O   UNL     1       9.817  12.844   7.002  1.00  0.00    -0.504 OA
ATOM     21  H   UNL     1      10.296  12.401   6.227  1.00  0.00     0.293 HD
ENDBRANCH  17  20
ENDBRANCH   1  12
BRANCH   2  22
ATOM     22  O   UNL     1       5.843  15.058   9.994  1.00  0.00    -0.502 OA
ATOM     23  H   UNL     1       6.314  14.185  10.197  1.00  0.00     0.293 HD
ENDBRANCH   2  22
BRANCH   6  24
ATOM     24  O   UNL     1       2.018  18.281   8.570  1.00  0.00    -0.507 OA
ATOM     25  H   UNL     1       1.202  18.881   8.573  1.00  0.00     0.293 HD
ENDBRANCH   6  24
BRANCH   8  26
ATOM     26  O   UNL     1       0.875  16.574   4.204  1.00  0.00    -0.508 OA
ATOM     27  H   UNL     1       1.237  16.945   3.334  1.00  0.00     0.293 HD
ENDBRANCH   8  26
TORSDOF 6
ENDMDL
MODEL 5
REMARK VINA RESULT:    -4.534      3.441      6.882
REMARK INTER + INTRA:          -5.649
REMARK INTER:                  -5.318
REMARK INTRA:                  -0.331
REMARK UNBOUND:                -0.187
REMARK SMILES O=c1c(O)c(-c2ccc(O)c(O)c2)oc2cc(O)cc(O)c12
REMARK SMILES IDX 5 1 3 2 2 3 1 4 22 5 20 6 19 7 17 8 16 9 15 10 14 11 6 12
REMARK SMILES IDX 7 13 8 14 9 15 13 16 11 17 10 18 12 20 4 22 21 24 18 26
REMARK H PARENT 10 19 12 21 4 23 21 25 18 27
REMARK Flexibility Score: inf
ROOT
ATOM      1  C   UNL     1      12.702   8.507   4.505  1.00  0.00     0.180 A 
ATOM      2  C   UNL     1      12.600   7.173   4.948  1.00  0.00     0.208 A 
ATOM      3  C   UNL     1      11.544   6.824   5.805  1.00  0.00     0.238 A 
ATOM      4  O   UNL     1      11.447   5.635   6.218  1.00  0.00    -0.285 OA
ATOM      5  C   UNL     1      10.602   7.801   6.186  1.00  0.00     0.111 A 
ATOM      6  C   UNL     1       9.508   7.530   7.042  1.00  0.00     0.134 A 
ATOM      7  C   UNL     1       8.608   8.555   7.368  1.00  0.00     0.093 A 
ATOM      8  C   UNL     1       8.780   9.843   6.855  1.00  0.00     0.123 A 
ATOM      9  C   UNL     1       9.859  10.117   6.009  1.00  0.00     0.094 A 
ATOM     10  C   UNL     1      10.768   9.110   5.674  1.00  0.00     0.146 A 
ATOM     11  O   UNL     1      11.787   9.398   4.873  1.00  0.00    -0.452 OA
ENDROOT
BRANCH   1  12
ATOM     12  C   UNL     1      13.798   8.957   3.616  1.00  0.00     0.025 A 
ATOM     13  C   UNL     1      13.573   9.040   2.233  1.00  0.00     0.016 A 
ATOM     14  C   UNL     1      14.586   9.482   1.376  1.00  0.00     0.051 A 
ATOM     15  C   UNL     1      15.831   9.863   1.893  1.00  0.00     0.157 A 
ATOM     16  C   UNL     1      15.042   9.359   4.132  1.00  0.00     0.062 A 
ATOM     17  C   UNL     1      16.058   9.805   3.279  1.00  0.00     0.158 A 
BRANCH  15  18
ATOM     18  O   UNL     1      16.840  10.302   1.036  1.00  0.00    -0.504 OA
ATOM     19  H   UNL     1      17.794  10.420   1.356  1.00  0.00     0.293 HD
ENDBRANCH  15  18
BRANCH  17  20
ATOM     20  O   UNL     1      17.282  10.190   3.824  1.00  0.00    -0.504 OA
ATOM     21  H   UNL     1      18.137   9.681   3.641  1.00  0.00     0.293 HD
ENDBRANCH  17  20
ENDBRANCH   1  12
BRANCH   2  22
ATOM     22  O   UNL     1      13.517   6.212   4.516  1.00  0.00    -0.502 OA
ATOM     23  H   UNL     1      14.516   6.321   4.640  1.00  0.00     0.293 HD
ENDBRANCH   2  22
BRANCH   6  24
ATOM     24  O   UNL     1       9.308   6.254   7.570  1.00  0.00    -0.507 OA
ATOM     25  H   UNL     1       8.823   5.532   7.051  1.00  0.00     0.293 HD
ENDBRANCH   6  24
BRANCH   8  26
ATOM     26  O   UNL     1       7.871  10.844   7.193  1.00  0.00    -0.508 OA
ATOM     27  H   UNL     1       7.768  11.164   8.149  1.00  0.00     0.293 HD
ENDBRANCH   8  26
TORSDOF 6
ENDMDL
MODEL 6
REMARK VINA RESULT:    -4.490      3.207      8.156
REMARK INTER + INTRA:          -5.596
REMARK INTER:                  -5.298
REMARK INTRA:                  -0.298
REMARK UNBOUND:                -0.187
REMARK SMILES O=c1c(O)c(-c2ccc(O)c(O)c2)oc2cc(O)cc(O)c12
REMARK SMILES IDX 5 1 3 2 2 3 1 4 22 5 20 6 19 7 17 8 16 9 15 10 14 11 6 12
REMARK SMILES IDX 7 13 8 14 9 15 13 16 11 17 10 18 12 20 4 22 21 24 18 26
REMARK H PARENT 10 19 12 21 4 23 21 25 18 27
REMARK Flexibility Score: inf
ROOT
ATOM      1  C   UNL     1      10.452   8.991   5.404  1.00  0.00     0.180 A 
ATOM      2  C   UNL     1       9.709   8.167   4.536  1.00  0.00     0.208 A 
ATOM      3  C   UNL     1      10.366   7.548   3.461  1.00  0.00     0.238 A 
ATOM      4  O   UNL     1       9.709   6.816   2.670  1.00  0.00    -0.285 OA
ATOM      5  C   UNL     1      11.751   7.745   3.283  1.00  0.00     0.111 A 
ATOM      6  C   UNL     1      12.488   7.156   2.228  1.00  0.00     0.134 A 
ATOM      7  C   UNL     1      13.866   7.394   2.125  1.00  0.00     0.093 A 
ATOM      8  C   UNL     1      14.520   8.208   3.053  1.00  0.00     0.123 A 
ATOM      9  C   UNL     1      13.797   8.793   4.096  1.00  0.00     0.094 A 
ATOM     10  C   UNL     1      12.423   8.570   4.217  1.00  0.00     0.146 A 
ATOM     11  O   UNL     1      11.759   9.142   5.214  1.00  0.00    -0.452 OA
ENDROOT
BRANCH   1  12
ATOM     12  C   UNL     1       9.826   9.692   6.549  1.00  0.00     0.025 A 
ATOM     13  C   UNL     1       9.618   8.999   7.751  1.00  0.00     0.016 A 
ATOM     14  C   UNL     1       9.049   9.647   8.852  1.00  0.00     0.051 A 
ATOM     15  C   UNL     1       8.694  11.000   8.770  1.00  0.00     0.157 A 
ATOM     16  C   UNL     1       9.489  11.056   6.477  1.00  0.00     0.062 A 
ATOM     17  C   UNL     1       8.921  11.708   7.577  1.00  0.00     0.158 A 
BRANCH  15  18
ATOM     18  O   UNL     1       8.125  11.643   9.868  1.00  0.00    -0.504 OA
ATOM     19  H   UNL     1       8.653  11.809  10.717  1.00  0.00     0.293 HD
ENDBRANCH  15  18
BRANCH  17  20
ATOM     20  O   UNL     1       8.593  13.059   7.469  1.00  0.00    -0.504 OA
ATOM     21  H   UNL     1       9.068  13.774   8.007  1.00  0.00     0.293 HD
ENDBRANCH  17  20
ENDBRANCH   1  12
BRANCH   2  22
ATOM     22  O   UNL     1       8.348   7.946   4.763  1.00  0.00    -0.502 OA
ATOM     23  H   UNL     1       7.996   7.578   5.638  1.00  0.00     0.293 HD
ENDBRANCH   2  22
BRANCH   6  24
ATOM     24  O   UNL     1      11.864   6.337   1.286  1.00  0.00    -0.507 OA
ATOM     25  H   UNL     1      12.314   5.508   0.919  1.00  0.00     0.293 HD
ENDBRANCH   6  24
BRANCH   8  26
ATOM     26  O   UNL     1      15.891   8.428   2.927  1.00  0.00    -0.508 OA
ATOM     27  H   UNL     1      16.284   8.857   2.099  1.00  0.00     0.293 HD
ENDBRANCH   8  26
TORSDOF 6
ENDMDL
MODEL 7
REMARK VINA RESULT:    -4.479      3.274      4.579
REMARK INTER + INTRA:          -5.583
REMARK INTER:                  -5.277
REMARK INTRA:                  -0.306
REMARK UNBOUND:                -0.187
REMARK SMILES O=c1c(O)c(-c2ccc(O)c(O)c2)oc2cc(O)cc(O)c12
REMARK SMILES IDX 5 1 3 2 2 3 1 4 22 5 20 6 19 7 17 8 16 9 15 10 14 11 6 12
REMARK SMILES IDX 7 13 8 14 9 15 13 16 11 17 10 18 12 20 4 22 21 24 18 26
REMARK H PARENT 10 19 12 21 4 23 21 25 18 27
REMARK Flexibility Score: inf
ROOT
ATOM      1  C   UNL     1       7.558  12.104   8.965  1.00  0.00     0.180 A 
ATOM      2  C   UNL     1       6.558  13.055   8.680  1.00  0.00     0.208 A 
ATOM      3  C   UNL     1       6.263  14.036   9.639  1.00  0.00     0.238 A 
ATOM      4  O   UNL     1       5.362  14.887   9.399  1.00  0.00    -0.285 OA
ATOM      5  C   UNL     1       6.981  14.065  10.852  1.00  0.00     0.111 A 
ATOM      6  C   UNL     1       6.748  15.022  11.868  1.00  0.00     0.134 A 
ATOM      7  C   UNL     1       7.511  14.989  13.044  1.00  0.00     0.093 A 
ATOM      8  C   UNL     1       8.501  14.020  13.224  1.00  0.00     0.123 A 
ATOM      9  C   UNL     1       8.735  13.071  12.224  1.00  0.00     0.094 A 
ATOM     10  C   UNL     1       7.985  13.086  11.045  1.00  0.00     0.146 A 
ATOM     11  O   UNL     1       8.224  12.170  10.114  1.00  0.00    -0.452 OA
ENDROOT
BRANCH   1  12
ATOM     12  C   UNL     1       7.912  11.027   8.013  1.00  0.00     0.025 A 
ATOM     13  C   UNL     1       7.118   9.871   7.953  1.00  0.00     0.016 A 
ATOM     14  C   UNL     1       7.421   8.850   7.048  1.00  0.00     0.051 A 
ATOM     15  C   UNL     1       8.512   8.978   6.178  1.00  0.00     0.157 A 
ATOM     16  C   UNL     1       8.994  11.160   7.124  1.00  0.00     0.062 A 
ATOM     17  C   UNL     1       9.299  10.142   6.214  1.00  0.00     0.158 A 
BRANCH  15  18
ATOM     18  O   UNL     1       8.813   7.957   5.277  1.00  0.00    -0.504 OA
ATOM     19  H   UNL     1       9.704   7.476   5.299  1.00  0.00     0.293 HD
ENDBRANCH  15  18
BRANCH  17  20
ATOM     20  O   UNL     1      10.382  10.305   5.352  1.00  0.00    -0.504 OA
ATOM     21  H   UNL     1      10.915  11.165   5.313  1.00  0.00     0.293 HD
ENDBRANCH  17  20
ENDBRANCH   1  12
BRANCH   2  22
ATOM     22  O   UNL     1       5.896  13.037   7.450  1.00  0.00    -0.502 OA
ATOM     23  H   UNL     1       5.719  12.179   6.941  1.00  0.00     0.293 HD
ENDBRANCH   2  22
BRANCH   6  24
ATOM     24  O   UNL     1       5.767  16.004  11.719  1.00  0.00    -0.507 OA
ATOM     25  H   UNL     1       5.985  16.925  11.360  1.00  0.00     0.293 HD
ENDBRANCH   6  24
BRANCH   8  26
ATOM     26  O   UNL     1       9.246  14.009  14.401  1.00  0.00    -0.508 OA
ATOM     27  H   UNL     1       9.595  13.145  14.799  1.00  0.00     0.293 HD
ENDBRANCH   8  26
TORSDOF 6
ENDMDL
MODEL 8
REMARK VINA RESULT:    -4.429      3.629      9.027
REMARK INTER + INTRA:          -5.523
REMARK INTER:                  -5.200
REMARK INTRA:                  -0.323
REMARK UNBOUND:                -0.187
REMARK SMILES O=c1c(O)c(-c2ccc(O)c(O)c2)oc2cc(O)cc(O)c12
REMARK SMILES IDX 5 1 3 2 2 3 1 4 22 5 20 6 19 7 17 8 16 9 15 10 14 11 6 12
REMARK SMILES IDX 7 13 8 14 9 15 13 16 11 17 10 18 12 20 4 22 21 24 18 26
REMARK H PARENT 10 19 12 21 4 23 21 25 18 27
REMARK Flexibility Score: inf
ROOT
ATOM      1  C   UNL     1      11.620   8.571   4.601  1.00  0.00     0.180 A 
ATOM      2  C   UNL     1      11.243   7.709   3.552  1.00  0.00     0.208 A 
ATOM      3  C   UNL     1      12.133   7.512   2.484  1.00  0.00     0.238 A 
ATOM      4  O   UNL     1      11.803   6.750   1.534  1.00  0.00    -0.285 OA
ATOM      5  C   UNL     1      13.386   8.159   2.492  1.00  0.00     0.111 A 
ATOM      6  C   UNL     1      14.340   8.011   1.456  1.00  0.00     0.134 A 
ATOM      7  C   UNL     1      15.568   8.682   1.541  1.00  0.00     0.093 A 
ATOM      8  C   UNL     1      15.861   9.497   2.638  1.00  0.00     0.123 A 
ATOM      9  C   UNL     1      14.922   9.648   3.662  1.00  0.00     0.094 A 
ATOM     10  C   UNL     1      13.691   8.988   3.597  1.00  0.00     0.146 A 
ATOM     11  O   UNL     1      12.816   9.154   4.581  1.00  0.00    -0.452 OA
ENDROOT
BRANCH   1  12
ATOM     12  C   UNL     1      10.729   8.845   5.752  1.00  0.00     0.025 A 
ATOM     13  C   UNL     1       9.836   9.927   5.690  1.00  0.00     0.016 A 
ATOM     14  C   UNL     1       8.971  10.192   6.755  1.00  0.00     0.051 A 
ATOM     15  C   UNL     1       8.975   9.371   7.890  1.00  0.00     0.157 A 
ATOM     16  C   UNL     1      10.715   8.011   6.883  1.00  0.00     0.062 A 
ATOM     17  C   UNL     1       9.849   8.272   7.951  1.00  0.00     0.158 A 
BRANCH  15  18
ATOM     18  O   UNL     1       8.112   9.639   8.951  1.00  0.00    -0.504 OA
ATOM     19  H   UNL     1       8.460   9.916   9.861  1.00  0.00     0.293 HD
ENDBRANCH  15  18
BRANCH  17  20
ATOM     20  O   UNL     1       9.866   7.428   9.060  1.00  0.00    -0.504 OA
ATOM     21  H   UNL     1       9.060   7.312   9.662  1.00  0.00     0.293 HD
ENDBRANCH  17  20
ENDBRANCH   1  12
BRANCH   2  22
ATOM     22  O   UNL     1      10.018   7.040   3.594  1.00  0.00    -0.502 OA
ATOM     23  H   UNL     1       9.147   7.514   3.799  1.00  0.00     0.293 HD
ENDBRANCH   2  22
BRANCH   6  24
ATOM     24  O   UNL     1      14.079   7.203   0.349  1.00  0.00    -0.507 OA
ATOM     25  H   UNL     1      14.096   7.571  -0.595  1.00  0.00     0.293 HD
ENDBRANCH   6  24
BRANCH   8  26
ATOM     26  O   UNL     1      17.089  10.152   2.698  1.00  0.00    -0.508 OA
ATOM     27  H   UNL     1      17.454  10.513   3.571  1.00  0.00     0.293 HD
ENDBRANCH   8  26
TORSDOF 6
ENDMDL
MODEL 9
REMARK VINA RESULT:    -4.403      1.305      1.990
REMARK INTER + INTRA:          -5.491
REMARK INTER:                  -5.185
REMARK INTRA:                  -0.306
REMARK UNBOUND:                -0.187
REMARK SMILES O=c1c(O)c(-c2ccc(O)c(O)c2)oc2cc(O)cc(O)c12
REMARK SMILES IDX 5 1 3 2 2 3 1 4 22 5 20 6 19 7 17 8 16 9 15 10 14 11 6 12
REMARK SMILES IDX 7 13 8 14 9 15 13 16 11 17 10 18 12 20 4 22 21 24 18 26
REMARK H PARENT 10 19 12 21 4 23 21 25 18 27
REMARK Flexibility Score: inf
ROOT
ATOM      1  C   UNL     1       7.901  10.013   8.024  1.00  0.00     0.180 A 
ATOM      2  C   UNL     1       8.171  11.375   8.263  1.00  0.00     0.208 A 
ATOM      3  C   UNL     1       7.109  12.293   8.225  1.00  0.00     0.238 A 
ATOM      4  O   UNL     1       7.339  13.517   8.428  1.00  0.00    -0.285 OA
ATOM      5  C   UNL     1       5.800  11.835   7.972  1.00  0.00     0.111 A 
ATOM      6  C   UNL     1       4.675  12.694   7.921  1.00  0.00     0.134 A 
ATOM      7  C   UNL     1       3.403  12.159   7.671  1.00  0.00     0.093 A 
ATOM      8  C   UNL     1       3.233  10.787   7.472  1.00  0.00     0.123 A 
ATOM      9  C   UNL     1       4.340   9.935   7.521  1.00  0.00     0.094 A 
ATOM     10  C   UNL     1       5.617  10.447   7.767  1.00  0.00     0.146 A 
ATOM     11  O   UNL     1       6.651   9.616   7.802  1.00  0.00    -0.452 OA
ENDROOT
BRANCH   1  12
ATOM     12  C   UNL     1       8.970   8.988   8.028  1.00  0.00     0.025 A 
ATOM     13  C   UNL     1       9.767   8.820   6.884  1.00  0.00     0.016 A 
ATOM     14  C   UNL     1      10.795   7.873   6.872  1.00  0.00     0.051 A 
ATOM     15  C   UNL     1      11.051   7.093   8.007  1.00  0.00     0.157 A 
ATOM     16  C   UNL     1       9.243   8.218   9.172  1.00  0.00     0.062 A 
ATOM     17  C   UNL     1      10.273   7.271   9.164  1.00  0.00     0.158 A 
BRANCH  15  18
ATOM     18  O   UNL     1      12.076   6.148   7.990  1.00  0.00    -0.504 OA
ATOM     19  H   UNL     1      11.903   5.182   7.742  1.00  0.00     0.293 HD
ENDBRANCH  15  18
BRANCH  17  20
ATOM     20  O   UNL     1      10.512   6.520  10.314  1.00  0.00    -0.504 OA
ATOM     21  H   UNL     1      10.876   5.575  10.274  1.00  0.00     0.293 HD
ENDBRANCH  17  20
ENDBRANCH   1  12
BRANCH   2  22
ATOM     22  O   UNL     1       9.468  11.797   8.562  1.00  0.00    -0.502 OA
ATOM     23  H   UNL     1       9.965  12.473   7.994  1.00  0.00     0.293 HD
ENDBRANCH   2  22
BRANCH   6  24
ATOM     24  O   UNL     1       4.812  14.069   8.116  1.00  0.00    -0.507 OA
ATOM     25  H   UNL     1       5.485  14.617   7.595  1.00  0.00     0.293 HD
ENDBRANCH   6  24
BRANCH   8  26
ATOM     26  O   UNL     1       1.958  10.282   7.227  1.00  0.00    -0.508 OA
ATOM     27  H   UNL     1       1.249  10.837   6.762  1.00  0.00     0.293 HD
ENDBRANCH   8  26
TORSDOF 6
ENDMDL
