MODEL 1
REMARK VINA RESULT:    -6.835      0.000      0.000
REMARK INTER + INTRA:          -7.790
REMARK INTER:                  -8.234
REMARK INTRA:                   0.444
REMARK UNBOUND:                 0.444
REMARK SMILES O=c1c(O)c(-c2ccc(O)c(O)c2)oc2cc(O)cc(O)c12
REMARK SMILES IDX 5 1 3 2 2 3 1 4 22 5 20 6 19 7 17 8 16 9 15 10 14 11 6 12
REMARK SMILES IDX 7 13 8 14 9 15 13 16 11 17 10 18 12 20 4 22 21 24 18 26
REMARK H PARENT 10 19 12 21 4 23 21 25 18 27
REMARK Flexibility Score: inf
ROOT
ATOM      1  C   UNL     1      -8.635  -6.968   3.506  1.00  0.00     0.180 A 
ATOM      2  C   UNL     1      -8.238  -8.274   3.168  1.00  0.00     0.208 A 
ATOM      3  C   UNL     1      -8.662  -8.817   1.944  1.00  0.00     0.238 A 
ATOM      4  O   UNL     1      -8.259  -9.966   1.622  1.00  0.00    -0.285 OA
ATOM      5  C   UNL     1      -9.487  -8.057   1.082  1.00  0.00     0.111 A 
ATOM      6  C   UNL     1     -10.008  -8.523  -0.162  1.00  0.00     0.134 A 
ATOM      7  C   UNL     1     -10.707  -7.638  -0.994  1.00  0.00     0.093 A 
ATOM      8  C   UNL     1     -10.960  -6.323  -0.595  1.00  0.00     0.123 A 
ATOM      9  C   UNL     1     -10.508  -5.878   0.644  1.00  0.00     0.094 A 
ATOM     10  C   UNL     1      -9.777  -6.725   1.479  1.00  0.00     0.146 A 
ATOM     11  O   UNL     1      -9.355  -6.256   2.647  1.00  0.00    -0.452 OA
ENDROOT
BRANCH   1  12
ATOM     12  C   UNL     1      -8.250  -6.337   4.789  1.00  0.00     0.025 A 
ATOM     13  C   UNL     1      -7.289  -6.919   5.633  1.00  0.00     0.016 A 
ATOM     14  C   UNL     1      -6.960  -6.318   6.850  1.00  0.00     0.051 A 
ATOM     15  C   UNL     1      -7.594  -5.133   7.248  1.00  0.00     0.157 A 
ATOM     16  C   UNL     1      -8.898  -5.161   5.202  1.00  0.00     0.062 A 
ATOM     17  C   UNL     1      -8.570  -4.555   6.420  1.00  0.00     0.158 A 
BRANCH  15  18
ATOM     18  O   UNL     1      -7.262  -4.534   8.462  1.00  0.00    -0.504 OA
ATOM     19  H   UNL     1      -7.133  -3.532   8.542  1.00  0.00     0.293 HD
ENDBRANCH  15  18
BRANCH  17  20
ATOM     20  O   UNL     1      -9.225  -3.380   6.790  1.00  0.00    -0.504 OA
ATOM     21  H   UNL     1      -8.819  -2.721   7.443  1.00  0.00     0.293 HD
ENDBRANCH  17  20
ENDBRANCH   1  12
BRANCH   2  22
ATOM     22  O   UNL     1      -7.405  -9.000   4.022  1.00  0.00    -0.502 OA
ATOM     23  H   UNL     1      -6.540  -8.621   4.389  1.00  0.00     0.293 HD
ENDBRANCH   2  22
BRANCH   6  24
ATOM     24  O   UNL     1      -9.890  -9.841  -0.612  1.00  0.00    -0.507 OA
ATOM     25  H   UNL     1      -9.036 -10.377  -0.607  1.00  0.00     0.293 HD
ENDBRANCH   6  24
BRANCH   8  26
ATOM     26  O   UNL     1     -11.670  -5.455  -1.421  1.00  0.00    -0.508 OA
ATOM     27  H   UNL     1     -12.360  -5.796  -2.081  1.00  0.00     0.293 HD
ENDBRANCH   8  26
TORSDOF 6
ENDMDL
MODEL 2
REMARK VINA RESULT:    -6.709      1.447      6.690
REMARK INTER + INTRA:          -7.638
REMARK INTER:                  -7.407
REMARK INTRA:                  -0.231
REMARK UNBOUND:                 0.444
REMARK SMILES O=c1c(O)c(-c2ccc(O)c(O)c2)oc2cc(O)cc(O)c12
REMARK SMILES IDX 5 1 3 2 2 3 1 4 22 5 20 6 19 7 17 8 16 9 15 10 14 11 6 12
REMARK SMILES IDX 7 13 8 14 9 15 13 16 11 17 10 18 12 20 4 22 21 24 18 26
REMARK H PARENT 10 19 12 21 4 23 21 25 18 27
REMARK Flexibility Score: inf
ROOT
ATOM      1  C   UNL     1      -9.705  -7.078   2.435  1.00  0.00     0.180 A 
ATOM      2  C   UNL     1      -8.900  -8.033   3.082  1.00  0.00     0.208 A 
ATOM      3  C   UNL     1      -8.290  -7.694   4.301  1.00  0.00     0.238 A 
ATOM      4  O   UNL     1      -7.615  -8.571   4.903  1.00  0.00    -0.285 OA
ATOM      5  C   UNL     1      -8.478  -6.403   4.849  1.00  0.00     0.111 A 
ATOM      6  C   UNL     1      -7.875  -5.939   6.057  1.00  0.00     0.134 A 
ATOM      7  C   UNL     1      -8.236  -4.688   6.573  1.00  0.00     0.093 A 
ATOM      8  C   UNL     1      -9.127  -3.857   5.891  1.00  0.00     0.123 A 
ATOM      9  C   UNL     1      -9.674  -4.277   4.680  1.00  0.00     0.094 A 
ATOM     10  C   UNL     1      -9.363  -5.534   4.159  1.00  0.00     0.146 A 
ATOM     11  O   UNL     1      -9.915  -5.898   3.008  1.00  0.00    -0.452 OA
ENDROOT
BRANCH   1  12
ATOM     12  C   UNL     1     -10.360  -7.352   1.136  1.00  0.00     0.025 A 
ATOM     13  C   UNL     1     -11.447  -8.237   1.036  1.00  0.00     0.016 A 
ATOM     14  C   UNL     1     -12.033  -8.499  -0.205  1.00  0.00     0.051 A 
ATOM     15  C   UNL     1     -11.536  -7.890  -1.365  1.00  0.00     0.157 A 
ATOM     16  C   UNL     1      -9.851  -6.760  -0.032  1.00  0.00     0.062 A 
ATOM     17  C   UNL     1     -10.438  -7.018  -1.276  1.00  0.00     0.158 A 
BRANCH  15  18
ATOM     18  O   UNL     1     -12.125  -8.151  -2.601  1.00  0.00    -0.504 OA
ATOM     19  H   UNL     1     -12.685  -8.981  -2.757  1.00  0.00     0.293 HD
ENDBRANCH  15  18
BRANCH  17  20
ATOM     20  O   UNL     1      -9.914  -6.402  -2.413  1.00  0.00    -0.504 OA
ATOM     21  H   UNL     1     -10.156  -6.704  -3.348  1.00  0.00     0.293 HD
ENDBRANCH  17  20
ENDBRANCH   1  12
BRANCH   2  22
ATOM     22  O   UNL     1      -8.746  -9.308   2.536  1.00  0.00    -0.502 OA
ATOM     23  H   UNL     1      -8.105  -9.992   2.921  1.00  0.00     0.293 HD
ENDBRANCH   2  22
BRANCH   6  24
ATOM     24  O   UNL     1      -6.904  -6.652   6.768  1.00  0.00    -0.507 OA
ATOM     25  H   UNL     1      -6.234  -7.280   6.354  1.00  0.00     0.293 HD
ENDBRANCH   6  24
BRANCH   8  26
ATOM     26  O   UNL     1      -9.468  -2.607   6.402  1.00  0.00    -0.508 OA
ATOM     27  H   UNL     1      -9.382  -1.765   5.845  1.00  0.00     0.293 HD
ENDBRANCH   8  26
TORSDOF 6
ENDMDL
MODEL 3
REMARK VINA RESULT:    -6.624      2.346      4.274
REMARK INTER + INTRA:          -7.535
REMARK INTER:                  -8.040
REMARK INTRA:                   0.505
REMARK UNBOUND:                 0.444
REMARK SMILES O=c1c(O)c(-c2ccc(O)c(O)c2)oc2cc(O)cc(O)c12
REMARK SMILES IDX 5 1 3 2 2 3 1 4 22 5 20 6 19 7 17 8 16 9 15 10 14 11 6 12
REMARK SMILES IDX 7 13 8 14 9 15 13 16 11 17 10 18 12 20 4 22 21 24 18 26
REMARK H PARENT 10 19 12 21 4 23 21 25 18 27
REMARK Flexibility Score: inf
ROOT
ATOM      1  C   UNL     1      -9.360  -4.578   4.755  1.00  0.00     0.180 A 
ATOM      2  C   UNL     1      -8.500  -5.289   5.610  1.00  0.00     0.208 A 
ATOM      3  C   UNL     1      -8.021  -6.544   5.201  1.00  0.00     0.238 A 
ATOM      4  O   UNL     1      -7.208  -7.152   5.947  1.00  0.00    -0.285 OA
ATOM      5  C   UNL     1      -8.418  -7.079   3.953  1.00  0.00     0.111 A 
ATOM      6  C   UNL     1      -8.025  -8.359   3.457  1.00  0.00     0.134 A 
ATOM      7  C   UNL     1      -8.373  -8.731   2.152  1.00  0.00     0.093 A 
ATOM      8  C   UNL     1      -9.155  -7.896   1.350  1.00  0.00     0.123 A 
ATOM      9  C   UNL     1      -9.593  -6.671   1.848  1.00  0.00     0.094 A 
ATOM     10  C   UNL     1      -9.232  -6.257   3.131  1.00  0.00     0.146 A 
ATOM     11  O   UNL     1      -9.663  -5.077   3.562  1.00  0.00    -0.452 OA
ENDROOT
BRANCH   1  12
ATOM     12  C   UNL     1      -9.927  -3.261   5.126  1.00  0.00     0.025 A 
ATOM     13  C   UNL     1     -10.524  -2.425   4.168  1.00  0.00     0.016 A 
ATOM     14  C   UNL     1     -11.030  -1.176   4.537  1.00  0.00     0.051 A 
ATOM     15  C   UNL     1     -10.936  -0.739   5.866  1.00  0.00     0.157 A 
ATOM     16  C   UNL     1      -9.816  -2.811   6.452  1.00  0.00     0.062 A 
ATOM     17  C   UNL     1     -10.323  -1.561   6.826  1.00  0.00     0.158 A 
BRANCH  15  18
ATOM     18  O   UNL     1     -11.444   0.506   6.231  1.00  0.00    -0.504 OA
ATOM     19  H   UNL     1     -11.903   1.111   5.559  1.00  0.00     0.293 HD
ENDBRANCH  15  18
BRANCH  17  20
ATOM     20  O   UNL     1     -10.207  -1.153   8.155  1.00  0.00    -0.504 OA
ATOM     21  H   UNL     1     -10.138  -1.817   8.916  1.00  0.00     0.293 HD
ENDBRANCH  17  20
ENDBRANCH   1  12
BRANCH   2  22
ATOM     22  O   UNL     1      -8.102  -4.733   6.827  1.00  0.00    -0.502 OA
ATOM     23  H   UNL     1      -7.289  -5.061   7.336  1.00  0.00     0.293 HD
ENDBRANCH   2  22
BRANCH   6  24
ATOM     24  O   UNL     1      -7.322  -9.305   4.209  1.00  0.00    -0.507 OA
ATOM     25  H   UNL     1      -7.502  -9.519   5.178  1.00  0.00     0.293 HD
ENDBRANCH   6  24
BRANCH   8  26
ATOM     26  O   UNL     1      -9.511  -8.281   0.059  1.00  0.00    -0.508 OA
ATOM     27  H   UNL     1      -8.971  -8.966  -0.457  1.00  0.00     0.293 HD
ENDBRANCH   8  26
TORSDOF 6
ENDMDL
MODEL 4
REMARK VINA RESULT:    -6.379      1.845      7.030
REMARK INTER + INTRA:          -7.241
REMARK INTER:                  -7.527
REMARK INTRA:                   0.286
REMARK UNBOUND:                 0.444
REMARK SMILES O=c1c(O)c(-c2ccc(O)c(O)c2)oc2cc(O)cc(O)c12
REMARK SMILES IDX 5 1 3 2 2 3 1 4 22 5 20 6 19 7 17 8 16 9 15 10 14 11 6 12
REMARK SMILES IDX 7 13 8 14 9 15 13 16 11 17 10 18 12 20 4 22 21 24 18 26
REMARK H PARENT 10 19 12 21 4 23 21 25 18 27
REMARK Flexibility Score: inf
ROOT
ATOM      1  C   UNL     1     -10.198  -6.736   0.043  1.00  0.00     0.180 A 
ATOM      2  C   UNL     1      -9.681  -8.018   0.303  1.00  0.00     0.208 A 
ATOM      3  C   UNL     1      -9.176  -8.300   1.582  1.00  0.00     0.238 A 
ATOM      4  O   UNL     1      -8.764  -9.465   1.825  1.00  0.00    -0.285 OA
ATOM      5  C   UNL     1      -9.180  -7.296   2.580  1.00  0.00     0.111 A 
ATOM      6  C   UNL     1      -8.656  -7.460   3.897  1.00  0.00     0.134 A 
ATOM      7  C   UNL     1      -8.831  -6.441   4.842  1.00  0.00     0.093 A 
ATOM      8  C   UNL     1      -9.452  -5.238   4.498  1.00  0.00     0.123 A 
ATOM      9  C   UNL     1      -9.912  -5.046   3.197  1.00  0.00     0.094 A 
ATOM     10  C   UNL     1      -9.785  -6.057   2.243  1.00  0.00     0.146 A 
ATOM     11  O   UNL     1     -10.247  -5.836   1.018  1.00  0.00    -0.452 OA
ENDROOT
BRANCH   1  12
ATOM     12  C   UNL     1     -10.724  -6.355  -1.288  1.00  0.00     0.025 A 
ATOM     13  C   UNL     1     -11.304  -7.305  -2.146  1.00  0.00     0.016 A 
ATOM     14  C   UNL     1     -11.772  -6.926  -3.407  1.00  0.00     0.051 A 
ATOM     15  C   UNL     1     -11.655  -5.596  -3.834  1.00  0.00     0.157 A 
ATOM     16  C   UNL     1     -10.591  -5.027  -1.729  1.00  0.00     0.062 A 
ATOM     17  C   UNL     1     -11.059  -4.644  -2.991  1.00  0.00     0.158 A 
BRANCH  15  18
ATOM     18  O   UNL     1     -12.125  -5.221  -5.092  1.00  0.00    -0.504 OA
ATOM     19  H   UNL     1     -12.754  -4.435  -5.211  1.00  0.00     0.293 HD
ENDBRANCH  15  18
BRANCH  17  20
ATOM     20  O   UNL     1     -10.922  -3.314  -3.389  1.00  0.00    -0.504 OA
ATOM     21  H   UNL     1     -10.238  -3.028  -4.078  1.00  0.00     0.293 HD
ENDBRANCH  17  20
ENDBRANCH   1  12
BRANCH   2  22
ATOM     22  O   UNL     1      -9.707  -9.000  -0.689  1.00  0.00    -0.502 OA
ATOM     23  H   UNL     1     -10.506  -9.607  -0.833  1.00  0.00     0.293 HD
ENDBRANCH   2  22
BRANCH   6  24
ATOM     24  O   UNL     1      -7.939  -8.585   4.317  1.00  0.00    -0.507 OA
ATOM     25  H   UNL     1      -7.808  -8.857   5.279  1.00  0.00     0.293 HD
ENDBRANCH   6  24
BRANCH   8  26
ATOM     26  O   UNL     1      -9.608  -4.223   5.439  1.00  0.00    -0.508 OA
ATOM     27  H   UNL     1      -8.816  -3.846   5.947  1.00  0.00     0.293 HD
ENDBRANCH   8  26
TORSDOF 6
ENDMDL
MODEL 5
REMARK VINA RESULT:    -6.317      1.459      7.184
REMARK INTER + INTRA:          -7.166
REMARK INTER:                  -7.581
REMARK INTRA:                   0.415
REMARK UNBOUND:                 0.444
REMARK SMILES O=c1c(O)c(-c2ccc(O)c(O)c2)oc2cc(O)cc(O)c12
REMARK SMILES IDX 5 1 3 2 2 3 1 4 22 5 20 6 19 7 17 8 16 9 15 10 14 11 6 12
REMARK SMILES IDX 7 13 8 14 9 15 13 16 11 17 10 18 12 20 4 22 21 24 18 26
REMARK H PARENT 10 19 12 21 4 23 21 25 18 27
REMARK Flexibility Score: inf
ROOT
ATOM      1  C   UNL     1      -9.371  -6.670   2.968  1.00  0.00     0.180 A 
ATOM      2  C   UNL     1      -9.916  -5.374   2.994  1.00  0.00     0.208 A 
ATOM      3  C   UNL     1      -9.704  -4.571   4.127  1.00  0.00     0.238 A 
ATOM      4  O   UNL     1     -10.148  -3.392   4.123  1.00  0.00    -0.285 OA
ATOM      5  C   UNL     1      -8.966  -5.077   5.222  1.00  0.00     0.111 A 
ATOM      6  C   UNL     1      -8.725  -4.365   6.436  1.00  0.00     0.134 A 
ATOM      7  C   UNL     1      -7.870  -4.914   7.401  1.00  0.00     0.093 A 
ATOM      8  C   UNL     1      -7.301  -6.178   7.224  1.00  0.00     0.123 A 
ATOM      9  C   UNL     1      -7.580  -6.906   6.070  1.00  0.00     0.094 A 
ATOM     10  C   UNL     1      -8.398  -6.370   5.073  1.00  0.00     0.146 A 
ATOM     11  O   UNL     1      -8.628  -7.093   3.984  1.00  0.00    -0.452 OA
ENDROOT
BRANCH   1  12
ATOM     12  C   UNL     1      -9.573  -7.585   1.821  1.00  0.00     0.025 A 
ATOM     13  C   UNL     1      -9.439  -8.977   1.962  1.00  0.00     0.016 A 
ATOM     14  C   UNL     1      -9.610  -9.819   0.860  1.00  0.00     0.051 A 
ATOM     15  C   UNL     1      -9.905  -9.282  -0.401  1.00  0.00     0.157 A 
ATOM     16  C   UNL     1      -9.848  -7.051   0.551  1.00  0.00     0.062 A 
ATOM     17  C   UNL     1     -10.021  -7.891  -0.555  1.00  0.00     0.158 A 
BRANCH  15  18
ATOM     18  O   UNL     1     -10.077 -10.125  -1.498  1.00  0.00    -0.504 OA
ATOM     19  H   UNL     1      -9.646  -9.926  -2.393  1.00  0.00     0.293 HD
ENDBRANCH  15  18
BRANCH  17  20
ATOM     20  O   UNL     1     -10.307  -7.325  -1.797  1.00  0.00    -0.504 OA
ATOM     21  H   UNL     1      -9.784  -7.565  -2.630  1.00  0.00     0.293 HD
ENDBRANCH  17  20
ENDBRANCH   1  12
BRANCH   2  22
ATOM     22  O   UNL     1     -10.623  -4.886   1.894  1.00  0.00    -0.502 OA
ATOM     23  H   UNL     1     -10.308  -4.086   1.355  1.00  0.00     0.293 HD
ENDBRANCH   2  22
BRANCH   6  24
ATOM     24  O   UNL     1      -9.316  -3.138   6.751  1.00  0.00    -0.507 OA
ATOM     25  H   UNL     1     -10.219  -2.833   6.421  1.00  0.00     0.293 HD
ENDBRANCH   6  24
BRANCH   8  26
ATOM     26  O   UNL     1      -6.467  -6.723   8.196  1.00  0.00    -0.508 OA
ATOM     27  H   UNL     1      -6.690  -7.598   8.656  1.00  0.00     0.293 HD
ENDBRANCH   8  26
TORSDOF 6
ENDMDL
MODEL 6
REMARK VINA RESULT:    -6.278      2.224      3.831
REMARK INTER + INTRA:          -7.119
REMARK INTER:                  -7.304
REMARK INTRA:                   0.185
REMARK UNBOUND:                 0.444
REMARK SMILES O=c1c(O)c(-c2ccc(O)c(O)c2)oc2cc(O)cc(O)c12
REMARK SMILES IDX 5 1 3 2 2 3 1 4 22 5 20 6 19 7 17 8 16 9 15 10 14 11 6 12
REMARK SMILES IDX 7 13 8 14 9 15 13 16 11 17 10 18 12 20 4 22 21 24 18 26
REMARK H PARENT 10 19 12 21 4 23 21 25 18 27
REMARK Flexibility Score: inf
ROOT
ATOM      1  C   UNL     1      -9.931  -7.615   0.299  1.00  0.00     0.180 A 
ATOM      2  C   UNL     1     -10.218  -8.771  -0.449  1.00  0.00     0.208 A 
ATOM      3  C   UNL     1     -10.757  -8.631  -1.737  1.00  0.00     0.238 A 
ATOM      4  O   UNL     1     -10.961  -9.668  -2.423  1.00  0.00    -0.285 OA
ATOM      5  C   UNL     1     -11.018  -7.340  -2.256  1.00  0.00     0.111 A 
ATOM      6  C   UNL     1     -11.601  -7.083  -3.534  1.00  0.00     0.134 A 
ATOM      7  C   UNL     1     -11.693  -5.764  -3.998  1.00  0.00     0.093 A 
ATOM      8  C   UNL     1     -11.283  -4.691  -3.203  1.00  0.00     0.123 A 
ATOM      9  C   UNL     1     -10.769  -4.929  -1.931  1.00  0.00     0.094 A 
ATOM     10  C   UNL     1     -10.631  -6.235  -1.455  1.00  0.00     0.146 A 
ATOM     11  O   UNL     1     -10.126  -6.417  -0.241  1.00  0.00    -0.452 OA
ENDROOT
BRANCH   1  12
ATOM     12  C   UNL     1      -9.385  -7.682   1.674  1.00  0.00     0.025 A 
ATOM     13  C   UNL     1      -8.441  -8.656   2.040  1.00  0.00     0.016 A 
ATOM     14  C   UNL     1      -7.958  -8.715   3.350  1.00  0.00     0.051 A 
ATOM     15  C   UNL     1      -8.421  -7.811   4.316  1.00  0.00     0.157 A 
ATOM     16  C   UNL     1      -9.862  -6.792   2.650  1.00  0.00     0.062 A 
ATOM     17  C   UNL     1      -9.380  -6.847   3.963  1.00  0.00     0.158 A 
BRANCH  15  18
ATOM     18  O   UNL     1      -7.936  -7.871   5.621  1.00  0.00    -0.504 OA
ATOM     19  H   UNL     1      -7.970  -8.728   6.161  1.00  0.00     0.293 HD
ENDBRANCH  15  18
BRANCH  17  20
ATOM     20  O   UNL     1      -9.866  -5.937   4.902  1.00  0.00    -0.504 OA
ATOM     21  H   UNL     1      -9.254  -5.445   5.541  1.00  0.00     0.293 HD
ENDBRANCH  17  20
ENDBRANCH   1  12
BRANCH   2  22
ATOM     22  O   UNL     1      -9.932 -10.034   0.073  1.00  0.00    -0.502 OA
ATOM     23  H   UNL     1      -9.361 -10.711  -0.420  1.00  0.00     0.293 HD
ENDBRANCH   2  22
BRANCH   6  24
ATOM     24  O   UNL     1     -12.125  -8.076  -4.367  1.00  0.00    -0.507 OA
ATOM     25  H   UNL     1     -12.039  -8.089  -5.371  1.00  0.00     0.293 HD
ENDBRANCH   6  24
BRANCH   8  26
ATOM     26  O   UNL     1     -11.394  -3.382  -3.666  1.00  0.00    -0.508 OA
ATOM     27  H   UNL     1     -11.891  -3.162  -4.521  1.00  0.00     0.293 HD
ENDBRANCH   8  26
TORSDOF 6
ENDMDL
MODEL 7
REMARK VINA RESULT:    -6.218      3.005      5.597
REMARK INTER + INTRA:          -7.046
REMARK INTER:                  -6.716
REMARK INTRA:                  -0.330
REMARK UNBOUND:                 0.444
REMARK SMILES O=c1c(O)c(-c2ccc(O)c(O)c2)oc2cc(O)cc(O)c12
REMARK SMILES IDX 5 1 3 2 2 3 1 4 22 5 20 6 19 7 17 8 16 9 15 10 14 11 6 12
REMARK SMILES IDX 7 13 8 14 9 15 13 16 11 17 10 18 12 20 4 22 21 24 18 26
REMARK H PARENT 10 19 12 21 4 23 21 25 18 27
REMARK Flexibility Score: inf
ROOT
ATOM      1  C   UNL     1     -10.414  -7.025  -0.744  1.00  0.00     0.180 A 
ATOM      2  C   UNL     1     -10.989  -5.794  -1.109  1.00  0.00     0.208 A 
ATOM      3  C   UNL     1     -11.342  -5.579  -2.451  1.00  0.00     0.238 A 
ATOM      4  O   UNL     1     -11.906  -4.497  -2.761  1.00  0.00    -0.285 OA
ATOM      5  C   UNL     1     -11.102  -6.589  -3.413  1.00  0.00     0.111 A 
ATOM      6  C   UNL     1     -11.382  -6.462  -4.807  1.00  0.00     0.134 A 
ATOM      7  C   UNL     1     -11.225  -7.573  -5.647  1.00  0.00     0.093 A 
ATOM      8  C   UNL     1     -10.735  -8.785  -5.154  1.00  0.00     0.123 A 
ATOM      9  C   UNL     1     -10.401  -8.898  -3.806  1.00  0.00     0.094 A 
ATOM     10  C   UNL     1     -10.582  -7.820  -2.938  1.00  0.00     0.146 A 
ATOM     11  O   UNL     1     -10.261  -7.976  -1.659  1.00  0.00    -0.452 OA
ENDROOT
BRANCH   1  12
ATOM     12  C   UNL     1      -9.992  -7.316   0.645  1.00  0.00     0.025 A 
ATOM     13  C   UNL     1      -8.686  -7.043   1.086  1.00  0.00     0.016 A 
ATOM     14  C   UNL     1      -8.304  -7.349   2.395  1.00  0.00     0.051 A 
ATOM     15  C   UNL     1      -9.216  -7.943   3.278  1.00  0.00     0.157 A 
ATOM     16  C   UNL     1     -10.897  -7.931   1.527  1.00  0.00     0.062 A 
ATOM     17  C   UNL     1     -10.518  -8.237   2.839  1.00  0.00     0.158 A 
BRANCH  15  18
ATOM     18  O   UNL     1      -8.833  -8.245   4.583  1.00  0.00    -0.504 OA
ATOM     19  H   UNL     1      -9.342  -7.885   5.382  1.00  0.00     0.293 HD
ENDBRANCH  15  18
BRANCH  17  20
ATOM     20  O   UNL     1     -11.448  -8.834   3.690  1.00  0.00    -0.504 OA
ATOM     21  H   UNL     1     -11.264  -9.717   4.151  1.00  0.00     0.293 HD
ENDBRANCH  17  20
ENDBRANCH   1  12
BRANCH   2  22
ATOM     22  O   UNL     1     -11.238  -4.820  -0.139  1.00  0.00    -0.502 OA
ATOM     23  H   UNL     1     -12.022  -4.181  -0.199  1.00  0.00     0.293 HD
ENDBRANCH   2  22
BRANCH   6  24
ATOM     24  O   UNL     1     -11.789  -5.271  -5.417  1.00  0.00    -0.507 OA
ATOM     25  H   UNL     1     -11.622  -4.349  -5.045  1.00  0.00     0.293 HD
ENDBRANCH   6  24
BRANCH   8  26
ATOM     26  O   UNL     1     -10.566  -9.879  -5.999  1.00  0.00    -0.508 OA
ATOM     27  H   UNL     1      -9.979 -10.663  -5.739  1.00  0.00     0.293 HD
ENDBRANCH   8  26
TORSDOF 6
ENDMDL
MODEL 8
REMARK VINA RESULT:    -6.128      3.208      8.891
REMARK INTER + INTRA:          -6.939
REMARK INTER:                  -6.907
REMARK INTRA:                  -0.032
REMARK UNBOUND:                 0.444
REMARK SMILES O=c1c(O)c(-c2ccc(O)c(O)c2)oc2cc(O)cc(O)c12
REMARK SMILES IDX 5 1 3 2 2 3 1 4 22 5 20 6 19 7 17 8 16 9 15 10 14 11 6 12
REMARK SMILES IDX 7 13 8 14 9 15 13 16 11 17 10 18 12 20 4 22 21 24 18 26
REMARK H PARENT 10 19 12 21 4 23 21 25 18 27
REMARK Flexibility Score: inf
ROOT
ATOM      1  C   UNL     1     -10.751  -7.146  -2.362  1.00  0.00     0.180 A 
ATOM      2  C   UNL     1     -11.057  -5.856  -1.893  1.00  0.00     0.208 A 
ATOM      3  C   UNL     1     -10.883  -5.570  -0.529  1.00  0.00     0.238 A 
ATOM      4  O   UNL     1     -11.107  -4.398  -0.125  1.00  0.00    -0.285 OA
ATOM      5  C   UNL     1     -10.421  -6.578   0.350  1.00  0.00     0.111 A 
ATOM      6  C   UNL     1     -10.247  -6.410   1.757  1.00  0.00     0.134 A 
ATOM      7  C   UNL     1      -9.660  -7.437   2.508  1.00  0.00     0.093 A 
ATOM      8  C   UNL     1      -9.302  -8.649   1.914  1.00  0.00     0.123 A 
ATOM      9  C   UNL     1      -9.524  -8.844   0.553  1.00  0.00     0.094 A 
ATOM     10  C   UNL     1     -10.074  -7.826  -0.229  1.00  0.00     0.146 A 
ATOM     11  O   UNL     1     -10.258  -8.051  -1.525  1.00  0.00    -0.452 OA
ENDROOT
BRANCH   1  12
ATOM     12  C   UNL     1     -10.933  -7.531  -3.781  1.00  0.00     0.025 A 
ATOM     13  C   UNL     1     -11.697  -8.652  -4.143  1.00  0.00     0.016 A 
ATOM     14  C   UNL     1     -11.835  -9.010  -5.486  1.00  0.00     0.051 A 
ATOM     15  C   UNL     1     -11.200  -8.261  -6.487  1.00  0.00     0.157 A 
ATOM     16  C   UNL     1     -10.281  -6.795  -4.785  1.00  0.00     0.062 A 
ATOM     17  C   UNL     1     -10.418  -7.150  -6.132  1.00  0.00     0.158 A 
BRANCH  15  18
ATOM     18  O   UNL     1     -11.341  -8.620  -7.826  1.00  0.00    -0.504 OA
ATOM     19  H   UNL     1     -12.075  -8.229  -8.405  1.00  0.00     0.293 HD
ENDBRANCH  15  18
BRANCH  17  20
ATOM     20  O   UNL     1      -9.767  -6.387  -7.102  1.00  0.00    -0.504 OA
ATOM     21  H   UNL     1      -9.431  -6.792  -7.967  1.00  0.00     0.293 HD
ENDBRANCH  17  20
ENDBRANCH   1  12
BRANCH   2  22
ATOM     22  O   UNL     1     -11.490  -4.869  -2.781  1.00  0.00    -0.502 OA
ATOM     23  H   UNL     1     -11.799  -3.955  -2.471  1.00  0.00     0.293 HD
ENDBRANCH   2  22
BRANCH   6  24
ATOM     24  O   UNL     1     -10.655  -5.274   2.463  1.00  0.00    -0.507 OA
ATOM     25  H   UNL     1     -10.067  -4.743   3.086  1.00  0.00     0.293 HD
ENDBRANCH   6  24
BRANCH   8  26
ATOM     26  O   UNL     1      -8.735  -9.671   2.671  1.00  0.00    -0.508 OA
ATOM     27  H   UNL     1      -7.935  -9.505   3.271  1.00  0.00     0.293 HD
ENDBRANCH   8  26
TORSDOF 6
ENDMDL
MODEL 9
REMARK VINA RESULT:    -5.955      1.990      3.712
REMARK INTER + INTRA:          -6.730
REMARK INTER:                  -7.128
REMARK INTRA:                   0.398
REMARK UNBOUND:                 0.444
REMARK SMILES O=c1c(O)c(-c2ccc(O)c(O)c2)oc2cc(O)cc(O)c12
REMARK SMILES IDX 5 1 3 2 2 3 1 4 22 5 20 6 19 7 17 8 16 9 15 10 14 11 6 12
REMARK SMILES IDX 7 13 8 14 9 15 13 16 11 17 10 18 12 20 4 22 21 24 18 26
REMARK H PARENT 10 19 12 21 4 23 21 25 18 27
REMARK Flexibility Score: inf
ROOT
ATOM      1  C   UNL     1     -10.086  -6.895   0.646  1.00  0.00     0.180 A 
ATOM      2  C   UNL     1     -10.116  -8.150   0.010  1.00  0.00     0.208 A 
ATOM      3  C   UNL     1     -10.564  -8.228  -1.318  1.00  0.00     0.238 A 
ATOM      4  O   UNL     1     -10.537  -9.345  -1.900  1.00  0.00    -0.285 OA
ATOM      5  C   UNL     1     -10.990  -7.057  -1.989  1.00  0.00     0.111 A 
ATOM      6  C   UNL     1     -11.500  -7.027  -3.322  1.00  0.00     0.134 A 
ATOM      7  C   UNL     1     -11.770  -5.794  -3.931  1.00  0.00     0.093 A 
ATOM      8  C   UNL     1     -11.609  -4.595  -3.232  1.00  0.00     0.123 A 
ATOM      9  C   UNL     1     -11.169  -4.619  -1.911  1.00  0.00     0.094 A 
ATOM     10  C   UNL     1     -10.857  -5.830  -1.289  1.00  0.00     0.146 A 
ATOM     11  O   UNL     1     -10.431  -5.806  -0.032  1.00  0.00    -0.452 OA
ENDROOT
BRANCH   1  12
ATOM     12  C   UNL     1      -9.651  -6.736   2.052  1.00  0.00     0.025 A 
ATOM     13  C   UNL     1     -10.061  -5.636   2.825  1.00  0.00     0.016 A 
ATOM     14  C   UNL     1      -9.618  -5.494   4.142  1.00  0.00     0.051 A 
ATOM     15  C   UNL     1      -8.750  -6.441   4.703  1.00  0.00     0.157 A 
ATOM     16  C   UNL     1      -8.764  -7.672   2.611  1.00  0.00     0.062 A 
ATOM     17  C   UNL     1      -8.320  -7.533   3.931  1.00  0.00     0.158 A 
BRANCH  15  18
ATOM     18  O   UNL     1      -8.312  -6.298   6.018  1.00  0.00    -0.504 OA
ATOM     19  H   UNL     1      -8.933  -6.453   6.804  1.00  0.00     0.293 HD
ENDBRANCH  15  18
BRANCH  17  20
ATOM     20  O   UNL     1      -7.451  -8.490   4.457  1.00  0.00    -0.504 OA
ATOM     21  H   UNL     1      -6.720  -8.915   3.900  1.00  0.00     0.293 HD
ENDBRANCH  17  20
ENDBRANCH   1  12
BRANCH   2  22
ATOM     22  O   UNL     1      -9.670  -9.289   0.683  1.00  0.00    -0.502 OA
ATOM     23  H   UNL     1      -9.355  -9.264   1.646  1.00  0.00     0.293 HD
ENDBRANCH   2  22
BRANCH   6  24
ATOM     24  O   UNL     1     -11.784  -8.170  -4.075  1.00  0.00    -0.507 OA
ATOM     25  H   UNL     1     -11.100  -8.852  -4.365  1.00  0.00     0.293 HD
ENDBRANCH   6  24
BRANCH   8  26
ATOM     26  O   UNL     1     -11.895  -3.375  -3.839  1.00  0.00    -0.508 OA
ATOM     27  H   UNL     1     -12.082  -3.308  -4.833  1.00  0.00     0.293 HD
ENDBRANCH   8  26
TORSDOF 6
ENDMDL
