MODEL 1
REMARK VINA RESULT:    -6.454      0.000      0.000
REMARK INTER + INTRA:          -8.044
REMARK INTER:                  -7.586
REMARK INTRA:                  -0.458
REMARK UNBOUND:                -0.458
REMARK SMILES C=CC(C)=CCC=C(C)C
REMARK SMILES IDX 5 1 3 2 4 3 6 4 7 5 9 6 8 7 10 8 2 9 1 10
REMARK H PARENT
REMARK Flexibility Score: inf
ROOT
ATOM      1  C   UNL     1       1.471 -18.320  16.272  1.00  0.00    -0.020 C 
ATOM      2  C   UNL     1       0.995 -18.300  15.010  1.00  0.00    -0.055 C 
ATOM      3  C   UNL     1       1.828 -18.763  13.835  1.00  0.00     0.044 C 
ENDROOT
BRANCH   1   4
ATOM      4  C   UNL     1       2.843 -18.805  16.662  1.00  0.00     0.055 C 
BRANCH   4   5
ATOM      5  C   UNL     1       3.683 -17.679  17.213  1.00  0.00    -0.024 C 
ATOM      6  C   UNL     1       5.471 -15.991  17.169  1.00  0.00     0.039 C 
ATOM      7  C   UNL     1       4.693 -17.108  16.522  1.00  0.00    -0.080 C 
ATOM      8  C   UNL     1       5.055 -17.563  15.130  1.00  0.00     0.039 C 
ENDBRANCH   4   5
ENDBRANCH   1   4
BRANCH   2   9
ATOM      9  C   UNL     1      -0.362 -17.736  14.790  1.00  0.00    -0.005 C 
ATOM     10  C   UNL     1      -1.153 -18.089  13.777  1.00  0.00     0.009 C 
ENDBRANCH   2   9
TORSDOF 3
ENDMDL
MODEL 2
REMARK VINA RESULT:    -6.192      1.029      5.004
REMARK INTER + INTRA:          -7.736
REMARK INTER:                  -7.612
REMARK INTRA:                  -0.124
REMARK UNBOUND:                -0.458
REMARK SMILES C=CC(C)=CCC=C(C)C
REMARK SMILES IDX 5 1 3 2 4 3 6 4 7 5 9 6 8 7 10 8 2 9 1 10
REMARK H PARENT
REMARK Flexibility Score: inf
ROOT
ATOM      1  C   UNL     1       3.455 -18.006  15.008  1.00  0.00    -0.020 C 
ATOM      2  C   UNL     1       4.225 -18.020  16.116  1.00  0.00    -0.055 C 
ATOM      3  C   UNL     1       3.851 -18.828  17.338  1.00  0.00     0.044 C 
ENDROOT
BRANCH   1   4
ATOM      4  C   UNL     1       2.175 -18.783  14.847  1.00  0.00     0.055 C 
BRANCH   4   5
ATOM      5  C   UNL     1       1.046 -18.139  15.616  1.00  0.00    -0.024 C 
ATOM      6  C   UNL     1      -1.228 -17.260  15.939  1.00  0.00     0.039 C 
ATOM      7  C   UNL     1      -0.173 -17.912  15.082  1.00  0.00    -0.080 C 
ATOM      8  C   UNL     1      -0.495 -18.292  13.657  1.00  0.00     0.039 C 
ENDBRANCH   4   5
ENDBRANCH   1   4
BRANCH   2   9
ATOM      9  C   UNL     1       5.430 -17.149  16.133  1.00  0.00    -0.005 C 
ATOM     10  C   UNL     1       5.597 -16.138  16.984  1.00  0.00     0.009 C 
ENDBRANCH   2   9
TORSDOF 3
ENDMDL
MODEL 3
REMARK VINA RESULT:    -5.875      1.047      1.797
REMARK INTER + INTRA:          -7.363
REMARK INTER:                  -6.976
REMARK INTRA:                  -0.386
REMARK UNBOUND:                -0.458
REMARK SMILES C=CC(C)=CCC=C(C)C
REMARK SMILES IDX 5 1 3 2 4 3 6 4 7 5 9 6 8 7 10 8 2 9 1 10
REMARK H PARENT
REMARK Flexibility Score: inf
ROOT
ATOM      1  C   UNL     1       1.546 -18.785  14.504  1.00  0.00    -0.020 C 
ATOM      2  C   UNL     1       0.354 -18.170  14.654  1.00  0.00    -0.055 C 
ATOM      3  C   UNL     1      -0.124 -17.674  16.000  1.00  0.00     0.044 C 
ENDROOT
BRANCH   1   4
ATOM      4  C   UNL     1       2.528 -19.031  15.619  1.00  0.00     0.055 C 
BRANCH   4   5
ATOM      5  C   UNL     1       3.869 -18.412  15.311  1.00  0.00    -0.024 C 
ATOM      6  C   UNL     1       5.774 -16.899  15.675  1.00  0.00     0.039 C 
ATOM      7  C   UNL     1       4.430 -17.452  16.076  1.00  0.00    -0.080 C 
ATOM      8  C   UNL     1       3.743 -16.925  17.312  1.00  0.00     0.039 C 
ENDBRANCH   4   5
ENDBRANCH   1   4
BRANCH   2   9
ATOM      9  C   UNL     1      -0.522 -18.057  13.459  1.00  0.00    -0.005 C 
ATOM     10  C   UNL     1      -1.627 -17.312  13.422  1.00  0.00     0.009 C 
ENDBRANCH   2   9
TORSDOF 3
ENDMDL
MODEL 4
REMARK VINA RESULT:    -5.688      6.907     10.515
REMARK INTER + INTRA:          -7.144
REMARK INTER:                  -6.816
REMARK INTRA:                  -0.327
REMARK UNBOUND:                -0.458
REMARK SMILES C=CC(C)=CCC=C(C)C
REMARK SMILES IDX 5 1 3 2 4 3 6 4 7 5 9 6 8 7 10 8 2 9 1 10
REMARK H PARENT
REMARK Flexibility Score: inf
ROOT
ATOM      1  C   UNL     1      -2.666 -15.488   9.306  1.00  0.00    -0.020 C 
ATOM      2  C   UNL     1      -2.452 -14.894  10.498  1.00  0.00    -0.055 C 
ATOM      3  C   UNL     1      -1.946 -13.472  10.602  1.00  0.00     0.044 C 
ENDROOT
BRANCH   1   4
ATOM      4  C   UNL     1      -2.453 -14.827   7.970  1.00  0.00     0.055 C 
BRANCH   4   5
ATOM      5  C   UNL     1      -3.394 -15.383   6.930  1.00  0.00    -0.024 C 
ATOM      6  C   UNL     1      -5.406 -15.409   5.515  1.00  0.00     0.039 C 
ATOM      7  C   UNL     1      -4.536 -14.763   6.563  1.00  0.00    -0.080 C 
ATOM      8  C   UNL     1      -4.953 -13.449   7.177  1.00  0.00     0.039 C 
ENDBRANCH   4   5
ENDBRANCH   1   4
BRANCH   2   9
ATOM      9  C   UNL     1      -2.657 -15.707  11.725  1.00  0.00    -0.005 C 
ATOM     10  C   UNL     1      -2.712 -15.190  12.953  1.00  0.00     0.009 C 
ENDBRANCH   2   9
TORSDOF 3
ENDMDL
MODEL 5
REMARK VINA RESULT:    -5.604      3.460      6.757
REMARK INTER + INTRA:          -7.045
REMARK INTER:                  -6.739
REMARK INTRA:                  -0.306
REMARK UNBOUND:                -0.458
REMARK SMILES C=CC(C)=CCC=C(C)C
REMARK SMILES IDX 5 1 3 2 4 3 6 4 7 5 9 6 8 7 10 8 2 9 1 10
REMARK H PARENT
REMARK Flexibility Score: inf
ROOT
ATOM      1  C   UNL     1      -2.134 -16.049  14.047  1.00  0.00    -0.020 C 
ATOM      2  C   UNL     1      -1.405 -17.135  14.379  1.00  0.00    -0.055 C 
ATOM      3  C   UNL     1      -1.225 -18.296  13.427  1.00  0.00     0.044 C 
ENDROOT
BRANCH   1   4
ATOM      4  C   UNL     1      -2.825 -15.854  12.724  1.00  0.00     0.055 C 
BRANCH   4   5
ATOM      5  C   UNL     1      -2.437 -14.537  12.095  1.00  0.00    -0.024 C 
ATOM      6  C   UNL     1      -1.736 -13.049  10.267  1.00  0.00     0.039 C 
ATOM      7  C   UNL     1      -2.111 -14.411  10.791  1.00  0.00    -0.080 C 
ATOM      8  C   UNL     1      -2.114 -15.598   9.858  1.00  0.00     0.039 C 
ENDBRANCH   4   5
ENDBRANCH   1   4
BRANCH   2   9
ATOM      9  C   UNL     1      -0.836 -17.195  15.751  1.00  0.00    -0.005 C 
ATOM     10  C   UNL     1       0.262 -17.883  16.064  1.00  0.00     0.009 C 
ENDBRANCH   2   9
TORSDOF 3
ENDMDL
MODEL 6
REMARK VINA RESULT:    -5.578      7.150      9.276
REMARK INTER + INTRA:          -7.014
REMARK INTER:                  -6.527
REMARK INTRA:                  -0.488
REMARK UNBOUND:                -0.458
REMARK SMILES C=CC(C)=CCC=C(C)C
REMARK SMILES IDX 5 1 3 2 4 3 6 4 7 5 9 6 8 7 10 8 2 9 1 10
REMARK H PARENT
REMARK Flexibility Score: inf
ROOT
ATOM      1  C   UNL     1      -2.706 -15.398   7.698  1.00  0.00    -0.020 C 
ATOM      2  C   UNL     1      -3.684 -16.261   7.356  1.00  0.00    -0.055 C 
ATOM      3  C   UNL     1      -3.784 -17.639   7.972  1.00  0.00     0.044 C 
ENDROOT
BRANCH   1   4
ATOM      4  C   UNL     1      -1.634 -15.680   8.718  1.00  0.00     0.055 C 
BRANCH   4   5
ATOM      5  C   UNL     1      -1.775 -14.779   9.921  1.00  0.00    -0.024 C 
ATOM      6  C   UNL     1      -2.355 -14.222  12.245  1.00  0.00     0.039 C 
ATOM      7  C   UNL     1      -2.253 -15.207  11.109  1.00  0.00    -0.080 C 
ATOM      8  C   UNL     1      -2.686 -16.638  11.317  1.00  0.00     0.039 C 
ENDBRANCH   4   5
ENDBRANCH   1   4
BRANCH   2   9
ATOM      9  C   UNL     1      -4.632 -15.847   6.288  1.00  0.00    -0.005 C 
ATOM     10  C   UNL     1      -5.099 -14.606   6.158  1.00  0.00     0.009 C 
ENDBRANCH   2   9
TORSDOF 3
ENDMDL
MODEL 7
REMARK VINA RESULT:    -5.436      1.930      5.959
REMARK INTER + INTRA:          -6.847
REMARK INTER:                  -6.585
REMARK INTRA:                  -0.262
REMARK UNBOUND:                -0.458
REMARK SMILES C=CC(C)=CCC=C(C)C
REMARK SMILES IDX 5 1 3 2 4 3 6 4 7 5 9 6 8 7 10 8 2 9 1 10
REMARK H PARENT
REMARK Flexibility Score: inf
ROOT
ATOM      1  C   UNL     1       0.396 -18.386  13.743  1.00  0.00    -0.020 C 
ATOM      2  C   UNL     1       1.330 -18.352  14.716  1.00  0.00    -0.055 C 
ATOM      3  C   UNL     1       1.008 -17.873  16.115  1.00  0.00     0.044 C 
ENDROOT
BRANCH   1   4
ATOM      4  C   UNL     1      -1.043 -17.981  13.924  1.00  0.00     0.055 C 
BRANCH   4   5
ATOM      5  C   UNL     1      -1.645 -17.511  12.621  1.00  0.00    -0.024 C 
ATOM      6  C   UNL     1      -2.793 -15.931  11.126  1.00  0.00     0.039 C 
ATOM      7  C   UNL     1      -2.220 -16.298  12.471  1.00  0.00    -0.080 C 
ATOM      8  C   UNL     1      -2.300 -15.315  13.613  1.00  0.00     0.039 C 
ENDBRANCH   4   5
ENDBRANCH   1   4
BRANCH   2   9
ATOM      9  C   UNL     1       2.720 -18.732  14.355  1.00  0.00    -0.005 C 
ATOM     10  C   UNL     1       3.795 -18.323  15.029  1.00  0.00     0.009 C 
ENDBRANCH   2   9
TORSDOF 3
ENDMDL
MODEL 8
REMARK VINA RESULT:    -5.422      1.487      2.775
REMARK INTER + INTRA:          -6.830
REMARK INTER:                  -6.405
REMARK INTRA:                  -0.426
REMARK UNBOUND:                -0.458
REMARK SMILES C=CC(C)=CCC=C(C)C
REMARK SMILES IDX 5 1 3 2 4 3 6 4 7 5 9 6 8 7 10 8 2 9 1 10
REMARK H PARENT
REMARK Flexibility Score: inf
ROOT
ATOM      1  C   UNL     1      -0.539 -17.144  15.646  1.00  0.00    -0.020 C 
ATOM      2  C   UNL     1      -1.265 -17.139  14.509  1.00  0.00    -0.055 C 
ATOM      3  C   UNL     1      -1.280 -18.322  13.567  1.00  0.00     0.044 C 
ENDROOT
BRANCH   1   4
ATOM      4  C   UNL     1       0.307 -18.297  16.116  1.00  0.00     0.055 C 
BRANCH   4   5
ATOM      5  C   UNL     1       1.769 -17.923  16.152  1.00  0.00    -0.024 C 
ATOM      6  C   UNL     1       4.076 -17.820  15.305  1.00  0.00     0.039 C 
ATOM      7  C   UNL     1       2.635 -18.241  15.167  1.00  0.00    -0.080 C 
ATOM      8  C   UNL     1       2.193 -19.006  13.943  1.00  0.00     0.039 C 
ENDBRANCH   4   5
ENDBRANCH   1   4
BRANCH   2   9
ATOM      9  C   UNL     1      -2.001 -15.895  14.162  1.00  0.00    -0.005 C 
ATOM     10  C   UNL     1      -2.496 -15.645  12.950  1.00  0.00     0.009 C 
ENDBRANCH   2   9
TORSDOF 3
ENDMDL
MODEL 9
REMARK VINA RESULT:    -5.369      4.687      6.893
REMARK INTER + INTRA:          -6.768
REMARK INTER:                  -6.408
REMARK INTRA:                  -0.360
REMARK UNBOUND:                -0.458
REMARK SMILES C=CC(C)=CCC=C(C)C
REMARK SMILES IDX 5 1 3 2 4 3 6 4 7 5 9 6 8 7 10 8 2 9 1 10
REMARK H PARENT
REMARK Flexibility Score: inf
ROOT
ATOM      1  C   UNL     1      -3.511 -16.006  11.663  1.00  0.00    -0.020 C 
ATOM      2  C   UNL     1      -3.658 -16.531  10.429  1.00  0.00    -0.055 C 
ATOM      3  C   UNL     1      -2.477 -16.760   9.513  1.00  0.00     0.044 C 
ENDROOT
BRANCH   1   4
ATOM      4  C   UNL     1      -2.191 -15.612  12.273  1.00  0.00     0.055 C 
BRANCH   4   5
ATOM      5  C   UNL     1      -2.155 -15.933  13.748  1.00  0.00    -0.024 C 
ATOM      6  C   UNL     1      -1.650 -17.298  15.730  1.00  0.00     0.039 C 
ATOM      7  C   UNL     1      -1.633 -17.077  14.240  1.00  0.00    -0.080 C 
ATOM      8  C   UNL     1      -1.040 -18.128  13.334  1.00  0.00     0.039 C 
ENDBRANCH   4   5
ENDBRANCH   1   4
BRANCH   2   9
ATOM      9  C   UNL     1      -5.039 -16.812   9.956  1.00  0.00    -0.005 C 
ATOM     10  C   UNL     1      -5.442 -16.621   8.700  1.00  0.00     0.009 C 
ENDBRANCH   2   9
TORSDOF 3
ENDMDL
