MODEL 1
REMARK VINA RESULT:    -3.396      0.000      0.000
REMARK INTER + INTRA:          -6.868
REMARK INTER:                  -5.381
REMARK INTRA:                  -1.486
REMARK UNBOUND:                -1.486
REMARK SMILES CCCCCCCCCCCC(=O)[O-]
REMARK SMILES IDX 7 1 8 2 9 3 10 4 11 5 12 6 13 7 14 8 6 9 5 10 4 11 3 12 2 13
REMARK SMILES IDX 1 14
REMARK H PARENT
REMARK Flexibility Score: inf
ROOT
ATOM      1  C   UNL     1      17.386  13.178  31.820  1.00  0.00     0.000 C 
ENDROOT
BRANCH   1   2
ATOM      2  C   UNL     1      16.408  14.009  30.974  1.00  0.00     0.000 C 
BRANCH   2   3
ATOM      3  C   UNL     1      16.921  15.432  30.705  1.00  0.00     0.000 C 
BRANCH   3   4
ATOM      4  C   UNL     1      16.237  16.037  29.473  1.00  0.00     0.006 C 
BRANCH   4   5
ATOM      5  C   UNL     1      15.398  14.988  28.738  1.00  0.00     0.053 C 
BRANCH   5   6
ATOM      6  C   UNL     1      15.712  14.996  27.275  1.00  0.00     0.041 C 
ATOM      7  O   UNL     1      15.774  13.913  26.635  1.00  0.00    -0.550 OA
ATOM      8  O   UNL     1      15.986  16.195  26.630  1.00  0.00    -0.550 OA
ENDBRANCH   5   6
ENDBRANCH   4   5
ENDBRANCH   3   4
ENDBRANCH   2   3
ENDBRANCH   1   2
BRANCH   1   9
ATOM      9  C   UNL     1      18.532  14.021  32.400  1.00  0.00     0.000 C 
BRANCH   9  10
ATOM     10  C   UNL     1      19.894  13.492  31.927  1.00  0.00    -0.000 C 
BRANCH  10  11
ATOM     11  C   UNL     1      20.391  14.181  30.643  1.00  0.00    -0.000 C 
BRANCH  11  12
ATOM     12  C   UNL     1      20.373  13.298  29.379  1.00  0.00    -0.000 C 
BRANCH  12  13
ATOM     13  C   UNL     1      19.151  13.494  28.466  1.00  0.00    -0.003 C 
ATOM     14  C   UNL     1      19.285  14.705  27.544  1.00  0.00     0.004 C 
ENDBRANCH  12  13
ENDBRANCH  11  12
ENDBRANCH  10  11
ENDBRANCH   9  10
ENDBRANCH   1   9
TORSDOF 10
ENDMDL
MODEL 2
REMARK VINA RESULT:    -3.323      3.190      4.142
REMARK INTER + INTRA:          -6.752
REMARK INTER:                  -5.240
REMARK INTRA:                  -1.512
REMARK UNBOUND:                -1.486
REMARK SMILES CCCCCCCCCCCC(=O)[O-]
REMARK SMILES IDX 7 1 8 2 9 3 10 4 11 5 12 6 13 7 14 8 6 9 5 10 4 11 3 12 2 13
REMARK SMILES IDX 1 14
REMARK H PARENT
REMARK Flexibility Score: inf
ROOT
ATOM      1  C   UNL     1      16.654  12.184  30.609  1.00  0.00     0.000 C 
ENDROOT
BRANCH   1   2
ATOM      2  C   UNL     1      15.389  12.544  31.406  1.00  0.00     0.000 C 
BRANCH   2   3
ATOM      3  C   UNL     1      14.134  12.611  30.523  1.00  0.00     0.000 C 
BRANCH   3   4
ATOM      4  C   UNL     1      13.226  13.771  30.950  1.00  0.00     0.006 C 
BRANCH   4   5
ATOM      5  C   UNL     1      12.582  14.442  29.734  1.00  0.00     0.053 C 
BRANCH   5   6
ATOM      6  C   UNL     1      11.187  14.880  30.053  1.00  0.00     0.041 C 
ATOM      7  O   UNL     1      10.354  15.064  29.127  1.00  0.00    -0.550 OA
ATOM      8  O   UNL     1      10.821  15.132  31.369  1.00  0.00    -0.550 OA
ENDBRANCH   5   6
ENDBRANCH   4   5
ENDBRANCH   3   4
ENDBRANCH   2   3
ENDBRANCH   1   2
BRANCH   1   9
ATOM      9  C   UNL     1      17.806  13.171  30.847  1.00  0.00     0.000 C 
BRANCH   9  10
ATOM     10  C   UNL     1      17.275  14.519  31.359  1.00  0.00    -0.000 C 
BRANCH  10  11
ATOM     11  C   UNL     1      17.296  15.619  30.282  1.00  0.00    -0.000 C 
BRANCH  11  12
ATOM     12  C   UNL     1      15.962  15.831  29.539  1.00  0.00    -0.000 C 
BRANCH  12  13
ATOM     13  C   UNL     1      16.028  15.634  28.015  1.00  0.00    -0.003 C 
ATOM     14  C   UNL     1      15.714  14.202  27.586  1.00  0.00     0.004 C 
ENDBRANCH  12  13
ENDBRANCH  11  12
ENDBRANCH  10  11
ENDBRANCH   9  10
ENDBRANCH   1   9
TORSDOF 10
ENDMDL
MODEL 3
REMARK VINA RESULT:    -3.313      1.205      1.880
REMARK INTER + INTRA:          -6.736
REMARK INTER:                  -5.532
REMARK INTRA:                  -1.204
REMARK UNBOUND:                -1.486
REMARK SMILES CCCCCCCCCCCC(=O)[O-]
REMARK SMILES IDX 7 1 8 2 9 3 10 4 11 5 12 6 13 7 14 8 6 9 5 10 4 11 3 12 2 13
REMARK SMILES IDX 1 14
REMARK H PARENT
REMARK Flexibility Score: inf
ROOT
ATOM      1  C   UNL     1      16.391  13.907  31.082  1.00  0.00     0.000 C 
ENDROOT
BRANCH   1   2
ATOM      2  C   UNL     1      16.906  15.310  30.719  1.00  0.00     0.000 C 
BRANCH   2   3
ATOM      3  C   UNL     1      16.215  15.890  29.475  1.00  0.00     0.000 C 
BRANCH   3   4
ATOM      4  C   UNL     1      16.415  14.974  28.262  1.00  0.00     0.006 C 
BRANCH   4   5
ATOM      5  C   UNL     1      15.798  15.588  27.002  1.00  0.00     0.053 C 
BRANCH   5   6
ATOM      6  C   UNL     1      16.857  15.867  25.982  1.00  0.00     0.041 C 
ATOM      7  O   UNL     1      16.542  16.322  24.850  1.00  0.00    -0.550 OA
ATOM      8  O   UNL     1      18.186  15.579  26.262  1.00  0.00    -0.550 OA
ENDBRANCH   5   6
ENDBRANCH   4   5
ENDBRANCH   3   4
ENDBRANCH   2   3
ENDBRANCH   1   2
BRANCH   1   9
ATOM      9  C   UNL     1      17.360  13.139  31.993  1.00  0.00     0.000 C 
BRANCH   9  10
ATOM     10  C   UNL     1      18.560  14.016  32.380  1.00  0.00    -0.000 C 
BRANCH  10  11
ATOM     11  C   UNL     1      19.902  13.451  31.879  1.00  0.00    -0.000 C 
BRANCH  11  12
ATOM     12  C   UNL     1      20.533  14.218  30.699  1.00  0.00    -0.000 C 
BRANCH  12  13
ATOM     13  C   UNL     1      19.873  13.966  29.332  1.00  0.00    -0.003 C 
ATOM     14  C   UNL     1      19.631  12.483  29.054  1.00  0.00     0.004 C 
ENDBRANCH  12  13
ENDBRANCH  11  12
ENDBRANCH  10  11
ENDBRANCH   9  10
ENDBRANCH   1   9
TORSDOF 10
ENDMDL
MODEL 4
REMARK VINA RESULT:    -3.239      3.755      5.149
REMARK INTER + INTRA:          -6.620
REMARK INTER:                  -5.380
REMARK INTRA:                  -1.240
REMARK UNBOUND:                -1.486
REMARK SMILES CCCCCCCCCCCC(=O)[O-]
REMARK SMILES IDX 7 1 8 2 9 3 10 4 11 5 12 6 13 7 14 8 6 9 5 10 4 11 3 12 2 13
REMARK SMILES IDX 1 14
REMARK H PARENT
REMARK Flexibility Score: inf
ROOT
ATOM      1  C   UNL     1      15.245  14.226  27.934  1.00  0.00     0.000 C 
ENDROOT
BRANCH   1   2
ATOM      2  C   UNL     1      13.748  14.185  28.284  1.00  0.00     0.000 C 
BRANCH   2   3
ATOM      3  C   UNL     1      13.436  13.209  29.428  1.00  0.00     0.000 C 
BRANCH   3   4
ATOM      4  C   UNL     1      13.035  13.966  30.700  1.00  0.00     0.006 C 
BRANCH   4   5
ATOM      5  C   UNL     1      11.729  14.737  30.493  1.00  0.00     0.053 C 
BRANCH   5   6
ATOM      6  C   UNL     1      10.794  14.503  31.638  1.00  0.00     0.041 C 
ATOM      7  O   UNL     1       9.549  14.579  31.465  1.00  0.00    -0.550 OA
ATOM      8  O   UNL     1      11.298  14.249  32.907  1.00  0.00    -0.550 OA
ENDBRANCH   5   6
ENDBRANCH   4   5
ENDBRANCH   3   4
ENDBRANCH   2   3
ENDBRANCH   1   2
BRANCH   1   9
ATOM      9  C   UNL     1      15.886  15.588  28.239  1.00  0.00     0.000 C 
BRANCH   9  10
ATOM     10  C   UNL     1      16.061  15.785  29.753  1.00  0.00    -0.000 C 
BRANCH  10  11
ATOM     11  C   UNL     1      17.516  15.592  30.218  1.00  0.00    -0.000 C 
BRANCH  11  12
ATOM     12  C   UNL     1      17.709  14.564  31.351  1.00  0.00    -0.000 C 
BRANCH  12  13
ATOM     13  C   UNL     1      16.556  13.560  31.521  1.00  0.00    -0.003 C 
ATOM     14  C   UNL     1      16.828  12.220  30.839  1.00  0.00     0.004 C 
ENDBRANCH  12  13
ENDBRANCH  11  12
ENDBRANCH  10  11
ENDBRANCH   9  10
ENDBRANCH   1   9
TORSDOF 10
ENDMDL
MODEL 5
REMARK VINA RESULT:    -3.230      1.718      3.077
REMARK INTER + INTRA:          -6.605
REMARK INTER:                  -5.592
REMARK INTRA:                  -1.013
REMARK UNBOUND:                -1.486
REMARK SMILES CCCCCCCCCCCC(=O)[O-]
REMARK SMILES IDX 7 1 8 2 9 3 10 4 11 5 12 6 13 7 14 8 6 9 5 10 4 11 3 12 2 13
REMARK SMILES IDX 1 14
REMARK H PARENT
REMARK Flexibility Score: inf
ROOT
ATOM      1  C   UNL     1      16.067  15.721  29.240  1.00  0.00     0.000 C 
ENDROOT
BRANCH   1   2
ATOM      2  C   UNL     1      16.161  14.384  28.485  1.00  0.00     0.000 C 
BRANCH   2   3
ATOM      3  C   UNL     1      15.926  14.540  26.976  1.00  0.00     0.000 C 
BRANCH   3   4
ATOM      4  C   UNL     1      16.071  16.005  26.547  1.00  0.00     0.006 C 
BRANCH   4   5
ATOM      5  C   UNL     1      16.750  16.113  25.179  1.00  0.00     0.053 C 
BRANCH   5   6
ATOM      6  C   UNL     1      18.087  15.441  25.202  1.00  0.00     0.041 C 
ATOM      7  O   UNL     1      18.313  14.454  24.453  1.00  0.00    -0.550 OA
ATOM      8  O   UNL     1      19.067  15.874  26.087  1.00  0.00    -0.550 OA
ENDBRANCH   5   6
ENDBRANCH   4   5
ENDBRANCH   3   4
ENDBRANCH   2   3
ENDBRANCH   1   2
BRANCH   1   9
ATOM      9  C   UNL     1      16.971  15.766  30.481  1.00  0.00     0.000 C 
BRANCH   9  10
ATOM     10  C   UNL     1      16.961  14.416  31.214  1.00  0.00    -0.000 C 
BRANCH  10  11
ATOM     11  C   UNL     1      18.235  14.175  32.044  1.00  0.00    -0.000 C 
BRANCH  11  12
ATOM     12  C   UNL     1      19.292  13.275  31.373  1.00  0.00    -0.000 C 
BRANCH  12  13
ATOM     13  C   UNL     1      20.315  14.016  30.496  1.00  0.00    -0.003 C 
ATOM     14  C   UNL     1      19.944  14.011  29.014  1.00  0.00     0.004 C 
ENDBRANCH  12  13
ENDBRANCH  11  12
ENDBRANCH  10  11
ENDBRANCH   9  10
ENDBRANCH   1   9
TORSDOF 10
ENDMDL
MODEL 6
REMARK VINA RESULT:    -3.219      3.354      5.618
REMARK INTER + INTRA:          -6.588
REMARK INTER:                  -5.736
REMARK INTRA:                  -0.851
REMARK UNBOUND:                -1.486
REMARK SMILES CCCCCCCCCCCC(=O)[O-]
REMARK SMILES IDX 7 1 8 2 9 3 10 4 11 5 12 6 13 7 14 8 6 9 5 10 4 11 3 12 2 13
REMARK SMILES IDX 1 14
REMARK H PARENT
REMARK Flexibility Score: inf
ROOT
ATOM      1  C   UNL     1      15.882  15.625  27.894  1.00  0.00     0.000 C 
ENDROOT
BRANCH   1   2
ATOM      2  C   UNL     1      15.644  15.397  29.396  1.00  0.00     0.000 C 
BRANCH   2   3
ATOM      3  C   UNL     1      16.908  15.632  30.236  1.00  0.00     0.000 C 
BRANCH   3   4
ATOM      4  C   UNL     1      17.111  14.498  31.248  1.00  0.00     0.006 C 
BRANCH   4   5
ATOM      5  C   UNL     1      18.440  13.776  31.006  1.00  0.00     0.053 C 
BRANCH   5   6
ATOM      6  C   UNL     1      19.257  13.747  32.260  1.00  0.00     0.041 C 
ATOM      7  O   UNL     1      18.738  13.374  33.345  1.00  0.00    -0.550 OA
ATOM      8  O   UNL     1      20.577  14.178  32.240  1.00  0.00    -0.550 OA
ENDBRANCH   5   6
ENDBRANCH   4   5
ENDBRANCH   3   4
ENDBRANCH   2   3
ENDBRANCH   1   2
BRANCH   1   9
ATOM      9  C   UNL     1      17.270  15.154  27.436  1.00  0.00     0.000 C 
BRANCH   9  10
ATOM     10  C   UNL     1      17.537  15.570  25.981  1.00  0.00    -0.000 C 
BRANCH  10  11
ATOM     11  C   UNL     1      16.419  16.449  25.394  1.00  0.00    -0.000 C 
BRANCH  11  12
ATOM     12  C   UNL     1      15.712  15.866  24.154  1.00  0.00    -0.000 C 
BRANCH  12  13
ATOM     13  C   UNL     1      15.586  14.333  24.139  1.00  0.00    -0.003 C 
ATOM     14  C   UNL     1      14.350  13.831  24.884  1.00  0.00     0.004 C 
ENDBRANCH  12  13
ENDBRANCH  11  12
ENDBRANCH  10  11
ENDBRANCH   9  10
ENDBRANCH   1   9
TORSDOF 10
ENDMDL
MODEL 7
REMARK VINA RESULT:    -3.197      2.111      4.712
REMARK INTER + INTRA:          -6.552
REMARK INTER:                  -5.700
REMARK INTRA:                  -0.852
REMARK UNBOUND:                -1.486
REMARK SMILES CCCCCCCCCCCC(=O)[O-]
REMARK SMILES IDX 7 1 8 2 9 3 10 4 11 5 12 6 13 7 14 8 6 9 5 10 4 11 3 12 2 13
REMARK SMILES IDX 1 14
REMARK H PARENT
REMARK Flexibility Score: inf
ROOT
ATOM      1  C   UNL     1      17.226  15.171  27.237  1.00  0.00     0.000 C 
ENDROOT
BRANCH   1   2
ATOM      2  C   UNL     1      17.506  15.763  25.846  1.00  0.00     0.000 C 
BRANCH   2   3
ATOM      3  C   UNL     1      16.233  16.266  25.150  1.00  0.00     0.000 C 
BRANCH   3   4
ATOM      4  C   UNL     1      15.918  15.423  23.909  1.00  0.00     0.006 C 
BRANCH   4   5
ATOM      5  C   UNL     1      14.724  14.498  24.160  1.00  0.00     0.053 C 
BRANCH   5   6
ATOM      6  C   UNL     1      15.175  13.220  24.795  1.00  0.00     0.041 C 
ATOM      7  O   UNL     1      14.662  12.835  25.879  1.00  0.00    -0.550 OA
ATOM      8  O   UNL     1      16.198  12.479  24.216  1.00  0.00    -0.550 OA
ENDBRANCH   5   6
ENDBRANCH   4   5
ENDBRANCH   3   4
ENDBRANCH   2   3
ENDBRANCH   1   2
BRANCH   1   9
ATOM      9  C   UNL     1      15.893  15.653  27.828  1.00  0.00     0.000 C 
BRANCH   9  10
ATOM     10  C   UNL     1      15.948  15.669  29.363  1.00  0.00    -0.000 C 
BRANCH  10  11
ATOM     11  C   UNL     1      15.470  14.349  29.994  1.00  0.00    -0.000 C 
BRANCH  11  12
ATOM     12  C   UNL     1      16.385  13.785  31.100  1.00  0.00    -0.000 C 
BRANCH  12  13
ATOM     13  C   UNL     1      17.648  14.615  31.384  1.00  0.00    -0.003 C 
ATOM     14  C   UNL     1      18.578  13.953  32.400  1.00  0.00     0.004 C 
ENDBRANCH  12  13
ENDBRANCH  11  12
ENDBRANCH  10  11
ENDBRANCH   9  10
ENDBRANCH   1   9
TORSDOF 10
ENDMDL
MODEL 8
REMARK VINA RESULT:    -3.194      3.217      4.461
REMARK INTER + INTRA:          -6.547
REMARK INTER:                  -5.407
REMARK INTRA:                  -1.140
REMARK UNBOUND:                -1.486
REMARK SMILES CCCCCCCCCCCC(=O)[O-]
REMARK SMILES IDX 7 1 8 2 9 3 10 4 11 5 12 6 13 7 14 8 6 9 5 10 4 11 3 12 2 13
REMARK SMILES IDX 1 14
REMARK H PARENT
REMARK Flexibility Score: inf
ROOT
ATOM      1  C   UNL     1      17.348  14.436  31.418  1.00  0.00     0.000 C 
ENDROOT
BRANCH   1   2
ATOM      2  C   UNL     1      16.893  13.003  31.093  1.00  0.00     0.000 C 
BRANCH   2   3
ATOM      3  C   UNL     1      15.489  12.692  31.632  1.00  0.00     0.000 C 
BRANCH   3   4
ATOM      4  C   UNL     1      14.454  12.704  30.502  1.00  0.00     0.006 C 
BRANCH   4   5
ATOM      5  C   UNL     1      13.489  13.884  30.652  1.00  0.00     0.053 C 
BRANCH   5   6
ATOM      6  C   UNL     1      12.284  13.479  31.441  1.00  0.00     0.041 C 
ATOM      7  O   UNL     1      11.656  14.332  32.122  1.00  0.00    -0.550 OA
ATOM      8  O   UNL     1      11.883  12.149  31.465  1.00  0.00    -0.550 OA
ENDBRANCH   5   6
ENDBRANCH   4   5
ENDBRANCH   3   4
ENDBRANCH   2   3
ENDBRANCH   1   2
BRANCH   1   9
ATOM      9  C   UNL     1      17.572  15.286  30.159  1.00  0.00     0.000 C 
BRANCH   9  10
ATOM     10  C   UNL     1      16.271  15.982  29.729  1.00  0.00    -0.000 C 
BRANCH  10  11
ATOM     11  C   UNL     1      15.853  15.633  28.289  1.00  0.00    -0.000 C 
BRANCH  11  12
ATOM     12  C   UNL     1      16.818  14.693  27.538  1.00  0.00    -0.000 C 
BRANCH  12  13
ATOM     13  C   UNL     1      16.977  14.989  26.038  1.00  0.00    -0.003 C 
ATOM     14  C   UNL     1      16.273  16.276  25.607  1.00  0.00     0.004 C 
ENDBRANCH  12  13
ENDBRANCH  11  12
ENDBRANCH  10  11
ENDBRANCH   9  10
ENDBRANCH   1   9
TORSDOF 10
ENDMDL
MODEL 9
REMARK VINA RESULT:    -3.122      3.558      5.345
REMARK INTER + INTRA:          -6.434
REMARK INTER:                  -5.163
REMARK INTRA:                  -1.271
REMARK UNBOUND:                -1.486
REMARK SMILES CCCCCCCCCCCC(=O)[O-]
REMARK SMILES IDX 7 1 8 2 9 3 10 4 11 5 12 6 13 7 14 8 6 9 5 10 4 11 3 12 2 13
REMARK SMILES IDX 1 14
REMARK H PARENT
REMARK Flexibility Score: inf
ROOT
ATOM      1  C   UNL     1      15.012  13.311  27.892  1.00  0.00     0.000 C 
ENDROOT
BRANCH   1   2
ATOM      2  C   UNL     1      13.653  13.331  27.172  1.00  0.00     0.000 C 
BRANCH   2   3
ATOM      3  C   UNL     1      12.491  13.682  28.113  1.00  0.00     0.000 C 
BRANCH   3   4
ATOM      4  C   UNL     1      12.819  13.291  29.558  1.00  0.00     0.006 C 
BRANCH   4   5
ATOM      5  C   UNL     1      12.485  14.430  30.526  1.00  0.00     0.053 C 
BRANCH   5   6
ATOM      6  C   UNL     1      11.347  14.044  31.418  1.00  0.00     0.041 C 
ATOM      7  O   UNL     1      10.311  13.519  30.932  1.00  0.00    -0.550 OA
ATOM      8  O   UNL     1      11.410  14.310  32.779  1.00  0.00    -0.550 OA
ENDBRANCH   5   6
ENDBRANCH   4   5
ENDBRANCH   3   4
ENDBRANCH   2   3
ENDBRANCH   1   2
BRANCH   1   9
ATOM      9  C   UNL     1      16.028  14.277  27.265  1.00  0.00     0.000 C 
BRANCH   9  10
ATOM     10  C   UNL     1      15.972  15.652  27.948  1.00  0.00    -0.000 C 
BRANCH  10  11
ATOM     11  C   UNL     1      15.761  15.557  29.470  1.00  0.00    -0.000 C 
BRANCH  11  12
ATOM     12  C   UNL     1      17.031  15.768  30.319  1.00  0.00    -0.000 C 
BRANCH  12  13
ATOM     13  C   UNL     1      17.385  14.603  31.259  1.00  0.00    -0.003 C 
ATOM     14  C   UNL     1      16.315  13.513  31.285  1.00  0.00     0.004 C 
ENDBRANCH  12  13
ENDBRANCH  11  12
ENDBRANCH  10  11
ENDBRANCH   9  10
ENDBRANCH   1   9
TORSDOF 10
ENDMDL
