MODEL 1
REMARK VINA RESULT:    -3.759      0.000      0.000
REMARK INTER + INTRA:          -5.849
REMARK INTER:                  -5.517
REMARK INTRA:                  -0.332
REMARK UNBOUND:                -0.332
REMARK SMILES O=C([O-])CCCCCCCC(=O)[O-]
REMARK SMILES IDX 7 1 6 2 5 3 4 4 2 5 1 6 3 7 8 8 9 9 10 10 11 11 12 12 13 13
REMARK H PARENT
REMARK Flexibility Score: inf
ROOT
ATOM      1  C   UNL     1     -23.556   5.684  22.936  1.00  0.00     0.000 C 
ENDROOT
BRANCH   1   2
ATOM      2  C   UNL     1     -24.813   5.535  23.807  1.00  0.00     0.000 C 
BRANCH   2   3
ATOM      3  C   UNL     1     -24.837   4.214  24.593  1.00  0.00     0.006 C 
BRANCH   3   4
ATOM      4  C   UNL     1     -23.615   3.333  24.305  1.00  0.00     0.053 C 
BRANCH   4   5
ATOM      5  C   UNL     1     -24.027   2.085  23.591  1.00  0.00     0.041 C 
ATOM      6  O   UNL     1     -23.550   1.816  22.458  1.00  0.00    -0.550 OA
ATOM      7  O   UNL     1     -24.977   1.243  24.156  1.00  0.00    -0.550 OA
ENDBRANCH   4   5
ENDBRANCH   3   4
ENDBRANCH   2   3
ENDBRANCH   1   2
BRANCH   1   8
ATOM      8  C   UNL     1     -23.545   7.043  22.219  1.00  0.00     0.000 C 
BRANCH   8   9
ATOM      9  C   UNL     1     -22.123   7.555  21.941  1.00  0.00     0.006 C 
BRANCH   9  10
ATOM     10  C   UNL     1     -21.872   7.821  20.453  1.00  0.00     0.053 C 
BRANCH  10  11
ATOM     11  C   UNL     1     -21.046   6.724  19.858  1.00  0.00     0.041 C 
ATOM     12  O   UNL     1     -21.378   6.206  18.759  1.00  0.00    -0.550 OA
ATOM     13  O   UNL     1     -19.883   6.306  20.493  1.00  0.00    -0.550 OA
ENDBRANCH  10  11
ENDBRANCH   9  10
ENDBRANCH   8   9
ENDBRANCH   1   8
TORSDOF 8
ENDMDL
MODEL 2
REMARK VINA RESULT:    -3.759      1.798      5.710
REMARK INTER + INTRA:          -5.849
REMARK INTER:                  -5.520
REMARK INTRA:                  -0.329
REMARK UNBOUND:                -0.332
REMARK SMILES O=C([O-])CCCCCCCC(=O)[O-]
REMARK SMILES IDX 7 1 6 2 5 3 4 4 2 5 1 6 3 7 8 8 9 9 10 10 11 11 12 12 13 13
REMARK H PARENT
REMARK Flexibility Score: inf
ROOT
ATOM      1  C   UNL     1     -22.194   7.362  22.027  1.00  0.00     0.000 C 
ENDROOT
BRANCH   1   2
ATOM      2  C   UNL     1     -22.090   7.875  20.582  1.00  0.00     0.000 C 
BRANCH   2   3
ATOM      3  C   UNL     1     -21.323   6.911  19.663  1.00  0.00     0.006 C 
BRANCH   3   4
ATOM      4  C   UNL     1     -21.335   5.467  20.180  1.00  0.00     0.053 C 
BRANCH   4   5
ATOM      5  C   UNL     1     -19.955   5.040  20.572  1.00  0.00     0.041 C 
ATOM      6  O   UNL     1     -19.080   5.903  20.845  1.00  0.00    -0.550 OA
ATOM      7  O   UNL     1     -19.623   3.692  20.587  1.00  0.00    -0.550 OA
ENDBRANCH   4   5
ENDBRANCH   3   4
ENDBRANCH   2   3
ENDBRANCH   1   2
BRANCH   1   8
ATOM      8  C   UNL     1     -23.651   7.039  22.390  1.00  0.00     0.000 C 
BRANCH   8   9
ATOM      9  C   UNL     1     -23.801   5.675  23.082  1.00  0.00     0.006 C 
BRANCH   9  10
ATOM     10  C   UNL     1     -25.121   5.545  23.850  1.00  0.00     0.053 C 
BRANCH  10  11
ATOM     11  C   UNL     1     -24.920   4.750  25.102  1.00  0.00     0.041 C 
ATOM     12  O   UNL     1     -25.018   5.306  26.228  1.00  0.00    -0.550 OA
ATOM     13  O   UNL     1     -24.672   3.386  25.028  1.00  0.00    -0.550 OA
ENDBRANCH  10  11
ENDBRANCH   9  10
ENDBRANCH   8   9
ENDBRANCH   1   8
TORSDOF 8
ENDMDL
MODEL 3
REMARK VINA RESULT:    -3.747      2.249      2.531
REMARK INTER + INTRA:          -5.832
REMARK INTER:                  -5.515
REMARK INTRA:                  -0.317
REMARK UNBOUND:                -0.332
REMARK SMILES O=C([O-])CCCCCCCC(=O)[O-]
REMARK SMILES IDX 7 1 6 2 5 3 4 4 2 5 1 6 3 7 8 8 9 9 10 10 11 11 12 12 13 13
REMARK H PARENT
REMARK Flexibility Score: inf
ROOT
ATOM      1  C   UNL     1     -23.497   5.826  22.797  1.00  0.00     0.000 C 
ENDROOT
BRANCH   1   2
ATOM      2  C   UNL     1     -24.792   5.672  23.611  1.00  0.00     0.000 C 
BRANCH   2   3
ATOM      3  C   UNL     1     -24.730   4.504  24.607  1.00  0.00     0.006 C 
BRANCH   3   4
ATOM      4  C   UNL     1     -24.890   4.959  26.063  1.00  0.00     0.053 C 
BRANCH   4   5
ATOM      5  C   UNL     1     -23.564   4.965  26.756  1.00  0.00     0.041 C 
ATOM      6  O   UNL     1     -22.532   4.570  26.153  1.00  0.00    -0.550 OA
ATOM      7  O   UNL     1     -23.476   5.360  28.085  1.00  0.00    -0.550 OA
ENDBRANCH   4   5
ENDBRANCH   3   4
ENDBRANCH   2   3
ENDBRANCH   1   2
BRANCH   1   8
ATOM      8  C   UNL     1     -23.448   7.195  22.100  1.00  0.00     0.000 C 
BRANCH   8   9
ATOM      9  C   UNL     1     -22.016   7.629  21.747  1.00  0.00     0.006 C 
BRANCH   9  10
ATOM     10  C   UNL     1     -21.794   7.756  20.235  1.00  0.00     0.053 C 
BRANCH  10  11
ATOM     11  C   UNL     1     -21.014   6.587  19.722  1.00  0.00     0.041 C 
ATOM     12  O   UNL     1     -21.373   6.000  18.667  1.00  0.00    -0.550 OA
ATOM     13  O   UNL     1     -19.863   6.175  20.382  1.00  0.00    -0.550 OA
ENDBRANCH  10  11
ENDBRANCH   9  10
ENDBRANCH   8   9
ENDBRANCH   1   8
TORSDOF 8
ENDMDL
MODEL 4
REMARK VINA RESULT:    -3.721      1.983      5.130
REMARK INTER + INTRA:          -5.794
REMARK INTER:                  -5.189
REMARK INTRA:                  -0.604
REMARK UNBOUND:                -0.332
REMARK SMILES O=C([O-])CCCCCCCC(=O)[O-]
REMARK SMILES IDX 7 1 6 2 5 3 4 4 2 5 1 6 3 7 8 8 9 9 10 10 11 11 12 12 13 13
REMARK H PARENT
REMARK Flexibility Score: inf
ROOT
ATOM      1  C   UNL     1     -23.884   5.665  23.171  1.00  0.00     0.000 C 
ENDROOT
BRANCH   1   2
ATOM      2  C   UNL     1     -23.693   6.995  22.425  1.00  0.00     0.000 C 
BRANCH   2   3
ATOM      3  C   UNL     1     -22.215   7.319  22.159  1.00  0.00     0.006 C 
BRANCH   3   4
ATOM      4  C   UNL     1     -21.936   7.642  20.686  1.00  0.00     0.053 C 
BRANCH   4   5
ATOM      5  C   UNL     1     -20.982   6.648  20.104  1.00  0.00     0.041 C 
ATOM      6  O   UNL     1     -19.863   6.450  20.647  1.00  0.00    -0.550 OA
ATOM      7  O   UNL     1     -21.308   5.975  18.933  1.00  0.00    -0.550 OA
ENDBRANCH   4   5
ENDBRANCH   3   4
ENDBRANCH   2   3
ENDBRANCH   1   2
BRANCH   1   8
ATOM      8  C   UNL     1     -22.568   4.874  23.226  1.00  0.00     0.000 C 
BRANCH   8   9
ATOM      9  C   UNL     1     -22.623   3.574  22.407  1.00  0.00     0.006 C 
BRANCH   9  10
ATOM     10  C   UNL     1     -21.357   3.347  21.574  1.00  0.00     0.053 C 
BRANCH  10  11
ATOM     11  C   UNL     1     -21.055   1.886  21.472  1.00  0.00     0.041 C 
ATOM     12  O   UNL     1     -19.880   1.496  21.241  1.00  0.00    -0.550 OA
ATOM     13  O   UNL     1     -22.061   0.951  21.681  1.00  0.00    -0.550 OA
ENDBRANCH  10  11
ENDBRANCH   9  10
ENDBRANCH   8   9
ENDBRANCH   1   8
TORSDOF 8
ENDMDL
MODEL 5
REMARK VINA RESULT:    -3.715      0.130      5.757
REMARK INTER + INTRA:          -5.785
REMARK INTER:                  -5.423
REMARK INTRA:                  -0.362
REMARK UNBOUND:                -0.332
REMARK SMILES O=C([O-])CCCCCCCC(=O)[O-]
REMARK SMILES IDX 7 1 6 2 5 3 4 4 2 5 1 6 3 7 8 8 9 9 10 10 11 11 12 12 13 13
REMARK H PARENT
REMARK Flexibility Score: inf
ROOT
ATOM      1  C   UNL     1     -23.533   5.693  22.947  1.00  0.00     0.000 C 
ENDROOT
BRANCH   1   2
ATOM      2  C   UNL     1     -23.541   7.006  22.148  1.00  0.00     0.000 C 
BRANCH   2   3
ATOM      3  C   UNL     1     -22.136   7.605  21.978  1.00  0.00     0.006 C 
BRANCH   3   4
ATOM      4  C   UNL     1     -21.774   7.859  20.509  1.00  0.00     0.053 C 
BRANCH   4   5
ATOM      5  C   UNL     1     -21.014   6.698  19.951  1.00  0.00     0.041 C 
ATOM      6  O   UNL     1     -21.329   6.213  18.833  1.00  0.00    -0.550 OA
ATOM      7  O   UNL     1     -19.988   6.119  20.689  1.00  0.00    -0.550 OA
ENDBRANCH   4   5
ENDBRANCH   3   4
ENDBRANCH   2   3
ENDBRANCH   1   2
BRANCH   1   8
ATOM      8  C   UNL     1     -24.834   5.533  23.749  1.00  0.00     0.000 C 
BRANCH   8   9
ATOM      9  C   UNL     1     -24.817   4.299  24.665  1.00  0.00     0.006 C 
BRANCH   9  10
ATOM     10  C   UNL     1     -23.619   3.381  24.397  1.00  0.00     0.053 C 
BRANCH  10  11
ATOM     11  C   UNL     1     -24.064   2.129  23.709  1.00  0.00     0.041 C 
ATOM     12  O   UNL     1     -24.869   1.346  24.277  1.00  0.00    -0.550 OA
ATOM     13  O   UNL     1     -23.628   1.852  22.419  1.00  0.00    -0.550 OA
ENDBRANCH  10  11
ENDBRANCH   9  10
ENDBRANCH   8   9
ENDBRANCH   1   8
TORSDOF 8
ENDMDL
MODEL 6
REMARK VINA RESULT:    -3.715      2.171      6.017
REMARK INTER + INTRA:          -5.784
REMARK INTER:                  -5.351
REMARK INTRA:                  -0.434
REMARK UNBOUND:                -0.332
REMARK SMILES O=C([O-])CCCCCCCC(=O)[O-]
REMARK SMILES IDX 7 1 6 2 5 3 4 4 2 5 1 6 3 7 8 8 9 9 10 10 11 11 12 12 13 13
REMARK H PARENT
REMARK Flexibility Score: inf
ROOT
ATOM      1  C   UNL     1     -23.989   6.613  22.507  1.00  0.00     0.000 C 
ENDROOT
BRANCH   1   2
ATOM      2  C   UNL     1     -22.539   6.359  22.949  1.00  0.00     0.000 C 
BRANCH   2   3
ATOM      3  C   UNL     1     -21.554   7.386  22.369  1.00  0.00     0.006 C 
BRANCH   3   4
ATOM      4  C   UNL     1     -21.806   7.673  20.883  1.00  0.00     0.053 C 
BRANCH   4   5
ATOM      5  C   UNL     1     -20.964   6.780  20.028  1.00  0.00     0.041 C 
ATOM      6  O   UNL     1     -21.321   6.509  18.852  1.00  0.00    -0.550 OA
ATOM      7  O   UNL     1     -19.809   6.208  20.548  1.00  0.00    -0.550 OA
ENDBRANCH   4   5
ENDBRANCH   3   4
ENDBRANCH   2   3
ENDBRANCH   1   2
BRANCH   1   8
ATOM      8  C   UNL     1     -24.981   5.968  23.488  1.00  0.00     0.000 C 
BRANCH   8   9
ATOM      9  C   UNL     1     -24.447   4.663  24.099  1.00  0.00     0.006 C 
BRANCH   9  10
ATOM     10  C   UNL     1     -24.922   4.448  25.541  1.00  0.00     0.053 C 
BRANCH  10  11
ATOM     11  C   UNL     1     -23.859   4.869  26.507  1.00  0.00     0.041 C 
ATOM     12  O   UNL     1     -24.140   5.641  27.461  1.00  0.00    -0.550 OA
ATOM     13  O   UNL     1     -22.569   4.369  26.383  1.00  0.00    -0.550 OA
ENDBRANCH  10  11
ENDBRANCH   9  10
ENDBRANCH   8   9
ENDBRANCH   1   8
TORSDOF 8
ENDMDL
MODEL 7
REMARK VINA RESULT:    -3.671      1.505      2.225
REMARK INTER + INTRA:          -5.720
REMARK INTER:                  -5.141
REMARK INTRA:                  -0.579
REMARK UNBOUND:                -0.332
REMARK SMILES O=C([O-])CCCCCCCC(=O)[O-]
REMARK SMILES IDX 7 1 6 2 5 3 4 4 2 5 1 6 3 7 8 8 9 9 10 10 11 11 12 12 13 13
REMARK H PARENT
REMARK Flexibility Score: inf
ROOT
ATOM      1  C   UNL     1     -23.504   5.533  23.226  1.00  0.00     0.000 C 
ENDROOT
BRANCH   1   2
ATOM      2  C   UNL     1     -22.190   4.781  22.960  1.00  0.00     0.000 C 
BRANCH   2   3
ATOM      3  C   UNL     1     -22.250   3.913  21.694  1.00  0.00     0.006 C 
BRANCH   3   4
ATOM      4  C   UNL     1     -21.525   2.571  21.862  1.00  0.00     0.053 C 
BRANCH   4   5
ATOM      5  C   UNL     1     -22.513   1.464  22.050  1.00  0.00     0.041 C 
ATOM      6  O   UNL     1     -23.736   1.724  22.197  1.00  0.00    -0.550 OA
ATOM      7  O   UNL     1     -22.076   0.146  22.113  1.00  0.00    -0.550 OA
ENDBRANCH   4   5
ENDBRANCH   3   4
ENDBRANCH   2   3
ENDBRANCH   1   2
BRANCH   1   8
ATOM      8  C   UNL     1     -23.634   6.751  22.298  1.00  0.00     0.000 C 
BRANCH   8   9
ATOM      9  C   UNL     1     -22.317   7.529  22.153  1.00  0.00     0.006 C 
BRANCH   9  10
ATOM     10  C   UNL     1     -22.026   7.933  20.703  1.00  0.00     0.053 C 
BRANCH  10  11
ATOM     11  C   UNL     1     -21.109   6.940  20.060  1.00  0.00     0.041 C 
ATOM     12  O   UNL     1     -20.077   6.546  20.665  1.00  0.00    -0.550 OA
ATOM     13  O   UNL     1     -21.420   6.413  18.813  1.00  0.00    -0.550 OA
ENDBRANCH  10  11
ENDBRANCH   9  10
ENDBRANCH   8   9
ENDBRANCH   1   8
TORSDOF 8
ENDMDL
MODEL 8
REMARK VINA RESULT:    -3.658      1.774      4.966
REMARK INTER + INTRA:          -5.701
REMARK INTER:                  -4.876
REMARK INTRA:                  -0.825
REMARK UNBOUND:                -0.332
REMARK SMILES O=C([O-])CCCCCCCC(=O)[O-]
REMARK SMILES IDX 7 1 6 2 5 3 4 4 2 5 1 6 3 7 8 8 9 9 10 10 11 11 12 12 13 13
REMARK H PARENT
REMARK Flexibility Score: inf
ROOT
ATOM      1  C   UNL     1     -22.284   7.493  22.276  1.00  0.00     0.000 C 
ENDROOT
BRANCH   1   2
ATOM      2  C   UNL     1     -21.981   8.068  20.884  1.00  0.00     0.000 C 
BRANCH   2   3
ATOM      3  C   UNL     1     -21.468   7.004  19.901  1.00  0.00     0.006 C 
BRANCH   3   4
ATOM      4  C   UNL     1     -20.222   6.273  20.418  1.00  0.00     0.053 C 
BRANCH   4   5
ATOM      5  C   UNL     1     -20.462   4.798  20.463  1.00  0.00     0.041 C 
ATOM      6  O   UNL     1     -21.635   4.350  20.556  1.00  0.00    -0.550 OA
ATOM      7  O   UNL     1     -19.387   3.918  20.452  1.00  0.00    -0.550 OA
ENDBRANCH   4   5
ENDBRANCH   3   4
ENDBRANCH   2   3
ENDBRANCH   1   2
BRANCH   1   8
ATOM      8  C   UNL     1     -23.641   6.772  22.287  1.00  0.00     0.000 C 
BRANCH   8   9
ATOM      9  C   UNL     1     -23.667   5.572  23.247  1.00  0.00     0.006 C 
BRANCH   9  10
ATOM     10  C   UNL     1     -22.307   5.313  23.906  1.00  0.00     0.053 C 
BRANCH  10  11
ATOM     11  C   UNL     1     -22.001   3.848  23.913  1.00  0.00     0.041 C 
ATOM     12  O   UNL     1     -20.807   3.450  23.943  1.00  0.00    -0.550 OA
ATOM     13  O   UNL     1     -23.036   2.922  23.935  1.00  0.00    -0.550 OA
ENDBRANCH  10  11
ENDBRANCH   9  10
ENDBRANCH   8   9
ENDBRANCH   1   8
TORSDOF 8
ENDMDL
MODEL 9
REMARK VINA RESULT:    -3.645      1.418      2.175
REMARK INTER + INTRA:          -5.682
REMARK INTER:                  -5.066
REMARK INTRA:                  -0.616
REMARK UNBOUND:                -0.332
REMARK SMILES O=C([O-])CCCCCCCC(=O)[O-]
REMARK SMILES IDX 7 1 6 2 5 3 4 4 2 5 1 6 3 7 8 8 9 9 10 10 11 11 12 12 13 13
REMARK H PARENT
REMARK Flexibility Score: inf
ROOT
ATOM      1  C   UNL     1     -22.395   7.085  22.181  1.00  0.00     0.000 C 
ENDROOT
BRANCH   1   2
ATOM      2  C   UNL     1     -23.900   6.975  22.475  1.00  0.00     0.000 C 
BRANCH   2   3
ATOM      3  C   UNL     1     -24.253   5.730  23.303  1.00  0.00     0.006 C 
BRANCH   3   4
ATOM      4  C   UNL     1     -23.013   4.938  23.738  1.00  0.00     0.053 C 
BRANCH   4   5
ATOM      5  C   UNL     1     -23.183   3.486  23.422  1.00  0.00     0.041 C 
ATOM      6  O   UNL     1     -22.819   3.034  22.305  1.00  0.00    -0.550 OA
ATOM      7  O   UNL     1     -23.789   2.640  24.343  1.00  0.00    -0.550 OA
ENDBRANCH   4   5
ENDBRANCH   3   4
ENDBRANCH   2   3
ENDBRANCH   1   2
BRANCH   1   8
ATOM      8  C   UNL     1     -22.150   7.796  20.841  1.00  0.00     0.000 C 
BRANCH   8   9
ATOM      9  C   UNL     1     -21.410   6.909  19.827  1.00  0.00     0.006 C 
BRANCH   9  10
ATOM     10  C   UNL     1     -21.407   5.429  20.228  1.00  0.00     0.053 C 
BRANCH  10  11
ATOM     11  C   UNL     1     -20.019   4.981  20.559  1.00  0.00     0.041 C 
ATOM     12  O   UNL     1     -19.137   5.826  20.866  1.00  0.00    -0.550 OA
ATOM     13  O   UNL     1     -19.710   3.627  20.575  1.00  0.00    -0.550 OA
ENDBRANCH  10  11
ENDBRANCH   9  10
ENDBRANCH   8   9
ENDBRANCH   1   8
TORSDOF 8
ENDMDL
