MODEL 1
REMARK VINA RESULT:    -4.441      0.000      0.000
REMARK INTER + INTRA:          -6.728
REMARK INTER:                  -6.778
REMARK INTRA:                   0.049
REMARK UNBOUND:                 0.049
REMARK SMILES CC1=CCC[C@@H](C)C(=O)C[C@H](C(C)C)C(=O)C1
REMARK SMILES IDX 8 1 9 2 6 3 7 4 5 5 4 6 3 7 2 8 1 9 10 11 11 12 15 13 16 14
REMARK SMILES IDX 17 15 12 17 13 18 14 19
REMARK H PARENT
REMARK Flexibility Score: 70.00
ROOT
ATOM      1  C   UNL     1     -13.152 -15.854  27.662  1.00  0.00     0.136 C 
ATOM      2  O   UNL     1     -13.966 -15.471  26.832  1.00  0.00    -0.299 OA
ENDROOT
BRANCH   1   3
ATOM      3  C   UNL     1     -12.421 -17.165  27.447  1.00  0.00     0.053 C 
ATOM      4  C   UNL     1     -11.527 -17.085  26.202  1.00  0.00     0.016 C 
BRANCH   3   5
ATOM      5  C   UNL     1     -13.434 -18.327  27.328  1.00  0.00     0.015 C 
BRANCH   5   6
ATOM      6  C   UNL     1     -13.470 -19.200  28.599  1.00  0.00     0.028 C 
BRANCH   6   7
ATOM      7  C   UNL     1     -12.093 -19.374  29.184  1.00  0.00    -0.028 C 
ATOM      8  C   UNL     1     -11.669 -18.837  30.351  1.00  0.00    -0.070 CG0
ATOM      9  C   UNL     1     -10.272 -19.167  30.815  1.00  0.00     0.039 C 
ATOM     10  G   UNL     1     -12.531 -17.931  31.217  1.00  0.00     0.000 G0
ENDBRANCH   6   7
ENDBRANCH   5   6
ENDBRANCH   3   5
ENDBRANCH   1   3
BRANCH   1  11
ATOM     11  C   UNL     1     -12.894 -15.005  28.885  1.00  0.00     0.087 C 
BRANCH  11  12
ATOM     12  C   UNL     1     -13.431 -15.658  30.185  1.00  0.00     0.066 C 
BRANCH  12  13
ATOM     13  C   UNL     1     -12.342 -16.471  30.875  1.00  0.00     0.140 C 
ATOM     14  O   UNL     1     -11.265 -15.937  31.100  1.00  0.00    -0.299 OA
BRANCH  13  15
ATOM     15  C   UNL     1     -12.526 -17.932  31.218  1.00  0.00     0.106 CG0
ATOM     16  G   UNL     1     -11.663 -18.839  30.354  1.00  0.00     0.000 G0
ENDBRANCH  13  15
ENDBRANCH  12  13
BRANCH  12  17
ATOM     17  C   UNL     1     -14.083 -14.627  31.163  1.00  0.00    -0.006 C 
ATOM     18  C   UNL     1     -14.773 -15.342  32.339  1.00  0.00     0.008 C 
ATOM     19  C   UNL     1     -15.113 -13.723  30.461  1.00  0.00     0.008 C 
ENDBRANCH  12  17
ENDBRANCH  11  12
ENDBRANCH   1  11
TORSDOF 1
ENDMDL
MODEL 2
REMARK VINA RESULT:    -4.434      1.896      3.946
REMARK INTER + INTRA:          -6.718
REMARK INTER:                  -6.947
REMARK INTRA:                   0.229
REMARK UNBOUND:                 0.049
REMARK SMILES CC1=CCC[C@@H](C)C(=O)C[C@H](C(C)C)C(=O)C1
REMARK SMILES IDX 8 1 9 2 6 3 7 4 5 5 4 6 3 7 2 8 1 9 10 11 11 12 15 13 16 14
REMARK SMILES IDX 17 15 12 17 13 18 14 19
REMARK H PARENT
REMARK Flexibility Score: 70.00
ROOT
ATOM      1  C   UNL     1     -12.279 -15.807  30.207  1.00  0.00     0.136 C 
ATOM      2  O   UNL     1     -13.076 -15.867  31.134  1.00  0.00    -0.299 OA
ENDROOT
BRANCH   1   3
ATOM      3  C   UNL     1     -10.818 -15.517  30.491  1.00  0.00     0.053 C 
ATOM      4  C   UNL     1      -9.962 -15.794  29.246  1.00  0.00     0.016 C 
BRANCH   3   5
ATOM      5  C   UNL     1     -10.331 -16.356  31.695  1.00  0.00     0.015 C 
BRANCH   5   6
ATOM      6  C   UNL     1      -9.900 -17.777  31.278  1.00  0.00     0.028 C 
BRANCH   6   7
ATOM      7  C   UNL     1     -10.881 -18.813  31.764  1.00  0.00    -0.028 C 
ATOM      8  C   UNL     1     -11.620 -19.619  30.968  1.00  0.00    -0.070 CG0
ATOM      9  C   UNL     1     -12.509 -20.642  31.629  1.00  0.00     0.039 C 
ATOM     10  G   UNL     1     -11.590 -19.550  29.449  1.00  0.00     0.000 G0
ENDBRANCH   6   7
ENDBRANCH   5   6
ENDBRANCH   3   5
ENDBRANCH   1   3
BRANCH   1  11
ATOM     11  C   UNL     1     -12.774 -16.028  28.796  1.00  0.00     0.087 C 
BRANCH  11  12
ATOM     12  C   UNL     1     -12.159 -17.294  28.143  1.00  0.00     0.066 C 
BRANCH  12  13
ATOM     13  C   UNL     1     -12.600 -18.553  28.880  1.00  0.00     0.140 C 
ATOM     14  O   UNL     1     -13.794 -18.730  29.078  1.00  0.00    -0.299 OA
BRANCH  13  15
ATOM     15  C   UNL     1     -11.605 -19.547  29.436  1.00  0.00     0.106 CG0
ATOM     16  G   UNL     1     -11.641 -19.608  30.955  1.00  0.00     0.000 G0
ENDBRANCH  13  15
ENDBRANCH  12  13
BRANCH  12  17
ATOM     17  C   UNL     1     -12.452 -17.393  26.610  1.00  0.00    -0.006 C 
ATOM     18  C   UNL     1     -11.156 -17.261  25.791  1.00  0.00     0.008 C 
ATOM     19  C   UNL     1     -13.450 -16.323  26.133  1.00  0.00     0.008 C 
ENDBRANCH  12  17
ENDBRANCH  11  12
ENDBRANCH   1  11
TORSDOF 1
ENDMDL
MODEL 3
REMARK VINA RESULT:    -3.782      1.908      3.668
REMARK INTER + INTRA:          -5.722
REMARK INTER:                  -6.131
REMARK INTRA:                   0.409
REMARK UNBOUND:                 0.049
REMARK SMILES CC1=CCC[C@@H](C)C(=O)C[C@H](C(C)C)C(=O)C1
REMARK SMILES IDX 8 1 9 2 6 3 7 4 5 5 4 6 3 7 2 8 1 9 10 11 11 12 15 13 16 14
REMARK SMILES IDX 17 15 12 17 13 18 14 19
REMARK H PARENT
REMARK Flexibility Score: 70.00
ROOT
ATOM      1  C   UNL     1     -11.289 -18.222  30.697  1.00  0.00     0.136 C 
ATOM      2  O   UNL     1     -10.329 -18.676  30.087  1.00  0.00    -0.299 OA
ENDROOT
BRANCH   1   3
ATOM      3  C   UNL     1     -12.540 -19.063  30.859  1.00  0.00     0.053 C 
ATOM      4  C   UNL     1     -12.346 -20.109  31.966  1.00  0.00     0.016 C 
BRANCH   3   5
ATOM      5  C   UNL     1     -12.907 -19.738  29.517  1.00  0.00     0.015 C 
BRANCH   5   6
ATOM      6  C   UNL     1     -13.609 -18.765  28.549  1.00  0.00     0.028 C 
BRANCH   6   7
ATOM      7  C   UNL     1     -12.775 -18.517  27.319  1.00  0.00    -0.028 C 
ATOM      8  C   UNL     1     -12.215 -17.333  26.983  1.00  0.00    -0.070 CG0
ATOM      9  C   UNL     1     -11.359 -17.282  25.742  1.00  0.00     0.039 C 
ATOM     10  G   UNL     1     -12.397 -16.061  27.797  1.00  0.00     0.000 G0
ENDBRANCH   6   7
ENDBRANCH   5   6
ENDBRANCH   3   5
ENDBRANCH   1   3
BRANCH   1  11
ATOM     11  C   UNL     1     -11.201 -16.829  31.276  1.00  0.00     0.087 C 
BRANCH  11  12
ATOM     12  C   UNL     1     -11.867 -15.765  30.365  1.00  0.00     0.066 C 
BRANCH  12  13
ATOM     13  C   UNL     1     -11.408 -15.923  28.920  1.00  0.00     0.140 C 
ATOM     14  O   UNL     1     -10.210 -15.885  28.677  1.00  0.00    -0.299 OA
BRANCH  13  15
ATOM     15  C   UNL     1     -12.388 -16.050  27.776  1.00  0.00     0.106 CG0
ATOM     16  G   UNL     1     -12.198 -17.341  26.996  1.00  0.00     0.000 G0
ENDBRANCH  13  15
ENDBRANCH  12  13
BRANCH  12  17
ATOM     17  C   UNL     1     -13.427 -15.757  30.473  1.00  0.00    -0.006 C 
ATOM     18  C   UNL     1     -14.023 -14.529  29.763  1.00  0.00     0.008 C 
ATOM     19  C   UNL     1     -13.913 -15.767  31.934  1.00  0.00     0.008 C 
ENDBRANCH  12  17
ENDBRANCH  11  12
ENDBRANCH   1  11
TORSDOF 1
ENDMDL
MODEL 4
REMARK VINA RESULT:    -3.622      1.849      2.747
REMARK INTER + INTRA:          -5.479
REMARK INTER:                  -6.085
REMARK INTRA:                   0.606
REMARK UNBOUND:                 0.049
REMARK SMILES CC1=CCC[C@@H](C)C(=O)C[C@H](C(C)C)C(=O)C1
REMARK SMILES IDX 8 1 9 2 6 3 7 4 5 5 4 6 3 7 2 8 1 9 10 11 11 12 15 13 16 14
REMARK SMILES IDX 17 15 12 17 13 18 14 19
REMARK H PARENT
REMARK Flexibility Score: 70.00
ROOT
ATOM      1  C   UNL     1     -12.565 -18.356  28.149  1.00  0.00     0.136 C 
ATOM      2  O   UNL     1     -11.792 -18.321  27.200  1.00  0.00    -0.299 OA
ENDROOT
BRANCH   1   3
ATOM      3  C   UNL     1     -12.863 -19.680  28.824  1.00  0.00     0.053 C 
ATOM      4  C   UNL     1     -14.263 -20.178  28.439  1.00  0.00     0.016 C 
BRANCH   3   5
ATOM      5  C   UNL     1     -12.728 -19.540  30.358  1.00  0.00     0.015 C 
BRANCH   5   6
ATOM      6  C   UNL     1     -11.288 -19.809  30.842  1.00  0.00     0.028 C 
BRANCH   6   7
ATOM      7  C   UNL     1     -10.829 -18.751  31.812  1.00  0.00    -0.028 C 
ATOM      8  C   UNL     1     -10.220 -17.593  31.470  1.00  0.00    -0.070 CG0
ATOM      9  C   UNL     1      -9.883 -16.620  32.573  1.00  0.00     0.039 C 
ATOM     10  G   UNL     1      -9.872 -17.222  30.037  1.00  0.00     0.000 G0
ENDBRANCH   6   7
ENDBRANCH   5   6
ENDBRANCH   3   5
ENDBRANCH   1   3
BRANCH   1  11
ATOM     11  C   UNL     1     -13.203 -17.072  28.627  1.00  0.00     0.087 C 
BRANCH  11  12
ATOM     12  C   UNL     1     -12.405 -16.406  29.778  1.00  0.00     0.066 C 
BRANCH  12  13
ATOM     13  C   UNL     1     -10.928 -16.291  29.420  1.00  0.00     0.140 C 
ATOM     14  O   UNL     1     -10.592 -15.477  28.572  1.00  0.00    -0.299 OA
BRANCH  13  15
ATOM     15  C   UNL     1      -9.882 -17.201  30.024  1.00  0.00     0.106 CG0
ATOM     16  G   UNL     1     -10.218 -17.593  31.455  1.00  0.00     0.000 G0
ENDBRANCH  13  15
ENDBRANCH  12  13
BRANCH  12  17
ATOM     17  C   UNL     1     -12.999 -15.027  30.215  1.00  0.00    -0.006 C 
ATOM     18  C   UNL     1     -13.989 -15.198  31.381  1.00  0.00     0.008 C 
ATOM     19  C   UNL     1     -13.715 -14.305  29.060  1.00  0.00     0.008 C 
ENDBRANCH  12  17
ENDBRANCH  11  12
ENDBRANCH   1  11
TORSDOF 1
ENDMDL
MODEL 5
REMARK VINA RESULT:    -3.607      1.884      3.565
REMARK INTER + INTRA:          -5.456
REMARK INTER:                  -6.280
REMARK INTRA:                   0.824
REMARK UNBOUND:                 0.049
REMARK SMILES CC1=CCC[C@@H](C)C(=O)C[C@H](C(C)C)C(=O)C1
REMARK SMILES IDX 8 1 9 2 6 3 7 4 5 5 4 6 3 7 2 8 1 9 10 11 11 12 15 13 16 14
REMARK SMILES IDX 17 15 12 17 13 18 14 19
REMARK H PARENT
REMARK Flexibility Score: 70.00
ROOT
ATOM      1  C   UNL     1     -12.878 -15.424  29.707  1.00  0.00     0.136 C 
ATOM      2  O   UNL     1     -13.635 -15.808  30.589  1.00  0.00    -0.299 OA
ENDROOT
BRANCH   1   3
ATOM      3  C   UNL     1     -13.413 -14.558  28.584  1.00  0.00     0.053 C 
ATOM      4  C   UNL     1     -14.403 -13.518  29.131  1.00  0.00     0.016 C 
BRANCH   3   5
ATOM      5  C   UNL     1     -14.077 -15.438  27.501  1.00  0.00     0.015 C 
BRANCH   5   6
ATOM      6  C   UNL     1     -13.120 -16.522  26.965  1.00  0.00     0.028 C 
BRANCH   6   7
ATOM      7  C   UNL     1     -13.510 -17.891  27.458  1.00  0.00    -0.028 C 
ATOM      8  C   UNL     1     -12.704 -18.730  28.148  1.00  0.00    -0.070 CG0
ATOM      9  C   UNL     1     -13.284 -20.042  28.615  1.00  0.00     0.039 C 
ATOM     10  G   UNL     1     -11.255 -18.411  28.482  1.00  0.00     0.000 G0
ENDBRANCH   6   7
ENDBRANCH   5   6
ENDBRANCH   3   5
ENDBRANCH   1   3
BRANCH   1  11
ATOM     11  C   UNL     1     -11.422 -15.823  29.762  1.00  0.00     0.087 C 
BRANCH  11  12
ATOM     12  C   UNL     1     -11.166 -17.002  30.738  1.00  0.00     0.066 C 
BRANCH  12  13
ATOM     13  C   UNL     1     -10.996 -18.311  29.976  1.00  0.00     0.140 C 
ATOM     14  O   UNL     1     -10.585 -19.292  30.579  1.00  0.00    -0.299 OA
BRANCH  13  15
ATOM     15  C   UNL     1     -11.247 -18.412  28.489  1.00  0.00     0.106 CG0
ATOM     16  G   UNL     1     -12.701 -18.725  28.171  1.00  0.00     0.000 G0
ENDBRANCH  13  15
ENDBRANCH  12  13
BRANCH  12  17
ATOM     17  C   UNL     1      -9.968 -16.743  31.709  1.00  0.00    -0.006 C 
ATOM     18  C   UNL     1      -9.875 -17.846  32.777  1.00  0.00     0.008 C 
ATOM     19  C   UNL     1     -10.069 -15.379  32.415  1.00  0.00     0.008 C 
ENDBRANCH  12  17
ENDBRANCH  11  12
ENDBRANCH   1  11
TORSDOF 1
ENDMDL
MODEL 6
REMARK VINA RESULT:    -3.439      1.939      4.587
REMARK INTER + INTRA:          -5.199
REMARK INTER:                  -5.910
REMARK INTRA:                   0.711
REMARK UNBOUND:                 0.049
REMARK SMILES CC1=CCC[C@@H](C)C(=O)C[C@H](C(C)C)C(=O)C1
REMARK SMILES IDX 8 1 9 2 6 3 7 4 5 5 4 6 3 7 2 8 1 9 10 11 11 12 15 13 16 14
REMARK SMILES IDX 17 15 12 17 13 18 14 19
REMARK H PARENT
REMARK Flexibility Score: 70.00
ROOT
ATOM      1  C   UNL     1     -12.317 -16.355  31.269  1.00  0.00     0.136 C 
ATOM      2  O   UNL     1     -11.162 -16.028  31.508  1.00  0.00    -0.299 OA
ENDROOT
BRANCH   1   3
ATOM      3  C   UNL     1     -13.379 -15.286  31.100  1.00  0.00     0.053 C 
ATOM      4  C   UNL     1     -14.581 -15.572  32.012  1.00  0.00     0.016 C 
BRANCH   3   5
ATOM      5  C   UNL     1     -13.816 -15.196  29.620  1.00  0.00     0.015 C 
BRANCH   5   6
ATOM      6  C   UNL     1     -12.643 -14.829  28.689  1.00  0.00     0.028 C 
BRANCH   6   7
ATOM      7  C   UNL     1     -12.548 -15.781  27.524  1.00  0.00    -0.028 C 
ATOM      8  C   UNL     1     -11.617 -16.752  27.386  1.00  0.00    -0.070 CG0
ATOM      9  C   UNL     1     -11.711 -17.654  26.181  1.00  0.00     0.039 C 
ATOM     10  G   UNL     1     -10.496 -16.984  28.387  1.00  0.00     0.000 G0
ENDBRANCH   6   7
ENDBRANCH   5   6
ENDBRANCH   3   5
ENDBRANCH   1   3
BRANCH   1  11
ATOM     11  C   UNL     1     -12.656 -17.822  31.144  1.00  0.00     0.087 C 
BRANCH  11  12
ATOM     12  C   UNL     1     -12.257 -18.408  29.765  1.00  0.00     0.066 C 
BRANCH  12  13
ATOM     13  C   UNL     1     -10.819 -18.043  29.416  1.00  0.00     0.140 C 
ATOM     14  O   UNL     1      -9.911 -18.573  30.041  1.00  0.00    -0.299 OA
BRANCH  13  15
ATOM     15  C   UNL     1     -10.486 -16.996  28.377  1.00  0.00     0.106 CG0
ATOM     16  G   UNL     1     -11.625 -16.780  27.393  1.00  0.00     0.000 G0
ENDBRANCH  13  15
ENDBRANCH  12  13
BRANCH  12  17
ATOM     17  C   UNL     1     -12.499 -19.949  29.662  1.00  0.00    -0.006 C 
ATOM     18  C   UNL     1     -13.812 -20.253  28.919  1.00  0.00     0.008 C 
ATOM     19  C   UNL     1     -12.544 -20.629  31.043  1.00  0.00     0.008 C 
ENDBRANCH  12  17
ENDBRANCH  11  12
ENDBRANCH   1  11
TORSDOF 1
ENDMDL
MODEL 7
REMARK VINA RESULT:    -3.331      1.731      4.045
REMARK INTER + INTRA:          -5.035
REMARK INTER:                  -5.762
REMARK INTRA:                   0.727
REMARK UNBOUND:                 0.049
REMARK SMILES CC1=CCC[C@@H](C)C(=O)C[C@H](C(C)C)C(=O)C1
REMARK SMILES IDX 8 1 9 2 6 3 7 4 5 5 4 6 3 7 2 8 1 9 10 11 11 12 15 13 16 14
REMARK SMILES IDX 17 15 12 17 13 18 14 19
REMARK H PARENT
REMARK Flexibility Score: 70.00
ROOT
ATOM      1  C   UNL     1     -11.353 -18.061  27.734  1.00  0.00     0.136 C 
ATOM      2  O   UNL     1     -10.148 -17.849  27.791  1.00  0.00    -0.299 OA
ENDROOT
BRANCH   1   3
ATOM      3  C   UNL     1     -12.164 -17.474  26.596  1.00  0.00     0.053 C 
ATOM      4  C   UNL     1     -11.241 -16.825  25.555  1.00  0.00     0.016 C 
BRANCH   3   5
ATOM      5  C   UNL     1     -13.188 -16.453  27.141  1.00  0.00     0.015 C 
BRANCH   5   6
ATOM      6  C   UNL     1     -12.539 -15.434  28.100  1.00  0.00     0.028 C 
BRANCH   6   7
ATOM      7  C   UNL     1     -13.510 -14.982  29.159  1.00  0.00    -0.028 C 
ATOM      8  C   UNL     1     -13.410 -15.261  30.479  1.00  0.00    -0.070 CG0
ATOM      9  C   UNL     1     -14.444 -14.672  31.407  1.00  0.00     0.039 C 
ATOM     10  G   UNL     1     -12.305 -16.123  31.069  1.00  0.00     0.000 G0
ENDBRANCH   6   7
ENDBRANCH   5   6
ENDBRANCH   3   5
ENDBRANCH   1   3
BRANCH   1  11
ATOM     11  C   UNL     1     -12.002 -18.908  28.804  1.00  0.00     0.087 C 
BRANCH  11  12
ATOM     12  C   UNL     1     -11.540 -18.516  30.232  1.00  0.00     0.066 C 
BRANCH  12  13
ATOM     13  C   UNL     1     -12.556 -17.596  30.898  1.00  0.00     0.140 C 
ATOM     14  O   UNL     1     -13.630 -18.064  31.250  1.00  0.00    -0.299 OA
BRANCH  13  15
ATOM     15  C   UNL     1     -12.308 -16.114  31.067  1.00  0.00     0.106 CG0
ATOM     16  G   UNL     1     -13.429 -15.272  30.478  1.00  0.00     0.000 G0
ENDBRANCH  13  15
ENDBRANCH  12  13
BRANCH  12  17
ATOM     17  C   UNL     1     -11.213 -19.754  31.129  1.00  0.00    -0.006 C 
ATOM     18  C   UNL     1     -12.491 -20.537  31.476  1.00  0.00     0.008 C 
ATOM     19  C   UNL     1     -10.505 -19.359  32.439  1.00  0.00     0.008 C 
ENDBRANCH  12  17
ENDBRANCH  11  12
ENDBRANCH   1  11
TORSDOF 1
ENDMDL
MODEL 8
REMARK VINA RESULT:    -3.153      1.790      4.149
REMARK INTER + INTRA:          -4.763
REMARK INTER:                  -5.624
REMARK INTRA:                   0.861
REMARK UNBOUND:                 0.049
REMARK SMILES CC1=CCC[C@@H](C)C(=O)C[C@H](C(C)C)C(=O)C1
REMARK SMILES IDX 8 1 9 2 6 3 7 4 5 5 4 6 3 7 2 8 1 9 10 11 11 12 15 13 16 14
REMARK SMILES IDX 17 15 12 17 13 18 14 19
REMARK H PARENT
REMARK Flexibility Score: 70.00
ROOT
ATOM      1  C   UNL     1     -11.193 -19.301  29.592  1.00  0.00     0.136 C 
ATOM      2  O   UNL     1     -10.419 -19.370  30.538  1.00  0.00    -0.299 OA
ENDROOT
BRANCH   1   3
ATOM      3  C   UNL     1     -12.453 -20.145  29.592  1.00  0.00     0.053 C 
ATOM      4  C   UNL     1     -13.225 -19.961  28.278  1.00  0.00     0.016 C 
BRANCH   3   5
ATOM      5  C   UNL     1     -13.337 -19.785  30.808  1.00  0.00     0.015 C 
BRANCH   5   6
ATOM      6  C   UNL     1     -12.769 -18.595  31.608  1.00  0.00     0.028 C 
BRANCH   6   7
ATOM      7  C   UNL     1     -13.575 -17.343  31.378  1.00  0.00    -0.028 C 
ATOM      8  C   UNL     1     -13.064 -16.144  31.017  1.00  0.00    -0.070 CG0
ATOM      9  C   UNL     1     -14.029 -15.011  30.770  1.00  0.00     0.039 C 
ATOM     10  G   UNL     1     -11.576 -15.888  30.838  1.00  0.00     0.000 G0
ENDBRANCH   6   7
ENDBRANCH   5   6
ENDBRANCH   3   5
ENDBRANCH   1   3
BRANCH   1  11
ATOM     11  C   UNL     1     -10.873 -18.372  28.445  1.00  0.00     0.087 C 
BRANCH  11  12
ATOM     12  C   UNL     1     -11.748 -17.090  28.459  1.00  0.00     0.066 C 
BRANCH  12  13
ATOM     13  C   UNL     1     -11.153 -16.037  29.386  1.00  0.00     0.140 C 
ATOM     14  O   UNL     1     -10.255 -15.322  28.962  1.00  0.00    -0.299 OA
BRANCH  13  15
ATOM     15  C   UNL     1     -11.585 -15.901  30.828  1.00  0.00     0.106 CG0
ATOM     16  G   UNL     1     -13.076 -16.143  31.007  1.00  0.00     0.000 G0
ENDBRANCH  13  15
ENDBRANCH  12  13
BRANCH  12  17
ATOM     17  C   UNL     1     -12.009 -16.514  27.029  1.00  0.00    -0.006 C 
ATOM     18  C   UNL     1     -13.516 -16.482  26.715  1.00  0.00     0.008 C 
ATOM     19  C   UNL     1     -11.293 -17.322  25.931  1.00  0.00     0.008 C 
ENDBRANCH  12  17
ENDBRANCH  11  12
ENDBRANCH   1  11
TORSDOF 1
ENDMDL
MODEL 9
REMARK VINA RESULT:    -3.097      2.182      4.147
REMARK INTER + INTRA:          -4.678
REMARK INTER:                  -4.997
REMARK INTRA:                   0.319
REMARK UNBOUND:                 0.049
REMARK SMILES CC1=CCC[C@@H](C)C(=O)C[C@H](C(C)C)C(=O)C1
REMARK SMILES IDX 8 1 9 2 6 3 7 4 5 5 4 6 3 7 2 8 1 9 10 11 11 12 15 13 16 14
REMARK SMILES IDX 17 15 12 17 13 18 14 19
REMARK H PARENT
REMARK Flexibility Score: 70.00
ROOT
ATOM      1  C   UNL     1     -12.304 -19.266  29.864  1.00  0.00     0.136 C 
ATOM      2  O   UNL     1     -11.738 -20.351  29.914  1.00  0.00    -0.299 OA
ENDROOT
BRANCH   1   3
ATOM      3  C   UNL     1     -13.143 -18.914  28.651  1.00  0.00     0.053 C 
ATOM      4  C   UNL     1     -14.195 -20.002  28.389  1.00  0.00     0.016 C 
BRANCH   3   5
ATOM      5  C   UNL     1     -12.237 -18.711  27.415  1.00  0.00     0.015 C 
BRANCH   5   6
ATOM      6  C   UNL     1     -11.756 -17.252  27.280  1.00  0.00     0.028 C 
BRANCH   6   7
ATOM      7  C   UNL     1     -12.904 -16.283  27.392  1.00  0.00    -0.028 C 
ATOM      8  C   UNL     1     -12.970 -15.252  28.265  1.00  0.00    -0.070 CG0
ATOM      9  C   UNL     1     -14.172 -14.343  28.196  1.00  0.00     0.039 C 
ATOM     10  G   UNL     1     -11.893 -14.961  29.298  1.00  0.00     0.000 G0
ENDBRANCH   6   7
ENDBRANCH   5   6
ENDBRANCH   3   5
ENDBRANCH   1   3
BRANCH   1  11
ATOM     11  C   UNL     1     -12.152 -18.302  31.017  1.00  0.00     0.087 C 
BRANCH  11  12
ATOM     12  C   UNL     1     -11.216 -17.113  30.677  1.00  0.00     0.066 C 
BRANCH  12  13
ATOM     13  C   UNL     1     -12.012 -15.821  30.529  1.00  0.00     0.140 C 
ATOM     14  O   UNL     1     -12.812 -15.521  31.404  1.00  0.00    -0.299 OA
BRANCH  13  15
ATOM     15  C   UNL     1     -11.896 -14.944  29.303  1.00  0.00     0.106 CG0
ATOM     16  G   UNL     1     -12.966 -15.257  28.269  1.00  0.00     0.000 G0
ENDBRANCH  13  15
ENDBRANCH  12  13
BRANCH  12  17
ATOM     17  C   UNL     1     -10.042 -16.950  31.696  1.00  0.00    -0.006 C 
ATOM     18  C   UNL     1      -9.876 -18.216  32.555  1.00  0.00     0.008 C 
ATOM     19  C   UNL     1     -10.239 -15.742  32.631  1.00  0.00     0.008 C 
ENDBRANCH  12  17
ENDBRANCH  11  12
ENDBRANCH   1  11
TORSDOF 1
ENDMDL
