MODEL 1
REMARK VINA RESULT:    -3.488      0.000      0.000
REMARK INTER + INTRA:          -5.925
REMARK INTER:                  -5.018
REMARK INTRA:                  -0.908
REMARK UNBOUND:                -0.908
REMARK SMILES O=C(CO)[C@@H](O)[C@@H](O)[C@@H](O)CO
REMARK SMILES IDX 7 1 9 2 11 3 12 4 10 6 5 8 2 9 1 10 3 11 4 12 6 14 8 16
REMARK H PARENT 12 5 10 7 4 13 6 15 8 17
REMARK Flexibility Score: inf
ROOT
ATOM      1  C   UNL     1       7.460  -2.097   6.496  1.00  0.00     0.181 C 
ENDROOT
BRANCH   1   2
ATOM      2  C   UNL     1       7.070  -3.487   5.928  1.00  0.00     0.171 C 
BRANCH   2   3
ATOM      3  C   UNL     1       6.358  -4.355   6.981  1.00  0.00     0.190 C 
BRANCH   3   4
ATOM      4  O   UNL     1       5.004  -4.006   7.066  1.00  0.00    -0.394 OA
ATOM      5  H   UNL     1       4.495  -4.808   6.778  1.00  0.00     0.210 HD
ENDBRANCH   3   4
ENDBRANCH   2   3
BRANCH   2   6
ATOM      6  O   UNL     1       8.217  -4.161   5.479  1.00  0.00    -0.388 OA
ATOM      7  H   UNL     1       7.923  -5.053   5.158  1.00  0.00     0.211 HD
ENDBRANCH   2   6
ENDBRANCH   1   2
BRANCH   1   8
ATOM      8  C   UNL     1       7.237  -0.939   5.485  1.00  0.00     0.214 C 
BRANCH   8   9
ATOM      9  C   UNL     1       8.072   0.282   5.821  1.00  0.00     0.189 C 
ATOM     10  O   UNL     1       8.747   0.285   6.841  1.00  0.00    -0.294 OA
BRANCH   9  11
ATOM     11  C   UNL     1       8.074   1.521   4.960  1.00  0.00     0.234 C 
BRANCH  11  12
ATOM     12  O   UNL     1       8.886   1.372   3.826  1.00  0.00    -0.388 OA
ATOM     13  H   UNL     1       9.568   2.093   3.868  1.00  0.00     0.211 HD
ENDBRANCH  11  12
ENDBRANCH   9  11
ENDBRANCH   8   9
BRANCH   8  14
ATOM     14  O   UNL     1       7.518  -1.362   4.173  1.00  0.00    -0.382 OA
ATOM     15  H   UNL     1       6.764  -1.944   3.888  1.00  0.00     0.211 HD
ENDBRANCH   8  14
ENDBRANCH   1   8
BRANCH   1  16
ATOM     16  O   UNL     1       6.702  -1.842   7.652  1.00  0.00    -0.387 OA
ATOM     17  H   UNL     1       7.346  -1.681   8.391  1.00  0.00     0.211 HD
ENDBRANCH   1  16
TORSDOF 10
ENDMDL
MODEL 2
REMARK VINA RESULT:    -3.413      1.365      2.909
REMARK INTER + INTRA:          -5.817
REMARK INTER:                  -5.094
REMARK INTRA:                  -0.723
REMARK UNBOUND:                -0.908
REMARK SMILES O=C(CO)[C@@H](O)[C@@H](O)[C@@H](O)CO
REMARK SMILES IDX 7 1 9 2 11 3 12 4 10 6 5 8 2 9 1 10 3 11 4 12 6 14 8 16
REMARK H PARENT 12 5 10 7 4 13 6 15 8 17
REMARK Flexibility Score: inf
ROOT
ATOM      1  C   UNL     1       7.389  -0.296   5.737  1.00  0.00     0.181 C 
ENDROOT
BRANCH   1   2
ATOM      2  C   UNL     1       7.497  -1.473   6.742  1.00  0.00     0.171 C 
BRANCH   2   3
ATOM      3  C   UNL     1       6.900  -2.770   6.169  1.00  0.00     0.190 C 
BRANCH   3   4
ATOM      4  O   UNL     1       7.868  -3.472   5.438  1.00  0.00    -0.394 OA
ATOM      5  H   UNL     1       7.777  -3.168   4.497  1.00  0.00     0.210 HD
ENDBRANCH   3   4
ENDBRANCH   2   3
BRANCH   2   6
ATOM      6  O   UNL     1       6.829  -1.148   7.934  1.00  0.00    -0.388 OA
ATOM      7  H   UNL     1       7.513  -1.128   8.653  1.00  0.00     0.211 HD
ENDBRANCH   2   6
ENDBRANCH   1   2
BRANCH   1   8
ATOM      8  C   UNL     1       8.178   0.965   6.184  1.00  0.00     0.214 C 
BRANCH   8   9
ATOM      9  C   UNL     1       8.332   1.971   5.060  1.00  0.00     0.189 C 
ATOM     10  O   UNL     1       9.039   1.697   4.101  1.00  0.00    -0.294 OA
BRANCH   9  11
ATOM     11  C   UNL     1       7.671   3.327   5.095  1.00  0.00     0.234 C 
BRANCH  11  12
ATOM     12  O   UNL     1       8.255   4.221   4.186  1.00  0.00    -0.388 OA
ATOM     13  H   UNL     1       9.102   4.535   4.598  1.00  0.00     0.211 HD
ENDBRANCH  11  12
ENDBRANCH   9  11
ENDBRANCH   8   9
BRANCH   8  14
ATOM     14  O   UNL     1       7.556   1.575   7.288  1.00  0.00    -0.382 OA
ATOM     15  H   UNL     1       7.467   2.542   7.074  1.00  0.00     0.211 HD
ENDBRANCH   8  14
ENDBRANCH   1   8
BRANCH   1  16
ATOM     16  O   UNL     1       7.874  -0.714   4.485  1.00  0.00    -0.387 OA
ATOM     17  H   UNL     1       7.491  -0.098   3.806  1.00  0.00     0.211 HD
ENDBRANCH   1  16
TORSDOF 10
ENDMDL
MODEL 3
REMARK VINA RESULT:    -3.377     17.437     18.563
REMARK INTER + INTRA:          -5.765
REMARK INTER:                  -5.207
REMARK INTRA:                  -0.558
REMARK UNBOUND:                -0.908
REMARK SMILES O=C(CO)[C@@H](O)[C@@H](O)[C@@H](O)CO
REMARK SMILES IDX 7 1 9 2 11 3 12 4 10 6 5 8 2 9 1 10 3 11 4 12 6 14 8 16
REMARK H PARENT 12 5 10 7 4 13 6 15 8 17
REMARK Flexibility Score: inf
ROOT
ATOM      1  C   UNL     1      -7.398   0.847  -4.598  1.00  0.00     0.181 C 
ENDROOT
BRANCH   1   2
ATOM      2  C   UNL     1      -6.714   1.989  -5.394  1.00  0.00     0.171 C 
BRANCH   2   3
ATOM      3  C   UNL     1      -7.728   2.787  -6.233  1.00  0.00     0.190 C 
BRANCH   3   4
ATOM      4  O   UNL     1      -7.290   2.890  -7.559  1.00  0.00    -0.394 OA
ATOM      5  H   UNL     1      -6.975   1.985  -7.817  1.00  0.00     0.210 HD
ENDBRANCH   3   4
ENDBRANCH   2   3
BRANCH   2   6
ATOM      6  O   UNL     1      -5.731   1.459  -6.244  1.00  0.00    -0.388 OA
ATOM      7  H   UNL     1      -5.464   2.186  -6.866  1.00  0.00     0.211 HD
ENDBRANCH   2   6
ENDBRANCH   1   2
BRANCH   1   8
ATOM      8  C   UNL     1      -7.375   1.072  -3.061  1.00  0.00     0.214 C 
BRANCH   8   9
ATOM      9  C   UNL     1      -8.067  -0.048  -2.309  1.00  0.00     0.189 C 
ATOM     10  O   UNL     1      -8.407  -1.056  -2.912  1.00  0.00    -0.294 OA
BRANCH   9  11
ATOM     11  C   UNL     1      -8.390   0.047  -0.838  1.00  0.00     0.234 C 
BRANCH  11  12
ATOM     12  O   UNL     1      -7.237   0.002  -0.041  1.00  0.00    -0.388 OA
ATOM     13  H   UNL     1      -7.347   0.698   0.659  1.00  0.00     0.211 HD
ENDBRANCH  11  12
ENDBRANCH   9  11
ENDBRANCH   8   9
BRANCH   8  14
ATOM     14  O   UNL     1      -6.054   1.212  -2.599  1.00  0.00    -0.382 OA
ATOM     15  H   UNL     1      -5.961   2.143  -2.264  1.00  0.00     0.211 HD
ENDBRANCH   8  14
ENDBRANCH   1   8
BRANCH   1  16
ATOM     16  O   UNL     1      -8.735   0.728  -5.018  1.00  0.00    -0.387 OA
ATOM     17  H   UNL     1      -8.790   1.131  -5.925  1.00  0.00     0.211 HD
ENDBRANCH   1  16
TORSDOF 10
ENDMDL
MODEL 4
REMARK VINA RESULT:    -3.363      2.916      5.731
REMARK INTER + INTRA:          -5.745
REMARK INTER:                  -4.688
REMARK INTRA:                  -1.056
REMARK UNBOUND:                -0.908
REMARK SMILES O=C(CO)[C@@H](O)[C@@H](O)[C@@H](O)CO
REMARK SMILES IDX 7 1 9 2 11 3 12 4 10 6 5 8 2 9 1 10 3 11 4 12 6 14 8 16
REMARK H PARENT 12 5 10 7 4 13 6 15 8 17
REMARK Flexibility Score: inf
ROOT
ATOM      1  C   UNL     1       8.254   3.482   6.669  1.00  0.00     0.181 C 
ENDROOT
BRANCH   1   2
ATOM      2  C   UNL     1       7.609   3.257   5.276  1.00  0.00     0.171 C 
BRANCH   2   3
ATOM      3  C   UNL     1       8.648   3.347   4.145  1.00  0.00     0.190 C 
BRANCH   3   4
ATOM      4  O   UNL     1       9.402   2.168   4.079  1.00  0.00    -0.394 OA
ATOM      5  H   UNL     1       9.796   2.143   3.168  1.00  0.00     0.210 HD
ENDBRANCH   3   4
ENDBRANCH   2   3
BRANCH   2   6
ATOM      6  O   UNL     1       6.604   4.212   5.053  1.00  0.00    -0.388 OA
ATOM      7  H   UNL     1       6.693   4.512   4.111  1.00  0.00     0.211 HD
ENDBRANCH   2   6
ENDBRANCH   1   2
BRANCH   1   8
ATOM      8  C   UNL     1       8.603   2.157   7.402  1.00  0.00     0.214 C 
BRANCH   8   9
ATOM      9  C   UNL     1       7.480   1.142   7.314  1.00  0.00     0.189 C 
ATOM     10  O   UNL     1       6.397   1.399   7.821  1.00  0.00    -0.294 OA
BRANCH   9  11
ATOM     11  C   UNL     1       7.658  -0.202   6.651  1.00  0.00     0.234 C 
BRANCH  11  12
ATOM     12  O   UNL     1       7.959  -0.081   5.287  1.00  0.00    -0.388 OA
ATOM     13  H   UNL     1       7.725  -0.949   4.865  1.00  0.00     0.211 HD
ENDBRANCH  11  12
ENDBRANCH   9  11
ENDBRANCH   8   9
BRANCH   8  14
ATOM     14  O   UNL     1       9.789   1.602   6.890  1.00  0.00    -0.382 OA
ATOM     15  H   UNL     1      10.163   2.261   6.246  1.00  0.00     0.211 HD
ENDBRANCH   8  14
ENDBRANCH   1   8
BRANCH   1  16
ATOM     16  O   UNL     1       9.429   4.238   6.516  1.00  0.00    -0.387 OA
ATOM     17  H   UNL     1      10.173   3.698   6.894  1.00  0.00     0.211 HD
ENDBRANCH   1  16
TORSDOF 10
ENDMDL
MODEL 5
REMARK VINA RESULT:    -3.357     12.061     13.734
REMARK INTER + INTRA:          -5.736
REMARK INTER:                  -4.851
REMARK INTRA:                  -0.885
REMARK UNBOUND:                -0.908
REMARK SMILES O=C(CO)[C@@H](O)[C@@H](O)[C@@H](O)CO
REMARK SMILES IDX 7 1 9 2 11 3 12 4 10 6 5 8 2 9 1 10 3 11 4 12 6 14 8 16
REMARK H PARENT 12 5 10 7 4 13 6 15 8 17
REMARK Flexibility Score: inf
ROOT
ATOM      1  C   UNL     1       5.471   1.208  -7.276  1.00  0.00     0.181 C 
ENDROOT
BRANCH   1   2
ATOM      2  C   UNL     1       4.672   1.008  -5.961  1.00  0.00     0.171 C 
BRANCH   2   3
ATOM      3  C   UNL     1       4.422  -0.481  -5.666  1.00  0.00     0.190 C 
BRANCH   3   4
ATOM      4  O   UNL     1       5.479  -1.015  -4.919  1.00  0.00    -0.394 OA
ATOM      5  H   UNL     1       5.848  -1.762  -5.458  1.00  0.00     0.210 HD
ENDBRANCH   3   4
ENDBRANCH   2   3
BRANCH   2   6
ATOM      6  O   UNL     1       3.438   1.673  -6.043  1.00  0.00    -0.388 OA
ATOM      7  H   UNL     1       2.785   1.138  -5.521  1.00  0.00     0.211 HD
ENDBRANCH   2   6
ENDBRANCH   1   2
BRANCH   1   8
ATOM      8  C   UNL     1       6.171   2.592  -7.362  1.00  0.00     0.214 C 
BRANCH   8   9
ATOM      9  C   UNL     1       5.392   3.574  -8.216  1.00  0.00     0.189 C 
ATOM     10  O   UNL     1       4.297   3.252  -8.655  1.00  0.00    -0.294 OA
BRANCH   9  11
ATOM     11  C   UNL     1       5.937   4.933  -8.583  1.00  0.00     0.234 C 
BRANCH  11  12
ATOM     12  O   UNL     1       6.461   5.608  -7.471  1.00  0.00    -0.388 OA
ATOM     13  H   UNL     1       6.901   4.922  -6.903  1.00  0.00     0.211 HD
ENDBRANCH  11  12
ENDBRANCH   9  11
ENDBRANCH   8   9
BRANCH   8  14
ATOM     14  O   UNL     1       6.369   3.131  -6.078  1.00  0.00    -0.382 OA
ATOM     15  H   UNL     1       6.031   2.460  -5.427  1.00  0.00     0.211 HD
ENDBRANCH   8  14
ENDBRANCH   1   8
BRANCH   1  16
ATOM     16  O   UNL     1       6.444   0.200  -7.381  1.00  0.00    -0.387 OA
ATOM     17  H   UNL     1       7.308   0.600  -7.097  1.00  0.00     0.211 HD
ENDBRANCH   1  16
TORSDOF 10
ENDMDL
MODEL 6
REMARK VINA RESULT:    -3.323      2.435      5.356
REMARK INTER + INTRA:          -5.687
REMARK INTER:                  -4.522
REMARK INTRA:                  -1.165
REMARK UNBOUND:                -0.908
REMARK SMILES O=C(CO)[C@@H](O)[C@@H](O)[C@@H](O)CO
REMARK SMILES IDX 7 1 9 2 11 3 12 4 10 6 5 8 2 9 1 10 3 11 4 12 6 14 8 16
REMARK H PARENT 12 5 10 7 4 13 6 15 8 17
REMARK Flexibility Score: inf
ROOT
ATOM      1  C   UNL     1       8.310   2.036   6.649  1.00  0.00     0.181 C 
ENDROOT
BRANCH   1   2
ATOM      2  C   UNL     1       7.851   2.819   5.390  1.00  0.00     0.171 C 
BRANCH   2   3
ATOM      3  C   UNL     1       8.950   2.865   4.314  1.00  0.00     0.190 C 
BRANCH   3   4
ATOM      4  O   UNL     1       9.088   1.611   3.704  1.00  0.00    -0.394 OA
ATOM      5  H   UNL     1       9.592   1.768   2.863  1.00  0.00     0.210 HD
ENDBRANCH   3   4
ENDBRANCH   2   3
BRANCH   2   6
ATOM      6  O   UNL     1       7.501   4.132   5.744  1.00  0.00    -0.388 OA
ATOM      7  H   UNL     1       7.082   4.546   4.944  1.00  0.00     0.211 HD
ENDBRANCH   2   6
ENDBRANCH   1   2
BRANCH   1   8
ATOM      8  C   UNL     1       7.378   0.845   7.002  1.00  0.00     0.214 C 
BRANCH   8   9
ATOM      9  C   UNL     1       7.807  -0.438   6.317  1.00  0.00     0.189 C 
ATOM     10  O   UNL     1       7.690  -0.540   5.104  1.00  0.00    -0.294 OA
BRANCH   9  11
ATOM     11  C   UNL     1       8.344  -1.622   7.084  1.00  0.00     0.234 C 
BRANCH  11  12
ATOM     12  O   UNL     1       9.658  -1.412   7.524  1.00  0.00    -0.388 OA
ATOM     13  H   UNL     1       9.598  -0.886   8.365  1.00  0.00     0.211 HD
ENDBRANCH  11  12
ENDBRANCH   9  11
ENDBRANCH   8   9
BRANCH   8  14
ATOM     14  O   UNL     1       7.327   0.648   8.393  1.00  0.00    -0.382 OA
ATOM     15  H   UNL     1       7.634  -0.281   8.567  1.00  0.00     0.211 HD
ENDBRANCH   8  14
ENDBRANCH   1   8
BRANCH   1  16
ATOM     16  O   UNL     1       9.611   1.548   6.439  1.00  0.00    -0.387 OA
ATOM     17  H   UNL     1       9.544   0.558   6.388  1.00  0.00     0.211 HD
ENDBRANCH   1  16
TORSDOF 10
ENDMDL
MODEL 7
REMARK VINA RESULT:    -3.303      1.433      2.396
REMARK INTER + INTRA:          -5.659
REMARK INTER:                  -4.980
REMARK INTRA:                  -0.679
REMARK UNBOUND:                -0.908
REMARK SMILES O=C(CO)[C@@H](O)[C@@H](O)[C@@H](O)CO
REMARK SMILES IDX 7 1 9 2 11 3 12 4 10 6 5 8 2 9 1 10 3 11 4 12 6 14 8 16
REMARK H PARENT 12 5 10 7 4 13 6 15 8 17
REMARK Flexibility Score: inf
ROOT
ATOM      1  C   UNL     1       7.865  -0.340   6.052  1.00  0.00     0.181 C 
ENDROOT
BRANCH   1   2
ATOM      2  C   UNL     1       6.897  -1.353   5.386  1.00  0.00     0.171 C 
BRANCH   2   3
ATOM      3  C   UNL     1       6.964  -2.734   6.062  1.00  0.00     0.190 C 
BRANCH   3   4
ATOM      4  O   UNL     1       7.954  -3.523   5.462  1.00  0.00    -0.394 OA
ATOM      5  H   UNL     1       8.745  -2.934   5.348  1.00  0.00     0.210 HD
ENDBRANCH   3   4
ENDBRANCH   2   3
BRANCH   2   6
ATOM      6  O   UNL     1       7.210  -1.492   4.025  1.00  0.00    -0.388 OA
ATOM      7  H   UNL     1       7.162  -2.462   3.814  1.00  0.00     0.211 HD
ENDBRANCH   2   6
ENDBRANCH   1   2
BRANCH   1   8
ATOM      8  C   UNL     1       7.902   1.035   5.330  1.00  0.00     0.214 C 
BRANCH   8   9
ATOM      9  C   UNL     1       8.628   2.089   6.145  1.00  0.00     0.189 C 
ATOM     10  O   UNL     1       9.556   1.755   6.868  1.00  0.00    -0.294 OA
BRANCH   9  11
ATOM     11  C   UNL     1       8.223   3.542   6.129  1.00  0.00     0.234 C 
BRANCH  11  12
ATOM     12  O   UNL     1       7.816   3.961   4.853  1.00  0.00    -0.388 OA
ATOM     13  H   UNL     1       8.574   3.779   4.238  1.00  0.00     0.211 HD
ENDBRANCH  11  12
ENDBRANCH   9  11
ENDBRANCH   8   9
BRANCH   8  14
ATOM     14  O   UNL     1       8.502   0.916   4.063  1.00  0.00    -0.382 OA
ATOM     15  H   UNL     1       8.416  -0.036   3.790  1.00  0.00     0.211 HD
ENDBRANCH   8  14
ENDBRANCH   1   8
BRANCH   1  16
ATOM     16  O   UNL     1       7.475  -0.140   7.388  1.00  0.00    -0.387 OA
ATOM     17  H   UNL     1       8.105   0.523   7.777  1.00  0.00     0.211 HD
ENDBRANCH   1  16
TORSDOF 10
ENDMDL
MODEL 8
REMARK VINA RESULT:    -3.269     17.528     18.573
REMARK INTER + INTRA:          -5.610
REMARK INTER:                  -4.950
REMARK INTRA:                  -0.660
REMARK UNBOUND:                -0.908
REMARK SMILES O=C(CO)[C@@H](O)[C@@H](O)[C@@H](O)CO
REMARK SMILES IDX 7 1 9 2 11 3 12 4 10 6 5 8 2 9 1 10 3 11 4 12 6 14 8 16
REMARK H PARENT 12 5 10 7 4 13 6 15 8 17
REMARK Flexibility Score: inf
ROOT
ATOM      1  C   UNL     1      -7.987   2.230  -4.556  1.00  0.00     0.181 C 
ENDROOT
BRANCH   1   2
ATOM      2  C   UNL     1      -7.939   2.003  -6.090  1.00  0.00     0.171 C 
BRANCH   2   3
ATOM      3  C   UNL     1      -6.934   0.902  -6.472  1.00  0.00     0.190 C 
BRANCH   3   4
ATOM      4  O   UNL     1      -5.621   1.355  -6.290  1.00  0.00    -0.394 OA
ATOM      5  H   UNL     1      -5.425   1.250  -5.322  1.00  0.00     0.210 HD
ENDBRANCH   3   4
ENDBRANCH   2   3
BRANCH   2   6
ATOM      6  O   UNL     1      -7.582   3.195  -6.741  1.00  0.00    -0.388 OA
ATOM      7  H   UNL     1      -7.030   3.719  -6.103  1.00  0.00     0.211 HD
ENDBRANCH   2   6
ENDBRANCH   1   2
BRANCH   1   8
ATOM      8  C   UNL     1      -8.134   0.913  -3.746  1.00  0.00     0.214 C 
BRANCH   8   9
ATOM      9  C   UNL     1      -7.274   0.911  -2.497  1.00  0.00     0.189 C 
ATOM     10  O   UNL     1      -6.063   0.779  -2.602  1.00  0.00    -0.294 OA
BRANCH   9  11
ATOM     11  C   UNL     1      -7.863   1.029  -1.112  1.00  0.00     0.234 C 
BRANCH  11  12
ATOM     12  O   UNL     1      -7.224   0.181  -0.196  1.00  0.00    -0.388 OA
ATOM     13  H   UNL     1      -6.258   0.410  -0.220  1.00  0.00     0.211 HD
ENDBRANCH  11  12
ENDBRANCH   9  11
ENDBRANCH   8   9
BRANCH   8  14
ATOM     14  O   UNL     1      -9.479   0.690  -3.400  1.00  0.00    -0.382 OA
ATOM     15  H   UNL     1     -10.031   0.990  -4.170  1.00  0.00     0.211 HD
ENDBRANCH   8  14
ENDBRANCH   1   8
BRANCH   1  16
ATOM     16  O   UNL     1      -6.810   2.883  -4.150  1.00  0.00    -0.387 OA
ATOM     17  H   UNL     1      -6.558   3.508  -4.881  1.00  0.00     0.211 HD
ENDBRANCH   1  16
TORSDOF 10
ENDMDL
MODEL 9
REMARK VINA RESULT:    -3.248      1.796      4.795
REMARK INTER + INTRA:          -5.580
REMARK INTER:                  -4.520
REMARK INTRA:                  -1.060
REMARK UNBOUND:                -0.908
REMARK SMILES O=C(CO)[C@@H](O)[C@@H](O)[C@@H](O)CO
REMARK SMILES IDX 7 1 9 2 11 3 12 4 10 6 5 8 2 9 1 10 3 11 4 12 6 14 8 16
REMARK H PARENT 12 5 10 7 4 13 6 15 8 17
REMARK Flexibility Score: inf
ROOT
ATOM      1  C   UNL     1       7.335   1.245   6.500  1.00  0.00     0.181 C 
ENDROOT
BRANCH   1   2
ATOM      2  C   UNL     1       8.530   1.872   5.734  1.00  0.00     0.171 C 
BRANCH   2   3
ATOM      3  C   UNL     1       8.380   3.397   5.593  1.00  0.00     0.190 C 
BRANCH   3   4
ATOM      4  O   UNL     1       7.152   3.714   4.997  1.00  0.00    -0.394 OA
ATOM      5  H   UNL     1       6.607   4.149   5.704  1.00  0.00     0.210 HD
ENDBRANCH   3   4
ENDBRANCH   2   3
BRANCH   2   6
ATOM      6  O   UNL     1       8.632   1.301   4.455  1.00  0.00    -0.388 OA
ATOM      7  H   UNL     1       8.750   0.323   4.583  1.00  0.00     0.211 HD
ENDBRANCH   2   6
ENDBRANCH   1   2
BRANCH   1   8
ATOM      8  C   UNL     1       7.609  -0.208   6.977  1.00  0.00     0.214 C 
BRANCH   8   9
ATOM      9  C   UNL     1       6.636  -1.201   6.372  1.00  0.00     0.189 C 
ATOM     10  O   UNL     1       5.526  -1.332   6.867  1.00  0.00    -0.294 OA
BRANCH   9  11
ATOM     11  C   UNL     1       6.999  -2.071   5.194  1.00  0.00     0.234 C 
BRANCH  11  12
ATOM     12  O   UNL     1       7.355  -1.312   4.069  1.00  0.00    -0.388 OA
ATOM     13  H   UNL     1       6.568  -1.314   3.463  1.00  0.00     0.211 HD
ENDBRANCH  11  12
ENDBRANCH   9  11
ENDBRANCH   8   9
BRANCH   8  14
ATOM     14  O   UNL     1       8.929  -0.590   6.677  1.00  0.00    -0.382 OA
ATOM     15  H   UNL     1       8.928  -0.925   5.741  1.00  0.00     0.211 HD
ENDBRANCH   8  14
ENDBRANCH   1   8
BRANCH   1  16
ATOM     16  O   UNL     1       7.037   2.041   7.619  1.00  0.00    -0.387 OA
ATOM     17  H   UNL     1       7.622   2.843   7.569  1.00  0.00     0.211 HD
ENDBRANCH   1  16
TORSDOF 10
ENDMDL
