MODEL 1
REMARK VINA RESULT:    -4.957      0.000      0.000
REMARK INTER + INTRA:         -14.500
REMARK INTER:                 -11.333
REMARK INTRA:                  -3.167
REMARK UNBOUND:                -3.167
REMARK SMILES CCCCCCCCCCCCCCCCCCCCCCCC(=O)[O-]
REMARK SMILES IDX 13 1 14 2 15 3 16 4 17 5 18 6 19 7 20 8 21 9 22 10 23 11
REMARK SMILES IDX 24 12 25 13 26 14 12 15 11 16 10 17 9 18 8 19 7 20 6 21 5 22
REMARK SMILES IDX 4 23 3 24 2 25 1 26
REMARK H PARENT
REMARK Flexibility Score: inf
ROOT
ATOM      1  C   UNL     1      12.845  13.537 163.658  1.00  0.00     0.000 C 
ENDROOT
BRANCH   1   2
ATOM      2  C   UNL     1      11.950  13.971 164.828  1.00  0.00     0.000 C 
BRANCH   2   3
ATOM      3  C   UNL     1      11.989  15.489 165.080  1.00  0.00     0.000 C 
BRANCH   3   4
ATOM      4  C   UNL     1      10.665  16.231 164.812  1.00  0.00     0.000 C 
BRANCH   4   5
ATOM      5  C   UNL     1      10.796  17.536 164.007  1.00  0.00     0.000 C 
BRANCH   5   6
ATOM      6  C   UNL     1       9.645  18.520 164.279  1.00  0.00     0.000 C 
BRANCH   6   7
ATOM      7  C   UNL     1       8.896  18.215 165.587  1.00  0.00     0.000 C 
BRANCH   7   8
ATOM      8  C   UNL     1       7.588  19.003 165.792  1.00  0.00     0.000 C 
BRANCH   8   9
ATOM      9  C   UNL     1       6.330  18.113 165.877  1.00  0.00     0.000 C 
BRANCH   9  10
ATOM     10  C   UNL     1       5.992  17.717 167.323  1.00  0.00     0.006 C 
BRANCH  10  11
ATOM     11  C   UNL     1       5.983  16.195 167.489  1.00  0.00     0.053 C 
BRANCH  11  12
ATOM     12  C   UNL     1       7.150  15.752 168.314  1.00  0.00     0.041 C 
ATOM     13  O   UNL     1       8.301  15.697 167.807  1.00  0.00    -0.550 OA
ATOM     14  O   UNL     1       6.975  15.448 169.659  1.00  0.00    -0.550 OA
ENDBRANCH  11  12
ENDBRANCH  10  11
ENDBRANCH   9  10
ENDBRANCH   8   9
ENDBRANCH   7   8
ENDBRANCH   6   7
ENDBRANCH   5   6
ENDBRANCH   4   5
ENDBRANCH   3   4
ENDBRANCH   2   3
ENDBRANCH   1   2
BRANCH   1  15
ATOM     15  C   UNL     1      14.151  14.342 163.638  1.00  0.00     0.000 C 
BRANCH  15  16
ATOM     16  C   UNL     1      14.316  15.089 162.310  1.00  0.00     0.000 C 
BRANCH  16  17
ATOM     17  C   UNL     1      13.487  14.427 161.199  1.00  0.00     0.000 C 
BRANCH  17  18
ATOM     18  C   UNL     1      12.803  15.444 160.268  1.00  0.00    -0.000 C 
BRANCH  18  19
ATOM     19  C   UNL     1      11.555  16.134 160.851  1.00  0.00    -0.000 C 
BRANCH  19  20
ATOM     20  C   UNL     1      10.252  15.372 160.555  1.00  0.00    -0.000 C 
BRANCH  20  21
ATOM     21  C   UNL     1       9.562  14.841 161.826  1.00  0.00    -0.000 C 
BRANCH  21  22
ATOM     22  C   UNL     1       9.662  13.320 162.045  1.00  0.00    -0.000 C 
BRANCH  22  23
ATOM     23  C   UNL     1      10.467  12.607 160.945  1.00  0.00    -0.000 C 
BRANCH  23  24
ATOM     24  C   UNL     1      10.615  11.100 161.207  1.00  0.00    -0.000 C 
BRANCH  24  25
ATOM     25  C   UNL     1       9.428  10.519 161.990  1.00  0.00    -0.003 C 
ATOM     26  C   UNL     1       9.043   9.140 161.461  1.00  0.00     0.004 C 
ENDBRANCH  24  25
ENDBRANCH  23  24
ENDBRANCH  22  23
ENDBRANCH  21  22
ENDBRANCH  20  21
ENDBRANCH  19  20
ENDBRANCH  18  19
ENDBRANCH  17  18
ENDBRANCH  16  17
ENDBRANCH  15  16
ENDBRANCH   1  15
TORSDOF 22
ENDMDL
MODEL 2
REMARK VINA RESULT:    -4.950      1.379      3.511
REMARK INTER + INTRA:         -14.484
REMARK INTER:                 -10.879
REMARK INTRA:                  -3.605
REMARK UNBOUND:                -3.167
REMARK SMILES CCCCCCCCCCCCCCCCCCCCCCCC(=O)[O-]
REMARK SMILES IDX 13 1 14 2 15 3 16 4 17 5 18 6 19 7 20 8 21 9 22 10 23 11
REMARK SMILES IDX 24 12 25 13 26 14 12 15 11 16 10 17 9 18 8 19 7 20 6 21 5 22
REMARK SMILES IDX 4 23 3 24 2 25 1 26
REMARK H PARENT
REMARK Flexibility Score: inf
ROOT
ATOM      1  C   UNL     1      11.551  12.764 163.974  1.00  0.00     0.000 C 
ENDROOT
BRANCH   1   2
ATOM      2  C   UNL     1      12.081  13.948 164.796  1.00  0.00     0.000 C 
BRANCH   2   3
ATOM      3  C   UNL     1      11.005  14.582 165.694  1.00  0.00     0.000 C 
BRANCH   3   4
ATOM      4  C   UNL     1      10.881  16.115 165.585  1.00  0.00     0.000 C 
BRANCH   4   5
ATOM      5  C   UNL     1       9.604  16.621 164.889  1.00  0.00     0.000 C 
BRANCH   5   6
ATOM      6  C   UNL     1       9.608  18.145 164.679  1.00  0.00     0.000 C 
BRANCH   6   7
ATOM      7  C   UNL     1       8.337  18.824 165.219  1.00  0.00     0.000 C 
BRANCH   7   8
ATOM      8  C   UNL     1       8.228  18.885 166.755  1.00  0.00     0.000 C 
BRANCH   8   9
ATOM      9  C   UNL     1       6.914  18.296 167.311  1.00  0.00     0.000 C 
BRANCH   9  10
ATOM     10  C   UNL     1       6.383  17.139 166.450  1.00  0.00     0.006 C 
BRANCH  10  11
ATOM     11  C   UNL     1       6.057  15.916 167.312  1.00  0.00     0.053 C 
BRANCH  11  12
ATOM     12  C   UNL     1       7.147  15.673 168.307  1.00  0.00     0.041 C 
ATOM     13  O   UNL     1       8.327  15.467 167.918  1.00  0.00    -0.550 OA
ATOM     14  O   UNL     1       6.869  15.722 169.668  1.00  0.00    -0.550 OA
ENDBRANCH  11  12
ENDBRANCH  10  11
ENDBRANCH   9  10
ENDBRANCH   8   9
ENDBRANCH   7   8
ENDBRANCH   6   7
ENDBRANCH   5   6
ENDBRANCH   4   5
ENDBRANCH   3   4
ENDBRANCH   2   3
ENDBRANCH   1   2
BRANCH   1  15
ATOM     15  C   UNL     1      12.204  12.723 162.587  1.00  0.00     0.000 C 
BRANCH  15  16
ATOM     16  C   UNL     1      11.147  12.817 161.480  1.00  0.00     0.000 C 
BRANCH  16  17
ATOM     17  C   UNL     1       9.766  13.148 162.063  1.00  0.00     0.000 C 
BRANCH  17  18
ATOM     18  C   UNL     1       9.297  14.576 161.730  1.00  0.00    -0.000 C 
BRANCH  18  19
ATOM     19  C   UNL     1      10.224  15.371 160.790  1.00  0.00    -0.000 C 
BRANCH  19  20
ATOM     20  C   UNL     1      10.886  16.578 161.478  1.00  0.00    -0.000 C 
BRANCH  20  21
ATOM     21  C   UNL     1      12.411  16.423 161.627  1.00  0.00    -0.000 C 
BRANCH  21  22
ATOM     22  C   UNL     1      12.984  16.824 162.999  1.00  0.00    -0.000 C 
BRANCH  22  23
ATOM     23  C   UNL     1      14.386  16.245 163.256  1.00  0.00    -0.000 C 
BRANCH  23  24
ATOM     24  C   UNL     1      14.663  14.982 162.425  1.00  0.00    -0.000 C 
BRANCH  24  25
ATOM     25  C   UNL     1      15.671  14.041 163.101  1.00  0.00    -0.003 C 
ATOM     26  C   UNL     1      17.071  14.229 162.522  1.00  0.00     0.004 C 
ENDBRANCH  24  25
ENDBRANCH  23  24
ENDBRANCH  22  23
ENDBRANCH  21  22
ENDBRANCH  20  21
ENDBRANCH  19  20
ENDBRANCH  18  19
ENDBRANCH  17  18
ENDBRANCH  16  17
ENDBRANCH  15  16
ENDBRANCH   1  15
TORSDOF 22
ENDMDL
MODEL 3
REMARK VINA RESULT:    -4.900      1.677      4.182
REMARK INTER + INTRA:         -14.369
REMARK INTER:                 -11.575
REMARK INTRA:                  -2.795
REMARK UNBOUND:                -3.167
REMARK SMILES CCCCCCCCCCCCCCCCCCCCCCCC(=O)[O-]
REMARK SMILES IDX 13 1 14 2 15 3 16 4 17 5 18 6 19 7 20 8 21 9 22 10 23 11
REMARK SMILES IDX 24 12 25 13 26 14 12 15 11 16 10 17 9 18 8 19 7 20 6 21 5 22
REMARK SMILES IDX 4 23 3 24 2 25 1 26
REMARK H PARENT
REMARK Flexibility Score: inf
ROOT
ATOM      1  C   UNL     1      11.091  13.383 161.315  1.00  0.00     0.000 C 
ENDROOT
BRANCH   1   2
ATOM      2  C   UNL     1      10.591  13.628 162.745  1.00  0.00     0.000 C 
BRANCH   2   3
ATOM      3  C   UNL     1      11.515  13.019 163.815  1.00  0.00     0.000 C 
BRANCH   3   4
ATOM      4  C   UNL     1      11.247  13.491 165.258  1.00  0.00     0.000 C 
BRANCH   4   5
ATOM      5  C   UNL     1      11.606  14.960 165.545  1.00  0.00     0.000 C 
BRANCH   5   6
ATOM      6  C   UNL     1      10.404  15.778 166.047  1.00  0.00     0.000 C 
BRANCH   6   7
ATOM      7  C   UNL     1       9.670  16.516 164.913  1.00  0.00     0.000 C 
BRANCH   7   8
ATOM      8  C   UNL     1       9.224  17.952 165.248  1.00  0.00     0.000 C 
BRANCH   8   9
ATOM      9  C   UNL     1       7.815  18.040 165.871  1.00  0.00     0.000 C 
BRANCH   9  10
ATOM     10  C   UNL     1       7.862  18.278 167.389  1.00  0.00     0.006 C 
BRANCH  10  11
ATOM     11  C   UNL     1       6.724  17.538 168.098  1.00  0.00     0.053 C 
BRANCH  11  12
ATOM     12  C   UNL     1       6.790  16.073 167.803  1.00  0.00     0.041 C 
ATOM     13  O   UNL     1       7.693  15.362 168.317  1.00  0.00    -0.550 OA
ATOM     14  O   UNL     1       5.823  15.482 166.999  1.00  0.00    -0.550 OA
ENDBRANCH  11  12
ENDBRANCH  10  11
ENDBRANCH   9  10
ENDBRANCH   8   9
ENDBRANCH   7   8
ENDBRANCH   6   7
ENDBRANCH   5   6
ENDBRANCH   4   5
ENDBRANCH   3   4
ENDBRANCH   2   3
ENDBRANCH   1   2
BRANCH   1  15
ATOM     15  C   UNL     1      11.609  14.681 160.684  1.00  0.00     0.000 C 
BRANCH  15  16
ATOM     16  C   UNL     1      10.591  15.815 160.847  1.00  0.00     0.000 C 
BRANCH  16  17
ATOM     17  C   UNL     1      11.032  17.067 160.073  1.00  0.00     0.000 C 
BRANCH  17  18
ATOM     18  C   UNL     1      11.292  18.279 160.984  1.00  0.00    -0.000 C 
BRANCH  18  19
ATOM     19  C   UNL     1      11.323  17.974 162.494  1.00  0.00    -0.000 C 
BRANCH  19  20
ATOM     20  C   UNL     1      12.742  18.016 163.087  1.00  0.00    -0.000 C 
BRANCH  20  21
ATOM     21  C   UNL     1      13.206  16.653 163.634  1.00  0.00    -0.000 C 
BRANCH  21  22
ATOM     22  C   UNL     1      14.381  16.004 162.878  1.00  0.00    -0.000 C 
BRANCH  22  23
ATOM     23  C   UNL     1      14.448  14.479 163.070  1.00  0.00    -0.000 C 
BRANCH  23  24
ATOM     24  C   UNL     1      15.877  13.983 163.342  1.00  0.00    -0.000 C 
BRANCH  24  25
ATOM     25  C   UNL     1      16.847  14.324 162.201  1.00  0.00    -0.003 C 
ATOM     26  C   UNL     1      18.284  13.969 162.577  1.00  0.00     0.004 C 
ENDBRANCH  24  25
ENDBRANCH  23  24
ENDBRANCH  22  23
ENDBRANCH  21  22
ENDBRANCH  20  21
ENDBRANCH  19  20
ENDBRANCH  18  19
ENDBRANCH  17  18
ENDBRANCH  16  17
ENDBRANCH  15  16
ENDBRANCH   1  15
TORSDOF 22
ENDMDL
MODEL 4
REMARK VINA RESULT:    -4.777      3.929      6.969
REMARK INTER + INTRA:         -14.089
REMARK INTER:                 -11.185
REMARK INTRA:                  -2.904
REMARK UNBOUND:                -3.167
REMARK SMILES CCCCCCCCCCCCCCCCCCCCCCCC(=O)[O-]
REMARK SMILES IDX 13 1 14 2 15 3 16 4 17 5 18 6 19 7 20 8 21 9 22 10 23 11
REMARK SMILES IDX 24 12 25 13 26 14 12 15 11 16 10 17 9 18 8 19 7 20 6 21 5 22
REMARK SMILES IDX 4 23 3 24 2 25 1 26
REMARK H PARENT
REMARK Flexibility Score: inf
ROOT
ATOM      1  C   UNL     1      10.423  18.404 163.423  1.00  0.00     0.000 C 
ENDROOT
BRANCH   1   2
ATOM      2  C   UNL     1      11.626  18.505 162.475  1.00  0.00     0.000 C 
BRANCH   2   3
ATOM      3  C   UNL     1      11.227  18.900 161.042  1.00  0.00     0.000 C 
BRANCH   3   4
ATOM      4  C   UNL     1      11.332  17.770 159.998  1.00  0.00     0.000 C 
BRANCH   4   5
ATOM      5  C   UNL     1      11.332  16.342 160.574  1.00  0.00     0.000 C 
BRANCH   5   6
ATOM      6  C   UNL     1      12.388  15.437 159.917  1.00  0.00     0.000 C 
BRANCH   6   7
ATOM      7  C   UNL     1      13.484  14.990 160.900  1.00  0.00     0.000 C 
BRANCH   7   8
ATOM      8  C   UNL     1      13.520  15.758 162.235  1.00  0.00     0.000 C 
BRANCH   8   9
ATOM      9  C   UNL     1      14.737  15.415 163.120  1.00  0.00     0.000 C 
BRANCH   9  10
ATOM     10  C   UNL     1      15.189  13.957 162.948  1.00  0.00     0.006 C 
BRANCH  10  11
ATOM     11  C   UNL     1      16.624  13.764 163.447  1.00  0.00     0.053 C 
BRANCH  11  12
ATOM     12  C   UNL     1      17.603  14.091 162.364  1.00  0.00     0.041 C 
ATOM     13  O   UNL     1      17.222  14.164 161.166  1.00  0.00    -0.550 OA
ATOM     14  O   UNL     1      18.927  14.366 162.683  1.00  0.00    -0.550 OA
ENDBRANCH  11  12
ENDBRANCH  10  11
ENDBRANCH   9  10
ENDBRANCH   8   9
ENDBRANCH   7   8
ENDBRANCH   6   7
ENDBRANCH   5   6
ENDBRANCH   4   5
ENDBRANCH   3   4
ENDBRANCH   2   3
ENDBRANCH   1   2
BRANCH   1  15
ATOM     15  C   UNL     1      10.188  16.953 163.859  1.00  0.00     0.000 C 
BRANCH  15  16
ATOM     16  C   UNL     1       9.563  16.894 165.258  1.00  0.00     0.000 C 
BRANCH  16  17
ATOM     17  C   UNL     1      10.294  15.875 166.146  1.00  0.00     0.000 C 
BRANCH  17  18
ATOM     18  C   UNL     1      11.503  15.225 165.449  1.00  0.00    -0.000 C 
BRANCH  18  19
ATOM     19  C   UNL     1      11.518  13.685 165.459  1.00  0.00    -0.000 C 
BRANCH  19  20
ATOM     20  C   UNL     1      11.918  13.078 164.103  1.00  0.00    -0.000 C 
BRANCH  20  21
ATOM     21  C   UNL     1      10.714  12.841 163.171  1.00  0.00    -0.000 C 
BRANCH  21  22
ATOM     22  C   UNL     1      11.053  12.712 161.674  1.00  0.00    -0.000 C 
BRANCH  22  23
ATOM     23  C   UNL     1      10.197  11.656 160.954  1.00  0.00    -0.000 C 
BRANCH  23  24
ATOM     24  C   UNL     1       9.754  10.520 161.890  1.00  0.00    -0.000 C 
BRANCH  24  25
ATOM     25  C   UNL     1       9.337   9.255 161.124  1.00  0.00    -0.003 C 
ATOM     26  C   UNL     1       7.950   8.784 161.555  1.00  0.00     0.004 C 
ENDBRANCH  24  25
ENDBRANCH  23  24
ENDBRANCH  22  23
ENDBRANCH  21  22
ENDBRANCH  20  21
ENDBRANCH  19  20
ENDBRANCH  18  19
ENDBRANCH  17  18
ENDBRANCH  16  17
ENDBRANCH  15  16
ENDBRANCH   1  15
TORSDOF 22
ENDMDL
MODEL 5
REMARK VINA RESULT:    -4.760      1.595      4.179
REMARK INTER + INTRA:         -14.050
REMARK INTER:                 -10.843
REMARK INTRA:                  -3.207
REMARK UNBOUND:                -3.167
REMARK SMILES CCCCCCCCCCCCCCCCCCCCCCCC(=O)[O-]
REMARK SMILES IDX 13 1 14 2 15 3 16 4 17 5 18 6 19 7 20 8 21 9 22 10 23 11
REMARK SMILES IDX 24 12 25 13 26 14 12 15 11 16 10 17 9 18 8 19 7 20 6 21 5 22
REMARK SMILES IDX 4 23 3 24 2 25 1 26
REMARK H PARENT
REMARK Flexibility Score: inf
ROOT
ATOM      1  C   UNL     1      11.276  18.764 161.656  1.00  0.00     0.000 C 
ENDROOT
BRANCH   1   2
ATOM      2  C   UNL     1      11.930  18.901 163.038  1.00  0.00     0.000 C 
BRANCH   2   3
ATOM      3  C   UNL     1      13.223  18.078 163.172  1.00  0.00     0.000 C 
BRANCH   3   4
ATOM      4  C   UNL     1      13.172  16.943 164.214  1.00  0.00     0.000 C 
BRANCH   4   5
ATOM      5  C   UNL     1      11.869  16.123 164.227  1.00  0.00     0.000 C 
BRANCH   5   6
ATOM      6  C   UNL     1      11.477  15.656 165.639  1.00  0.00     0.000 C 
BRANCH   6   7
ATOM      7  C   UNL     1      10.102  16.186 166.082  1.00  0.00     0.000 C 
BRANCH   7   8
ATOM      8  C   UNL     1       9.346  17.010 165.022  1.00  0.00     0.000 C 
BRANCH   8   9
ATOM      9  C   UNL     1       8.606  18.237 165.597  1.00  0.00     0.000 C 
BRANCH   9  10
ATOM     10  C   UNL     1       7.267  17.858 166.249  1.00  0.00     0.006 C 
BRANCH  10  11
ATOM     11  C   UNL     1       7.442  17.578 167.744  1.00  0.00     0.053 C 
BRANCH  11  12
ATOM     12  C   UNL     1       6.873  16.239 168.095  1.00  0.00     0.041 C 
ATOM     13  O   UNL     1       6.215  15.586 167.243  1.00  0.00    -0.550 OA
ATOM     14  O   UNL     1       7.113  15.689 169.349  1.00  0.00    -0.550 OA
ENDBRANCH  11  12
ENDBRANCH  10  11
ENDBRANCH   9  10
ENDBRANCH   8   9
ENDBRANCH   7   8
ENDBRANCH   6   7
ENDBRANCH   5   6
ENDBRANCH   4   5
ENDBRANCH   3   4
ENDBRANCH   2   3
ENDBRANCH   1   2
BRANCH   1  15
ATOM     15  C   UNL     1      10.643  17.379 161.482  1.00  0.00     0.000 C 
BRANCH  15  16
ATOM     16  C   UNL     1      11.275  16.629 160.304  1.00  0.00     0.000 C 
BRANCH  16  17
ATOM     17  C   UNL     1      11.042  15.115 160.425  1.00  0.00     0.000 C 
BRANCH  17  18
ATOM     18  C   UNL     1       9.880  14.757 161.369  1.00  0.00    -0.000 C 
BRANCH  18  19
ATOM     19  C   UNL     1       9.934  13.341 161.972  1.00  0.00    -0.000 C 
BRANCH  19  20
ATOM     20  C   UNL     1      11.348  12.734 161.956  1.00  0.00    -0.000 C 
BRANCH  20  21
ATOM     21  C   UNL     1      12.064  12.841 163.316  1.00  0.00    -0.000 C 
BRANCH  21  22
ATOM     22  C   UNL     1      13.588  13.051 163.245  1.00  0.00    -0.000 C 
BRANCH  22  23
ATOM     23  C   UNL     1      14.005  14.052 162.153  1.00  0.00    -0.000 C 
BRANCH  23  24
ATOM     24  C   UNL     1      15.308  14.789 162.499  1.00  0.00    -0.000 C 
BRANCH  24  25
ATOM     25  C   UNL     1      16.419  13.837 162.967  1.00  0.00    -0.003 C 
ATOM     26  C   UNL     1      17.749  14.175 162.299  1.00  0.00     0.004 C 
ENDBRANCH  24  25
ENDBRANCH  23  24
ENDBRANCH  22  23
ENDBRANCH  21  22
ENDBRANCH  20  21
ENDBRANCH  19  20
ENDBRANCH  18  19
ENDBRANCH  17  18
ENDBRANCH  16  17
ENDBRANCH  15  16
ENDBRANCH   1  15
TORSDOF 22
ENDMDL
MODEL 6
REMARK VINA RESULT:    -4.739      3.018      7.052
REMARK INTER + INTRA:         -14.001
REMARK INTER:                 -11.211
REMARK INTRA:                  -2.790
REMARK UNBOUND:                -3.167
REMARK SMILES CCCCCCCCCCCCCCCCCCCCCCCC(=O)[O-]
REMARK SMILES IDX 13 1 14 2 15 3 16 4 17 5 18 6 19 7 20 8 21 9 22 10 23 11
REMARK SMILES IDX 24 12 25 13 26 14 12 15 11 16 10 17 9 18 8 19 7 20 6 21 5 22
REMARK SMILES IDX 4 23 3 24 2 25 1 26
REMARK H PARENT
REMARK Flexibility Score: inf
ROOT
ATOM      1  C   UNL     1      10.951  15.291 160.990  1.00  0.00     0.000 C 
ENDROOT
BRANCH   1   2
ATOM      2  C   UNL     1       9.734  14.693 161.709  1.00  0.00     0.000 C 
BRANCH   2   3
ATOM      3  C   UNL     1       9.880  13.185 161.980  1.00  0.00     0.000 C 
BRANCH   3   4
ATOM      4  C   UNL     1      11.303  12.621 161.795  1.00  0.00     0.000 C 
BRANCH   4   5
ATOM      5  C   UNL     1      12.225  12.751 163.021  1.00  0.00     0.000 C 
BRANCH   5   6
ATOM      6  C   UNL     1      11.447  12.799 164.347  1.00  0.00     0.000 C 
BRANCH   6   7
ATOM      7  C   UNL     1      11.392  14.211 164.955  1.00  0.00     0.000 C 
BRANCH   7   8
ATOM      8  C   UNL     1      12.709  15.008 164.881  1.00  0.00     0.000 C 
BRANCH   8   9
ATOM      9  C   UNL     1      12.780  15.987 163.690  1.00  0.00     0.000 C 
BRANCH   9  10
ATOM     10  C   UNL     1      14.210  16.146 163.151  1.00  0.00     0.006 C 
BRANCH  10  11
ATOM     11  C   UNL     1      14.617  14.935 162.306  1.00  0.00     0.053 C 
BRANCH  11  12
ATOM     12  C   UNL     1      15.803  14.252 162.911  1.00  0.00     0.041 C 
ATOM     13  O   UNL     1      15.665  13.528 163.932  1.00  0.00    -0.550 OA
ATOM     14  O   UNL     1      17.053  14.374 162.316  1.00  0.00    -0.550 OA
ENDBRANCH  11  12
ENDBRANCH  10  11
ENDBRANCH   9  10
ENDBRANCH   8   9
ENDBRANCH   7   8
ENDBRANCH   6   7
ENDBRANCH   5   6
ENDBRANCH   4   5
ENDBRANCH   3   4
ENDBRANCH   2   3
ENDBRANCH   1   2
BRANCH   1  15
ATOM     15  C   UNL     1      10.552  16.520 160.165  1.00  0.00     0.000 C 
BRANCH  15  16
ATOM     16  C   UNL     1      11.584  17.644 160.319  1.00  0.00     0.000 C 
BRANCH  16  17
ATOM     17  C   UNL     1      10.986  18.840 161.075  1.00  0.00     0.000 C 
BRANCH  17  18
ATOM     18  C   UNL     1      11.391  18.878 162.560  1.00  0.00    -0.000 C 
BRANCH  18  19
ATOM     19  C   UNL     1      10.222  18.836 163.562  1.00  0.00    -0.000 C 
BRANCH  19  20
ATOM     20  C   UNL     1      10.045  17.458 164.223  1.00  0.00    -0.000 C 
BRANCH  20  21
ATOM     21  C   UNL     1       9.077  17.485 165.421  1.00  0.00    -0.000 C 
BRANCH  21  22
ATOM     22  C   UNL     1       8.211  18.752 165.541  1.00  0.00    -0.000 C 
BRANCH  22  23
ATOM     23  C   UNL     1       6.814  18.471 166.120  1.00  0.00    -0.000 C 
BRANCH  23  24
ATOM     24  C   UNL     1       6.597  16.982 166.437  1.00  0.00    -0.000 C 
BRANCH  24  25
ATOM     25  C   UNL     1       6.531  16.704 167.947  1.00  0.00    -0.003 C 
ATOM     26  C   UNL     1       7.465  15.562 168.336  1.00  0.00     0.004 C 
ENDBRANCH  24  25
ENDBRANCH  23  24
ENDBRANCH  22  23
ENDBRANCH  21  22
ENDBRANCH  20  21
ENDBRANCH  19  20
ENDBRANCH  18  19
ENDBRANCH  17  18
ENDBRANCH  16  17
ENDBRANCH  15  16
ENDBRANCH   1  15
TORSDOF 22
ENDMDL
MODEL 7
REMARK VINA RESULT:    -4.722      1.551      4.432
REMARK INTER + INTRA:         -13.961
REMARK INTER:                 -11.064
REMARK INTRA:                  -2.897
REMARK UNBOUND:                -3.167
REMARK SMILES CCCCCCCCCCCCCCCCCCCCCCCC(=O)[O-]
REMARK SMILES IDX 13 1 14 2 15 3 16 4 17 5 18 6 19 7 20 8 21 9 22 10 23 11
REMARK SMILES IDX 24 12 25 13 26 14 12 15 11 16 10 17 9 18 8 19 7 20 6 21 5 22
REMARK SMILES IDX 4 23 3 24 2 25 1 26
REMARK H PARENT
REMARK Flexibility Score: inf
ROOT
ATOM      1  C   UNL     1      11.936  16.569 160.433  1.00  0.00     0.000 C 
ENDROOT
BRANCH   1   2
ATOM      2  C   UNL     1      10.934  17.697 160.149  1.00  0.00     0.000 C 
BRANCH   2   3
ATOM      3  C   UNL     1      11.260  18.993 160.910  1.00  0.00     0.000 C 
BRANCH   3   4
ATOM      4  C   UNL     1      11.658  18.802 162.388  1.00  0.00     0.000 C 
BRANCH   4   5
ATOM      5  C   UNL     1      10.482  18.617 163.364  1.00  0.00     0.000 C 
BRANCH   5   6
ATOM      6  C   UNL     1      10.514  17.255 164.080  1.00  0.00     0.000 C 
BRANCH   6   7
ATOM      7  C   UNL     1       9.429  17.126 165.163  1.00  0.00     0.000 C 
BRANCH   7   8
ATOM      8  C   UNL     1       8.597  18.399 165.413  1.00  0.00     0.000 C 
BRANCH   8   9
ATOM      9  C   UNL     1       7.510  18.231 166.495  1.00  0.00     0.000 C 
BRANCH   9  10
ATOM     10  C   UNL     1       6.792  16.877 166.395  1.00  0.00     0.006 C 
BRANCH  10  11
ATOM     11  C   UNL     1       6.118  16.512 167.721  1.00  0.00     0.053 C 
BRANCH  11  12
ATOM     12  C   UNL     1       7.083  15.807 168.621  1.00  0.00     0.041 C 
ATOM     13  O   UNL     1       6.774  15.566 169.818  1.00  0.00    -0.550 OA
ATOM     14  O   UNL     1       8.305  15.371 168.124  1.00  0.00    -0.550 OA
ENDBRANCH  11  12
ENDBRANCH  10  11
ENDBRANCH   9  10
ENDBRANCH   8   9
ENDBRANCH   7   8
ENDBRANCH   6   7
ENDBRANCH   5   6
ENDBRANCH   4   5
ENDBRANCH   3   4
ENDBRANCH   2   3
ENDBRANCH   1   2
BRANCH   1  15
ATOM     15  C   UNL     1      11.243  15.202 160.420  1.00  0.00     0.000 C 
BRANCH  15  16
ATOM     16  C   UNL     1       9.813  15.305 160.964  1.00  0.00     0.000 C 
BRANCH  16  17
ATOM     17  C   UNL     1       9.592  14.322 162.124  1.00  0.00     0.000 C 
BRANCH  17  18
ATOM     18  C   UNL     1      10.136  12.912 161.831  1.00  0.00    -0.000 C 
BRANCH  18  19
ATOM     19  C   UNL     1      11.009  12.299 162.943  1.00  0.00    -0.000 C 
BRANCH  19  20
ATOM     20  C   UNL     1      11.316  13.288 164.080  1.00  0.00    -0.000 C 
BRANCH  20  21
ATOM     21  C   UNL     1      12.559  14.155 163.805  1.00  0.00    -0.000 C 
BRANCH  21  22
ATOM     22  C   UNL     1      13.599  13.533 162.853  1.00  0.00    -0.000 C 
BRANCH  22  23
ATOM     23  C   UNL     1      14.527  14.580 162.214  1.00  0.00    -0.000 C 
BRANCH  23  24
ATOM     24  C   UNL     1      15.909  14.629 162.884  1.00  0.00    -0.000 C 
BRANCH  24  25
ATOM     25  C   UNL     1      16.964  13.813 162.121  1.00  0.00    -0.003 C 
ATOM     26  C   UNL     1      18.376  14.250 162.500  1.00  0.00     0.004 C 
ENDBRANCH  24  25
ENDBRANCH  23  24
ENDBRANCH  22  23
ENDBRANCH  21  22
ENDBRANCH  20  21
ENDBRANCH  19  20
ENDBRANCH  18  19
ENDBRANCH  17  18
ENDBRANCH  16  17
ENDBRANCH  15  16
ENDBRANCH   1  15
TORSDOF 22
ENDMDL
MODEL 8
REMARK VINA RESULT:    -4.612      2.892      7.027
REMARK INTER + INTRA:         -13.711
REMARK INTER:                 -10.738
REMARK INTRA:                  -2.974
REMARK UNBOUND:                -3.167
REMARK SMILES CCCCCCCCCCCCCCCCCCCCCCCC(=O)[O-]
REMARK SMILES IDX 13 1 14 2 15 3 16 4 17 5 18 6 19 7 20 8 21 9 22 10 23 11
REMARK SMILES IDX 24 12 25 13 26 14 12 15 11 16 10 17 9 18 8 19 7 20 6 21 5 22
REMARK SMILES IDX 4 23 3 24 2 25 1 26
REMARK H PARENT
REMARK Flexibility Score: inf
ROOT
ATOM      1  C   UNL     1      11.256  12.666 164.479  1.00  0.00     0.000 C 
ENDROOT
BRANCH   1   2
ATOM      2  C   UNL     1      11.880  12.972 163.111  1.00  0.00     0.000 C 
BRANCH   2   3
ATOM      3  C   UNL     1      11.055  12.413 161.939  1.00  0.00     0.000 C 
BRANCH   3   4
ATOM      4  C   UNL     1       9.646  13.019 161.783  1.00  0.00     0.000 C 
BRANCH   4   5
ATOM      5  C   UNL     1       9.574  14.552 161.898  1.00  0.00     0.000 C 
BRANCH   5   6
ATOM      6  C   UNL     1       9.987  15.265 160.599  1.00  0.00     0.000 C 
BRANCH   6   7
ATOM      7  C   UNL     1      11.289  16.071 160.749  1.00  0.00     0.000 C 
BRANCH   7   8
ATOM      8  C   UNL     1      12.412  15.690 159.764  1.00  0.00     0.000 C 
BRANCH   8   9
ATOM      9  C   UNL     1      13.533  14.837 160.396  1.00  0.00     0.000 C 
BRANCH   9  10
ATOM     10  C   UNL     1      13.564  14.957 161.928  1.00  0.00     0.006 C 
BRANCH  10  11
ATOM     11  C   UNL     1      14.919  15.480 162.411  1.00  0.00     0.053 C 
BRANCH  11  12
ATOM     12  C   UNL     1      15.737  14.364 162.980  1.00  0.00     0.041 C 
ATOM     13  O   UNL     1      15.236  13.578 163.827  1.00  0.00    -0.550 OA
ATOM     14  O   UNL     1      17.039  14.161 162.537  1.00  0.00    -0.550 OA
ENDBRANCH  11  12
ENDBRANCH  10  11
ENDBRANCH   9  10
ENDBRANCH   8   9
ENDBRANCH   7   8
ENDBRANCH   6   7
ENDBRANCH   5   6
ENDBRANCH   4   5
ENDBRANCH   3   4
ENDBRANCH   2   3
ENDBRANCH   1   2
BRANCH   1  15
ATOM     15  C   UNL     1      11.675  13.712 165.520  1.00  0.00     0.000 C 
BRANCH  15  16
ATOM     16  C   UNL     1      11.030  15.070 165.223  1.00  0.00     0.000 C 
BRANCH  16  17
ATOM     17  C   UNL     1      12.099  16.145 164.973  1.00  0.00     0.000 C 
BRANCH  17  18
ATOM     18  C   UNL     1      11.644  17.229 163.979  1.00  0.00    -0.000 C 
BRANCH  18  19
ATOM     19  C   UNL     1      10.125  17.477 163.927  1.00  0.00    -0.000 C 
BRANCH  19  20
ATOM     20  C   UNL     1       9.730  18.891 164.387  1.00  0.00    -0.000 C 
BRANCH  20  21
ATOM     21  C   UNL     1       8.648  18.887 165.483  1.00  0.00    -0.000 C 
BRANCH  21  22
ATOM     22  C   UNL     1       8.062  17.505 165.827  1.00  0.00    -0.000 C 
BRANCH  22  23
ATOM     23  C   UNL     1       7.933  17.269 167.342  1.00  0.00    -0.000 C 
BRANCH  23  24
ATOM     24  C   UNL     1       7.090  16.027 167.674  1.00  0.00    -0.000 C 
BRANCH  24  25
ATOM     25  C   UNL     1       5.596  16.232 167.379  1.00  0.00    -0.003 C 
ATOM     26  C   UNL     1       5.141  15.356 166.214  1.00  0.00     0.004 C 
ENDBRANCH  24  25
ENDBRANCH  23  24
ENDBRANCH  22  23
ENDBRANCH  21  22
ENDBRANCH  20  21
ENDBRANCH  19  20
ENDBRANCH  18  19
ENDBRANCH  17  18
ENDBRANCH  16  17
ENDBRANCH  15  16
ENDBRANCH   1  15
TORSDOF 22
ENDMDL
MODEL 9
REMARK VINA RESULT:    -4.560      3.051      7.023
REMARK INTER + INTRA:         -13.592
REMARK INTER:                 -10.314
REMARK INTRA:                  -3.278
REMARK UNBOUND:                -3.167
REMARK SMILES CCCCCCCCCCCCCCCCCCCCCCCC(=O)[O-]
REMARK SMILES IDX 13 1 14 2 15 3 16 4 17 5 18 6 19 7 20 8 21 9 22 10 23 11
REMARK SMILES IDX 24 12 25 13 26 14 12 15 11 16 10 17 9 18 8 19 7 20 6 21 5 22
REMARK SMILES IDX 4 23 3 24 2 25 1 26
REMARK H PARENT
REMARK Flexibility Score: inf
ROOT
ATOM      1  C   UNL     1      10.450  13.021 162.614  1.00  0.00     0.000 C 
ENDROOT
BRANCH   1   2
ATOM      2  C   UNL     1      10.576  14.425 162.005  1.00  0.00     0.000 C 
BRANCH   2   3
ATOM      3  C   UNL     1      11.312  14.428 160.655  1.00  0.00     0.000 C 
BRANCH   3   4
ATOM      4  C   UNL     1      11.916  15.785 160.241  1.00  0.00     0.000 C 
BRANCH   4   5
ATOM      5  C   UNL     1      10.895  16.915 160.011  1.00  0.00     0.000 C 
BRANCH   5   6
ATOM      6  C   UNL     1      11.293  18.225 160.712  1.00  0.00     0.000 C 
BRANCH   6   7
ATOM      7  C   UNL     1      11.193  18.136 162.245  1.00  0.00     0.000 C 
BRANCH   7   8
ATOM      8  C   UNL     1      12.538  18.218 162.993  1.00  0.00     0.000 C 
BRANCH   8   9
ATOM      9  C   UNL     1      12.993  16.877 163.607  1.00  0.00     0.000 C 
BRANCH   9  10
ATOM     10  C   UNL     1      14.410  16.483 163.159  1.00  0.00     0.006 C 
BRANCH  10  11
ATOM     11  C   UNL     1      14.427  15.070 162.567  1.00  0.00     0.053 C 
BRANCH  11  12
ATOM     12  C   UNL     1      15.621  14.313 163.055  1.00  0.00     0.041 C 
ATOM     13  O   UNL     1      15.513  13.510 164.019  1.00  0.00    -0.550 OA
ATOM     14  O   UNL     1      16.845  14.457 162.413  1.00  0.00    -0.550 OA
ENDBRANCH  11  12
ENDBRANCH  10  11
ENDBRANCH   9  10
ENDBRANCH   8   9
ENDBRANCH   7   8
ENDBRANCH   6   7
ENDBRANCH   5   6
ENDBRANCH   4   5
ENDBRANCH   3   4
ENDBRANCH   2   3
ENDBRANCH   1   2
BRANCH   1  15
ATOM     15  C   UNL     1      11.289  12.900 163.891  1.00  0.00     0.000 C 
BRANCH  15  16
ATOM     16  C   UNL     1      11.634  14.283 164.456  1.00  0.00     0.000 C 
BRANCH  16  17
ATOM     17  C   UNL     1      11.105  14.439 165.890  1.00  0.00     0.000 C 
BRANCH  17  18
ATOM     18  C   UNL     1      10.510  15.832 166.165  1.00  0.00    -0.000 C 
BRANCH  18  19
ATOM     19  C   UNL     1       9.672  16.427 165.017  1.00  0.00    -0.000 C 
BRANCH  19  20
ATOM     20  C   UNL     1       9.388  17.929 165.196  1.00  0.00    -0.000 C 
BRANCH  20  21
ATOM     21  C   UNL     1       7.954  18.217 165.678  1.00  0.00    -0.000 C 
BRANCH  21  22
ATOM     22  C   UNL     1       7.815  18.550 167.175  1.00  0.00    -0.000 C 
BRANCH  22  23
ATOM     23  C   UNL     1       6.774  17.673 167.891  1.00  0.00    -0.000 C 
BRANCH  23  24
ATOM     24  C   UNL     1       6.849  16.200 167.459  1.00  0.00    -0.000 C 
BRANCH  24  25
ATOM     25  C   UNL     1       7.553  15.315 168.499  1.00  0.00    -0.003 C 
ATOM     26  C   UNL     1       7.005  15.573 169.900  1.00  0.00     0.004 C 
ENDBRANCH  24  25
ENDBRANCH  23  24
ENDBRANCH  22  23
ENDBRANCH  21  22
ENDBRANCH  20  21
ENDBRANCH  19  20
ENDBRANCH  18  19
ENDBRANCH  17  18
ENDBRANCH  16  17
ENDBRANCH  15  16
ENDBRANCH   1  15
TORSDOF 22
ENDMDL
