MODEL 1
REMARK VINA RESULT:    -4.578      0.000      0.000
REMARK INTER + INTRA:          -8.939
REMARK INTER:                  -7.254
REMARK INTRA:                  -1.685
REMARK UNBOUND:                -1.685
REMARK SMILES CCCCCCCCCCCC(=O)[O-]
REMARK SMILES IDX 7 1 8 2 9 3 10 4 11 5 12 6 13 7 14 8 6 9 5 10 4 11 3 12 2 13
REMARK SMILES IDX 1 14
REMARK H PARENT
REMARK Flexibility Score: inf
ROOT
ATOM      1  C   UNL     1      13.494  13.218 162.709  1.00  0.00     0.000 C 
ENDROOT
BRANCH   1   2
ATOM      2  C   UNL     1      12.222  13.047 163.557  1.00  0.00     0.000 C 
BRANCH   2   3
ATOM      3  C   UNL     1      10.936  13.187 162.726  1.00  0.00     0.000 C 
BRANCH   3   4
ATOM      4  C   UNL     1      11.208  13.646 161.286  1.00  0.00     0.006 C 
BRANCH   4   5
ATOM      5  C   UNL     1      10.539  14.995 161.006  1.00  0.00     0.053 C 
BRANCH   5   6
ATOM      6  C   UNL     1      11.486  15.916 160.305  1.00  0.00     0.041 C 
ATOM      7  O   UNL     1      11.173  17.121 160.114  1.00  0.00    -0.550 OA
ATOM      8  O   UNL     1      12.694  15.433 159.819  1.00  0.00    -0.550 OA
ENDBRANCH   5   6
ENDBRANCH   4   5
ENDBRANCH   3   4
ENDBRANCH   2   3
ENDBRANCH   1   2
BRANCH   1   9
ATOM      9  C   UNL     1      14.449  14.290 163.268  1.00  0.00     0.000 C 
BRANCH   9  10
ATOM     10  C   UNL     1      14.081  15.744 162.917  1.00  0.00    -0.000 C 
BRANCH  10  11
ATOM     11  C   UNL     1      13.387  16.483 164.073  1.00  0.00    -0.000 C 
BRANCH  11  12
ATOM     12  C   UNL     1      12.078  17.162 163.637  1.00  0.00    -0.000 C 
BRANCH  12  13
ATOM     13  C   UNL     1      10.843  16.565 164.329  1.00  0.00    -0.003 C 
ATOM     14  C   UNL     1      11.237  15.785 165.579  1.00  0.00     0.004 C 
ENDBRANCH  12  13
ENDBRANCH  11  12
ENDBRANCH  10  11
ENDBRANCH   9  10
ENDBRANCH   1   9
TORSDOF 10
ENDMDL
MODEL 2
REMARK VINA RESULT:    -4.535      1.059      3.278
REMARK INTER + INTRA:          -8.870
REMARK INTER:                  -7.580
REMARK INTRA:                  -1.290
REMARK UNBOUND:                -1.685
REMARK SMILES CCCCCCCCCCCC(=O)[O-]
REMARK SMILES IDX 7 1 8 2 9 3 10 4 11 5 12 6 13 7 14 8 6 9 5 10 4 11 3 12 2 13
REMARK SMILES IDX 1 14
REMARK H PARENT
REMARK Flexibility Score: inf
ROOT
ATOM      1  C   UNL     1      13.798  16.454 163.292  1.00  0.00     0.000 C 
ENDROOT
BRANCH   1   2
ATOM      2  C   UNL     1      12.717  16.224 164.363  1.00  0.00     0.000 C 
BRANCH   2   3
ATOM      3  C   UNL     1      11.325  16.688 163.905  1.00  0.00     0.000 C 
BRANCH   3   4
ATOM      4  C   UNL     1      11.351  17.369 162.528  1.00  0.00     0.006 C 
BRANCH   4   5
ATOM      5  C   UNL     1      10.812  16.432 161.443  1.00  0.00     0.053 C 
BRANCH   5   6
ATOM      6  C   UNL     1      11.560  16.626 160.163  1.00  0.00     0.041 C 
ATOM      7  O   UNL     1      11.355  17.649 159.458  1.00  0.00    -0.550 OA
ATOM      8  O   UNL     1      12.448  15.653 159.721  1.00  0.00    -0.550 OA
ENDBRANCH   5   6
ENDBRANCH   4   5
ENDBRANCH   3   4
ENDBRANCH   2   3
ENDBRANCH   1   2
BRANCH   1   9
ATOM      9  C   UNL     1      14.297  15.145 162.652  1.00  0.00     0.000 C 
BRANCH   9  10
ATOM     10  C   UNL     1      13.753  13.852 163.290  1.00  0.00    -0.000 C 
BRANCH  10  11
ATOM     11  C   UNL     1      12.768  13.101 162.378  1.00  0.00    -0.000 C 
BRANCH  11  12
ATOM     12  C   UNL     1      11.385  12.923 163.026  1.00  0.00    -0.000 C 
BRANCH  12  13
ATOM     13  C   UNL     1      10.254  12.838 161.990  1.00  0.00    -0.003 C 
ATOM     14  C   UNL     1      10.123  11.422 161.436  1.00  0.00     0.004 C 
ENDBRANCH  12  13
ENDBRANCH  11  12
ENDBRANCH  10  11
ENDBRANCH   9  10
ENDBRANCH   1   9
TORSDOF 10
ENDMDL
MODEL 3
REMARK VINA RESULT:    -4.511      1.914      3.473
REMARK INTER + INTRA:          -8.833
REMARK INTER:                  -7.316
REMARK INTRA:                  -1.518
REMARK UNBOUND:                -1.685
REMARK SMILES CCCCCCCCCCCC(=O)[O-]
REMARK SMILES IDX 7 1 8 2 9 3 10 4 11 5 12 6 13 7 14 8 6 9 5 10 4 11 3 12 2 13
REMARK SMILES IDX 1 14
REMARK H PARENT
REMARK Flexibility Score: inf
ROOT
ATOM      1  C   UNL     1       9.949  13.107 161.778  1.00  0.00     0.000 C 
ENDROOT
BRANCH   1   2
ATOM      2  C   UNL     1      11.348  12.765 162.318  1.00  0.00     0.000 C 
BRANCH   2   3
ATOM      3  C   UNL     1      11.525  13.164 163.792  1.00  0.00     0.000 C 
BRANCH   3   4
ATOM      4  C   UNL     1      12.840  13.914 164.050  1.00  0.00     0.006 C 
BRANCH   4   5
ATOM      5  C   UNL     1      13.854  13.640 162.936  1.00  0.00     0.053 C 
BRANCH   5   6
ATOM      6  C   UNL     1      14.917  14.692 162.922  1.00  0.00     0.041 C 
ATOM      7  O   UNL     1      14.603  15.911 162.970  1.00  0.00    -0.550 OA
ATOM      8  O   UNL     1      16.253  14.330 162.806  1.00  0.00    -0.550 OA
ENDBRANCH   5   6
ENDBRANCH   4   5
ENDBRANCH   3   4
ENDBRANCH   2   3
ENDBRANCH   1   2
BRANCH   1   9
ATOM      9  C   UNL     1       9.676  14.623 161.737  1.00  0.00     0.000 C 
BRANCH   9  10
ATOM     10  C   UNL     1      10.525  15.417 160.726  1.00  0.00    -0.000 C 
BRANCH  10  11
ATOM     11  C   UNL     1      11.575  16.316 161.399  1.00  0.00    -0.000 C 
BRANCH  11  12
ATOM     12  C   UNL     1      10.944  17.373 162.319  1.00  0.00    -0.000 C 
BRANCH  12  13
ATOM     13  C   UNL     1      11.369  17.211 163.786  1.00  0.00    -0.003 C 
ATOM     14  C   UNL     1      10.180  16.832 164.664  1.00  0.00     0.004 C 
ENDBRANCH  12  13
ENDBRANCH  11  12
ENDBRANCH  10  11
ENDBRANCH   9  10
ENDBRANCH   1   9
TORSDOF 10
ENDMDL
MODEL 4
REMARK VINA RESULT:    -4.507      1.945      3.492
REMARK INTER + INTRA:          -8.826
REMARK INTER:                  -7.293
REMARK INTRA:                  -1.534
REMARK UNBOUND:                -1.685
REMARK SMILES CCCCCCCCCCCC(=O)[O-]
REMARK SMILES IDX 7 1 8 2 9 3 10 4 11 5 12 6 13 7 14 8 6 9 5 10 4 11 3 12 2 13
REMARK SMILES IDX 1 14
REMARK H PARENT
REMARK Flexibility Score: inf
ROOT
ATOM      1  C   UNL     1      13.680  16.440 163.591  1.00  0.00     0.000 C 
ENDROOT
BRANCH   1   2
ATOM      2  C   UNL     1      14.115  15.283 162.676  1.00  0.00     0.000 C 
BRANCH   2   3
ATOM      3  C   UNL     1      13.672  13.910 163.209  1.00  0.00     0.000 C 
BRANCH   3   4
ATOM      4  C   UNL     1      12.744  13.168 162.235  1.00  0.00     0.006 C 
BRANCH   4   5
ATOM      5  C   UNL     1      11.410  12.825 162.905  1.00  0.00     0.053 C 
BRANCH   5   6
ATOM      6  C   UNL     1      10.306  12.805 161.896  1.00  0.00     0.041 C 
ATOM      7  O   UNL     1       9.340  13.606 161.999  1.00  0.00    -0.550 OA
ATOM      8  O   UNL     1      10.318  11.869 160.870  1.00  0.00    -0.550 OA
ENDBRANCH   5   6
ENDBRANCH   4   5
ENDBRANCH   3   4
ENDBRANCH   2   3
ENDBRANCH   1   2
BRANCH   1   9
ATOM      9  C   UNL     1      12.371  16.146 164.348  1.00  0.00     0.000 C 
BRANCH   9  10
ATOM     10  C   UNL     1      11.082  16.592 163.632  1.00  0.00    -0.000 C 
BRANCH  10  11
ATOM     11  C   UNL     1      11.211  17.975 162.972  1.00  0.00    -0.000 C 
BRANCH  11  12
ATOM     12  C   UNL     1      11.116  17.908 161.439  1.00  0.00    -0.000 C 
BRANCH  12  13
ATOM     13  C   UNL     1      10.785  16.498 160.928  1.00  0.00    -0.003 C 
ATOM     14  C   UNL     1      11.865  15.993 159.975  1.00  0.00     0.004 C 
ENDBRANCH  12  13
ENDBRANCH  11  12
ENDBRANCH  10  11
ENDBRANCH   9  10
ENDBRANCH   1   9
TORSDOF 10
ENDMDL
MODEL 5
REMARK VINA RESULT:    -4.486      2.504      4.626
REMARK INTER + INTRA:          -8.793
REMARK INTER:                  -7.415
REMARK INTRA:                  -1.378
REMARK UNBOUND:                -1.685
REMARK SMILES CCCCCCCCCCCC(=O)[O-]
REMARK SMILES IDX 7 1 8 2 9 3 10 4 11 5 12 6 13 7 14 8 6 9 5 10 4 11 3 12 2 13
REMARK SMILES IDX 1 14
REMARK H PARENT
REMARK Flexibility Score: inf
ROOT
ATOM      1  C   UNL     1       9.534  14.658 161.989  1.00  0.00     0.000 C 
ENDROOT
BRANCH   1   2
ATOM      2  C   UNL     1      10.407  15.565 161.105  1.00  0.00     0.000 C 
BRANCH   2   3
ATOM      3  C   UNL     1      11.189  16.607 161.921  1.00  0.00     0.000 C 
BRANCH   3   4
ATOM      4  C   UNL     1      10.674  16.740 163.362  1.00  0.00     0.006 C 
BRANCH   4   5
ATOM      5  C   UNL     1      11.746  16.314 164.368  1.00  0.00     0.053 C 
BRANCH   5   6
ATOM      6  C   UNL     1      11.180  15.351 165.363  1.00  0.00     0.041 C 
ATOM      7  O   UNL     1      10.419  15.761 166.279  1.00  0.00    -0.550 OA
ATOM      8  O   UNL     1      11.532  14.008 165.309  1.00  0.00    -0.550 OA
ENDBRANCH   5   6
ENDBRANCH   4   5
ENDBRANCH   3   4
ENDBRANCH   2   3
ENDBRANCH   1   2
BRANCH   1   9
ATOM      9  C   UNL     1      10.145  13.261 162.204  1.00  0.00     0.000 C 
BRANCH   9  10
ATOM     10  C   UNL     1      11.401  12.957 161.365  1.00  0.00    -0.000 C 
BRANCH  10  11
ATOM     11  C   UNL     1      12.658  12.740 162.224  1.00  0.00    -0.000 C 
BRANCH  11  12
ATOM     12  C   UNL     1      13.642  13.918 162.137  1.00  0.00    -0.000 C 
BRANCH  12  13
ATOM     13  C   UNL     1      14.568  14.008 163.359  1.00  0.00    -0.003 C 
ATOM     14  C   UNL     1      16.009  14.280 162.936  1.00  0.00     0.004 C 
ENDBRANCH  12  13
ENDBRANCH  11  12
ENDBRANCH  10  11
ENDBRANCH   9  10
ENDBRANCH   1   9
TORSDOF 10
ENDMDL
MODEL 6
REMARK VINA RESULT:    -4.484      1.273      3.493
REMARK INTER + INTRA:          -8.790
REMARK INTER:                  -7.208
REMARK INTRA:                  -1.583
REMARK UNBOUND:                -1.685
REMARK SMILES CCCCCCCCCCCC(=O)[O-]
REMARK SMILES IDX 7 1 8 2 9 3 10 4 11 5 12 6 13 7 14 8 6 9 5 10 4 11 3 12 2 13
REMARK SMILES IDX 1 14
REMARK H PARENT
REMARK Flexibility Score: inf
ROOT
ATOM      1  C   UNL     1      11.140  14.746 164.903  1.00  0.00     0.000 C 
ENDROOT
BRANCH   1   2
ATOM      2  C   UNL     1      12.318  15.713 165.112  1.00  0.00     0.000 C 
BRANCH   2   3
ATOM      3  C   UNL     1      12.334  16.854 164.082  1.00  0.00     0.000 C 
BRANCH   3   4
ATOM      4  C   UNL     1      11.058  16.899 163.227  1.00  0.00     0.006 C 
BRANCH   4   5
ATOM      5  C   UNL     1      11.272  17.743 161.968  1.00  0.00     0.053 C 
BRANCH   5   6
ATOM      6  C   UNL     1      10.987  16.938 160.741  1.00  0.00     0.041 C 
ATOM      7  O   UNL     1      11.373  17.343 159.612  1.00  0.00    -0.550 OA
ATOM      8  O   UNL     1      10.251  15.763 160.835  1.00  0.00    -0.550 OA
ENDBRANCH   5   6
ENDBRANCH   4   5
ENDBRANCH   3   4
ENDBRANCH   2   3
ENDBRANCH   1   2
BRANCH   1   9
ATOM      9  C   UNL     1      11.587  13.350 164.428  1.00  0.00     0.000 C 
BRANCH   9  10
ATOM     10  C   UNL     1      11.532  13.126 162.905  1.00  0.00    -0.000 C 
BRANCH  10  11
ATOM     11  C   UNL     1      12.926  12.993 162.267  1.00  0.00    -0.000 C 
BRANCH  11  12
ATOM     12  C   UNL     1      13.415  14.309 161.643  1.00  0.00    -0.000 C 
BRANCH  12  13
ATOM     13  C   UNL     1      14.651  14.879 162.356  1.00  0.00    -0.003 C 
ATOM     14  C   UNL     1      15.219  13.876 163.355  1.00  0.00     0.004 C 
ENDBRANCH  12  13
ENDBRANCH  11  12
ENDBRANCH  10  11
ENDBRANCH   9  10
ENDBRANCH   1   9
TORSDOF 10
ENDMDL
MODEL 7
REMARK VINA RESULT:    -4.482      2.103      3.206
REMARK INTER + INTRA:          -8.787
REMARK INTER:                  -7.340
REMARK INTRA:                  -1.448
REMARK UNBOUND:                -1.685
REMARK SMILES CCCCCCCCCCCC(=O)[O-]
REMARK SMILES IDX 7 1 8 2 9 3 10 4 11 5 12 6 13 7 14 8 6 9 5 10 4 11 3 12 2 13
REMARK SMILES IDX 1 14
REMARK H PARENT
REMARK Flexibility Score: inf
ROOT
ATOM      1  C   UNL     1      12.912  14.970 160.500  1.00  0.00     0.000 C 
ENDROOT
BRANCH   1   2
ATOM      2  C   UNL     1      13.683  15.132 161.821  1.00  0.00     0.000 C 
BRANCH   2   3
ATOM      3  C   UNL     1      13.534  13.911 162.743  1.00  0.00     0.000 C 
BRANCH   3   4
ATOM      4  C   UNL     1      12.593  12.843 162.167  1.00  0.00     0.006 C 
BRANCH   4   5
ATOM      5  C   UNL     1      11.295  12.763 162.976  1.00  0.00     0.053 C 
BRANCH   5   6
ATOM      6  C   UNL     1      10.118  12.609 162.067  1.00  0.00     0.041 C 
ATOM      7  O   UNL     1       9.315  13.565 161.901  1.00  0.00    -0.550 OA
ATOM      8  O   UNL     1       9.878  11.392 161.439  1.00  0.00    -0.550 OA
ENDBRANCH   5   6
ENDBRANCH   4   5
ENDBRANCH   3   4
ENDBRANCH   2   3
ENDBRANCH   1   2
BRANCH   1   9
ATOM      9  C   UNL     1      11.921  16.120 160.239  1.00  0.00     0.000 C 
BRANCH   9  10
ATOM     10  C   UNL     1      10.932  16.408 161.385  1.00  0.00    -0.000 C 
BRANCH  10  11
ATOM     11  C   UNL     1      11.209  17.743 162.097  1.00  0.00    -0.000 C 
BRANCH  11  12
ATOM     12  C   UNL     1      10.892  17.686 163.600  1.00  0.00    -0.000 C 
BRANCH  12  13
ATOM     13  C   UNL     1      10.518  16.273 164.073  1.00  0.00    -0.003 C 
ATOM     14  C   UNL     1      11.429  15.815 165.208  1.00  0.00     0.004 C 
ENDBRANCH  12  13
ENDBRANCH  11  12
ENDBRANCH  10  11
ENDBRANCH   9  10
ENDBRANCH   1   9
TORSDOF 10
ENDMDL
MODEL 8
REMARK VINA RESULT:    -4.456      1.549      3.557
REMARK INTER + INTRA:          -8.746
REMARK INTER:                  -7.346
REMARK INTRA:                  -1.401
REMARK UNBOUND:                -1.685
REMARK SMILES CCCCCCCCCCCC(=O)[O-]
REMARK SMILES IDX 7 1 8 2 9 3 10 4 11 5 12 6 13 7 14 8 6 9 5 10 4 11 3 12 2 13
REMARK SMILES IDX 1 14
REMARK H PARENT
REMARK Flexibility Score: inf
ROOT
ATOM      1  C   UNL     1      10.798  13.303 163.160  1.00  0.00     0.000 C 
ENDROOT
BRANCH   1   2
ATOM      2  C   UNL     1      11.557  13.488 164.484  1.00  0.00     0.000 C 
BRANCH   2   3
ATOM      3  C   UNL     1      11.574  14.952 164.955  1.00  0.00     0.000 C 
BRANCH   3   4
ATOM      4  C   UNL     1      10.674  15.859 164.101  1.00  0.00     0.006 C 
BRANCH   4   5
ATOM      5  C   UNL     1      11.475  17.021 163.507  1.00  0.00     0.053 C 
BRANCH   5   6
ATOM      6  C   UNL     1      11.093  17.247 162.079  1.00  0.00     0.041 C 
ATOM      7  O   UNL     1      10.623  16.302 161.391  1.00  0.00    -0.550 OA
ATOM      8  O   UNL     1      11.301  18.489 161.492  1.00  0.00    -0.550 OA
ENDBRANCH   5   6
ENDBRANCH   4   5
ENDBRANCH   3   4
ENDBRANCH   2   3
ENDBRANCH   1   2
BRANCH   1   9
ATOM      9  C   UNL     1      11.690  12.758 162.028  1.00  0.00     0.000 C 
BRANCH   9  10
ATOM     10  C   UNL     1      13.194  13.055 162.176  1.00  0.00    -0.000 C 
BRANCH  10  11
ATOM     11  C   UNL     1      13.570  14.482 161.743  1.00  0.00    -0.000 C 
BRANCH  11  12
ATOM     12  C   UNL     1      14.576  15.142 162.700  1.00  0.00    -0.000 C 
BRANCH  12  13
ATOM     13  C   UNL     1      15.561  14.134 163.311  1.00  0.00    -0.003 C 
ATOM     14  C   UNL     1      16.908  14.181 162.594  1.00  0.00     0.004 C 
ENDBRANCH  12  13
ENDBRANCH  11  12
ENDBRANCH  10  11
ENDBRANCH   9  10
ENDBRANCH   1   9
TORSDOF 10
ENDMDL
MODEL 9
REMARK VINA RESULT:    -4.455      2.544      4.376
REMARK INTER + INTRA:          -8.744
REMARK INTER:                  -7.264
REMARK INTRA:                  -1.480
REMARK UNBOUND:                -1.685
REMARK SMILES CCCCCCCCCCCC(=O)[O-]
REMARK SMILES IDX 7 1 8 2 9 3 10 4 11 5 12 6 13 7 14 8 6 9 5 10 4 11 3 12 2 13
REMARK SMILES IDX 1 14
REMARK H PARENT
REMARK Flexibility Score: inf
ROOT
ATOM      1  C   UNL     1      11.964  15.964 160.189  1.00  0.00     0.000 C 
ENDROOT
BRANCH   1   2
ATOM      2  C   UNL     1      10.981  16.176 161.354  1.00  0.00     0.000 C 
BRANCH   2   3
ATOM      3  C   UNL     1      11.125  17.563 162.002  1.00  0.00     0.000 C 
BRANCH   3   4
ATOM      4  C   UNL     1      11.062  17.510 163.536  1.00  0.00     0.006 C 
BRANCH   4   5
ATOM      5  C   UNL     1      10.436  16.196 164.013  1.00  0.00     0.053 C 
BRANCH   5   6
ATOM      6  C   UNL     1      10.978  15.812 165.353  1.00  0.00     0.041 C 
ATOM      7  O   UNL     1      10.218  15.776 166.357  1.00  0.00    -0.550 OA
ATOM      8  O   UNL     1      12.332  15.542 165.505  1.00  0.00    -0.550 OA
ENDBRANCH   5   6
ENDBRANCH   4   5
ENDBRANCH   3   4
ENDBRANCH   2   3
ENDBRANCH   1   2
BRANCH   1   9
ATOM      9  C   UNL     1      13.039  14.906 160.497  1.00  0.00     0.000 C 
BRANCH   9  10
ATOM     10  C   UNL     1      13.712  15.033 161.877  1.00  0.00    -0.000 C 
BRANCH  10  11
ATOM     11  C   UNL     1      13.475  13.809 162.776  1.00  0.00    -0.000 C 
BRANCH  11  12
ATOM     12  C   UNL     1      12.540  12.774 162.128  1.00  0.00    -0.000 C 
BRANCH  12  13
ATOM     13  C   UNL     1      11.154  12.733 162.788  1.00  0.00    -0.003 C 
ATOM     14  C   UNL     1      10.049  12.645 161.739  1.00  0.00     0.004 C 
ENDBRANCH  12  13
ENDBRANCH  11  12
ENDBRANCH  10  11
ENDBRANCH   9  10
ENDBRANCH   1   9
TORSDOF 10
ENDMDL
