MODEL 1
REMARK VINA RESULT:    -4.753      0.000      0.000
REMARK INTER + INTRA:          -7.486
REMARK INTER:                  -6.421
REMARK INTRA:                  -1.065
REMARK UNBOUND:                -1.065
REMARK SMILES CC(=O)CCC=C(C)CCC=C(C)C
REMARK SMILES IDX 7 1 6 2 8 3 9 4 10 5 11 6 13 7 12 8 14 9 5 10 4 11 2 12 3 13
REMARK SMILES IDX 1 14
REMARK H PARENT
REMARK Flexibility Score: inf
ROOT
ATOM      1  C   UNL     1       1.978 -23.609  23.925  1.00  0.00    -0.077 C 
ATOM      2  C   UNL     1       2.529 -24.339  22.928  1.00  0.00    -0.028 C 
ATOM      3  C   UNL     1       2.410 -23.769  25.364  1.00  0.00     0.039 C 
ENDROOT
BRANCH   1   4
ATOM      4  C   UNL     1       0.879 -22.619  23.594  1.00  0.00     0.034 C 
BRANCH   4   5
ATOM      5  C   UNL     1      -0.361 -23.312  23.010  1.00  0.00     0.032 C 
BRANCH   5   6
ATOM      6  C   UNL     1      -0.954 -24.307  23.980  1.00  0.00    -0.028 C 
ATOM      7  C   UNL     1      -0.413 -26.288  22.547  1.00  0.00     0.039 C 
ATOM      8  C   UNL     1      -1.012 -25.640  23.773  1.00  0.00    -0.080 C 
ATOM      9  C   UNL     1      -1.682 -26.499  24.814  1.00  0.00     0.039 C 
ENDBRANCH   5   6
ENDBRANCH   4   5
ENDBRANCH   1   4
BRANCH   2  10
ATOM     10  C   UNL     1       3.646 -25.333  23.115  1.00  0.00     0.035 C 
BRANCH  10  11
ATOM     11  C   UNL     1       5.001 -24.698  22.788  1.00  0.00     0.079 C 
BRANCH  11  12
ATOM     12  C   UNL     1       5.917 -24.752  23.979  1.00  0.00     0.130 C 
ATOM     13  O   UNL     1       6.845 -23.960  24.066  1.00  0.00    -0.300 OA
ATOM     14  C   UNL     1       5.717 -25.784  25.047  1.00  0.00     0.087 C 
ENDBRANCH  11  12
ENDBRANCH  10  11
ENDBRANCH   2  10
TORSDOF 6
ENDMDL
MODEL 2
REMARK VINA RESULT:    -4.704      2.252      5.418
REMARK INTER + INTRA:          -7.419
REMARK INTER:                  -6.340
REMARK INTRA:                  -1.079
REMARK UNBOUND:                -1.065
REMARK SMILES CC(=O)CCC=C(C)CCC=C(C)C
REMARK SMILES IDX 7 1 6 2 8 3 9 4 10 5 11 6 13 7 12 8 14 9 5 10 4 11 2 12 3 13
REMARK SMILES IDX 1 14
REMARK H PARENT
REMARK Flexibility Score: inf
ROOT
ATOM      1  C   UNL     1       2.683 -25.864  22.985  1.00  0.00    -0.077 C 
ATOM      2  C   UNL     1       2.127 -24.700  22.577  1.00  0.00    -0.028 C 
ATOM      3  C   UNL     1       1.859 -26.969  23.605  1.00  0.00     0.039 C 
ENDROOT
BRANCH   1   4
ATOM      4  C   UNL     1       4.179 -26.057  22.838  1.00  0.00     0.034 C 
BRANCH   4   5
ATOM      5  C   UNL     1       4.949 -24.743  23.035  1.00  0.00     0.032 C 
BRANCH   5   6
ATOM      6  C   UNL     1       5.886 -24.815  24.219  1.00  0.00    -0.028 C 
ATOM      7  C   UNL     1       4.148 -24.064  25.859  1.00  0.00     0.039 C 
ATOM      8  C   UNL     1       5.549 -24.485  25.485  1.00  0.00    -0.080 C 
ATOM      9  C   UNL     1       6.612 -24.562  26.551  1.00  0.00     0.039 C 
ENDBRANCH   5   6
ENDBRANCH   4   5
ENDBRANCH   1   4
BRANCH   2  10
ATOM     10  C   UNL     1       0.652 -24.391  22.638  1.00  0.00     0.035 C 
BRANCH  10  11
ATOM     11  C   UNL     1       0.419 -22.915  22.972  1.00  0.00     0.079 C 
BRANCH  11  12
ATOM     12  C   UNL     1       0.893 -22.600  24.364  1.00  0.00     0.130 C 
ATOM     13  O   UNL     1       1.698 -21.697  24.540  1.00  0.00    -0.300 OA
ATOM     14  C   UNL     1       0.407 -23.402  25.533  1.00  0.00     0.087 C 
ENDBRANCH  11  12
ENDBRANCH  10  11
ENDBRANCH   2  10
TORSDOF 6
ENDMDL
MODEL 3
REMARK VINA RESULT:    -4.666      2.768      6.549
REMARK INTER + INTRA:          -7.367
REMARK INTER:                  -6.723
REMARK INTRA:                  -0.644
REMARK UNBOUND:                -1.065
REMARK SMILES CC(=O)CCC=C(C)CCC=C(C)C
REMARK SMILES IDX 7 1 6 2 8 3 9 4 10 5 11 6 13 7 12 8 14 9 5 10 4 11 2 12 3 13
REMARK SMILES IDX 1 14
REMARK H PARENT
REMARK Flexibility Score: inf
ROOT
ATOM      1  C   UNL     1       3.848 -25.151  23.720  1.00  0.00    -0.077 C 
ATOM      2  C   UNL     1       2.500 -25.217  23.632  1.00  0.00    -0.028 C 
ATOM      3  C   UNL     1       4.709 -24.782  22.534  1.00  0.00     0.039 C 
ENDROOT
BRANCH   1   4
ATOM      4  C   UNL     1       4.518 -25.478  25.040  1.00  0.00     0.034 C 
BRANCH   4   5
ATOM      5  C   UNL     1       6.034 -25.242  24.987  1.00  0.00     0.032 C 
BRANCH   5   6
ATOM      6  C   UNL     1       6.416 -23.916  25.602  1.00  0.00    -0.028 C 
ATOM      7  C   UNL     1       7.917 -23.272  23.703  1.00  0.00     0.039 C 
ATOM      8  C   UNL     1       7.282 -23.036  25.053  1.00  0.00    -0.080 C 
ATOM      9  C   UNL     1       7.601 -21.775  25.815  1.00  0.00     0.039 C 
ENDBRANCH   5   6
ENDBRANCH   4   5
ENDBRANCH   1   4
BRANCH   2  10
ATOM     10  C   UNL     1       1.708 -24.888  22.392  1.00  0.00     0.035 C 
BRANCH  10  11
ATOM     11  C   UNL     1       0.208 -25.071  22.639  1.00  0.00     0.079 C 
BRANCH  11  12
ATOM     12  C   UNL     1      -0.401 -23.809  23.185  1.00  0.00     0.130 C 
ATOM     13  O   UNL     1      -1.411 -23.871  23.871  1.00  0.00    -0.300 OA
ATOM     14  C   UNL     1       0.207 -22.475  22.875  1.00  0.00     0.087 C 
ENDBRANCH  11  12
ENDBRANCH  10  11
ENDBRANCH   2  10
TORSDOF 6
ENDMDL
MODEL 4
REMARK VINA RESULT:    -4.608     11.104     12.990
REMARK INTER + INTRA:          -7.290
REMARK INTER:                  -6.166
REMARK INTRA:                  -1.124
REMARK UNBOUND:                -1.065
REMARK SMILES CC(=O)CCC=C(C)CCC=C(C)C
REMARK SMILES IDX 7 1 6 2 8 3 9 4 10 5 11 6 13 7 12 8 14 9 5 10 4 11 2 12 3 13
REMARK SMILES IDX 1 14
REMARK H PARENT
REMARK Flexibility Score: inf
ROOT
ATOM      1  C   UNL     1       7.161 -14.560  25.231  1.00  0.00    -0.077 C 
ATOM      2  C   UNL     1       7.489 -13.909  26.370  1.00  0.00    -0.028 C 
ATOM      3  C   UNL     1       5.754 -15.040  24.962  1.00  0.00     0.039 C 
ENDROOT
BRANCH   1   4
ATOM      4  C   UNL     1       8.240 -14.835  24.202  1.00  0.00     0.034 C 
BRANCH   4   5
ATOM      5  C   UNL     1       7.995 -14.066  22.895  1.00  0.00     0.032 C 
BRANCH   5   6
ATOM      6  C   UNL     1       8.471 -12.636  22.989  1.00  0.00    -0.028 C 
ATOM      7  C   UNL     1       6.153 -11.686  23.032  1.00  0.00     0.039 C 
ATOM      8  C   UNL     1       7.658 -11.557  23.021  1.00  0.00    -0.080 C 
ATOM      9  C   UNL     1       8.286 -10.187  23.064  1.00  0.00     0.039 C 
ENDBRANCH   5   6
ENDBRANCH   4   5
ENDBRANCH   1   4
BRANCH   2  10
ATOM     10  C   UNL     1       6.509 -13.545  27.458  1.00  0.00     0.035 C 
BRANCH  10  11
ATOM     11  C   UNL     1       6.901 -14.202  28.784  1.00  0.00     0.079 C 
BRANCH  11  12
ATOM     12  C   UNL     1       6.232 -15.540  28.936  1.00  0.00     0.130 C 
ATOM     13  O   UNL     1       6.884 -16.504  29.311  1.00  0.00    -0.300 OA
ATOM     14  C   UNL     1       4.779 -15.706  28.608  1.00  0.00     0.087 C 
ENDBRANCH  11  12
ENDBRANCH  10  11
ENDBRANCH   2  10
TORSDOF 6
ENDMDL
MODEL 5
REMARK VINA RESULT:    -4.604      2.205      5.000
REMARK INTER + INTRA:          -7.284
REMARK INTER:                  -5.879
REMARK INTRA:                  -1.405
REMARK UNBOUND:                -1.065
REMARK SMILES CC(=O)CCC=C(C)CCC=C(C)C
REMARK SMILES IDX 7 1 6 2 8 3 9 4 10 5 11 6 13 7 12 8 14 9 5 10 4 11 2 12 3 13
REMARK SMILES IDX 1 14
REMARK H PARENT
REMARK Flexibility Score: inf
ROOT
ATOM      1  C   UNL     1       1.145 -24.355  26.186  1.00  0.00    -0.077 C 
ATOM      2  C   UNL     1       0.559 -23.487  25.330  1.00  0.00    -0.028 C 
ATOM      3  C   UNL     1       0.547 -25.710  26.485  1.00  0.00     0.039 C 
ENDROOT
BRANCH   1   4
ATOM      4  C   UNL     1       2.429 -23.949  26.883  1.00  0.00     0.034 C 
BRANCH   4   5
ATOM      5  C   UNL     1       3.611 -24.838  26.469  1.00  0.00     0.032 C 
BRANCH   5   6
ATOM      6  C   UNL     1       4.145 -24.459  25.108  1.00  0.00    -0.028 C 
ATOM      7  C   UNL     1       3.356 -26.573  24.020  1.00  0.00     0.039 C 
ATOM      8  C   UNL     1       4.065 -25.240  24.008  1.00  0.00    -0.080 C 
ATOM      9  C   UNL     1       4.692 -24.744  22.730  1.00  0.00     0.039 C 
ENDBRANCH   5   6
ENDBRANCH   4   5
ENDBRANCH   1   4
BRANCH   2  10
ATOM     10  C   UNL     1      -0.699 -23.775  24.550  1.00  0.00     0.035 C 
BRANCH  10  11
ATOM     11  C   UNL     1      -0.475 -23.548  23.053  1.00  0.00     0.079 C 
BRANCH  11  12
ATOM     12  C   UNL     1       0.367 -24.647  22.465  1.00  0.00     0.130 C 
ATOM     13  O   UNL     1       1.375 -24.366  21.832  1.00  0.00    -0.300 OA
ATOM     14  C   UNL     1      -0.033 -26.082  22.629  1.00  0.00     0.087 C 
ENDBRANCH  11  12
ENDBRANCH  10  11
ENDBRANCH   2  10
TORSDOF 6
ENDMDL
MODEL 6
REMARK VINA RESULT:    -4.604     10.264     12.396
REMARK INTER + INTRA:          -7.283
REMARK INTER:                  -6.223
REMARK INTRA:                  -1.060
REMARK UNBOUND:                -1.065
REMARK SMILES CC(=O)CCC=C(C)CCC=C(C)C
REMARK SMILES IDX 7 1 6 2 8 3 9 4 10 5 11 6 13 7 12 8 14 9 5 10 4 11 2 12 3 13
REMARK SMILES IDX 1 14
REMARK H PARENT
REMARK Flexibility Score: inf
ROOT
ATOM      1  C   UNL     1       6.212 -14.807  25.527  1.00  0.00    -0.077 C 
ATOM      2  C   UNL     1       6.477 -13.886  26.481  1.00  0.00    -0.028 C 
ATOM      3  C   UNL     1       6.242 -16.290  25.818  1.00  0.00     0.039 C 
ENDROOT
BRANCH   1   4
ATOM      4  C   UNL     1       5.896 -14.341  24.120  1.00  0.00     0.034 C 
BRANCH   4   5
ATOM      5  C   UNL     1       7.078 -13.593  23.485  1.00  0.00     0.032 C 
BRANCH   5   6
ATOM      6  C   UNL     1       8.266 -14.502  23.272  1.00  0.00    -0.028 C 
ATOM      7  C   UNL     1       9.727 -13.253  24.879  1.00  0.00     0.039 C 
ATOM      8  C   UNL     1       9.469 -14.345  23.867  1.00  0.00    -0.080 C 
ATOM      9  C   UNL     1      10.574 -15.306  23.513  1.00  0.00     0.039 C 
ENDBRANCH   5   6
ENDBRANCH   4   5
ENDBRANCH   1   4
BRANCH   2  10
ATOM     10  C   UNL     1       6.775 -14.212  27.923  1.00  0.00     0.035 C 
BRANCH  10  11
ATOM     11  C   UNL     1       5.492 -14.207  28.759  1.00  0.00     0.079 C 
BRANCH  11  12
ATOM     12  C   UNL     1       5.239 -15.564  29.357  1.00  0.00     0.130 C 
ATOM     13  O   UNL     1       6.158 -16.363  29.455  1.00  0.00    -0.300 OA
ATOM     14  C   UNL     1       3.864 -15.950  29.811  1.00  0.00     0.087 C 
ENDBRANCH  11  12
ENDBRANCH  10  11
ENDBRANCH   2  10
TORSDOF 6
ENDMDL
MODEL 7
REMARK VINA RESULT:    -4.580      2.123      5.223
REMARK INTER + INTRA:          -7.252
REMARK INTER:                  -6.046
REMARK INTRA:                  -1.206
REMARK UNBOUND:                -1.065
REMARK SMILES CC(=O)CCC=C(C)CCC=C(C)C
REMARK SMILES IDX 7 1 6 2 8 3 9 4 10 5 11 6 13 7 12 8 14 9 5 10 4 11 2 12 3 13
REMARK SMILES IDX 1 14
REMARK H PARENT
REMARK Flexibility Score: inf
ROOT
ATOM      1  C   UNL     1       3.014 -24.535  26.116  1.00  0.00    -0.077 C 
ATOM      2  C   UNL     1       2.686 -23.298  25.677  1.00  0.00    -0.028 C 
ATOM      3  C   UNL     1       2.015 -25.669  26.130  1.00  0.00     0.039 C 
ENDROOT
BRANCH   1   4
ATOM      4  C   UNL     1       4.418 -24.786  26.628  1.00  0.00     0.034 C 
BRANCH   4   5
ATOM      5  C   UNL     1       5.444 -24.838  25.486  1.00  0.00     0.032 C 
BRANCH   5   6
ATOM      6  C   UNL     1       5.289 -26.086  24.650  1.00  0.00    -0.028 C 
ATOM      7  C   UNL     1       4.559 -24.834  22.607  1.00  0.00     0.039 C 
ATOM      8  C   UNL     1       4.863 -26.103  23.368  1.00  0.00    -0.080 C 
ATOM      9  C   UNL     1       4.710 -27.435  22.681  1.00  0.00     0.039 C 
ENDBRANCH   5   6
ENDBRANCH   4   5
ENDBRANCH   1   4
BRANCH   2  10
ATOM     10  C   UNL     1       1.338 -22.922  25.115  1.00  0.00     0.035 C 
BRANCH  10  11
ATOM     11  C   UNL     1       1.429 -22.667  23.608  1.00  0.00     0.079 C 
BRANCH  11  12
ATOM     12  C   UNL     1       0.745 -23.764  22.839  1.00  0.00     0.130 C 
ATOM     13  O   UNL     1       1.273 -24.218  21.834  1.00  0.00    -0.300 OA
ATOM     14  C   UNL     1      -0.588 -24.286  23.280  1.00  0.00     0.087 C 
ENDBRANCH  11  12
ENDBRANCH  10  11
ENDBRANCH   2  10
TORSDOF 6
ENDMDL
MODEL 8
REMARK VINA RESULT:    -4.547      1.635      2.635
REMARK INTER + INTRA:          -7.207
REMARK INTER:                  -6.125
REMARK INTRA:                  -1.083
REMARK UNBOUND:                -1.065
REMARK SMILES CC(=O)CCC=C(C)CCC=C(C)C
REMARK SMILES IDX 7 1 6 2 8 3 9 4 10 5 11 6 13 7 12 8 14 9 5 10 4 11 2 12 3 13
REMARK SMILES IDX 1 14
REMARK H PARENT
REMARK Flexibility Score: inf
ROOT
ATOM      1  C   UNL     1       1.640 -25.480  22.750  1.00  0.00    -0.077 C 
ATOM      2  C   UNL     1       2.768 -24.746  22.611  1.00  0.00    -0.028 C 
ATOM      3  C   UNL     1       1.661 -26.874  23.334  1.00  0.00     0.039 C 
ENDROOT
BRANCH   1   4
ATOM      4  C   UNL     1       0.319 -24.898  22.288  1.00  0.00     0.034 C 
BRANCH   4   5
ATOM      5  C   UNL     1      -0.036 -23.610  23.046  1.00  0.00     0.032 C 
BRANCH   5   6
ATOM      6  C   UNL     1      -0.229 -23.864  24.522  1.00  0.00    -0.028 C 
ATOM      7  C   UNL     1       1.647 -22.350  25.204  1.00  0.00     0.039 C 
ATOM      8  C   UNL     1       0.537 -23.331  25.499  1.00  0.00    -0.080 C 
ATOM      9  C   UNL     1       0.251 -23.721  26.927  1.00  0.00     0.039 C 
ENDBRANCH   5   6
ENDBRANCH   4   5
ENDBRANCH   1   4
BRANCH   2  10
ATOM     10  C   UNL     1       4.137 -25.192  23.056  1.00  0.00     0.035 C 
BRANCH  10  11
ATOM     11  C   UNL     1       4.458 -24.654  24.453  1.00  0.00     0.079 C 
BRANCH  11  12
ATOM     12  C   UNL     1       5.852 -25.037  24.867  1.00  0.00     0.130 C 
ATOM     13  O   UNL     1       6.088 -26.186  25.211  1.00  0.00    -0.300 OA
ATOM     14  C   UNL     1       6.948 -24.015  24.884  1.00  0.00     0.087 C 
ENDBRANCH  11  12
ENDBRANCH  10  11
ENDBRANCH   2  10
TORSDOF 6
ENDMDL
MODEL 9
REMARK VINA RESULT:    -4.476      9.249     11.316
REMARK INTER + INTRA:          -7.111
REMARK INTER:                  -5.672
REMARK INTRA:                  -1.439
REMARK UNBOUND:                -1.065
REMARK SMILES CC(=O)CCC=C(C)CCC=C(C)C
REMARK SMILES IDX 7 1 6 2 8 3 9 4 10 5 11 6 13 7 12 8 14 9 5 10 4 11 2 12 3 13
REMARK SMILES IDX 1 14
REMARK H PARENT
REMARK Flexibility Score: inf
ROOT
ATOM      1  C   UNL     1      11.221 -19.143  21.267  1.00  0.00    -0.077 C 
ATOM      2  C   UNL     1      11.220 -18.740  19.975  1.00  0.00    -0.028 C 
ATOM      3  C   UNL     1      10.359 -20.287  21.747  1.00  0.00     0.039 C 
ENDROOT
BRANCH   1   4
ATOM      4  C   UNL     1      12.095 -18.412  22.266  1.00  0.00     0.034 C 
BRANCH   4   5
ATOM      5  C   UNL     1      11.629 -16.965  22.485  1.00  0.00     0.032 C 
BRANCH   5   6
ATOM      6  C   UNL     1      10.202 -16.904  22.976  1.00  0.00    -0.028 C 
ATOM      7  C   UNL     1       9.393 -15.603  20.994  1.00  0.00     0.039 C 
ATOM      8  C   UNL     1       9.196 -16.271  22.335  1.00  0.00    -0.080 C 
ATOM      9  C   UNL     1       7.833 -16.256  22.979  1.00  0.00     0.039 C 
ENDBRANCH   5   6
ENDBRANCH   4   5
ENDBRANCH   1   4
BRANCH   2  10
ATOM     10  C   UNL     1      10.423 -19.397  18.877  1.00  0.00     0.035 C 
BRANCH  10  11
ATOM     11  C   UNL     1       9.220 -18.534  18.487  1.00  0.00     0.079 C 
BRANCH  11  12
ATOM     12  C   UNL     1       7.949 -19.103  19.056  1.00  0.00     0.130 C 
ATOM     13  O   UNL     1       7.642 -20.261  18.813  1.00  0.00    -0.300 OA
ATOM     14  C   UNL     1       7.044 -18.253  19.896  1.00  0.00     0.087 C 
ENDBRANCH  11  12
ENDBRANCH  10  11
ENDBRANCH   2  10
TORSDOF 6
ENDMDL
