MODEL 1
REMARK VINA RESULT:    -4.144      0.000      0.000
REMARK INTER + INTRA:          -4.403
REMARK INTER:                  -4.387
REMARK INTRA:                  -0.017
REMARK UNBOUND:                -0.017
REMARK SMILES O=C([O-])c1cccnc1
REMARK SMILES IDX 4 1 5 2 9 3 6 4 8 5 7 6 2 7 1 8 3 9
REMARK H PARENT
REMARK Flexibility Score: inf
ROOT
ATOM      1  C   UNL     1      12.831 -29.161  23.092  1.00  0.00     0.016 A 
ATOM      2  C   UNL     1      11.641 -28.533  23.498  1.00  0.00     0.013 A 
ATOM      3  C   UNL     1      14.009 -28.394  23.046  1.00  0.00     0.120 A 
ATOM      4  C   UNL     1      11.644 -27.181  23.844  1.00  0.00     0.021 A 
ATOM      5  N   UNL     1      13.984 -27.078  23.389  1.00  0.00    -0.264 NA
ATOM      6  C   UNL     1      12.838 -26.462  23.783  1.00  0.00     0.111 A 
ENDROOT
BRANCH   1   7
ATOM      7  C   UNL     1      12.850 -30.592  22.722  1.00  0.00     0.073 C 
ATOM      8  O   UNL     1      12.366 -30.976  21.623  1.00  0.00    -0.545 OA
ATOM      9  O   UNL     1      13.402 -31.535  23.581  1.00  0.00    -0.545 OA
ENDBRANCH   1   7
TORSDOF 1
ENDMDL
MODEL 2
REMARK VINA RESULT:    -4.083      9.900     10.742
REMARK INTER + INTRA:          -4.338
REMARK INTER:                  -4.316
REMARK INTRA:                  -0.022
REMARK UNBOUND:                -0.017
REMARK SMILES O=C([O-])c1cccnc1
REMARK SMILES IDX 4 1 5 2 9 3 6 4 8 5 7 6 2 7 1 8 3 9
REMARK H PARENT
REMARK Flexibility Score: inf
ROOT
ATOM      1  C   UNL     1      22.225 -24.789  20.327  1.00  0.00     0.016 A 
ATOM      2  C   UNL     1      21.058 -25.468  19.936  1.00  0.00     0.013 A 
ATOM      3  C   UNL     1      22.379 -24.449  21.682  1.00  0.00     0.120 A 
ATOM      4  C   UNL     1      20.085 -25.790  20.883  1.00  0.00     0.021 A 
ATOM      5  N   UNL     1      21.415 -24.775  22.585  1.00  0.00    -0.264 NA
ATOM      6  C   UNL     1      20.282 -25.432  22.217  1.00  0.00     0.111 A 
ENDROOT
BRANCH   1   7
ATOM      7  C   UNL     1      23.269 -24.438  19.340  1.00  0.00     0.073 C 
ATOM      8  O   UNL     1      23.423 -25.129  18.298  1.00  0.00    -0.545 OA
ATOM      9  O   UNL     1      24.095 -23.340  19.549  1.00  0.00    -0.545 OA
ENDBRANCH   1   7
TORSDOF 1
ENDMDL
MODEL 3
REMARK VINA RESULT:    -4.076      2.632      4.123
REMARK INTER + INTRA:          -4.331
REMARK INTER:                  -4.309
REMARK INTRA:                  -0.021
REMARK UNBOUND:                -0.017
REMARK SMILES O=C([O-])c1cccnc1
REMARK SMILES IDX 4 1 5 2 9 3 6 4 8 5 7 6 2 7 1 8 3 9
REMARK H PARENT
REMARK Flexibility Score: inf
ROOT
ATOM      1  C   UNL     1      12.898 -30.331  22.700  1.00  0.00     0.016 A 
ATOM      2  C   UNL     1      12.793 -30.697  21.347  1.00  0.00     0.013 A 
ATOM      3  C   UNL     1      13.720 -31.102  23.539  1.00  0.00     0.120 A 
ATOM      4  C   UNL     1      13.494 -31.803  20.864  1.00  0.00     0.021 A 
ATOM      5  N   UNL     1      14.393 -32.175  23.043  1.00  0.00    -0.264 NA
ATOM      6  C   UNL     1      14.298 -32.538  21.736  1.00  0.00     0.111 A 
ENDROOT
BRANCH   1   7
ATOM      7  C   UNL     1      12.163 -29.163  23.232  1.00  0.00     0.073 C 
ATOM      8  O   UNL     1      12.637 -28.488  24.184  1.00  0.00    -0.545 OA
ATOM      9  O   UNL     1      10.940 -28.793  22.686  1.00  0.00    -0.545 OA
ENDBRANCH   1   7
TORSDOF 1
ENDMDL
MODEL 4
REMARK VINA RESULT:    -4.074      3.545      4.599
REMARK INTER + INTRA:          -4.328
REMARK INTER:                  -4.305
REMARK INTRA:                  -0.023
REMARK UNBOUND:                -0.017
REMARK SMILES O=C([O-])c1cccnc1
REMARK SMILES IDX 4 1 5 2 9 3 6 4 8 5 7 6 2 7 1 8 3 9
REMARK H PARENT
REMARK Flexibility Score: inf
ROOT
ATOM      1  C   UNL     1      14.450 -32.875  21.889  1.00  0.00     0.016 A 
ATOM      2  C   UNL     1      14.286 -32.450  23.218  1.00  0.00     0.013 A 
ATOM      3  C   UNL     1      13.818 -32.142  20.870  1.00  0.00     0.120 A 
ATOM      4  C   UNL     1      13.511 -31.325  23.503  1.00  0.00     0.021 A 
ATOM      5  N   UNL     1      13.068 -31.049  21.175  1.00  0.00    -0.264 NA
ATOM      6  C   UNL     1      12.904 -30.630  22.458  1.00  0.00     0.111 A 
ENDROOT
BRANCH   1   7
ATOM      7  C   UNL     1      15.267 -34.065  21.565  1.00  0.00     0.073 C 
ATOM      8  O   UNL     1      16.128 -34.492  22.380  1.00  0.00    -0.545 OA
ATOM      9  O   UNL     1      15.096 -34.729  20.356  1.00  0.00    -0.545 OA
ENDBRANCH   1   7
TORSDOF 1
ENDMDL
MODEL 5
REMARK VINA RESULT:    -4.054      3.253      4.886
REMARK INTER + INTRA:          -4.308
REMARK INTER:                  -4.287
REMARK INTRA:                  -0.021
REMARK UNBOUND:                -0.017
REMARK SMILES O=C([O-])c1cccnc1
REMARK SMILES IDX 4 1 5 2 9 3 6 4 8 5 7 6 2 7 1 8 3 9
REMARK H PARENT
REMARK Flexibility Score: inf
ROOT
ATOM      1  C   UNL     1      13.643 -31.745  22.491  1.00  0.00     0.016 A 
ATOM      2  C   UNL     1      14.221 -32.469  23.548  1.00  0.00     0.013 A 
ATOM      3  C   UNL     1      13.888 -32.173  21.175  1.00  0.00     0.120 A 
ATOM      4  C   UNL     1      15.017 -33.584  23.281  1.00  0.00     0.021 A 
ATOM      5  N   UNL     1      14.667 -33.264  20.943  1.00  0.00    -0.264 NA
ATOM      6  C   UNL     1      15.231 -33.971  21.958  1.00  0.00     0.111 A 
ENDROOT
BRANCH   1   7
ATOM      7  C   UNL     1      12.796 -30.561  22.753  1.00  0.00     0.073 C 
ATOM      8  O   UNL     1      11.814 -30.298  22.008  1.00  0.00    -0.545 OA
ATOM      9  O   UNL     1      13.072 -29.721  23.825  1.00  0.00    -0.545 OA
ENDBRANCH   1   7
TORSDOF 1
ENDMDL
MODEL 6
REMARK VINA RESULT:    -4.042      9.511     10.421
REMARK INTER + INTRA:          -4.295
REMARK INTER:                  -4.278
REMARK INTRA:                  -0.016
REMARK UNBOUND:                -0.017
REMARK SMILES O=C([O-])c1cccnc1
REMARK SMILES IDX 4 1 5 2 9 3 6 4 8 5 7 6 2 7 1 8 3 9
REMARK H PARENT
REMARK Flexibility Score: inf
ROOT
ATOM      1  C   UNL     1      22.041 -25.740  20.293  1.00  0.00     0.016 A 
ATOM      2  C   UNL     1      20.655 -25.663  20.073  1.00  0.00     0.013 A 
ATOM      3  C   UNL     1      22.551 -26.868  20.958  1.00  0.00     0.120 A 
ATOM      4  C   UNL     1      19.818 -26.690  20.512  1.00  0.00     0.021 A 
ATOM      5  N   UNL     1      21.713 -27.854  21.375  1.00  0.00    -0.264 NA
ATOM      6  C   UNL     1      20.371 -27.790  21.168  1.00  0.00     0.111 A 
ENDROOT
BRANCH   1   7
ATOM      7  C   UNL     1      22.945 -24.662  19.836  1.00  0.00     0.073 C 
ATOM      8  O   UNL     1      23.317 -24.606  18.633  1.00  0.00    -0.545 OA
ATOM      9  O   UNL     1      23.396 -23.696  20.727  1.00  0.00    -0.545 OA
ENDBRANCH   1   7
TORSDOF 1
ENDMDL
MODEL 7
REMARK VINA RESULT:    -4.031      2.374      3.432
REMARK INTER + INTRA:          -4.283
REMARK INTER:                  -4.266
REMARK INTRA:                  -0.017
REMARK UNBOUND:                -0.017
REMARK SMILES O=C([O-])c1cccnc1
REMARK SMILES IDX 4 1 5 2 9 3 6 4 8 5 7 6 2 7 1 8 3 9
REMARK H PARENT
REMARK Flexibility Score: inf
ROOT
ATOM      1  C   UNL     1      13.352 -29.271  23.293  1.00  0.00     0.016 A 
ATOM      2  C   UNL     1      13.336 -30.649  23.570  1.00  0.00     0.013 A 
ATOM      3  C   UNL     1      14.502 -28.721  22.703  1.00  0.00     0.120 A 
ATOM      4  C   UNL     1      14.444 -31.439  23.260  1.00  0.00     0.021 A 
ATOM      5  N   UNL     1      15.569 -29.513  22.411  1.00  0.00    -0.264 NA
ATOM      6  C   UNL     1      15.564 -30.847  22.674  1.00  0.00     0.111 A 
ENDROOT
BRANCH   1   7
ATOM      7  C   UNL     1      12.188 -28.417  23.614  1.00  0.00     0.073 C 
ATOM      8  O   UNL     1      11.106 -28.543  22.979  1.00  0.00    -0.545 OA
ATOM      9  O   UNL     1      12.271 -27.463  24.621  1.00  0.00    -0.545 OA
ENDBRANCH   1   7
TORSDOF 1
ENDMDL
MODEL 8
REMARK VINA RESULT:    -4.027     10.011     10.746
REMARK INTER + INTRA:          -4.280
REMARK INTER:                  -4.262
REMARK INTRA:                  -0.017
REMARK UNBOUND:                -0.017
REMARK SMILES O=C([O-])c1cccnc1
REMARK SMILES IDX 4 1 5 2 9 3 6 4 8 5 7 6 2 7 1 8 3 9
REMARK H PARENT
REMARK Flexibility Score: inf
ROOT
ATOM      1  C   UNL     1      17.472 -37.367  26.648  1.00  0.00     0.016 A 
ATOM      2  C   UNL     1      16.142 -37.752  26.891  1.00  0.00     0.013 A 
ATOM      3  C   UNL     1      18.375 -37.370  27.725  1.00  0.00     0.120 A 
ATOM      4  C   UNL     1      15.744 -38.125  28.176  1.00  0.00     0.021 A 
ATOM      5  N   UNL     1      17.961 -37.738  28.967  1.00  0.00    -0.264 NA
ATOM      6  C   UNL     1      16.677 -38.112  29.212  1.00  0.00     0.111 A 
ENDROOT
BRANCH   1   7
ATOM      7  C   UNL     1      17.915 -36.969  25.295  1.00  0.00     0.073 C 
ATOM      8  O   UNL     1      18.798 -37.632  24.689  1.00  0.00    -0.545 OA
ATOM      9  O   UNL     1      17.361 -35.857  24.672  1.00  0.00    -0.545 OA
ENDBRANCH   1   7
TORSDOF 1
ENDMDL
MODEL 9
REMARK VINA RESULT:    -3.998      1.940      2.481
REMARK INTER + INTRA:          -4.249
REMARK INTER:                  -4.232
REMARK INTRA:                  -0.016
REMARK UNBOUND:                -0.017
REMARK SMILES O=C([O-])c1cccnc1
REMARK SMILES IDX 4 1 5 2 9 3 6 4 8 5 7 6 2 7 1 8 3 9
REMARK H PARENT
REMARK Flexibility Score: inf
ROOT
ATOM      1  C   UNL     1      13.695 -30.761  21.517  1.00  0.00     0.016 A 
ATOM      2  C   UNL     1      12.628 -30.414  22.363  1.00  0.00     0.013 A 
ATOM      3  C   UNL     1      14.822 -29.922  21.485  1.00  0.00     0.120 A 
ATOM      4  C   UNL     1      12.700 -29.261  23.146  1.00  0.00     0.021 A 
ATOM      5  N   UNL     1      14.867 -28.804  22.259  1.00  0.00    -0.264 NA
ATOM      6  C   UNL     1      13.840 -28.460  23.080  1.00  0.00     0.111 A 
ENDROOT
BRANCH   1   7
ATOM      7  C   UNL     1      13.639 -31.978  20.679  1.00  0.00     0.073 C 
ATOM      8  O   UNL     1      12.960 -31.994  19.618  1.00  0.00    -0.545 OA
ATOM      9  O   UNL     1      14.336 -33.122  21.050  1.00  0.00    -0.545 OA
ENDBRANCH   1   7
TORSDOF 1
ENDMDL
