MODEL 1
REMARK VINA RESULT:    -4.285      0.000      0.000
REMARK INTER + INTRA:          -9.131
REMARK INTER:                  -7.541
REMARK INTRA:                  -1.590
REMARK UNBOUND:                -1.590
REMARK SMILES CCCCCCC=CCCCCCCCC(=O)[O-]
REMARK SMILES IDX 10 1 11 2 12 3 13 4 14 5 15 6 16 7 17 8 18 9 9 10 8 11 7 12
REMARK SMILES IDX 6 13 5 14 4 15 3 16 2 17 1 18
REMARK H PARENT
REMARK Flexibility Score: inf
ROOT
ATOM      1  C   UNL     1      -1.378  -5.917   2.629  1.00  0.00     0.004 C 
ENDROOT
BRANCH   1   2
ATOM      2  C   UNL     1      -2.767  -6.067   3.259  1.00  0.00     0.000 C 
BRANCH   2   3
ATOM      3  C   UNL     1      -3.093  -4.869   4.164  1.00  0.00     0.000 C 
BRANCH   3   4
ATOM      4  C   UNL     1      -3.691  -3.684   3.388  1.00  0.00     0.000 C 
BRANCH   4   5
ATOM      5  C   UNL     1      -4.649  -2.839   4.245  1.00  0.00     0.006 C 
BRANCH   5   6
ATOM      6  C   UNL     1      -5.744  -3.690   4.900  1.00  0.00     0.053 C 
BRANCH   6   7
ATOM      7  C   UNL     1      -6.041  -3.237   6.298  1.00  0.00     0.041 C 
ATOM      8  O   UNL     1      -6.294  -2.026   6.531  1.00  0.00    -0.550 OA
ATOM      9  O   UNL     1      -6.069  -4.159   7.338  1.00  0.00    -0.550 OA
ENDBRANCH   6   7
ENDBRANCH   5   6
ENDBRANCH   4   5
ENDBRANCH   3   4
ENDBRANCH   2   3
ENDBRANCH   1   2
BRANCH   1  10
ATOM     10  C   UNL     1      -0.311  -6.613   3.482  1.00  0.00     0.027 C 
BRANCH  10  11
ATOM     11  C   UNL     1      -0.870  -7.842   4.151  1.00  0.00    -0.031 C 
ATOM     12  C   UNL     1      -0.185  -8.638   4.994  1.00  0.00    -0.031 C 
BRANCH  12  13
ATOM     13  C   UNL     1       1.270  -8.465   5.364  1.00  0.00     0.027 C 
BRANCH  13  14
ATOM     14  C   UNL     1       1.435  -8.179   6.862  1.00  0.00     0.004 C 
BRANCH  14  15
ATOM     15  C   UNL     1       0.196  -8.590   7.670  1.00  0.00     0.000 C 
BRANCH  15  16
ATOM     16  C   UNL     1      -0.318  -7.422   8.520  1.00  0.00    -0.000 C 
BRANCH  16  17
ATOM     17  C   UNL     1      -1.518  -6.743   7.850  1.00  0.00    -0.003 C 
ATOM     18  C   UNL     1      -1.093  -5.480   7.106  1.00  0.00     0.004 C 
ENDBRANCH  16  17
ENDBRANCH  15  16
ENDBRANCH  14  15
ENDBRANCH  13  14
ENDBRANCH  12  13
ENDBRANCH  10  11
ENDBRANCH   1  10
TORSDOF 13
ENDMDL
MODEL 2
REMARK VINA RESULT:    -4.280      2.922      5.913
REMARK INTER + INTRA:          -9.123
REMARK INTER:                  -7.475
REMARK INTRA:                  -1.648
REMARK UNBOUND:                -1.590
REMARK SMILES CCCCCCC=CCCCCCCCC(=O)[O-]
REMARK SMILES IDX 10 1 11 2 12 3 13 4 14 5 15 6 16 7 17 8 18 9 9 10 8 11 7 12
REMARK SMILES IDX 6 13 5 14 4 15 3 16 2 17 1 18
REMARK H PARENT
REMARK Flexibility Score: inf
ROOT
ATOM      1  C   UNL     1      -1.209  -5.484   4.649  1.00  0.00     0.004 C 
ENDROOT
BRANCH   1   2
ATOM      2  C   UNL     1      -1.922  -5.749   5.980  1.00  0.00     0.000 C 
BRANCH   2   3
ATOM      3  C   UNL     1      -2.825  -4.567   6.365  1.00  0.00     0.000 C 
BRANCH   3   4
ATOM      4  C   UNL     1      -2.620  -3.343   5.458  1.00  0.00     0.000 C 
BRANCH   4   5
ATOM      5  C   UNL     1      -3.930  -2.858   4.815  1.00  0.00     0.006 C 
BRANCH   5   6
ATOM      6  C   UNL     1      -5.058  -3.889   4.949  1.00  0.00     0.053 C 
BRANCH   6   7
ATOM      7  C   UNL     1      -6.328  -3.266   5.444  1.00  0.00     0.041 C 
ATOM      8  O   UNL     1      -7.257  -2.995   4.640  1.00  0.00    -0.550 OA
ATOM      9  O   UNL     1      -6.496  -3.012   6.800  1.00  0.00    -0.550 OA
ENDBRANCH   6   7
ENDBRANCH   5   6
ENDBRANCH   4   5
ENDBRANCH   3   4
ENDBRANCH   2   3
ENDBRANCH   1   2
BRANCH   1  10
ATOM     10  C   UNL     1      -1.637  -6.502   3.585  1.00  0.00     0.027 C 
BRANCH  10  11
ATOM     11  C   UNL     1      -2.967  -6.128   2.983  1.00  0.00    -0.031 C 
ATOM     12  C   UNL     1      -3.126  -5.393   1.866  1.00  0.00    -0.031 C 
BRANCH  12  13
ATOM     13  C   UNL     1      -2.004  -4.776   1.064  1.00  0.00     0.027 C 
BRANCH  13  14
ATOM     14  C   UNL     1      -2.456  -4.439  -0.363  1.00  0.00     0.004 C 
BRANCH  14  15
ATOM     15  C   UNL     1      -1.866  -5.405  -1.400  1.00  0.00     0.000 C 
BRANCH  15  16
ATOM     16  C   UNL     1      -2.954  -5.925  -2.347  1.00  0.00    -0.000 C 
BRANCH  16  17
ATOM     17  C   UNL     1      -4.251  -6.218  -1.584  1.00  0.00    -0.003 C 
ATOM     18  C   UNL     1      -5.434  -6.349  -2.539  1.00  0.00     0.004 C 
ENDBRANCH  16  17
ENDBRANCH  15  16
ENDBRANCH  14  15
ENDBRANCH  13  14
ENDBRANCH  12  13
ENDBRANCH  10  11
ENDBRANCH   1  10
TORSDOF 13
ENDMDL
MODEL 3
REMARK VINA RESULT:    -4.279      5.445      8.755
REMARK INTER + INTRA:          -9.121
REMARK INTER:                  -7.678
REMARK INTRA:                  -1.443
REMARK UNBOUND:                -1.590
REMARK SMILES CCCCCCC=CCCCCCCCC(=O)[O-]
REMARK SMILES IDX 10 1 11 2 12 3 13 4 14 5 15 6 16 7 17 8 18 9 9 10 8 11 7 12
REMARK SMILES IDX 6 13 5 14 4 15 3 16 2 17 1 18
REMARK H PARENT
REMARK Flexibility Score: inf
ROOT
ATOM      1  C   UNL     1      -1.880  -4.318  -0.014  1.00  0.00     0.004 C 
ENDROOT
BRANCH   1   2
ATOM      2  C   UNL     1      -2.675  -5.060   1.067  1.00  0.00     0.000 C 
BRANCH   2   3
ATOM      3  C   UNL     1      -1.760  -5.501   2.219  1.00  0.00     0.000 C 
BRANCH   3   4
ATOM      4  C   UNL     1      -2.545  -5.973   3.453  1.00  0.00     0.000 C 
BRANCH   4   5
ATOM      5  C   UNL     1      -1.632  -6.549   4.550  1.00  0.00     0.006 C 
BRANCH   5   6
ATOM      6  C   UNL     1      -1.062  -7.921   4.168  1.00  0.00     0.053 C 
BRANCH   6   7
ATOM      7  C   UNL     1       0.113  -8.294   5.021  1.00  0.00     0.041 C 
ATOM      8  O   UNL     1      -0.053  -8.978   6.064  1.00  0.00    -0.550 OA
ATOM      9  O   UNL     1       1.395  -7.911   4.645  1.00  0.00    -0.550 OA
ENDBRANCH   6   7
ENDBRANCH   5   6
ENDBRANCH   4   5
ENDBRANCH   3   4
ENDBRANCH   2   3
ENDBRANCH   1   2
BRANCH   1  10
ATOM     10  C   UNL     1      -2.675  -4.239  -1.323  1.00  0.00     0.027 C 
BRANCH  10  11
ATOM     11  C   UNL     1      -2.319  -5.378  -2.243  1.00  0.00    -0.031 C 
ATOM     12  C   UNL     1      -3.076  -6.474  -2.439  1.00  0.00    -0.031 C 
BRANCH  12  13
ATOM     13  C   UNL     1      -4.378  -6.769  -1.731  1.00  0.00     0.027 C 
BRANCH  13  14
ATOM     14  C   UNL     1      -5.585  -6.442  -2.620  1.00  0.00     0.004 C 
BRANCH  14  15
ATOM     15  C   UNL     1      -6.149  -5.042  -2.340  1.00  0.00     0.000 C 
BRANCH  15  16
ATOM     16  C   UNL     1      -6.432  -4.292  -3.647  1.00  0.00    -0.000 C 
BRANCH  16  17
ATOM     17  C   UNL     1      -5.341  -4.573  -4.687  1.00  0.00    -0.003 C 
ATOM     18  C   UNL     1      -4.320  -3.439  -4.735  1.00  0.00     0.004 C 
ENDBRANCH  16  17
ENDBRANCH  15  16
ENDBRANCH  14  15
ENDBRANCH  13  14
ENDBRANCH  12  13
ENDBRANCH  10  11
ENDBRANCH   1  10
TORSDOF 13
ENDMDL
MODEL 4
REMARK VINA RESULT:    -4.253     12.522     14.500
REMARK INTER + INTRA:          -9.074
REMARK INTER:                  -7.197
REMARK INTRA:                  -1.878
REMARK UNBOUND:                -1.590
REMARK SMILES CCCCCCC=CCCCCCCCC(=O)[O-]
REMARK SMILES IDX 10 1 11 2 12 3 13 4 14 5 15 6 16 7 17 8 18 9 9 10 8 11 7 12
REMARK SMILES IDX 6 13 5 14 4 15 3 16 2 17 1 18
REMARK H PARENT
REMARK Flexibility Score: inf
ROOT
ATOM      1  C   UNL     1       0.425   4.981   2.089  1.00  0.00     0.004 C 
ENDROOT
BRANCH   1   2
ATOM      2  C   UNL     1       1.457   5.540   1.101  1.00  0.00     0.000 C 
BRANCH   2   3
ATOM      3  C   UNL     1       2.396   4.432   0.600  1.00  0.00     0.000 C 
BRANCH   3   4
ATOM      4  C   UNL     1       3.586   4.981  -0.204  1.00  0.00     0.000 C 
BRANCH   4   5
ATOM      5  C   UNL     1       3.150   5.677  -1.505  1.00  0.00     0.006 C 
BRANCH   5   6
ATOM      6  C   UNL     1       4.147   6.756  -1.946  1.00  0.00     0.053 C 
BRANCH   6   7
ATOM      7  C   UNL     1       5.116   6.237  -2.965  1.00  0.00     0.041 C 
ATOM      8  O   UNL     1       4.798   5.272  -3.708  1.00  0.00    -0.550 OA
ATOM      9  O   UNL     1       6.359   6.840  -3.114  1.00  0.00    -0.550 OA
ENDBRANCH   6   7
ENDBRANCH   5   6
ENDBRANCH   4   5
ENDBRANCH   3   4
ENDBRANCH   2   3
ENDBRANCH   1   2
BRANCH   1  10
ATOM     10  C   UNL     1      -0.002   6.052   3.100  1.00  0.00     0.027 C 
BRANCH  10  11
ATOM     11  C   UNL     1       0.972   7.202   3.115  1.00  0.00    -0.031 C 
ATOM     12  C   UNL     1       1.214   7.991   4.178  1.00  0.00    -0.031 C 
BRANCH  12  13
ATOM     13  C   UNL     1       0.511   7.892   5.512  1.00  0.00     0.027 C 
BRANCH  13  14
ATOM     14  C   UNL     1       1.420   7.266   6.578  1.00  0.00     0.004 C 
BRANCH  14  15
ATOM     15  C   UNL     1       1.333   5.733   6.585  1.00  0.00     0.000 C 
BRANCH  15  16
ATOM     16  C   UNL     1       2.717   5.103   6.392  1.00  0.00    -0.000 C 
BRANCH  16  17
ATOM     17  C   UNL     1       2.797   4.353   5.057  1.00  0.00    -0.003 C 
ATOM     18  C   UNL     1       3.742   5.057   4.087  1.00  0.00     0.004 C 
ENDBRANCH  16  17
ENDBRANCH  15  16
ENDBRANCH  14  15
ENDBRANCH  13  14
ENDBRANCH  12  13
ENDBRANCH  10  11
ENDBRANCH   1  10
TORSDOF 13
ENDMDL
MODEL 5
REMARK VINA RESULT:    -4.237      1.393      2.057
REMARK INTER + INTRA:          -9.046
REMARK INTER:                  -7.299
REMARK INTRA:                  -1.747
REMARK UNBOUND:                -1.590
REMARK SMILES CCCCCCC=CCCCCCCCC(=O)[O-]
REMARK SMILES IDX 10 1 11 2 12 3 13 4 14 5 15 6 16 7 17 8 18 9 9 10 8 11 7 12
REMARK SMILES IDX 6 13 5 14 4 15 3 16 2 17 1 18
REMARK H PARENT
REMARK Flexibility Score: inf
ROOT
ATOM      1  C   UNL     1      -1.320  -6.458   2.772  1.00  0.00     0.004 C 
ENDROOT
BRANCH   1   2
ATOM      2  C   UNL     1      -2.765  -6.153   3.183  1.00  0.00     0.000 C 
BRANCH   2   3
ATOM      3  C   UNL     1      -3.206  -4.777   2.662  1.00  0.00     0.000 C 
BRANCH   3   4
ATOM      4  C   UNL     1      -3.357  -3.737   3.785  1.00  0.00     0.000 C 
BRANCH   4   5
ATOM      5  C   UNL     1      -4.162  -4.272   4.982  1.00  0.00     0.006 C 
BRANCH   5   6
ATOM      6  C   UNL     1      -5.597  -3.731   5.005  1.00  0.00     0.053 C 
BRANCH   6   7
ATOM      7  C   UNL     1      -5.982  -3.228   6.363  1.00  0.00     0.041 C 
ATOM      8  O   UNL     1      -6.300  -2.021   6.525  1.00  0.00    -0.550 OA
ATOM      9  O   UNL     1      -6.020  -4.101   7.444  1.00  0.00    -0.550 OA
ENDBRANCH   6   7
ENDBRANCH   5   6
ENDBRANCH   4   5
ENDBRANCH   3   4
ENDBRANCH   2   3
ENDBRANCH   1   2
BRANCH   1  10
ATOM     10  C   UNL     1      -0.518  -7.014   3.955  1.00  0.00     0.027 C 
BRANCH  10  11
ATOM     11  C   UNL     1      -1.189  -6.688   5.264  1.00  0.00    -0.031 C 
ATOM     12  C   UNL     1      -1.021  -7.378   6.408  1.00  0.00    -0.031 C 
BRANCH  12  13
ATOM     13  C   UNL     1      -0.179  -8.624   6.555  1.00  0.00     0.027 C 
BRANCH  13  14
ATOM     14  C   UNL     1       1.114  -8.337   7.328  1.00  0.00     0.004 C 
BRANCH  14  15
ATOM     15  C   UNL     1       2.366  -8.708   6.520  1.00  0.00     0.000 C 
BRANCH  15  16
ATOM     16  C   UNL     1       2.791  -7.553   5.606  1.00  0.00    -0.000 C 
BRANCH  16  17
ATOM     17  C   UNL     1       2.728  -6.213   6.349  1.00  0.00    -0.003 C 
ATOM     18  C   UNL     1       2.275  -5.089   5.421  1.00  0.00     0.004 C 
ENDBRANCH  16  17
ENDBRANCH  15  16
ENDBRANCH  14  15
ENDBRANCH  13  14
ENDBRANCH  12  13
ENDBRANCH  10  11
ENDBRANCH   1  10
TORSDOF 13
ENDMDL
MODEL 6
REMARK VINA RESULT:    -4.225      4.727      7.976
REMARK INTER + INTRA:          -9.026
REMARK INTER:                  -7.382
REMARK INTRA:                  -1.644
REMARK UNBOUND:                -1.590
REMARK SMILES CCCCCCC=CCCCCCCCC(=O)[O-]
REMARK SMILES IDX 10 1 11 2 12 3 13 4 14 5 15 6 16 7 17 8 18 9 9 10 8 11 7 12
REMARK SMILES IDX 6 13 5 14 4 15 3 16 2 17 1 18
REMARK H PARENT
REMARK Flexibility Score: inf
ROOT
ATOM      1  C   UNL     1      -1.646  -4.232   1.690  1.00  0.00     0.004 C 
ENDROOT
BRANCH   1   2
ATOM      2  C   UNL     1      -3.061  -4.523   2.205  1.00  0.00     0.000 C 
BRANCH   2   3
ATOM      3  C   UNL     1      -3.121  -5.887   2.908  1.00  0.00     0.000 C 
BRANCH   3   4
ATOM      4  C   UNL     1      -2.053  -6.039   4.002  1.00  0.00     0.000 C 
BRANCH   4   5
ATOM      5  C   UNL     1      -1.164  -7.277   3.793  1.00  0.00     0.006 C 
BRANCH   5   6
ATOM      6  C   UNL     1       0.302  -6.902   3.538  1.00  0.00     0.053 C 
BRANCH   6   7
ATOM      7  C   UNL     1       1.202  -7.393   4.632  1.00  0.00     0.041 C 
ATOM      8  O   UNL     1       1.959  -6.590   5.237  1.00  0.00    -0.550 OA
ATOM      9  O   UNL     1       1.181  -8.732   5.002  1.00  0.00    -0.550 OA
ENDBRANCH   6   7
ENDBRANCH   5   6
ENDBRANCH   4   5
ENDBRANCH   3   4
ENDBRANCH   2   3
ENDBRANCH   1   2
BRANCH   1  10
ATOM     10  C   UNL     1      -1.260  -5.203   0.568  1.00  0.00     0.027 C 
BRANCH  10  11
ATOM     11  C   UNL     1      -0.375  -4.531  -0.449  1.00  0.00    -0.031 C 
ATOM     12  C   UNL     1      -0.664  -4.407  -1.758  1.00  0.00    -0.031 C 
BRANCH  12  13
ATOM     13  C   UNL     1      -1.894  -4.967  -2.434  1.00  0.00     0.027 C 
BRANCH  13  14
ATOM     14  C   UNL     1      -3.047  -3.955  -2.425  1.00  0.00     0.004 C 
BRANCH  14  15
ATOM     15  C   UNL     1      -4.232  -4.436  -1.575  1.00  0.00     0.000 C 
BRANCH  15  16
ATOM     16  C   UNL     1      -4.297  -5.967  -1.540  1.00  0.00    -0.000 C 
BRANCH  16  17
ATOM     17  C   UNL     1      -5.250  -6.500  -2.616  1.00  0.00    -0.003 C 
ATOM     18  C   UNL     1      -6.599  -5.787  -2.560  1.00  0.00     0.004 C 
ENDBRANCH  16  17
ENDBRANCH  15  16
ENDBRANCH  14  15
ENDBRANCH  13  14
ENDBRANCH  12  13
ENDBRANCH  10  11
ENDBRANCH   1  10
TORSDOF 13
ENDMDL
MODEL 7
REMARK VINA RESULT:    -4.210      3.479      6.048
REMARK INTER + INTRA:          -8.999
REMARK INTER:                  -6.285
REMARK INTRA:                  -2.714
REMARK UNBOUND:                -1.590
REMARK SMILES CCCCCCC=CCCCCCCCC(=O)[O-]
REMARK SMILES IDX 10 1 11 2 12 3 13 4 14 5 15 6 16 7 17 8 18 9 9 10 8 11 7 12
REMARK SMILES IDX 6 13 5 14 4 15 3 16 2 17 1 18
REMARK H PARENT
REMARK Flexibility Score: inf
ROOT
ATOM      1  C   UNL     1      -0.216  -4.032   5.564  1.00  0.00     0.004 C 
ENDROOT
BRANCH   1   2
ATOM      2  C   UNL     1       0.039  -4.802   6.865  1.00  0.00     0.000 C 
BRANCH   2   3
ATOM      3  C   UNL     1      -1.279  -5.303   7.475  1.00  0.00     0.000 C 
BRANCH   3   4
ATOM      4  C   UNL     1      -1.648  -6.721   7.010  1.00  0.00     0.000 C 
BRANCH   4   5
ATOM      5  C   UNL     1      -0.888  -7.813   7.783  1.00  0.00     0.006 C 
BRANCH   5   6
ATOM      6  C   UNL     1       0.005  -8.657   6.865  1.00  0.00     0.053 C 
BRANCH   6   7
ATOM      7  C   UNL     1       1.449  -8.566   7.254  1.00  0.00     0.041 C 
ATOM      8  O   UNL     1       1.770  -8.294   8.440  1.00  0.00    -0.550 OA
ATOM      9  O   UNL     1       2.441  -8.811   6.311  1.00  0.00    -0.550 OA
ENDBRANCH   6   7
ENDBRANCH   5   6
ENDBRANCH   4   5
ENDBRANCH   3   4
ENDBRANCH   2   3
ENDBRANCH   1   2
BRANCH   1  10
ATOM     10  C   UNL     1       0.870  -4.336   4.525  1.00  0.00     0.027 C 
BRANCH  10  11
ATOM     11  C   UNL     1       1.312  -5.775   4.609  1.00  0.00    -0.031 C 
ATOM     12  C   UNL     1       0.773  -6.787   3.904  1.00  0.00    -0.031 C 
BRANCH  12  13
ATOM     13  C   UNL     1      -0.396  -6.660   2.955  1.00  0.00     0.027 C 
BRANCH  13  14
ATOM     14  C   UNL     1      -1.697  -7.152   3.602  1.00  0.00     0.004 C 
BRANCH  14  15
ATOM     15  C   UNL     1      -2.909  -6.311   3.177  1.00  0.00     0.000 C 
BRANCH  15  16
ATOM     16  C   UNL     1      -2.483  -4.889   2.793  1.00  0.00    -0.000 C 
BRANCH  16  17
ATOM     17  C   UNL     1      -3.367  -3.846   3.486  1.00  0.00    -0.003 C 
ATOM     18  C   UNL     1      -3.896  -4.369   4.819  1.00  0.00     0.004 C 
ENDBRANCH  16  17
ENDBRANCH  15  16
ENDBRANCH  14  15
ENDBRANCH  13  14
ENDBRANCH  12  13
ENDBRANCH  10  11
ENDBRANCH   1  10
TORSDOF 13
ENDMDL
MODEL 8
REMARK VINA RESULT:    -4.192      5.143      6.331
REMARK INTER + INTRA:          -8.967
REMARK INTER:                  -8.048
REMARK INTRA:                  -0.919
REMARK UNBOUND:                -1.590
REMARK SMILES CCCCCCC=CCCCCCCCC(=O)[O-]
REMARK SMILES IDX 10 1 11 2 12 3 13 4 14 5 15 6 16 7 17 8 18 9 9 10 8 11 7 12
REMARK SMILES IDX 6 13 5 14 4 15 3 16 2 17 1 18
REMARK H PARENT
REMARK Flexibility Score: inf
ROOT
ATOM      1  C   UNL     1      -3.095  -5.082   0.066  1.00  0.00     0.004 C 
ENDROOT
BRANCH   1   2
ATOM      2  C   UNL     1      -2.000  -5.296  -0.985  1.00  0.00     0.000 C 
BRANCH   2   3
ATOM      3  C   UNL     1      -2.607  -5.465  -2.386  1.00  0.00     0.000 C 
BRANCH   3   4
ATOM      4  C   UNL     1      -3.728  -6.516  -2.424  1.00  0.00     0.000 C 
BRANCH   4   5
ATOM      5  C   UNL     1      -4.922  -6.076  -3.290  1.00  0.00     0.006 C 
BRANCH   5   6
ATOM      6  C   UNL     1      -6.079  -5.528  -2.445  1.00  0.00     0.053 C 
BRANCH   6   7
ATOM      7  C   UNL     1      -7.335  -5.379  -3.249  1.00  0.00     0.041 C 
ATOM      8  O   UNL     1      -7.508  -6.067  -4.288  1.00  0.00    -0.550 OA
ATOM      9  O   UNL     1      -8.328  -4.500  -2.833  1.00  0.00    -0.550 OA
ENDBRANCH   6   7
ENDBRANCH   5   6
ENDBRANCH   4   5
ENDBRANCH   3   4
ENDBRANCH   2   3
ENDBRANCH   1   2
BRANCH   1  10
ATOM     10  C   UNL     1      -2.517  -4.459   1.342  1.00  0.00     0.027 C 
BRANCH  10  11
ATOM     11  C   UNL     1      -3.037  -5.161   2.571  1.00  0.00    -0.031 C 
ATOM     12  C   UNL     1      -2.277  -5.561   3.607  1.00  0.00    -0.031 C 
BRANCH  12  13
ATOM     13  C   UNL     1      -0.774  -5.423   3.688  1.00  0.00     0.027 C 
BRANCH  13  14
ATOM     14  C   UNL     1      -0.079  -6.784   3.551  1.00  0.00     0.004 C 
BRANCH  14  15
ATOM     15  C   UNL     1      -0.879  -7.911   4.219  1.00  0.00     0.000 C 
BRANCH  15  16
ATOM     16  C   UNL     1      -0.032  -8.638   5.269  1.00  0.00    -0.000 C 
BRANCH  16  17
ATOM     17  C   UNL     1       1.452  -8.285   5.117  1.00  0.00    -0.003 C 
ATOM     18  C   UNL     1       2.221  -8.568   6.404  1.00  0.00     0.004 C 
ENDBRANCH  16  17
ENDBRANCH  15  16
ENDBRANCH  14  15
ENDBRANCH  13  14
ENDBRANCH  12  13
ENDBRANCH  10  11
ENDBRANCH   1  10
TORSDOF 13
ENDMDL
MODEL 9
REMARK VINA RESULT:    -4.163     11.747     13.998
REMARK INTER + INTRA:          -8.917
REMARK INTER:                  -6.576
REMARK INTRA:                  -2.342
REMARK UNBOUND:                -1.590
REMARK SMILES CCCCCCC=CCCCCCCCC(=O)[O-]
REMARK SMILES IDX 10 1 11 2 12 3 13 4 14 5 15 6 16 7 17 8 18 9 9 10 8 11 7 12
REMARK SMILES IDX 6 13 5 14 4 15 3 16 2 17 1 18
REMARK H PARENT
REMARK Flexibility Score: inf
ROOT
ATOM      1  C   UNL     1       0.880   6.076   3.428  1.00  0.00     0.004 C 
ENDROOT
BRANCH   1   2
ATOM      2  C   UNL     1       2.272   6.714   3.497  1.00  0.00     0.000 C 
BRANCH   2   3
ATOM      3  C   UNL     1       3.371   5.661   3.287  1.00  0.00     0.000 C 
BRANCH   3   4
ATOM      4  C   UNL     1       2.846   4.222   3.415  1.00  0.00     0.000 C 
BRANCH   4   5
ATOM      5  C   UNL     1       3.776   3.325   4.250  1.00  0.00     0.006 C 
BRANCH   5   6
ATOM      6  C   UNL     1       4.800   4.139   5.051  1.00  0.00     0.053 C 
BRANCH   6   7
ATOM      7  C   UNL     1       5.930   3.286   5.543  1.00  0.00     0.041 C 
ATOM      8  O   UNL     1       6.416   2.390   4.803  1.00  0.00    -0.550 OA
ATOM      9  O   UNL     1       6.466   3.500   6.807  1.00  0.00    -0.550 OA
ENDBRANCH   6   7
ENDBRANCH   5   6
ENDBRANCH   4   5
ENDBRANCH   3   4
ENDBRANCH   2   3
ENDBRANCH   1   2
BRANCH   1  10
ATOM     10  C   UNL     1      -0.145   6.911   4.206  1.00  0.00     0.027 C 
BRANCH  10  11
ATOM     11  C   UNL     1       0.431   8.247   4.598  1.00  0.00    -0.031 C 
ATOM     12  C   UNL     1       0.033   8.976   5.657  1.00  0.00    -0.031 C 
BRANCH  12  13
ATOM     13  C   UNL     1      -1.093   8.603   6.595  1.00  0.00     0.027 C 
BRANCH  13  14
ATOM     14  C   UNL     1      -0.564   8.251   7.991  1.00  0.00     0.004 C 
BRANCH  14  15
ATOM     15  C   UNL     1       0.007   6.826   8.051  1.00  0.00     0.000 C 
BRANCH  15  16
ATOM     16  C   UNL     1       1.532   6.852   8.201  1.00  0.00    -0.000 C 
BRANCH  16  17
ATOM     17  C   UNL     1       2.206   6.034   7.092  1.00  0.00    -0.003 C 
ATOM     18  C   UNL     1       1.492   4.702   6.880  1.00  0.00     0.004 C 
ENDBRANCH  16  17
ENDBRANCH  15  16
ENDBRANCH  14  15
ENDBRANCH  13  14
ENDBRANCH  12  13
ENDBRANCH  10  11
ENDBRANCH   1  10
TORSDOF 13
ENDMDL
