MODEL 1
REMARK VINA RESULT:    19.817      0.000      0.000
REMARK INTER + INTRA:          24.429
REMARK INTER:                  25.031
REMARK INTRA:                  -0.602
REMARK UNBOUND:                -0.602
REMARK SMILES Oc1cc(O)cc(CCc2ccccc2O)c1
REMARK SMILES IDX 9 1 10 2 12 3 13 4 11 5 14 6 15 7 16 8 8 10 7 11 6 12 17 13
REMARK SMILES IDX 4 14 2 15 3 16 5 17 1 19
REMARK H PARENT 16 9 5 18 1 20
REMARK Flexibility Score: inf
ROOT
ATOM      1  C   UNL     1       6.812  46.081  24.025  1.00  0.00     0.044 C 
ENDROOT
BRANCH   1   2
ATOM      2  C   UNL     1       6.416  46.937  25.202  1.00  0.00    -0.006 A 
ATOM      3  C   UNL     1       6.260  47.242  27.610  1.00  0.00     0.001 A 
ATOM      4  C   UNL     1       5.628  48.471  27.418  1.00  0.00     0.004 A 
ATOM      5  C   UNL     1       6.648  46.475  26.509  1.00  0.00     0.007 A 
ATOM      6  C   UNL     1       5.377  48.935  26.124  1.00  0.00     0.046 A 
ATOM      7  C   UNL     1       5.763  48.172  25.012  1.00  0.00     0.118 A 
BRANCH   7   8
ATOM      8  O   UNL     1       5.496  48.635  23.724  1.00  0.00    -0.508 OA
ATOM      9  H   UNL     1       6.142  48.479  22.959  1.00  0.00     0.293 HD
ENDBRANCH   7   8
ENDBRANCH   1   2
BRANCH   1  10
ATOM     10  C   UNL     1       5.642  45.197  23.583  1.00  0.00     0.040 C 
BRANCH  10  11
ATOM     11  C   UNL     1       5.882  43.766  23.978  1.00  0.00    -0.040 A 
ATOM     12  C   UNL     1       4.828  42.983  24.479  1.00  0.00     0.050 A 
ATOM     13  C   UNL     1       7.173  43.217  23.904  1.00  0.00     0.050 A 
ATOM     14  C   UNL     1       5.058  41.660  24.878  1.00  0.00     0.119 A 
ATOM     15  C   UNL     1       7.403  41.893  24.304  1.00  0.00     0.119 A 
ATOM     16  C   UNL     1       6.344  41.118  24.786  1.00  0.00     0.092 A 
BRANCH  14  17
ATOM     17  O   UNL     1       4.016  40.875  25.369  1.00  0.00    -0.508 OA
ATOM     18  H   UNL     1       3.557  40.182  24.789  1.00  0.00     0.293 HD
ENDBRANCH  14  17
BRANCH  15  19
ATOM     19  O   UNL     1       8.680  41.341  24.226  1.00  0.00    -0.508 OA
ATOM     20  H   UNL     1       8.946  40.726  23.466  1.00  0.00     0.293 HD
ENDBRANCH  15  19
ENDBRANCH  10  11
ENDBRANCH   1  10
TORSDOF 6
ENDMDL
MODEL 2
REMARK VINA RESULT:    19.830      0.036      2.031
REMARK INTER + INTRA:          24.445
REMARK INTER:                  25.049
REMARK INTRA:                  -0.604
REMARK UNBOUND:                -0.602
REMARK SMILES Oc1cc(O)cc(CCc2ccccc2O)c1
REMARK SMILES IDX 9 1 10 2 12 3 13 4 11 5 14 6 15 7 16 8 8 10 7 11 6 12 17 13
REMARK SMILES IDX 4 14 2 15 3 16 5 17 1 19
REMARK H PARENT 16 9 5 18 1 20
REMARK Flexibility Score: inf
ROOT
ATOM      1  C   UNL     1       6.786  46.107  24.011  1.00  0.00     0.044 C 
ENDROOT
BRANCH   1   2
ATOM      2  C   UNL     1       6.399  46.961  25.192  1.00  0.00    -0.006 A 
ATOM      3  C   UNL     1       6.248  47.255  27.603  1.00  0.00     0.001 A 
ATOM      4  C   UNL     1       5.628  48.491  27.417  1.00  0.00     0.004 A 
ATOM      5  C   UNL     1       6.628  46.490  26.497  1.00  0.00     0.007 A 
ATOM      6  C   UNL     1       5.380  48.964  26.126  1.00  0.00     0.046 A 
ATOM      7  C   UNL     1       5.757  48.203  25.010  1.00  0.00     0.118 A 
BRANCH   7   8
ATOM      8  O   UNL     1       5.494  48.675  23.724  1.00  0.00    -0.508 OA
ATOM      9  H   UNL     1       5.520  48.061  22.918  1.00  0.00     0.293 HD
ENDBRANCH   7   8
ENDBRANCH   1   2
BRANCH   1  10
ATOM     10  C   UNL     1       5.625  45.197  23.600  1.00  0.00     0.040 C 
BRANCH  10  11
ATOM     11  C   UNL     1       5.876  43.783  24.050  1.00  0.00    -0.040 A 
ATOM     12  C   UNL     1       7.161  43.226  23.945  1.00  0.00     0.050 A 
ATOM     13  C   UNL     1       4.818  42.991  24.524  1.00  0.00     0.050 A 
ATOM     14  C   UNL     1       7.390  41.898  24.332  1.00  0.00     0.119 A 
ATOM     15  C   UNL     1       5.046  41.664  24.912  1.00  0.00     0.119 A 
ATOM     16  C   UNL     1       6.331  41.123  24.817  1.00  0.00     0.092 A 
BRANCH  14  17
ATOM     17  O   UNL     1       8.663  41.340  24.238  1.00  0.00    -0.508 OA
ATOM     18  H   UNL     1       9.489  41.919  24.144  1.00  0.00     0.293 HD
ENDBRANCH  14  17
BRANCH  15  19
ATOM     19  O   UNL     1       4.001  40.875  25.389  1.00  0.00    -0.508 OA
ATOM     20  H   UNL     1       3.414  40.338  24.763  1.00  0.00     0.293 HD
ENDBRANCH  15  19
ENDBRANCH  10  11
ENDBRANCH   1  10
TORSDOF 6
ENDMDL
MODEL 3
REMARK VINA RESULT:    20.416      3.854      5.246
REMARK INTER + INTRA:          25.185
REMARK INTER:                  25.541
REMARK INTRA:                  -0.356
REMARK UNBOUND:                -0.602
REMARK SMILES Oc1cc(O)cc(CCc2ccccc2O)c1
REMARK SMILES IDX 9 1 10 2 12 3 13 4 11 5 14 6 15 7 16 8 8 10 7 11 6 12 17 13
REMARK SMILES IDX 4 14 2 15 3 16 5 17 1 19
REMARK H PARENT 16 9 5 18 1 20
REMARK Flexibility Score: inf
ROOT
ATOM      1  C   UNL     1       6.779  42.357  25.751  1.00  0.00     0.044 C 
ENDROOT
BRANCH   1   2
ATOM      2  C   UNL     1       5.489  42.190  24.987  1.00  0.00    -0.006 A 
ATOM      3  C   UNL     1       3.409  40.979  24.632  1.00  0.00     0.001 A 
ATOM      4  C   UNL     1       3.111  41.801  23.544  1.00  0.00     0.004 A 
ATOM      5  C   UNL     1       4.594  41.168  25.348  1.00  0.00     0.007 A 
ATOM      6  C   UNL     1       4.000  42.811  23.166  1.00  0.00     0.046 A 
ATOM      7  C   UNL     1       5.192  43.007  23.878  1.00  0.00     0.118 A 
BRANCH   7   8
ATOM      8  O   UNL     1       6.081  44.008  23.485  1.00  0.00    -0.508 OA
ATOM      9  H   UNL     1       6.426  44.699  24.140  1.00  0.00     0.293 HD
ENDBRANCH   7   8
ENDBRANCH   1   2
BRANCH   1  10
ATOM     10  C   UNL     1       7.600  41.064  25.713  1.00  0.00     0.040 C 
BRANCH  10  11
ATOM     11  C   UNL     1       8.482  41.034  24.495  1.00  0.00    -0.040 A 
ATOM     12  C   UNL     1       7.914  40.995  23.210  1.00  0.00     0.050 A 
ATOM     13  C   UNL     1       9.879  40.986  24.632  1.00  0.00     0.050 A 
ATOM     14  C   UNL     1       8.735  40.933  22.076  1.00  0.00     0.119 A 
ATOM     15  C   UNL     1      10.700  40.923  23.498  1.00  0.00     0.119 A 
ATOM     16  C   UNL     1      10.125  40.901  22.224  1.00  0.00     0.092 A 
BRANCH  14  17
ATOM     17  O   UNL     1       8.179  40.902  20.799  1.00  0.00    -0.508 OA
ATOM     18  H   UNL     1       8.539  41.482  20.050  1.00  0.00     0.293 HD
ENDBRANCH  14  17
BRANCH  15  19
ATOM     19  O   UNL     1      12.087  40.882  23.628  1.00  0.00    -0.508 OA
ATOM     20  H   UNL     1      12.689  40.719  22.829  1.00  0.00     0.293 HD
ENDBRANCH  15  19
ENDBRANCH  10  11
ENDBRANCH   1  10
TORSDOF 6
ENDMDL
MODEL 4
REMARK VINA RESULT:    22.233     13.219     15.648
REMARK INTER + INTRA:          27.480
REMARK INTER:                  27.410
REMARK INTRA:                   0.070
REMARK UNBOUND:                -0.602
REMARK SMILES Oc1cc(O)cc(CCc2ccccc2O)c1
REMARK SMILES IDX 9 1 10 2 12 3 13 4 11 5 14 6 15 7 16 8 8 10 7 11 6 12 17 13
REMARK SMILES IDX 4 14 2 15 3 16 5 17 1 19
REMARK H PARENT 16 9 5 18 1 20
REMARK Flexibility Score: inf
ROOT
ATOM      1  C   UNL     1      14.830  46.763  14.125  1.00  0.00     0.044 C 
ENDROOT
BRANCH   1   2
ATOM      2  C   UNL     1      15.235  45.420  13.570  1.00  0.00    -0.006 A 
ATOM      3  C   UNL     1      14.886  43.016  13.445  1.00  0.00     0.001 A 
ATOM      4  C   UNL     1      16.002  42.893  12.615  1.00  0.00     0.004 A 
ATOM      5  C   UNL     1      14.506  44.272  13.925  1.00  0.00     0.007 A 
ATOM      6  C   UNL     1      16.744  44.024  12.267  1.00  0.00     0.046 A 
ATOM      7  C   UNL     1      16.371  45.289  12.745  1.00  0.00     0.118 A 
BRANCH   7   8
ATOM      8  O   UNL     1      17.125  46.412  12.406  1.00  0.00    -0.508 OA
ATOM      9  H   UNL     1      18.085  46.519  12.710  1.00  0.00     0.293 HD
ENDBRANCH   7   8
ENDBRANCH   1   2
BRANCH   1  10
ATOM     10  C   UNL     1      14.743  47.804  13.005  1.00  0.00     0.040 C 
BRANCH  10  11
ATOM     11  C   UNL     1      13.606  48.756  13.255  1.00  0.00    -0.040 A 
ATOM     12  C   UNL     1      13.657  50.067  12.753  1.00  0.00     0.050 A 
ATOM     13  C   UNL     1      12.511  48.361  14.041  1.00  0.00     0.050 A 
ATOM     14  C   UNL     1      12.613  50.965  13.014  1.00  0.00     0.119 A 
ATOM     15  C   UNL     1      11.467  49.260  14.302  1.00  0.00     0.119 A 
ATOM     16  C   UNL     1      11.520  50.557  13.785  1.00  0.00     0.092 A 
BRANCH  14  17
ATOM     17  O   UNL     1      12.652  52.265  12.513  1.00  0.00    -0.508 OA
ATOM     18  H   UNL     1      12.789  52.448  11.526  1.00  0.00     0.293 HD
ENDBRANCH  14  17
BRANCH  15  19
ATOM     19  O   UNL     1      10.375  48.872  15.076  1.00  0.00    -0.508 OA
ATOM     20  H   UNL     1       9.863  48.019  14.881  1.00  0.00     0.293 HD
ENDBRANCH  15  19
ENDBRANCH  10  11
ENDBRANCH   1  10
TORSDOF 6
ENDMDL
MODEL 5
REMARK VINA RESULT:    22.249     13.214     15.562
REMARK INTER + INTRA:          27.500
REMARK INTER:                  27.443
REMARK INTRA:                   0.057
REMARK UNBOUND:                -0.602
REMARK SMILES Oc1cc(O)cc(CCc2ccccc2O)c1
REMARK SMILES IDX 9 1 10 2 12 3 13 4 11 5 14 6 15 7 16 8 8 10 7 11 6 12 17 13
REMARK SMILES IDX 4 14 2 15 3 16 5 17 1 19
REMARK H PARENT 16 9 5 18 1 20
REMARK Flexibility Score: inf
ROOT
ATOM      1  C   UNL     1      14.847  46.731  14.128  1.00  0.00     0.044 C 
ENDROOT
BRANCH   1   2
ATOM      2  C   UNL     1      15.236  45.388  13.562  1.00  0.00    -0.006 A 
ATOM      3  C   UNL     1      14.866  42.987  13.425  1.00  0.00     0.001 A 
ATOM      4  C   UNL     1      15.974  42.860  12.585  1.00  0.00     0.004 A 
ATOM      5  C   UNL     1      14.501  44.244  13.916  1.00  0.00     0.007 A 
ATOM      6  C   UNL     1      16.722  43.988  12.238  1.00  0.00     0.046 A 
ATOM      7  C   UNL     1      16.364  45.252  12.727  1.00  0.00     0.118 A 
BRANCH   7   8
ATOM      8  O   UNL     1      17.125  46.371  12.388  1.00  0.00    -0.508 OA
ATOM      9  H   UNL     1      16.703  47.286  12.276  1.00  0.00     0.293 HD
ENDBRANCH   7   8
ENDBRANCH   1   2
BRANCH   1  10
ATOM     10  C   UNL     1      14.736  47.774  13.012  1.00  0.00     0.040 C 
BRANCH  10  11
ATOM     11  C   UNL     1      13.633  48.753  13.311  1.00  0.00    -0.040 A 
ATOM     12  C   UNL     1      12.528  48.359  14.084  1.00  0.00     0.050 A 
ATOM     13  C   UNL     1      13.672  50.050  12.774  1.00  0.00     0.050 A 
ATOM     14  C   UNL     1      11.484  49.260  14.335  1.00  0.00     0.119 A 
ATOM     15  C   UNL     1      12.629  50.951  13.026  1.00  0.00     0.119 A 
ATOM     16  C   UNL     1      11.540  50.554  13.808  1.00  0.00     0.092 A 
BRANCH  14  17
ATOM     17  O   UNL     1      10.388  48.879  15.106  1.00  0.00    -0.508 OA
ATOM     18  H   UNL     1       9.474  49.298  14.970  1.00  0.00     0.293 HD
ENDBRANCH  14  17
BRANCH  15  19
ATOM     19  O   UNL     1      12.664  52.242  12.501  1.00  0.00    -0.508 OA
ATOM     20  H   UNL     1      13.483  52.831  12.600  1.00  0.00     0.293 HD
ENDBRANCH  15  19
ENDBRANCH  10  11
ENDBRANCH   1  10
TORSDOF 6
ENDMDL
MODEL 6
REMARK VINA RESULT:    22.478      1.600      6.044
REMARK INTER + INTRA:          27.789
REMARK INTER:                  28.356
REMARK INTRA:                  -0.568
REMARK UNBOUND:                -0.602
REMARK SMILES Oc1cc(O)cc(CCc2ccccc2O)c1
REMARK SMILES IDX 9 1 10 2 12 3 13 4 11 5 14 6 15 7 16 8 8 10 7 11 6 12 17 13
REMARK SMILES IDX 4 14 2 15 3 16 5 17 1 19
REMARK H PARENT 16 9 5 18 1 20
REMARK Flexibility Score: inf
ROOT
ATOM      1  C   UNL     1       5.492  44.806  23.714  1.00  0.00     0.044 C 
ENDROOT
BRANCH   1   2
ATOM      2  C   UNL     1       5.837  43.438  24.247  1.00  0.00    -0.006 A 
ATOM      3  C   UNL     1       7.523  41.817  24.919  1.00  0.00     0.001 A 
ATOM      4  C   UNL     1       6.523  40.876  25.170  1.00  0.00     0.004 A 
ATOM      5  C   UNL     1       7.183  43.091  24.454  1.00  0.00     0.007 A 
ATOM      6  C   UNL     1       5.182  41.204  24.954  1.00  0.00     0.046 A 
ATOM      7  C   UNL     1       4.832  42.479  24.487  1.00  0.00     0.118 A 
BRANCH   7   8
ATOM      8  O   UNL     1       3.493  42.794  24.259  1.00  0.00    -0.508 OA
ATOM      9  H   UNL     1       2.793  42.697  24.986  1.00  0.00     0.293 HD
ENDBRANCH   7   8
ENDBRANCH   1   2
BRANCH   1  10
ATOM     10  C   UNL     1       6.654  45.779  23.935  1.00  0.00     0.040 C 
BRANCH  10  11
ATOM     11  C   UNL     1       6.347  46.721  25.067  1.00  0.00    -0.040 A 
ATOM     12  C   UNL     1       5.924  48.034  24.801  1.00  0.00     0.050 A 
ATOM     13  C   UNL     1       6.535  46.315  26.399  1.00  0.00     0.050 A 
ATOM     14  C   UNL     1       5.669  48.923  25.854  1.00  0.00     0.119 A 
ATOM     15  C   UNL     1       6.280  47.203  27.452  1.00  0.00     0.119 A 
ATOM     16  C   UNL     1       5.846  48.503  27.177  1.00  0.00     0.092 A 
BRANCH  14  17
ATOM     17  O   UNL     1       5.243  50.224  25.598  1.00  0.00    -0.508 OA
ATOM     18  H   UNL     1       4.283  50.508  25.757  1.00  0.00     0.293 HD
ENDBRANCH  14  17
BRANCH  15  19
ATOM     19  O   UNL     1       6.459  46.804  28.775  1.00  0.00    -0.508 OA
ATOM     20  H   UNL     1       5.774  46.228  29.252  1.00  0.00     0.293 HD
ENDBRANCH  15  19
ENDBRANCH  10  11
ENDBRANCH   1  10
TORSDOF 6
ENDMDL
MODEL 7
REMARK VINA RESULT:    22.569      3.121      6.098
REMARK INTER + INTRA:          27.905
REMARK INTER:                  27.116
REMARK INTRA:                   0.789
REMARK UNBOUND:                -0.602
REMARK SMILES Oc1cc(O)cc(CCc2ccccc2O)c1
REMARK SMILES IDX 9 1 10 2 12 3 13 4 11 5 14 6 15 7 16 8 8 10 7 11 6 12 17 13
REMARK SMILES IDX 4 14 2 15 3 16 5 17 1 19
REMARK H PARENT 16 9 5 18 1 20
REMARK Flexibility Score: inf
ROOT
ATOM      1  C   UNL     1       8.973  40.875  23.512  1.00  0.00     0.044 C 
ENDROOT
BRANCH   1   2
ATOM      2  C   UNL     1      10.248  41.575  23.110  1.00  0.00    -0.006 A 
ATOM      3  C   UNL     1      12.662  41.522  22.819  1.00  0.00     0.001 A 
ATOM      4  C   UNL     1      12.650  42.865  22.438  1.00  0.00     0.004 A 
ATOM      5  C   UNL     1      11.468  40.880  23.158  1.00  0.00     0.007 A 
ATOM      6  C   UNL     1      11.445  43.571  22.401  1.00  0.00     0.046 A 
ATOM      7  C   UNL     1      10.242  42.936  22.741  1.00  0.00     0.118 A 
BRANCH   7   8
ATOM      8  O   UNL     1       9.045  43.651  22.716  1.00  0.00    -0.508 OA
ATOM      9  H   UNL     1       8.817  44.279  21.953  1.00  0.00     0.293 HD
ENDBRANCH   7   8
ENDBRANCH   1   2
BRANCH   1  10
ATOM     10  C   UNL     1       8.440  41.441  24.832  1.00  0.00     0.040 C 
BRANCH  10  11
ATOM     11  C   UNL     1       7.071  42.033  24.638  1.00  0.00    -0.040 A 
ATOM     12  C   UNL     1       6.925  43.301  24.052  1.00  0.00     0.050 A 
ATOM     13  C   UNL     1       5.932  41.349  25.094  1.00  0.00     0.050 A 
ATOM     14  C   UNL     1       5.652  43.868  23.902  1.00  0.00     0.119 A 
ATOM     15  C   UNL     1       4.659  41.916  24.944  1.00  0.00     0.119 A 
ATOM     16  C   UNL     1       4.523  43.172  24.345  1.00  0.00     0.092 A 
BRANCH  14  17
ATOM     17  O   UNL     1       5.498  45.123  23.315  1.00  0.00    -0.508 OA
ATOM     18  H   UNL     1       6.064  45.914  23.601  1.00  0.00     0.293 HD
ENDBRANCH  14  17
BRANCH  15  19
ATOM     19  O   UNL     1       3.525  41.239  25.388  1.00  0.00    -0.508 OA
ATOM     20  H   UNL     1       2.600  41.472  25.045  1.00  0.00     0.293 HD
ENDBRANCH  15  19
ENDBRANCH  10  11
ENDBRANCH   1  10
TORSDOF 6
ENDMDL
MODEL 8
REMARK VINA RESULT:    22.705      1.621      6.002
REMARK INTER + INTRA:          28.076
REMARK INTER:                  28.610
REMARK INTRA:                  -0.534
REMARK UNBOUND:                -0.602
REMARK SMILES Oc1cc(O)cc(CCc2ccccc2O)c1
REMARK SMILES IDX 9 1 10 2 12 3 13 4 11 5 14 6 15 7 16 8 8 10 7 11 6 12 17 13
REMARK SMILES IDX 4 14 2 15 3 16 5 17 1 19
REMARK H PARENT 16 9 5 18 1 20
REMARK Flexibility Score: inf
ROOT
ATOM      1  C   UNL     1       5.459  44.773  23.685  1.00  0.00     0.044 C 
ENDROOT
BRANCH   1   2
ATOM      2  C   UNL     1       5.811  43.416  24.241  1.00  0.00    -0.006 A 
ATOM      3  C   UNL     1       7.504  41.821  24.954  1.00  0.00     0.001 A 
ATOM      4  C   UNL     1       6.511  40.875  25.210  1.00  0.00     0.004 A 
ATOM      5  C   UNL     1       7.158  43.085  24.467  1.00  0.00     0.007 A 
ATOM      6  C   UNL     1       5.169  41.187  24.975  1.00  0.00     0.046 A 
ATOM      7  C   UNL     1       4.813  42.452  24.486  1.00  0.00     0.118 A 
BRANCH   7   8
ATOM      8  O   UNL     1       3.472  42.751  24.240  1.00  0.00    -0.508 OA
ATOM      9  H   UNL     1       2.723  42.261  24.715  1.00  0.00     0.293 HD
ENDBRANCH   7   8
ENDBRANCH   1   2
BRANCH   1  10
ATOM     10  C   UNL     1       6.628  45.747  23.860  1.00  0.00     0.040 C 
BRANCH  10  11
ATOM     11  C   UNL     1       6.387  46.657  25.034  1.00  0.00    -0.040 A 
ATOM     12  C   UNL     1       6.618  46.200  26.342  1.00  0.00     0.050 A 
ATOM     13  C   UNL     1       5.876  47.950  24.835  1.00  0.00     0.050 A 
ATOM     14  C   UNL     1       6.362  47.035  27.438  1.00  0.00     0.119 A 
ATOM     15  C   UNL     1       5.620  48.785  25.931  1.00  0.00     0.119 A 
ATOM     16  C   UNL     1       5.867  48.326  27.228  1.00  0.00     0.092 A 
BRANCH  14  17
ATOM     17  O   UNL     1       6.595  46.591  28.738  1.00  0.00    -0.508 OA
ATOM     18  H   UNL     1       6.829  45.625  28.934  1.00  0.00     0.293 HD
ENDBRANCH  14  17
BRANCH  15  19
ATOM     19  O   UNL     1       5.119  50.071  25.741  1.00  0.00    -0.508 OA
ATOM     20  H   UNL     1       4.132  50.277  25.848  1.00  0.00     0.293 HD
ENDBRANCH  15  19
ENDBRANCH  10  11
ENDBRANCH   1  10
TORSDOF 6
ENDMDL
