MODEL 1
REMARK VINA RESULT:    -2.835      0.000      0.000
REMARK INTER + INTRA:          -3.923
REMARK INTER:                  -3.664
REMARK INTRA:                  -0.259
REMARK UNBOUND:                -0.259
REMARK SMILES CCCCCCC(=O)[O-]
REMARK SMILES IDX 5 1 6 2 7 3 8 4 9 5 4 6 3 7 2 8 1 9
REMARK H PARENT
REMARK Flexibility Score: inf
ROOT
ATOM      1  C   UNL     1     -97.054 -46.436 -11.974  1.00  0.00     0.006 C 
ENDROOT
BRANCH   1   2
ATOM      2  C   UNL     1     -95.651 -45.988 -11.553  1.00  0.00     0.053 C 
BRANCH   2   3
ATOM      3  C   UNL     1     -94.610 -46.713 -12.347  1.00  0.00     0.041 C 
ATOM      4  O   UNL     1     -94.711 -47.954 -12.540  1.00  0.00    -0.550 OA
ATOM      5  O   UNL     1     -93.503 -46.028 -12.831  1.00  0.00    -0.550 OA
ENDBRANCH   2   3
ENDBRANCH   1   2
BRANCH   1   6
ATOM      6  C   UNL     1     -98.018 -45.246 -12.025  1.00  0.00     0.000 C 
BRANCH   6   7
ATOM      7  C   UNL     1     -97.273 -43.923 -11.811  1.00  0.00    -0.000 C 
BRANCH   7   8
ATOM      8  C   UNL     1     -97.858 -43.147 -10.626  1.00  0.00    -0.003 C 
ATOM      9  C   UNL     1     -96.811 -42.937  -9.534  1.00  0.00     0.004 C 
ENDBRANCH   7   8
ENDBRANCH   6   7
ENDBRANCH   1   6
TORSDOF 5
ENDMDL
MODEL 2
REMARK VINA RESULT:    -2.826      1.266      2.025
REMARK INTER + INTRA:          -3.911
REMARK INTER:                  -3.748
REMARK INTRA:                  -0.163
REMARK UNBOUND:                -0.259
REMARK SMILES CCCCCCC(=O)[O-]
REMARK SMILES IDX 5 1 6 2 7 3 8 4 9 5 4 6 3 7 2 8 1 9
REMARK H PARENT
REMARK Flexibility Score: inf
ROOT
ATOM      1  C   UNL     1     -95.951 -45.878 -11.171  1.00  0.00     0.006 C 
ENDROOT
BRANCH   1   2
ATOM      2  C   UNL     1     -95.319 -47.109 -11.827  1.00  0.00     0.053 C 
BRANCH   2   3
ATOM      3  C   UNL     1     -93.953 -46.784 -12.343  1.00  0.00     0.041 C 
ATOM      4  O   UNL     1     -93.774 -45.767 -13.065  1.00  0.00    -0.550 OA
ATOM      5  O   UNL     1     -92.886 -47.630 -12.068  1.00  0.00    -0.550 OA
ENDBRANCH   2   3
ENDBRANCH   1   2
BRANCH   1   6
ATOM      6  C   UNL     1     -97.107 -45.336 -12.020  1.00  0.00     0.000 C 
BRANCH   6   7
ATOM      7  C   UNL     1     -97.373 -43.858 -11.708  1.00  0.00    -0.000 C 
BRANCH   7   8
ATOM      8  C   UNL     1     -98.817 -43.476 -12.050  1.00  0.00    -0.003 C 
ATOM      9  C   UNL     1     -99.640 -44.706 -12.423  1.00  0.00     0.004 C 
ENDBRANCH   7   8
ENDBRANCH   6   7
ENDBRANCH   1   6
TORSDOF 5
ENDMDL
MODEL 3
REMARK VINA RESULT:    -2.822      1.329      1.709
REMARK INTER + INTRA:          -3.906
REMARK INTER:                  -3.713
REMARK INTRA:                  -0.193
REMARK UNBOUND:                -0.259
REMARK SMILES CCCCCCC(=O)[O-]
REMARK SMILES IDX 5 1 6 2 7 3 8 4 9 5 4 6 3 7 2 8 1 9
REMARK H PARENT
REMARK Flexibility Score: inf
ROOT
ATOM      1  C   UNL     1     -96.388 -45.511 -11.982  1.00  0.00     0.006 C 
ENDROOT
BRANCH   1   2
ATOM      2  C   UNL     1     -95.365 -46.271 -11.133  1.00  0.00     0.053 C 
BRANCH   2   3
ATOM      3  C   UNL     1     -94.375 -46.971 -12.010  1.00  0.00     0.041 C 
ATOM      4  O   UNL     1     -94.337 -48.230 -12.044  1.00  0.00    -0.550 OA
ATOM      5  O   UNL     1     -93.461 -46.235 -12.753  1.00  0.00    -0.550 OA
ENDBRANCH   2   3
ENDBRANCH   1   2
BRANCH   1   6
ATOM      6  C   UNL     1     -97.720 -46.268 -12.046  1.00  0.00     0.000 C 
BRANCH   6   7
ATOM      7  C   UNL     1     -98.894 -45.303 -12.246  1.00  0.00    -0.000 C 
BRANCH   7   8
ATOM      8  C   UNL     1     -98.478 -43.860 -11.940  1.00  0.00    -0.003 C 
ATOM      9  C   UNL     1     -99.581 -42.876 -12.320  1.00  0.00     0.004 C 
ENDBRANCH   7   8
ENDBRANCH   6   7
ENDBRANCH   1   6
TORSDOF 5
ENDMDL
MODEL 4
REMARK VINA RESULT:    -2.747      1.786      3.292
REMARK INTER + INTRA:          -3.808
REMARK INTER:                  -3.650
REMARK INTRA:                  -0.158
REMARK UNBOUND:                -0.259
REMARK SMILES CCCCCCC(=O)[O-]
REMARK SMILES IDX 5 1 6 2 7 3 8 4 9 5 4 6 3 7 2 8 1 9
REMARK H PARENT
REMARK Flexibility Score: inf
ROOT
ATOM      1  C   UNL     1     -96.450 -45.234 -12.018  1.00  0.00     0.006 C 
ENDROOT
BRANCH   1   2
ATOM      2  C   UNL     1     -95.626 -46.486 -11.706  1.00  0.00     0.053 C 
BRANCH   2   3
ATOM      3  C   UNL     1     -94.307 -46.433 -12.410  1.00  0.00     0.041 C 
ATOM      4  O   UNL     1     -93.411 -47.278 -12.142  1.00  0.00    -0.550 OA
ATOM      5  O   UNL     1     -94.048 -45.422 -13.326  1.00  0.00    -0.550 OA
ENDBRANCH   2   3
ENDBRANCH   1   2
BRANCH   1   6
ATOM      6  C   UNL     1     -97.951 -45.547 -12.008  1.00  0.00     0.000 C 
BRANCH   6   7
ATOM      7  C   UNL     1     -98.211 -47.010 -12.390  1.00  0.00    -0.000 C 
BRANCH   7   8
ATOM      8  C   UNL     1     -99.680 -47.227 -12.767  1.00  0.00    -0.003 C 
ATOM      9  C   UNL     1     -99.858 -48.507 -13.579  1.00  0.00     0.004 C 
ENDBRANCH   7   8
ENDBRANCH   6   7
ENDBRANCH   1   6
TORSDOF 5
ENDMDL
MODEL 5
REMARK VINA RESULT:    -2.703      4.017      4.605
REMARK INTER + INTRA:          -3.751
REMARK INTER:                  -3.537
REMARK INTRA:                  -0.214
REMARK UNBOUND:                -0.259
REMARK SMILES CCCCCCC(=O)[O-]
REMARK SMILES IDX 5 1 6 2 7 3 8 4 9 5 4 6 3 7 2 8 1 9
REMARK H PARENT
REMARK Flexibility Score: inf
ROOT
ATOM      1  C   UNL     1     -99.250 -47.185 -11.946  1.00  0.00     0.006 C 
ENDROOT
BRANCH   1   2
ATOM      2  C   UNL     1     -99.230 -48.172 -13.116  1.00  0.00     0.053 C 
BRANCH   2   3
ATOM      3  C   UNL     1    -100.614 -48.381 -13.647  1.00  0.00     0.041 C 
ATOM      4  O   UNL     1    -101.062 -49.546 -13.807  1.00  0.00    -0.550 OA
ATOM      5  O   UNL     1    -101.390 -47.288 -14.013  1.00  0.00    -0.550 OA
ENDBRANCH   2   3
ENDBRANCH   1   2
BRANCH   1   6
ATOM      6  C   UNL     1     -98.477 -45.907 -12.293  1.00  0.00     0.000 C 
BRANCH   6   7
ATOM      7  C   UNL     1     -99.422 -44.704 -12.405  1.00  0.00    -0.000 C 
BRANCH   7   8
ATOM      8  C   UNL     1     -98.714 -43.408 -12.000  1.00  0.00    -0.003 C 
ATOM      9  C   UNL     1     -97.203 -43.609 -11.910  1.00  0.00     0.004 C 
ENDBRANCH   7   8
ENDBRANCH   6   7
ENDBRANCH   1   6
TORSDOF 5
ENDMDL
MODEL 6
REMARK VINA RESULT:    -2.619      1.579      2.529
REMARK INTER + INTRA:          -3.643
REMARK INTER:                  -3.241
REMARK INTRA:                  -0.402
REMARK UNBOUND:                -0.259
REMARK SMILES CCCCCCC(=O)[O-]
REMARK SMILES IDX 5 1 6 2 7 3 8 4 9 5 4 6 3 7 2 8 1 9
REMARK H PARENT
REMARK Flexibility Score: inf
ROOT
ATOM      1  C   UNL     1     -97.341 -43.829 -11.837  1.00  0.00     0.006 C 
ENDROOT
BRANCH   1   2
ATOM      2  C   UNL     1     -97.973 -45.212 -12.019  1.00  0.00     0.053 C 
BRANCH   2   3
ATOM      3  C   UNL     1     -96.921 -46.275 -12.003  1.00  0.00     0.041 C 
ATOM      4  O   UNL     1     -97.248 -47.491 -11.951  1.00  0.00    -0.550 OA
ATOM      5  O   UNL     1     -95.577 -45.924 -11.995  1.00  0.00    -0.550 OA
ENDBRANCH   2   3
ENDBRANCH   1   2
BRANCH   1   6
ATOM      6  C   UNL     1     -97.877 -43.143 -10.575  1.00  0.00     0.000 C 
BRANCH   6   7
ATOM      7  C   UNL     1     -96.820 -43.130  -9.463  1.00  0.00    -0.000 C 
BRANCH   7   8
ATOM      8  C   UNL     1     -97.032 -44.293  -8.489  1.00  0.00    -0.003 C 
ATOM      9  C   UNL     1     -95.859 -45.268  -8.530  1.00  0.00     0.004 C 
ENDBRANCH   7   8
ENDBRANCH   6   7
ENDBRANCH   1   6
TORSDOF 5
ENDMDL
MODEL 7
REMARK VINA RESULT:    -2.600      2.989      4.510
REMARK INTER + INTRA:          -3.618
REMARK INTER:                  -3.310
REMARK INTRA:                  -0.308
REMARK UNBOUND:                -0.259
REMARK SMILES CCCCCCC(=O)[O-]
REMARK SMILES IDX 5 1 6 2 7 3 8 4 9 5 4 6 3 7 2 8 1 9
REMARK H PARENT
REMARK Flexibility Score: inf
ROOT
ATOM      1  C   UNL     1     -97.559 -43.827 -11.779  1.00  0.00     0.006 C 
ENDROOT
BRANCH   1   2
ATOM      2  C   UNL     1     -98.207 -43.005 -10.661  1.00  0.00     0.053 C 
BRANCH   2   3
ATOM      3  C   UNL     1     -97.605 -43.355  -9.337  1.00  0.00     0.041 C 
ATOM      4  O   UNL     1     -96.363 -43.539  -9.234  1.00  0.00    -0.550 OA
ATOM      5  O   UNL     1     -98.421 -43.528  -8.226  1.00  0.00    -0.550 OA
ENDBRANCH   2   3
ENDBRANCH   1   2
BRANCH   1   6
ATOM      6  C   UNL     1     -98.260 -45.181 -11.941  1.00  0.00     0.000 C 
BRANCH   6   7
ATOM      7  C   UNL     1     -97.240 -46.322 -12.039  1.00  0.00    -0.000 C 
BRANCH   7   8
ATOM      8  C   UNL     1     -95.810 -45.796 -11.875  1.00  0.00    -0.003 C 
ATOM      9  C   UNL     1     -94.785 -46.854 -12.274  1.00  0.00     0.004 C 
ENDBRANCH   7   8
ENDBRANCH   6   7
ENDBRANCH   1   6
TORSDOF 5
ENDMDL
MODEL 8
REMARK VINA RESULT:    -2.579      2.008      2.589
REMARK INTER + INTRA:          -3.591
REMARK INTER:                  -3.420
REMARK INTRA:                  -0.171
REMARK UNBOUND:                -0.259
REMARK SMILES CCCCCCC(=O)[O-]
REMARK SMILES IDX 5 1 6 2 7 3 8 4 9 5 4 6 3 7 2 8 1 9
REMARK H PARENT
REMARK Flexibility Score: inf
ROOT
ATOM      1  C   UNL     1     -95.604 -46.141 -11.921  1.00  0.00     0.006 C 
ENDROOT
BRANCH   1   2
ATOM      2  C   UNL     1     -95.641 -46.859 -10.569  1.00  0.00     0.053 C 
BRANCH   2   3
ATOM      3  C   UNL     1     -94.325 -46.724  -9.869  1.00  0.00     0.041 C 
ATOM      4  O   UNL     1     -94.091 -45.718  -9.148  1.00  0.00    -0.550 OA
ATOM      5  O   UNL     1     -93.339 -47.685 -10.051  1.00  0.00    -0.550 OA
ENDBRANCH   2   3
ENDBRANCH   1   2
BRANCH   1   6
ATOM      6  C   UNL     1     -96.714 -45.087 -12.013  1.00  0.00     0.000 C 
BRANCH   6   7
ATOM      7  C   UNL     1     -98.096 -45.747 -12.083  1.00  0.00    -0.000 C 
BRANCH   7   8
ATOM      8  C   UNL     1     -99.189 -44.707 -12.350  1.00  0.00    -0.003 C 
ATOM      9  C   UNL     1     -98.712 -43.301 -11.995  1.00  0.00     0.004 C 
ENDBRANCH   7   8
ENDBRANCH   6   7
ENDBRANCH   1   6
TORSDOF 5
ENDMDL
MODEL 9
REMARK VINA RESULT:    -2.527      3.372      4.708
REMARK INTER + INTRA:          -3.524
REMARK INTER:                  -3.280
REMARK INTRA:                  -0.244
REMARK UNBOUND:                -0.259
REMARK SMILES CCCCCCC(=O)[O-]
REMARK SMILES IDX 5 1 6 2 7 3 8 4 9 5 4 6 3 7 2 8 1 9
REMARK H PARENT
REMARK Flexibility Score: inf
ROOT
ATOM      1  C   UNL     1     -97.690 -43.436 -11.366  1.00  0.00     0.006 C 
ENDROOT
BRANCH   1   2
ATOM      2  C   UNL     1     -97.070 -42.877 -10.082  1.00  0.00     0.053 C 
BRANCH   2   3
ATOM      3  C   UNL     1     -97.673 -43.536  -8.881  1.00  0.00     0.041 C 
ATOM      4  O   UNL     1     -98.765 -43.120  -8.412  1.00  0.00    -0.550 OA
ATOM      5  O   UNL     1     -97.004 -44.577  -8.250  1.00  0.00    -0.550 OA
ENDBRANCH   2   3
ENDBRANCH   1   2
BRANCH   1   6
ATOM      6  C   UNL     1     -96.833 -44.570 -11.941  1.00  0.00     0.000 C 
BRANCH   6   7
ATOM      7  C   UNL     1     -97.574 -45.911 -11.872  1.00  0.00    -0.000 C 
BRANCH   7   8
ATOM      8  C   UNL     1     -99.034 -45.755 -12.310  1.00  0.00    -0.003 C 
ATOM      9  C   UNL     1     -99.654 -47.108 -12.650  1.00  0.00     0.004 C 
ENDBRANCH   7   8
ENDBRANCH   6   7
ENDBRANCH   1   6
TORSDOF 5
ENDMDL
