MODEL 1
REMARK VINA RESULT:    -4.686      0.000      0.000
REMARK INTER + INTRA:         -10.804
REMARK INTER:                  -8.247
REMARK INTRA:                  -2.556
REMARK UNBOUND:                -2.556
REMARK SMILES CCCCCCC=CCCCCCCCC(=O)[O-]
REMARK SMILES IDX 10 1 11 2 12 3 13 4 14 5 15 6 16 7 17 8 18 9 9 10 8 11 7 12
REMARK SMILES IDX 6 13 5 14 4 15 3 16 2 17 1 18
REMARK H PARENT
REMARK Flexibility Score: inf
ROOT
ATOM      1  C   UNL     1      23.075  13.512  -1.548  1.00  0.00     0.004 C 
ENDROOT
BRANCH   1   2
ATOM      2  C   UNL     1      23.293  13.011  -0.106  1.00  0.00     0.000 C 
BRANCH   2   3
ATOM      3  C   UNL     1      24.755  13.035   0.380  1.00  0.00     0.000 C 
BRANCH   3   4
ATOM      4  C   UNL     1      25.456  14.404   0.271  1.00  0.00     0.000 C 
BRANCH   4   5
ATOM      5  C   UNL     1      26.723  14.559   1.137  1.00  0.00     0.006 C 
BRANCH   5   6
ATOM      6  C   UNL     1      26.927  15.967   1.717  1.00  0.00     0.053 C 
BRANCH   6   7
ATOM      7  C   UNL     1      27.080  16.999   0.643  1.00  0.00     0.041 C 
ATOM      8  O   UNL     1      26.304  17.990   0.601  1.00  0.00    -0.550 OA
ATOM      9  O   UNL     1      28.102  16.887  -0.291  1.00  0.00    -0.550 OA
ENDBRANCH   6   7
ENDBRANCH   5   6
ENDBRANCH   4   5
ENDBRANCH   3   4
ENDBRANCH   2   3
ENDBRANCH   1   2
BRANCH   1  10
ATOM     10  C   UNL     1      21.756  14.273  -1.764  1.00  0.00     0.027 C 
BRANCH  10  11
ATOM     11  C   UNL     1      21.981  15.746  -2.003  1.00  0.00    -0.031 C 
ATOM     12  C   UNL     1      22.091  16.673  -1.033  1.00  0.00    -0.031 C 
BRANCH  12  13
ATOM     13  C   UNL     1      21.909  16.399   0.438  1.00  0.00     0.027 C 
BRANCH  13  14
ATOM     14  C   UNL     1      22.870  17.255   1.272  1.00  0.00     0.004 C 
BRANCH  14  15
ATOM     15  C   UNL     1      23.352  16.491   2.511  1.00  0.00     0.000 C 
BRANCH  15  16
ATOM     16  C   UNL     1      22.491  15.244   2.757  1.00  0.00    -0.000 C 
BRANCH  16  17
ATOM     17  C   UNL     1      23.177  14.226   3.681  1.00  0.00    -0.003 C 
ATOM     18  C   UNL     1      24.507  14.733   4.237  1.00  0.00     0.004 C 
ENDBRANCH  16  17
ENDBRANCH  15  16
ENDBRANCH  14  15
ENDBRANCH  13  14
ENDBRANCH  12  13
ENDBRANCH  10  11
ENDBRANCH   1  10
TORSDOF 13
ENDMDL
MODEL 2
REMARK VINA RESULT:    -4.646      1.399      2.097
REMARK INTER + INTRA:         -10.733
REMARK INTER:                  -8.559
REMARK INTRA:                  -2.174
REMARK UNBOUND:                -2.556
REMARK SMILES CCCCCCC=CCCCCCCCC(=O)[O-]
REMARK SMILES IDX 10 1 11 2 12 3 13 4 14 5 15 6 16 7 17 8 18 9 9 10 8 11 7 12
REMARK SMILES IDX 6 13 5 14 4 15 3 16 2 17 1 18
REMARK H PARENT
REMARK Flexibility Score: inf
ROOT
ATOM      1  C   UNL     1      22.155  14.238  -3.453  1.00  0.00     0.004 C 
ENDROOT
BRANCH   1   2
ATOM      2  C   UNL     1      22.995  13.161  -2.736  1.00  0.00     0.000 C 
BRANCH   2   3
ATOM      3  C   UNL     1      22.388  12.626  -1.424  1.00  0.00     0.000 C 
BRANCH   3   4
ATOM      4  C   UNL     1      23.094  13.099  -0.138  1.00  0.00     0.000 C 
BRANCH   4   5
ATOM      5  C   UNL     1      24.379  13.921  -0.362  1.00  0.00     0.006 C 
BRANCH   5   6
ATOM      6  C   UNL     1      25.558  13.514   0.536  1.00  0.00     0.053 C 
BRANCH   6   7
ATOM      7  C   UNL     1      26.660  14.527   0.510  1.00  0.00     0.041 C 
ATOM      8  O   UNL     1      26.632  15.514   1.291  1.00  0.00    -0.550 OA
ATOM      9  O   UNL     1      27.737  14.363  -0.353  1.00  0.00    -0.550 OA
ENDBRANCH   6   7
ENDBRANCH   5   6
ENDBRANCH   4   5
ENDBRANCH   3   4
ENDBRANCH   2   3
ENDBRANCH   1   2
BRANCH   1  10
ATOM     10  C   UNL     1      22.527  15.684  -3.084  1.00  0.00     0.027 C 
BRANCH  10  11
ATOM     11  C   UNL     1      21.335  16.470  -2.596  1.00  0.00    -0.031 C 
ATOM     12  C   UNL     1      21.274  17.120  -1.418  1.00  0.00    -0.031 C 
BRANCH  12  13
ATOM     13  C   UNL     1      22.351  17.083  -0.363  1.00  0.00     0.027 C 
BRANCH  13  14
ATOM     14  C   UNL     1      21.839  16.401   0.911  1.00  0.00     0.004 C 
BRANCH  14  15
ATOM     15  C   UNL     1      22.908  16.417   2.010  1.00  0.00     0.000 C 
BRANCH  15  16
ATOM     16  C   UNL     1      22.669  15.289   3.024  1.00  0.00    -0.000 C 
BRANCH  16  17
ATOM     17  C   UNL     1      23.965  14.829   3.711  1.00  0.00    -0.003 C 
ATOM     18  C   UNL     1      23.961  13.337   4.043  1.00  0.00     0.004 C 
ENDBRANCH  16  17
ENDBRANCH  15  16
ENDBRANCH  14  15
ENDBRANCH  13  14
ENDBRANCH  12  13
ENDBRANCH  10  11
ENDBRANCH   1  10
TORSDOF 13
ENDMDL
MODEL 3
REMARK VINA RESULT:    -4.614      3.210      5.123
REMARK INTER + INTRA:         -10.678
REMARK INTER:                  -8.011
REMARK INTRA:                  -2.667
REMARK UNBOUND:                -2.556
REMARK SMILES CCCCCCC=CCCCCCCCC(=O)[O-]
REMARK SMILES IDX 10 1 11 2 12 3 13 4 14 5 15 6 16 7 17 8 18 9 9 10 8 11 7 12
REMARK SMILES IDX 6 13 5 14 4 15 3 16 2 17 1 18
REMARK H PARENT
REMARK Flexibility Score: inf
ROOT
ATOM      1  C   UNL     1      21.794  16.693   0.717  1.00  0.00     0.004 C 
ENDROOT
BRANCH   1   2
ATOM      2  C   UNL     1      21.390  15.958  -0.578  1.00  0.00     0.000 C 
BRANCH   2   3
ATOM      3  C   UNL     1      22.380  16.107  -1.749  1.00  0.00     0.000 C 
BRANCH   3   4
ATOM      4  C   UNL     1      22.526  14.860  -2.643  1.00  0.00     0.000 C 
BRANCH   4   5
ATOM      5  C   UNL     1      22.094  13.532  -1.989  1.00  0.00     0.006 C 
BRANCH   5   6
ATOM      6  C   UNL     1      23.068  12.365  -2.219  1.00  0.00     0.053 C 
BRANCH   6   7
ATOM      7  C   UNL     1      22.413  11.037  -1.997  1.00  0.00     0.041 C 
ATOM      8  O   UNL     1      22.421  10.167  -2.908  1.00  0.00    -0.550 OA
ATOM      9  O   UNL     1      21.826  10.745  -0.773  1.00  0.00    -0.550 OA
ENDBRANCH   6   7
ENDBRANCH   5   6
ENDBRANCH   4   5
ENDBRANCH   3   4
ENDBRANCH   2   3
ENDBRANCH   1   2
BRANCH   1  10
ATOM     10  C   UNL     1      23.051  17.569   0.585  1.00  0.00     0.027 C 
BRANCH  10  11
ATOM     11  C   UNL     1      24.088  17.237   1.630  1.00  0.00    -0.031 C 
ATOM     12  C   UNL     1      25.226  16.558   1.394  1.00  0.00    -0.031 C 
BRANCH  12  13
ATOM     13  C   UNL     1      25.596  15.941   0.070  1.00  0.00     0.027 C 
BRANCH  13  14
ATOM     14  C   UNL     1      25.154  14.474   0.012  1.00  0.00     0.004 C 
BRANCH  14  15
ATOM     15  C   UNL     1      24.865  13.932   1.417  1.00  0.00     0.000 C 
BRANCH  15  16
ATOM     16  C   UNL     1      23.436  13.377   1.508  1.00  0.00    -0.000 C 
BRANCH  16  17
ATOM     17  C   UNL     1      22.740  13.750   2.826  1.00  0.00    -0.003 C 
ATOM     18  C   UNL     1      23.714  14.273   3.882  1.00  0.00     0.004 C 
ENDBRANCH  16  17
ENDBRANCH  15  16
ENDBRANCH  14  15
ENDBRANCH  13  14
ENDBRANCH  12  13
ENDBRANCH  10  11
ENDBRANCH   1  10
TORSDOF 13
ENDMDL
MODEL 4
REMARK VINA RESULT:    -4.602      2.917      4.435
REMARK INTER + INTRA:         -10.656
REMARK INTER:                  -8.050
REMARK INTRA:                  -2.607
REMARK UNBOUND:                -2.556
REMARK SMILES CCCCCCC=CCCCCCCCC(=O)[O-]
REMARK SMILES IDX 10 1 11 2 12 3 13 4 14 5 15 6 16 7 17 8 18 9 9 10 8 11 7 12
REMARK SMILES IDX 6 13 5 14 4 15 3 16 2 17 1 18
REMARK H PARENT
REMARK Flexibility Score: inf
ROOT
ATOM      1  C   UNL     1      26.354  16.301   1.737  1.00  0.00     0.004 C 
ENDROOT
BRANCH   1   2
ATOM      2  C   UNL     1      26.672  15.117   0.802  1.00  0.00     0.000 C 
BRANCH   2   3
ATOM      3  C   UNL     1      25.750  13.892   0.961  1.00  0.00     0.000 C 
BRANCH   3   4
ATOM      4  C   UNL     1      24.940  13.517  -0.295  1.00  0.00     0.000 C 
BRANCH   4   5
ATOM      5  C   UNL     1      23.689  12.655  -0.032  1.00  0.00     0.006 C 
BRANCH   5   6
ATOM      6  C   UNL     1      22.593  12.784  -1.102  1.00  0.00     0.053 C 
BRANCH   6   7
ATOM      7  C   UNL     1      22.756  11.774  -2.197  1.00  0.00     0.041 C 
ATOM      8  O   UNL     1      23.473  12.037  -3.198  1.00  0.00    -0.550 OA
ATOM      9  O   UNL     1      22.146  10.530  -2.094  1.00  0.00    -0.550 OA
ENDBRANCH   6   7
ENDBRANCH   5   6
ENDBRANCH   4   5
ENDBRANCH   3   4
ENDBRANCH   2   3
ENDBRANCH   1   2
BRANCH   1  10
ATOM     10  C   UNL     1      25.892  17.576   1.013  1.00  0.00     0.027 C 
BRANCH  10  11
ATOM     11  C   UNL     1      25.100  17.267  -0.234  1.00  0.00    -0.031 C 
ATOM     12  C   UNL     1      23.760  17.146  -0.282  1.00  0.00    -0.031 C 
BRANCH  12  13
ATOM     13  C   UNL     1      22.851  17.206   0.919  1.00  0.00     0.027 C 
BRANCH  13  14
ATOM     14  C   UNL     1      22.460  15.796   1.375  1.00  0.00     0.004 C 
BRANCH  14  15
ATOM     15  C   UNL     1      22.817  15.576   2.850  1.00  0.00     0.000 C 
BRANCH  15  16
ATOM     16  C   UNL     1      22.541  14.125   3.271  1.00  0.00    -0.000 C 
BRANCH  16  17
ATOM     17  C   UNL     1      23.671  13.535   4.130  1.00  0.00    -0.003 C 
ATOM     18  C   UNL     1      24.691  14.586   4.569  1.00  0.00     0.004 C 
ENDBRANCH  16  17
ENDBRANCH  15  16
ENDBRANCH  14  15
ENDBRANCH  13  14
ENDBRANCH  12  13
ENDBRANCH  10  11
ENDBRANCH   1  10
TORSDOF 13
ENDMDL
MODEL 5
REMARK VINA RESULT:    -4.593      2.403      4.523
REMARK INTER + INTRA:         -10.640
REMARK INTER:                  -7.980
REMARK INTRA:                  -2.660
REMARK UNBOUND:                -2.556
REMARK SMILES CCCCCCC=CCCCCCCCC(=O)[O-]
REMARK SMILES IDX 10 1 11 2 12 3 13 4 14 5 15 6 16 7 17 8 18 9 9 10 8 11 7 12
REMARK SMILES IDX 6 13 5 14 4 15 3 16 2 17 1 18
REMARK H PARENT
REMARK Flexibility Score: inf
ROOT
ATOM      1  C   UNL     1      22.911  14.276   2.534  1.00  0.00     0.004 C 
ENDROOT
BRANCH   1   2
ATOM      2  C   UNL     1      24.372  13.912   2.199  1.00  0.00     0.000 C 
BRANCH   2   3
ATOM      3  C   UNL     1      24.628  13.534   0.727  1.00  0.00     0.000 C 
BRANCH   3   4
ATOM      4  C   UNL     1      23.360  13.322  -0.124  1.00  0.00     0.000 C 
BRANCH   4   5
ATOM      5  C   UNL     1      23.237  14.245  -1.353  1.00  0.00     0.006 C 
BRANCH   5   6
ATOM      6  C   UNL     1      21.793  14.624  -1.719  1.00  0.00     0.053 C 
BRANCH   6   7
ATOM      7  C   UNL     1      21.740  15.768  -2.684  1.00  0.00     0.041 C 
ATOM      8  O   UNL     1      21.338  16.899  -2.303  1.00  0.00    -0.550 OA
ATOM      9  O   UNL     1      22.169  15.596  -3.994  1.00  0.00    -0.550 OA
ENDBRANCH   6   7
ENDBRANCH   5   6
ENDBRANCH   4   5
ENDBRANCH   3   4
ENDBRANCH   2   3
ENDBRANCH   1   2
BRANCH   1  10
ATOM     10  C   UNL     1      22.676  15.771   2.811  1.00  0.00     0.027 C 
BRANCH  10  11
ATOM     11  C   UNL     1      22.208  16.509   1.581  1.00  0.00    -0.031 C 
ATOM     12  C   UNL     1      23.005  17.224   0.765  1.00  0.00    -0.031 C 
BRANCH  12  13
ATOM     13  C   UNL     1      24.472  17.477   1.007  1.00  0.00     0.027 C 
BRANCH  13  14
ATOM     14  C   UNL     1      25.294  17.140  -0.243  1.00  0.00     0.004 C 
BRANCH  14  15
ATOM     15  C   UNL     1      26.795  17.148   0.069  1.00  0.00     0.000 C 
BRANCH  15  16
ATOM     16  C   UNL     1      27.046  16.920   1.566  1.00  0.00    -0.000 C 
BRANCH  16  17
ATOM     17  C   UNL     1      27.647  15.536   1.859  1.00  0.00    -0.003 C 
ATOM     18  C   UNL     1      28.217  14.861   0.612  1.00  0.00     0.004 C 
ENDBRANCH  16  17
ENDBRANCH  15  16
ENDBRANCH  14  15
ENDBRANCH  13  14
ENDBRANCH  12  13
ENDBRANCH  10  11
ENDBRANCH   1  10
TORSDOF 13
ENDMDL
MODEL 6
REMARK VINA RESULT:    -4.577      2.418      4.726
REMARK INTER + INTRA:         -10.613
REMARK INTER:                  -8.108
REMARK INTRA:                  -2.505
REMARK UNBOUND:                -2.556
REMARK SMILES CCCCCCC=CCCCCCCCC(=O)[O-]
REMARK SMILES IDX 10 1 11 2 12 3 13 4 14 5 15 6 16 7 17 8 18 9 9 10 8 11 7 12
REMARK SMILES IDX 6 13 5 14 4 15 3 16 2 17 1 18
REMARK H PARENT
REMARK Flexibility Score: inf
ROOT
ATOM      1  C   UNL     1      25.832  14.057   2.126  1.00  0.00     0.004 C 
ENDROOT
BRANCH   1   2
ATOM      2  C   UNL     1      25.781  13.515   0.683  1.00  0.00     0.000 C 
BRANCH   2   3
ATOM      3  C   UNL     1      24.755  14.205  -0.237  1.00  0.00     0.000 C 
BRANCH   3   4
ATOM      4  C   UNL     1      23.498  13.371  -0.554  1.00  0.00     0.000 C 
BRANCH   4   5
ATOM      5  C   UNL     1      22.493  14.043  -1.512  1.00  0.00     0.006 C 
BRANCH   5   6
ATOM      6  C   UNL     1      22.893  15.457  -1.961  1.00  0.00     0.053 C 
BRANCH   6   7
ATOM      7  C   UNL     1      21.761  16.176  -2.628  1.00  0.00     0.041 C 
ATOM      8  O   UNL     1      21.376  15.826  -3.774  1.00  0.00    -0.550 OA
ATOM      9  O   UNL     1      21.107  17.210  -1.968  1.00  0.00    -0.550 OA
ENDBRANCH   6   7
ENDBRANCH   5   6
ENDBRANCH   4   5
ENDBRANCH   3   4
ENDBRANCH   2   3
ENDBRANCH   1   2
BRANCH   1  10
ATOM     10  C   UNL     1      24.539  13.843   2.932  1.00  0.00     0.027 C 
BRANCH  10  11
ATOM     11  C   UNL     1      24.130  15.081   3.692  1.00  0.00    -0.031 C 
ATOM     12  C   UNL     1      23.201  15.963   3.279  1.00  0.00    -0.031 C 
BRANCH  12  13
ATOM     13  C   UNL     1      22.493  15.901   1.950  1.00  0.00     0.027 C 
BRANCH  13  14
ATOM     14  C   UNL     1      22.628  17.233   1.201  1.00  0.00     0.004 C 
BRANCH  14  15
ATOM     15  C   UNL     1      23.948  17.929   1.552  1.00  0.00     0.000 C 
BRANCH  15  16
ATOM     16  C   UNL     1      25.008  17.673   0.470  1.00  0.00    -0.000 C 
BRANCH  16  17
ATOM     17  C   UNL     1      26.431  17.598   1.045  1.00  0.00    -0.003 C 
ATOM     18  C   UNL     1      27.431  16.974   0.070  1.00  0.00     0.004 C 
ENDBRANCH  16  17
ENDBRANCH  15  16
ENDBRANCH  14  15
ENDBRANCH  13  14
ENDBRANCH  12  13
ENDBRANCH  10  11
ENDBRANCH   1  10
TORSDOF 13
ENDMDL
MODEL 7
REMARK VINA RESULT:    -4.566      3.197      5.408
REMARK INTER + INTRA:         -10.593
REMARK INTER:                  -8.129
REMARK INTRA:                  -2.463
REMARK UNBOUND:                -2.556
REMARK SMILES CCCCCCC=CCCCCCCCC(=O)[O-]
REMARK SMILES IDX 10 1 11 2 12 3 13 4 14 5 15 6 16 7 17 8 18 9 9 10 8 11 7 12
REMARK SMILES IDX 6 13 5 14 4 15 3 16 2 17 1 18
REMARK H PARENT
REMARK Flexibility Score: inf
ROOT
ATOM      1  C   UNL     1      22.512  17.093  -0.412  1.00  0.00     0.004 C 
ENDROOT
BRANCH   1   2
ATOM      2  C   UNL     1      22.223  16.450  -1.784  1.00  0.00     0.000 C 
BRANCH   2   3
ATOM      3  C   UNL     1      21.742  14.987  -1.731  1.00  0.00     0.000 C 
BRANCH   3   4
ATOM      4  C   UNL     1      22.556  14.000  -2.591  1.00  0.00     0.000 C 
BRANCH   4   5
ATOM      5  C   UNL     1      22.619  12.559  -2.048  1.00  0.00     0.006 C 
BRANCH   5   6
ATOM      6  C   UNL     1      23.975  11.863  -2.251  1.00  0.00     0.053 C 
BRANCH   6   7
ATOM      7  C   UNL     1      23.821  10.500  -2.851  1.00  0.00     0.041 C 
ATOM      8  O   UNL     1      24.838   9.803  -3.108  1.00  0.00    -0.550 OA
ATOM      9  O   UNL     1      22.554   9.984  -3.095  1.00  0.00    -0.550 OA
ENDBRANCH   6   7
ENDBRANCH   5   6
ENDBRANCH   4   5
ENDBRANCH   3   4
ENDBRANCH   2   3
ENDBRANCH   1   2
BRANCH   1  10
ATOM     10  C   UNL     1      21.721  16.480   0.756  1.00  0.00     0.027 C 
BRANCH  10  11
ATOM     11  C   UNL     1      22.578  16.286   1.984  1.00  0.00    -0.031 C 
ATOM     12  C   UNL     1      23.309  15.186   2.243  1.00  0.00    -0.031 C 
BRANCH  12  13
ATOM     13  C   UNL     1      23.311  13.940   1.396  1.00  0.00     0.027 C 
BRANCH  13  14
ATOM     14  C   UNL     1      24.734  13.594   0.942  1.00  0.00     0.004 C 
BRANCH  14  15
ATOM     15  C   UNL     1      25.258  14.629  -0.060  1.00  0.00     0.000 C 
BRANCH  15  16
ATOM     16  C   UNL     1      26.707  15.022   0.264  1.00  0.00    -0.000 C 
BRANCH  16  17
ATOM     17  C   UNL     1      26.801  16.349   1.034  1.00  0.00    -0.003 C 
ATOM     18  C   UNL     1      26.031  17.482   0.355  1.00  0.00     0.004 C 
ENDBRANCH  16  17
ENDBRANCH  15  16
ENDBRANCH  14  15
ENDBRANCH  13  14
ENDBRANCH  12  13
ENDBRANCH  10  11
ENDBRANCH   1  10
TORSDOF 13
ENDMDL
MODEL 8
REMARK VINA RESULT:    -4.534      2.055      4.404
REMARK INTER + INTRA:         -10.537
REMARK INTER:                  -8.423
REMARK INTRA:                  -2.113
REMARK UNBOUND:                -2.556
REMARK SMILES CCCCCCC=CCCCCCCCC(=O)[O-]
REMARK SMILES IDX 10 1 11 2 12 3 13 4 14 5 15 6 16 7 17 8 18 9 9 10 8 11 7 12
REMARK SMILES IDX 6 13 5 14 4 15 3 16 2 17 1 18
REMARK H PARENT
REMARK Flexibility Score: inf
ROOT
ATOM      1  C   UNL     1      22.944  16.574   1.945  1.00  0.00     0.004 C 
ENDROOT
BRANCH   1   2
ATOM      2  C   UNL     1      23.507  17.941   1.505  1.00  0.00     0.000 C 
BRANCH   2   3
ATOM      3  C   UNL     1      25.007  17.947   1.155  1.00  0.00     0.000 C 
BRANCH   3   4
ATOM      4  C   UNL     1      25.387  17.147  -0.107  1.00  0.00     0.000 C 
BRANCH   4   5
ATOM      5  C   UNL     1      26.365  15.978   0.131  1.00  0.00     0.006 C 
BRANCH   5   6
ATOM      6  C   UNL     1      25.767  14.587  -0.132  1.00  0.00     0.053 C 
BRANCH   6   7
ATOM      7  C   UNL     1      25.389  13.890   1.139  1.00  0.00     0.041 C 
ATOM      8  O   UNL     1      24.481  13.018   1.137  1.00  0.00    -0.550 OA
ATOM      9  O   UNL     1      26.064  14.177   2.319  1.00  0.00    -0.550 OA
ENDBRANCH   6   7
ENDBRANCH   5   6
ENDBRANCH   4   5
ENDBRANCH   3   4
ENDBRANCH   2   3
ENDBRANCH   1   2
BRANCH   1  10
ATOM     10  C   UNL     1      22.213  15.800   0.835  1.00  0.00     0.027 C 
BRANCH  10  11
ATOM     11  C   UNL     1      21.375  16.707  -0.033  1.00  0.00    -0.031 C 
ATOM     12  C   UNL     1      21.516  16.840  -1.365  1.00  0.00    -0.031 C 
BRANCH  12  13
ATOM     13  C   UNL     1      22.595  16.177  -2.182  1.00  0.00     0.027 C 
BRANCH  13  14
ATOM     14  C   UNL     1      21.989  15.426  -3.374  1.00  0.00     0.004 C 
BRANCH  14  15
ATOM     15  C   UNL     1      22.441  13.961  -3.387  1.00  0.00     0.000 C 
BRANCH  15  16
ATOM     16  C   UNL     1      22.744  13.467  -1.964  1.00  0.00    -0.000 C 
BRANCH  16  17
ATOM     17  C   UNL     1      23.081  11.969  -1.919  1.00  0.00    -0.003 C 
ATOM     18  C   UNL     1      22.091  11.164  -1.078  1.00  0.00     0.004 C 
ENDBRANCH  16  17
ENDBRANCH  15  16
ENDBRANCH  14  15
ENDBRANCH  13  14
ENDBRANCH  12  13
ENDBRANCH  10  11
ENDBRANCH   1  10
TORSDOF 13
ENDMDL
MODEL 9
REMARK VINA RESULT:    -4.519      1.250      3.653
REMARK INTER + INTRA:         -10.510
REMARK INTER:                  -7.835
REMARK INTRA:                  -2.675
REMARK UNBOUND:                -2.556
REMARK SMILES CCCCCCC=CCCCCCCCC(=O)[O-]
REMARK SMILES IDX 10 1 11 2 12 3 13 4 14 5 15 6 16 7 17 8 18 9 9 10 8 11 7 12
REMARK SMILES IDX 6 13 5 14 4 15 3 16 2 17 1 18
REMARK H PARENT
REMARK Flexibility Score: inf
ROOT
ATOM      1  C   UNL     1      23.113  14.392   2.936  1.00  0.00     0.004 C 
ENDROOT
BRANCH   1   2
ATOM      2  C   UNL     1      23.292  13.591   1.631  1.00  0.00     0.000 C 
BRANCH   2   3
ATOM      3  C   UNL     1      24.753  13.281   1.251  1.00  0.00     0.000 C 
BRANCH   3   4
ATOM      4  C   UNL     1      25.284  14.042   0.020  1.00  0.00     0.000 C 
BRANCH   4   5
ATOM      5  C   UNL     1      26.316  15.146   0.330  1.00  0.00     0.006 C 
BRANCH   5   6
ATOM      6  C   UNL     1      26.716  15.243   1.811  1.00  0.00     0.053 C 
BRANCH   6   7
ATOM      7  C   UNL     1      27.417  16.529   2.119  1.00  0.00     0.041 C 
ATOM      8  O   UNL     1      28.428  16.536   2.871  1.00  0.00    -0.550 OA
ATOM      9  O   UNL     1      26.977  17.717   1.549  1.00  0.00    -0.550 OA
ENDBRANCH   6   7
ENDBRANCH   5   6
ENDBRANCH   4   5
ENDBRANCH   3   4
ENDBRANCH   2   3
ENDBRANCH   1   2
BRANCH   1  10
ATOM     10  C   UNL     1      22.471  15.778   2.748  1.00  0.00     0.027 C 
BRANCH  10  11
ATOM     11  C   UNL     1      23.431  16.770   2.138  1.00  0.00    -0.031 C 
ATOM     12  C   UNL     1      23.264  17.364   0.942  1.00  0.00    -0.031 C 
BRANCH  12  13
ATOM     13  C   UNL     1      22.141  17.059  -0.016  1.00  0.00     0.027 C 
BRANCH  13  14
ATOM     14  C   UNL     1      22.651  16.234  -1.204  1.00  0.00     0.004 C 
BRANCH  14  15
ATOM     15  C   UNL     1      21.761  15.009  -1.445  1.00  0.00     0.000 C 
BRANCH  15  16
ATOM     16  C   UNL     1      22.420  14.038  -2.435  1.00  0.00    -0.000 C 
BRANCH  16  17
ATOM     17  C   UNL     1      22.365  12.579  -1.956  1.00  0.00    -0.003 C 
ATOM     18  C   UNL     1      23.622  11.788  -2.319  1.00  0.00     0.004 C 
ENDBRANCH  16  17
ENDBRANCH  15  16
ENDBRANCH  14  15
ENDBRANCH  13  14
ENDBRANCH  12  13
ENDBRANCH  10  11
ENDBRANCH   1  10
TORSDOF 13
ENDMDL
