MODEL 1
REMARK VINA RESULT:    -3.483      0.000      0.000
REMARK INTER + INTRA:          -3.149
REMARK INTER:                  -3.789
REMARK INTRA:                   0.639
REMARK UNBOUND:                 0.639
REMARK SMILES C=C1C[C@]2(O)O[C@@]3(C[C@@H]2C(C)C)[C@@H]1CC[C@@H]3C
REMARK SMILES IDX 17 1 16 2 15 3 14 4 13 5 7 6 8 7 9 8 4 9 6 10 3 11 2 12 1 13
REMARK SMILES IDX 10 14 11 15 12 16 5 17
REMARK H PARENT 5 18
REMARK Flexibility Score: inf
ROOT
ATOM      1  C   UNL     1      17.690   1.190  -9.709  1.00  0.00     0.011 C 
ATOM      2  C   UNL     1      18.806   0.663 -10.634  1.00  0.00     0.019 C 
ATOM      3  C   UNL     1      19.688   1.822 -11.117  1.00  0.00     0.007 C 
ATOM      4  C   UNL     1      20.897   1.886 -10.178  1.00  0.00     0.011 C 
ATOM      5  C   UNL     1      20.809   0.666  -9.252  1.00  0.00     0.047 C 
ATOM      6  C   UNL     1      19.799  -0.282  -9.935  1.00  0.00     0.081 C 
ATOM      7  C   UNL     1      19.187  -1.295  -8.959  1.00  0.00     0.046 C 
ATOM      8  C   UNL     1      20.134  -2.484  -9.074  1.00  0.00     0.054 C 
ATOM      9  C   UNL     1      21.162  -2.028 -10.146  1.00  0.00     0.173 C 
ATOM     10  O   UNL     1      20.479  -1.055 -10.905  1.00  0.00    -0.342 OA
ATOM     11  C   UNL     1      22.454  -1.357  -9.624  1.00  0.00     0.096 C 
ATOM     12  C   UNL     1      22.162   0.003  -9.026  1.00  0.00    -0.066 C 
ATOM     13  C   UNL     1      23.110   0.637  -8.321  1.00  0.00     0.008 C 
ENDROOT
BRANCH   8  14
ATOM     14  C   UNL     1      20.593  -3.104  -7.714  1.00  0.00    -0.009 C 
ATOM     15  C   UNL     1      19.947  -2.544  -6.428  1.00  0.00     0.008 C 
ATOM     16  C   UNL     1      22.123  -3.125  -7.590  1.00  0.00     0.008 C 
ENDBRANCH   8  14
BRANCH   9  17
ATOM     17  O   UNL     1      21.497  -3.125 -10.962  1.00  0.00    -0.365 OA
ATOM     18  H   UNL     1      20.753  -3.779 -10.903  1.00  0.00     0.214 HD
ENDBRANCH   9  17
TORSDOF 2
ENDMDL
MODEL 2
REMARK VINA RESULT:    -2.416     11.094     13.433
REMARK INTER + INTRA:          -1.989
REMARK INTER:                  -1.740
REMARK INTRA:                  -0.249
REMARK UNBOUND:                 0.639
REMARK SMILES C=C1C[C@]2(O)O[C@@]3(C[C@@H]2C(C)C)[C@@H]1CC[C@@H]3C
REMARK SMILES IDX 17 1 16 2 15 3 14 4 13 5 7 6 8 7 9 8 4 9 6 10 3 11 2 12 1 13
REMARK SMILES IDX 10 14 11 15 12 16 5 17
REMARK H PARENT 5 18
REMARK Flexibility Score: inf
ROOT
ATOM      1  C   UNL     1      20.573  15.067 -11.125  1.00  0.00     0.011 C 
ATOM      2  C   UNL     1      19.532  14.762 -10.030  1.00  0.00     0.019 C 
ATOM      3  C   UNL     1      18.123  15.127 -10.518  1.00  0.00     0.007 C 
ATOM      4  C   UNL     1      17.493  13.843 -11.067  1.00  0.00     0.011 C 
ATOM      5  C   UNL     1      18.463  12.697 -10.748  1.00  0.00     0.047 C 
ATOM      6  C   UNL     1      19.418  13.269  -9.677  1.00  0.00     0.081 C 
ATOM      7  C   UNL     1      20.742  12.497  -9.594  1.00  0.00     0.046 C 
ATOM      8  C   UNL     1      20.446  11.442  -8.534  1.00  0.00     0.054 C 
ATOM      9  C   UNL     1      18.990  11.763  -8.096  1.00  0.00     0.173 C 
ATOM     10  O   UNL     1      18.817  13.128  -8.405  1.00  0.00    -0.342 OA
ATOM     11  C   UNL     1      17.863  10.996  -8.828  1.00  0.00     0.096 C 
ATOM     12  C   UNL     1      17.748  11.440 -10.272  1.00  0.00    -0.066 C 
ATOM     13  C   UNL     1      16.988  10.736 -11.124  1.00  0.00     0.008 C 
ENDROOT
BRANCH   8  14
ATOM     14  C   UNL     1      20.886   9.987  -8.902  1.00  0.00    -0.009 C 
ATOM     15  C   UNL     1      20.830   8.928  -7.779  1.00  0.00     0.008 C 
ATOM     16  C   UNL     1      22.254   9.970  -9.599  1.00  0.00     0.008 C 
ENDBRANCH   8  14
BRANCH   9  17
ATOM     17  O   UNL     1      18.870  11.565  -6.708  1.00  0.00    -0.365 OA
ATOM     18  H   UNL     1      18.060  11.011  -6.554  1.00  0.00     0.214 HD
ENDBRANCH   9  17
TORSDOF 2
ENDMDL
MODEL 3
REMARK VINA RESULT:    -2.365     12.643     14.789
REMARK INTER + INTRA:          -1.934
REMARK INTER:                  -2.061
REMARK INTRA:                   0.128
REMARK UNBOUND:                 0.639
REMARK SMILES C=C1C[C@]2(O)O[C@@]3(C[C@@H]2C(C)C)[C@@H]1CC[C@@H]3C
REMARK SMILES IDX 17 1 16 2 15 3 14 4 13 5 7 6 8 7 9 8 4 9 6 10 3 11 2 12 1 13
REMARK SMILES IDX 10 14 11 15 12 16 5 17
REMARK H PARENT 5 18
REMARK Flexibility Score: inf
ROOT
ATOM      1  C   UNL     1      18.849  17.090  -8.458  1.00  0.00     0.011 C 
ATOM      2  C   UNL     1      18.666  16.316  -9.779  1.00  0.00     0.019 C 
ATOM      3  C   UNL     1      19.464  16.987 -10.905  1.00  0.00     0.007 C 
ATOM      4  C   UNL     1      20.806  16.255 -11.000  1.00  0.00     0.011 C 
ATOM      5  C   UNL     1      20.729  15.054 -10.049  1.00  0.00     0.047 C 
ATOM      6  C   UNL     1      19.225  14.883  -9.742  1.00  0.00     0.081 C 
ATOM      7  C   UNL     1      18.972  14.097  -8.449  1.00  0.00     0.046 C 
ATOM      8  C   UNL     1      18.869  12.660  -8.947  1.00  0.00     0.054 C 
ATOM      9  C   UNL     1      19.030  12.795 -10.487  1.00  0.00     0.173 C 
ATOM     10  O   UNL     1      18.632  14.117 -10.773  1.00  0.00    -0.342 OA
ATOM     11  C   UNL     1      20.462  12.632 -11.048  1.00  0.00     0.096 C 
ATOM     12  C   UNL     1      21.345  13.794 -10.645  1.00  0.00    -0.066 C 
ATOM     13  C   UNL     1      22.669  13.723 -10.841  1.00  0.00     0.008 C 
ENDROOT
BRANCH   8  14
ATOM     14  C   UNL     1      19.689  11.610  -8.129  1.00  0.00    -0.009 C 
ATOM     15  C   UNL     1      20.203  10.368  -8.888  1.00  0.00     0.008 C 
ATOM     16  C   UNL     1      18.958  11.199  -6.843  1.00  0.00     0.008 C 
ENDBRANCH   8  14
BRANCH   9  17
ATOM     17  O   UNL     1      18.167  11.884 -11.125  1.00  0.00    -0.365 OA
ATOM     18  H   UNL     1      17.258  12.282 -11.121  1.00  0.00     0.214 HD
ENDBRANCH   9  17
TORSDOF 2
ENDMDL
MODEL 4
REMARK VINA RESULT:    -1.087     10.110     12.768
REMARK INTER + INTRA:          -0.543
REMARK INTER:                  -0.191
REMARK INTRA:                  -0.351
REMARK UNBOUND:                 0.639
REMARK SMILES C=C1C[C@]2(O)O[C@@]3(C[C@@H]2C(C)C)[C@@H]1CC[C@@H]3C
REMARK SMILES IDX 17 1 16 2 15 3 14 4 13 5 7 6 8 7 9 8 4 9 6 10 3 11 2 12 1 13
REMARK SMILES IDX 10 14 11 15 12 16 5 17
REMARK H PARENT 5 18
REMARK Flexibility Score: inf
ROOT
ATOM      1  C   UNL     1      22.924  10.021  -8.893  1.00  0.00     0.011 C 
ATOM      2  C   UNL     1      21.550   9.348  -8.709  1.00  0.00     0.019 C 
ATOM      3  C   UNL     1      21.483   8.635  -7.351  1.00  0.00     0.007 C 
ATOM      4  C   UNL     1      20.815   9.603  -6.370  1.00  0.00     0.011 C 
ATOM      5  C   UNL     1      20.340  10.812  -7.188  1.00  0.00     0.047 C 
ATOM      6  C   UNL     1      20.373  10.338  -8.657  1.00  0.00     0.081 C 
ATOM      7  C   UNL     1      20.434  11.504  -9.652  1.00  0.00     0.046 C 
ATOM      8  C   UNL     1      18.961  11.773  -9.941  1.00  0.00     0.054 C 
ATOM      9  C   UNL     1      18.223  10.690  -9.107  1.00  0.00     0.173 C 
ATOM     10  O   UNL     1      19.168   9.656  -8.946  1.00  0.00    -0.342 OA
ATOM     11  C   UNL     1      17.770  11.102  -7.686  1.00  0.00     0.096 C 
ATOM     12  C   UNL     1      18.959  11.296  -6.767  1.00  0.00    -0.066 C 
ATOM     13  C   UNL     1      18.785  11.871  -5.568  1.00  0.00     0.008 C 
ENDROOT
BRANCH   8  14
ATOM     14  C   UNL     1      18.536  13.276  -9.888  1.00  0.00    -0.009 C 
ATOM     15  C   UNL     1      17.621  13.791 -11.021  1.00  0.00     0.008 C 
ATOM     16  C   UNL     1      19.748  14.201  -9.704  1.00  0.00     0.008 C 
ENDBRANCH   8  14
BRANCH   9  17
ATOM     17  O   UNL     1      17.115  10.219  -9.836  1.00  0.00    -0.365 OA
ATOM     18  H   UNL     1      17.438   9.500 -10.439  1.00  0.00     0.214 HD
ENDBRANCH   9  17
TORSDOF 2
ENDMDL
MODEL 5
REMARK VINA RESULT:    -0.765     11.769     14.475
REMARK INTER + INTRA:          -0.193
REMARK INTER:                  -0.166
REMARK INTRA:                  -0.027
REMARK UNBOUND:                 0.639
REMARK SMILES C=C1C[C@]2(O)O[C@@]3(C[C@@H]2C(C)C)[C@@H]1CC[C@@H]3C
REMARK SMILES IDX 17 1 16 2 15 3 14 4 13 5 7 6 8 7 9 8 4 9 6 10 3 11 2 12 1 13
REMARK SMILES IDX 10 14 11 15 12 16 5 17
REMARK H PARENT 5 18
REMARK Flexibility Score: inf
ROOT
ATOM      1  C   UNL     1      18.971  11.500  -5.858  1.00  0.00     0.011 C 
ATOM      2  C   UNL     1      19.701  11.230  -7.189  1.00  0.00     0.019 C 
ATOM      3  C   UNL     1      19.336   9.839  -7.723  1.00  0.00     0.007 C 
ATOM      4  C   UNL     1      18.193  10.030  -8.725  1.00  0.00     0.011 C 
ATOM      5  C   UNL     1      18.002  11.542  -8.903  1.00  0.00     0.047 C 
ATOM      6  C   UNL     1      19.287  12.177  -8.329  1.00  0.00     0.081 C 
ATOM      7  C   UNL     1      19.096  13.650  -7.942  1.00  0.00     0.046 C 
ATOM      8  C   UNL     1      19.496  14.384  -9.217  1.00  0.00     0.054 C 
ATOM      9  C   UNL     1      19.917  13.240 -10.180  1.00  0.00     0.173 C 
ATOM     10  O   UNL     1      20.286  12.176  -9.330  1.00  0.00    -0.342 OA
ATOM     11  C   UNL     1      18.821  12.694 -11.125  1.00  0.00     0.096 C 
ATOM     12  C   UNL     1      17.761  11.935 -10.354  1.00  0.00    -0.066 C 
ATOM     13  C   UNL     1      16.619  11.586 -10.964  1.00  0.00     0.008 C 
ENDROOT
BRANCH   8  14
ATOM     14  C   UNL     1      18.514  15.513  -9.670  1.00  0.00    -0.009 C 
ATOM     15  C   UNL     1      18.645  16.021 -11.123  1.00  0.00     0.008 C 
ATOM     16  C   UNL     1      18.509  16.688  -8.681  1.00  0.00     0.008 C 
ENDBRANCH   8  14
BRANCH   9  17
ATOM     17  O   UNL     1      21.027  13.657 -10.937  1.00  0.00    -0.365 OA
ATOM     18  H   UNL     1      21.706  12.934 -10.895  1.00  0.00     0.214 HD
ENDBRANCH   9  17
TORSDOF 2
ENDMDL
MODEL 6
REMARK VINA RESULT:    -0.620     10.738     12.779
REMARK INTER + INTRA:          -0.035
REMARK INTER:                  -0.452
REMARK INTRA:                   0.417
REMARK UNBOUND:                 0.639
REMARK SMILES C=C1C[C@]2(O)O[C@@]3(C[C@@H]2C(C)C)[C@@H]1CC[C@@H]3C
REMARK SMILES IDX 17 1 16 2 15 3 14 4 13 5 7 6 8 7 9 8 4 9 6 10 3 11 2 12 1 13
REMARK SMILES IDX 10 14 11 15 12 16 5 17
REMARK H PARENT 5 18
REMARK Flexibility Score: inf
ROOT
ATOM      1  C   UNL     1      19.221  15.305  -8.558  1.00  0.00     0.011 C 
ATOM      2  C   UNL     1      18.733  14.101  -9.388  1.00  0.00     0.019 C 
ATOM      3  C   UNL     1      19.364  14.127 -10.787  1.00  0.00     0.007 C 
ATOM      4  C   UNL     1      20.598  13.220 -10.737  1.00  0.00     0.011 C 
ATOM      5  C   UNL     1      20.594  12.535  -9.364  1.00  0.00     0.047 C 
ATOM      6  C   UNL     1      19.163  12.737  -8.820  1.00  0.00     0.081 C 
ATOM      7  C   UNL     1      19.086  12.591  -7.295  1.00  0.00     0.046 C 
ATOM      8  C   UNL     1      18.770  11.111  -7.117  1.00  0.00     0.054 C 
ATOM      9  C   UNL     1      18.656  10.585  -8.575  1.00  0.00     0.173 C 
ATOM     10  O   UNL     1      18.327  11.723  -9.340  1.00  0.00    -0.342 OA
ATOM     11  C   UNL     1      19.941   9.989  -9.196  1.00  0.00     0.096 C 
ATOM     12  C   UNL     1      20.979  11.063  -9.444  1.00  0.00    -0.066 C 
ATOM     13  C   UNL     1      22.234  10.714  -9.763  1.00  0.00     0.008 C 
ENDROOT
BRANCH   8  14
ATOM     14  C   UNL     1      19.634  10.369  -6.046  1.00  0.00    -0.009 C 
ATOM     15  C   UNL     1      20.772  11.171  -5.379  1.00  0.00     0.008 C 
ATOM     16  C   UNL     1      20.152   9.022  -6.572  1.00  0.00     0.008 C 
ENDBRANCH   8  14
BRANCH   9  17
ATOM     17  O   UNL     1      17.616   9.640  -8.647  1.00  0.00    -0.365 OA
ATOM     18  H   UNL     1      16.774  10.102  -8.394  1.00  0.00     0.214 HD
ENDBRANCH   9  17
TORSDOF 2
ENDMDL
