MODEL 1
REMARK VINA RESULT:    -6.135      0.000      0.000
REMARK INTER + INTRA:          -9.067
REMARK INTER:                  -8.108
REMARK INTRA:                  -0.959
REMARK UNBOUND:                -0.959
REMARK SMILES CC(C)=CCC[C@@H](C(=O)[O-])[C@@H]1CC[C@]2(C)C3=C(CC[C@]12C)[C@]1(C)CC[C@H](O)C(C)(C)[C@H]1CC3
REMARK SMILES IDX 6 1 7 2 8 3 9 4 10 5 11 6 12 7 20 8 13 9 14 10 19 11 21 12
REMARK SMILES IDX 15 13 16 14 18 15 17 16 33 17 22 18 32 19 31 20 24 21 23 22
REMARK SMILES IDX 28 23 25 24 26 25 29 26 30 27 27 28 5 30 4 31 2 32 1 33 3 34
REMARK H PARENT 27 29
REMARK Flexibility Score: inf
ROOT
ATOM      1  C   UNL     1       9.567  -4.745  43.898  1.00  0.00     0.014 C 
ENDROOT
BRANCH   1   2
ATOM      2  C   UNL     1       9.755  -6.093  43.140  1.00  0.00     0.039 C 
BRANCH   2   3
ATOM      3  C   UNL     1      10.588  -7.064  43.939  1.00  0.00     0.045 C 
ATOM      4  O   UNL     1      10.571  -7.058  45.202  1.00  0.00    -0.550 OA
ATOM      5  O   UNL     1      11.412  -7.967  43.277  1.00  0.00    -0.550 OA
ENDBRANCH   2   3
BRANCH   2   6
ATOM      6  C   UNL     1       8.469  -6.771  42.543  1.00  0.00     0.004 C 
ATOM      7  C   UNL     1       8.057  -8.036  43.315  1.00  0.00     0.006 C 
ATOM      8  C   UNL     1       8.323  -7.113  41.015  1.00  0.00    -0.020 C 
ATOM      9  C   UNL     1       7.430  -8.993  42.310  1.00  0.00     0.012 C 
ATOM     10  C   UNL     1       7.192  -8.208  41.005  1.00  0.00    -0.006 C 
ATOM     11  C   UNL     1       9.617  -7.720  40.418  1.00  0.00     0.012 C 
ATOM     12  C   UNL     1       7.932  -5.852  40.190  1.00  0.00     0.012 C 
ATOM     13  C   UNL     1       5.772  -7.562  41.061  1.00  0.00     0.017 C 
ATOM     14  C   UNL     1       7.247  -9.190  39.812  1.00  0.00    -0.064 C 
ATOM     15  C   UNL     1       9.408  -8.221  38.993  1.00  0.00     0.032 C 
ATOM     16  C   UNL     1       8.229  -9.167  38.861  1.00  0.00    -0.064 C 
ATOM     17  C   UNL     1       6.267 -10.352  39.776  1.00  0.00     0.032 C 
ATOM     18  C   UNL     1       8.112 -10.096  37.621  1.00  0.00    -0.008 C 
ATOM     19  C   UNL     1       5.664 -10.587  38.383  1.00  0.00     0.009 C 
ATOM     20  C   UNL     1       6.586 -10.122  37.219  1.00  0.00     0.007 C 
ATOM     21  C   UNL     1       8.930  -9.522  36.420  1.00  0.00     0.014 C 
ATOM     22  C   UNL     1       8.677 -11.495  38.015  1.00  0.00     0.016 C 
ATOM     23  C   UNL     1       6.234 -10.764  35.820  1.00  0.00    -0.006 C 
ATOM     24  C   UNL     1       8.630 -10.203  35.074  1.00  0.00     0.033 C 
ATOM     25  C   UNL     1       7.137 -10.126  34.717  1.00  0.00     0.120 C 
ATOM     26  C   UNL     1       6.402 -12.308  35.787  1.00  0.00     0.014 C 
ATOM     27  C   UNL     1       4.749 -10.469  35.471  1.00  0.00     0.014 C 
BRANCH  25  28
ATOM     28  O   UNL     1       6.779  -8.779  34.514  1.00  0.00    -0.393 OA
ATOM     29  H   UNL     1       6.117  -8.543  35.217  1.00  0.00     0.210 HD
ENDBRANCH  25  28
ENDBRANCH   2   6
ENDBRANCH   1   2
BRANCH   1  30
ATOM     30  C   UNL     1      10.562  -3.658  43.459  1.00  0.00     0.028 C 
BRANCH  30  31
ATOM     31  C   UNL     1      11.783  -3.575  44.343  1.00  0.00    -0.028 C 
ATOM     32  C   UNL     1      12.995  -4.092  44.048  1.00  0.00    -0.080 C 
ATOM     33  C   UNL     1      13.261  -4.855  42.771  1.00  0.00     0.039 C 
ATOM     34  C   UNL     1      14.108  -3.953  45.057  1.00  0.00     0.039 C 
ENDBRANCH  30  31
ENDBRANCH   1  30
TORSDOF 6
ENDMDL
MODEL 2
REMARK VINA RESULT:    -5.996      7.856     12.349
REMARK INTER + INTRA:          -8.884
REMARK INTER:                  -7.990
REMARK INTRA:                  -0.894
REMARK UNBOUND:                -0.959
REMARK SMILES CC(C)=CCC[C@@H](C(=O)[O-])[C@@H]1CC[C@]2(C)C3=C(CC[C@]12C)[C@]1(C)CC[C@H](O)C(C)(C)[C@H]1CC3
REMARK SMILES IDX 6 1 7 2 8 3 9 4 10 5 11 6 12 7 20 8 13 9 14 10 19 11 21 12
REMARK SMILES IDX 15 13 16 14 18 15 17 16 33 17 22 18 32 19 31 20 24 21 23 22
REMARK SMILES IDX 28 23 25 24 26 25 29 26 30 27 27 28 5 30 4 31 2 32 1 33 3 34
REMARK H PARENT 27 29
REMARK Flexibility Score: inf
ROOT
ATOM      1  C   UNL     1       5.835  -7.154  31.293  1.00  0.00     0.014 C 
ENDROOT
BRANCH   1   2
ATOM      2  C   UNL     1       7.308  -7.654  31.209  1.00  0.00     0.039 C 
BRANCH   2   3
ATOM      3  C   UNL     1       7.376  -9.154  31.068  1.00  0.00     0.045 C 
ATOM      4  O   UNL     1       8.349  -9.812  31.532  1.00  0.00    -0.550 OA
ATOM      5  O   UNL     1       6.362  -9.826  30.395  1.00  0.00    -0.550 OA
ENDBRANCH   2   3
BRANCH   2   6
ATOM      6  C   UNL     1       8.263  -6.922  30.199  1.00  0.00     0.004 C 
ATOM      7  C   UNL     1       8.520  -7.747  28.928  1.00  0.00     0.006 C 
ATOM      8  C   UNL     1       9.650  -6.318  30.628  1.00  0.00    -0.020 C 
ATOM      9  C   UNL     1       9.934  -7.428  28.460  1.00  0.00     0.012 C 
ATOM     10  C   UNL     1      10.424  -6.205  29.261  1.00  0.00    -0.006 C 
ATOM     11  C   UNL     1      10.436  -7.258  31.575  1.00  0.00     0.012 C 
ATOM     12  C   UNL     1       9.473  -4.936  31.323  1.00  0.00     0.012 C 
ATOM     13  C   UNL     1      10.027  -4.908  28.487  1.00  0.00     0.017 C 
ATOM     14  C   UNL     1      11.964  -6.266  29.378  1.00  0.00    -0.064 C 
ATOM     15  C   UNL     1      11.852  -6.754  31.833  1.00  0.00     0.032 C 
ATOM     16  C   UNL     1      12.624  -6.466  30.559  1.00  0.00    -0.064 C 
ATOM     17  C   UNL     1      12.794  -6.281  28.104  1.00  0.00     0.032 C 
ATOM     18  C   UNL     1      14.173  -6.360  30.595  1.00  0.00    -0.008 C 
ATOM     19  C   UNL     1      14.030  -5.374  28.182  1.00  0.00     0.009 C 
ATOM     20  C   UNL     1      14.567  -5.175  29.629  1.00  0.00     0.007 C 
ATOM     21  C   UNL     1      14.671  -6.010  32.033  1.00  0.00     0.014 C 
ATOM     22  C   UNL     1      14.758  -7.739  30.161  1.00  0.00     0.016 C 
ATOM     23  C   UNL     1      16.062  -4.672  29.700  1.00  0.00    -0.006 C 
ATOM     24  C   UNL     1      16.148  -5.588  32.101  1.00  0.00     0.033 C 
ATOM     25  C   UNL     1      16.439  -4.386  31.189  1.00  0.00     0.120 C 
ATOM     26  C   UNL     1      17.083  -5.674  29.097  1.00  0.00     0.014 C 
ATOM     27  C   UNL     1      16.205  -3.349  28.895  1.00  0.00     0.014 C 
BRANCH  25  28
ATOM     28  O   UNL     1      15.734  -3.264  31.664  1.00  0.00    -0.393 OA
ATOM     29  H   UNL     1      15.079  -3.011  30.960  1.00  0.00     0.210 HD
ENDBRANCH  25  28
ENDBRANCH   2   6
ENDBRANCH   1   2
BRANCH   1  30
ATOM     30  C   UNL     1       5.356  -6.913  32.734  1.00  0.00     0.028 C 
BRANCH  30  31
ATOM     31  C   UNL     1       4.556  -8.062  33.298  1.00  0.00    -0.028 C 
ATOM     32  C   UNL     1       5.034  -9.007  34.136  1.00  0.00    -0.080 C 
ATOM     33  C   UNL     1       6.474  -9.030  34.594  1.00  0.00     0.039 C 
ATOM     34  C   UNL     1       4.112 -10.113  34.583  1.00  0.00     0.039 C 
ENDBRANCH  30  31
ENDBRANCH   1  30
TORSDOF 6
ENDMDL
MODEL 3
REMARK VINA RESULT:    -5.840      3.944     10.528
REMARK INTER + INTRA:          -8.677
REMARK INTER:                  -7.982
REMARK INTRA:                  -0.695
REMARK UNBOUND:                -0.959
REMARK SMILES CC(C)=CCC[C@@H](C(=O)[O-])[C@@H]1CC[C@]2(C)C3=C(CC[C@]12C)[C@]1(C)CC[C@H](O)C(C)(C)[C@H]1CC3
REMARK SMILES IDX 6 1 7 2 8 3 9 4 10 5 11 6 12 7 20 8 13 9 14 10 19 11 21 12
REMARK SMILES IDX 15 13 16 14 18 15 17 16 33 17 22 18 32 19 31 20 24 21 23 22
REMARK SMILES IDX 28 23 25 24 26 25 29 26 30 27 27 28 5 30 4 31 2 32 1 33 3 34
REMARK H PARENT 27 29
REMARK Flexibility Score: inf
ROOT
ATOM      1  C   UNL     1       9.905  -6.226  43.892  1.00  0.00     0.014 C 
ENDROOT
BRANCH   1   2
ATOM      2  C   UNL     1      10.784  -4.944  43.782  1.00  0.00     0.039 C 
BRANCH   2   3
ATOM      3  C   UNL     1       9.977  -3.697  44.036  1.00  0.00     0.045 C 
ATOM      4  O   UNL     1      10.218  -2.622  43.416  1.00  0.00    -0.550 OA
ATOM      5  O   UNL     1       8.962  -3.717  44.986  1.00  0.00    -0.550 OA
ENDBRANCH   2   3
BRANCH   2   6
ATOM      6  C   UNL     1      12.148  -4.934  44.562  1.00  0.00     0.004 C 
ATOM      7  C   UNL     1      12.385  -3.616  45.316  1.00  0.00     0.006 C 
ATOM      8  C   UNL     1      13.515  -5.315  43.885  1.00  0.00    -0.020 C 
ATOM      9  C   UNL     1      13.888  -3.364  45.322  1.00  0.00     0.012 C 
ATOM     10  C   UNL     1      14.578  -4.656  44.842  1.00  0.00    -0.006 C 
ATOM     11  C   UNL     1      13.664  -4.704  42.470  1.00  0.00     0.012 C 
ATOM     12  C   UNL     1      13.686  -6.859  43.787  1.00  0.00     0.012 C 
ATOM     13  C   UNL     1      14.867  -5.560  46.081  1.00  0.00     0.017 C 
ATOM     14  C   UNL     1      15.920  -4.287  44.168  1.00  0.00    -0.064 C 
ATOM     15  C   UNL     1      15.063  -4.918  41.900  1.00  0.00     0.032 C 
ATOM     16  C   UNL     1      16.165  -4.452  42.833  1.00  0.00    -0.064 C 
ATOM     17  C   UNL     1      16.966  -3.541  44.982  1.00  0.00     0.032 C 
ATOM     18  C   UNL     1      17.594  -4.193  42.281  1.00  0.00    -0.008 C 
ATOM     19  C   UNL     1      18.389  -4.076  44.765  1.00  0.00     0.009 C 
ATOM     20  C   UNL     1      18.602  -4.731  43.370  1.00  0.00     0.007 C 
ATOM     21  C   UNL     1      17.828  -4.986  40.956  1.00  0.00     0.014 C 
ATOM     22  C   UNL     1      17.731  -2.664  42.005  1.00  0.00     0.016 C 
ATOM     23  C   UNL     1      20.115  -4.848  42.936  1.00  0.00    -0.006 C 
ATOM     24  C   UNL     1      19.297  -5.035  40.505  1.00  0.00     0.033 C 
ATOM     25  C   UNL     1      20.206  -5.635  41.589  1.00  0.00     0.120 C 
ATOM     26  C   UNL     1      20.822  -3.475  42.774  1.00  0.00     0.014 C 
ATOM     27  C   UNL     1      20.908  -5.634  44.017  1.00  0.00     0.014 C 
BRANCH  25  28
ATOM     28  O   UNL     1      19.859  -6.985  41.788  1.00  0.00    -0.393 OA
ATOM     29  H   UNL     1      20.398  -7.315  42.556  1.00  0.00     0.210 HD
ENDBRANCH  25  28
ENDBRANCH   2   6
ENDBRANCH   1   2
BRANCH   1  30
ATOM     30  C   UNL     1       9.100  -6.522  42.616  1.00  0.00     0.028 C 
BRANCH  30  31
ATOM     31  C   UNL     1       9.941  -7.085  41.497  1.00  0.00    -0.028 C 
ATOM     32  C   UNL     1       9.545  -7.212  40.212  1.00  0.00    -0.080 C 
ATOM     33  C   UNL     1       8.164  -6.810  39.748  1.00  0.00     0.039 C 
ATOM     34  C   UNL     1      10.495  -7.829  39.217  1.00  0.00     0.039 C 
ENDBRANCH  30  31
ENDBRANCH   1  30
TORSDOF 6
ENDMDL
MODEL 4
REMARK VINA RESULT:    -5.698      2.816      5.136
REMARK INTER + INTRA:          -8.490
REMARK INTER:                  -7.069
REMARK INTRA:                  -1.421
REMARK UNBOUND:                -0.959
REMARK SMILES CC(C)=CCC[C@@H](C(=O)[O-])[C@@H]1CC[C@]2(C)C3=C(CC[C@]12C)[C@]1(C)CC[C@H](O)C(C)(C)[C@H]1CC3
REMARK SMILES IDX 6 1 7 2 8 3 9 4 10 5 11 6 12 7 20 8 13 9 14 10 19 11 21 12
REMARK SMILES IDX 15 13 16 14 18 15 17 16 33 17 22 18 32 19 31 20 24 21 23 22
REMARK SMILES IDX 28 23 25 24 26 25 29 26 30 27 27 28 5 30 4 31 2 32 1 33 3 34
REMARK H PARENT 27 29
REMARK Flexibility Score: inf
ROOT
ATOM      1  C   UNL     1      13.793  -4.923  45.254  1.00  0.00     0.014 C 
ENDROOT
BRANCH   1   2
ATOM      2  C   UNL     1      14.244  -5.110  43.775  1.00  0.00     0.039 C 
BRANCH   2   3
ATOM      3  C   UNL     1      15.703  -4.776  43.596  1.00  0.00     0.045 C 
ATOM      4  O   UNL     1      16.066  -3.709  43.025  1.00  0.00    -0.550 OA
ATOM      5  O   UNL     1      16.672  -5.667  44.044  1.00  0.00    -0.550 OA
ENDBRANCH   2   3
BRANCH   2   6
ATOM      6  C   UNL     1      13.855  -6.457  43.066  1.00  0.00     0.004 C 
ATOM      7  C   UNL     1      14.418  -6.555  41.638  1.00  0.00     0.006 C 
ATOM      8  C   UNL     1      12.375  -6.984  43.000  1.00  0.00    -0.020 C 
ATOM      9  C   UNL     1      13.420  -7.361  40.815  1.00  0.00     0.012 C 
ATOM     10  C   UNL     1      12.414  -7.996  41.794  1.00  0.00    -0.006 C 
ATOM     11  C   UNL     1      11.360  -5.859  42.681  1.00  0.00     0.012 C 
ATOM     12  C   UNL     1      11.962  -7.672  44.334  1.00  0.00     0.012 C 
ATOM     13  C   UNL     1      12.958  -9.390  42.237  1.00  0.00     0.017 C 
ATOM     14  C   UNL     1      11.064  -8.195  41.067  1.00  0.00    -0.064 C 
ATOM     15  C   UNL     1       9.958  -6.408  42.433  1.00  0.00     0.032 C 
ATOM     16  C   UNL     1       9.926  -7.508  41.389  1.00  0.00    -0.064 C 
ATOM     17  C   UNL     1      11.026  -9.062  39.819  1.00  0.00     0.032 C 
ATOM     18  C   UNL     1       8.586  -7.888  40.701  1.00  0.00    -0.008 C 
ATOM     19  C   UNL     1       9.811 -10.000  39.776  1.00  0.00     0.009 C 
ATOM     20  C   UNL     1       8.580  -9.460  40.562  1.00  0.00     0.007 C 
ATOM     21  C   UNL     1       7.370  -7.467  41.587  1.00  0.00     0.014 C 
ATOM     22  C   UNL     1       8.520  -7.140  39.335  1.00  0.00     0.016 C 
ATOM     23  C   UNL     1       7.209 -10.129  40.153  1.00  0.00    -0.006 C 
ATOM     24  C   UNL     1       6.028  -8.069  41.138  1.00  0.00     0.033 C 
ATOM     25  C   UNL     1       6.078  -9.604  41.094  1.00  0.00     0.120 C 
ATOM     26  C   UNL     1       6.808  -9.868  38.676  1.00  0.00     0.014 C 
ATOM     27  C   UNL     1       7.312 -11.671  40.322  1.00  0.00     0.014 C 
BRANCH  25  28
ATOM     28  O   UNL     1       6.262 -10.098  42.400  1.00  0.00    -0.393 OA
ATOM     29  H   UNL     1       5.738 -10.940  42.470  1.00  0.00     0.210 HD
ENDBRANCH  25  28
ENDBRANCH   2   6
ENDBRANCH   1   2
BRANCH   1  30
ATOM     30  C   UNL     1      12.958  -3.652  45.478  1.00  0.00     0.028 C 
BRANCH  30  31
ATOM     31  C   UNL     1      11.478  -3.923  45.600  1.00  0.00    -0.028 C 
ATOM     32  C   UNL     1      10.524  -3.423  44.785  1.00  0.00    -0.080 C 
ATOM     33  C   UNL     1      10.845  -2.490  43.640  1.00  0.00     0.039 C 
ATOM     34  C   UNL     1       9.081  -3.763  45.063  1.00  0.00     0.039 C 
ENDBRANCH  30  31
ENDBRANCH   1  30
TORSDOF 6
ENDMDL
MODEL 5
REMARK VINA RESULT:    -5.662      2.427      3.970
REMARK INTER + INTRA:          -8.442
REMARK INTER:                  -7.096
REMARK INTRA:                  -1.346
REMARK UNBOUND:                -0.959
REMARK SMILES CC(C)=CCC[C@@H](C(=O)[O-])[C@@H]1CC[C@]2(C)C3=C(CC[C@]12C)[C@]1(C)CC[C@H](O)C(C)(C)[C@H]1CC3
REMARK SMILES IDX 6 1 7 2 8 3 9 4 10 5 11 6 12 7 20 8 13 9 14 10 19 11 21 12
REMARK SMILES IDX 15 13 16 14 18 15 17 16 33 17 22 18 32 19 31 20 24 21 23 22
REMARK SMILES IDX 28 23 25 24 26 25 29 26 30 27 27 28 5 30 4 31 2 32 1 33 3 34
REMARK H PARENT 27 29
REMARK Flexibility Score: inf
ROOT
ATOM      1  C   UNL     1      11.082  -6.141  46.124  1.00  0.00     0.014 C 
ENDROOT
BRANCH   1   2
ATOM      2  C   UNL     1       9.954  -5.738  45.127  1.00  0.00     0.039 C 
BRANCH   2   3
ATOM      3  C   UNL     1       9.721  -4.248  45.129  1.00  0.00     0.045 C 
ATOM      4  O   UNL     1      10.683  -3.435  45.228  1.00  0.00    -0.550 OA
ATOM      5  O   UNL     1       8.424  -3.756  45.046  1.00  0.00    -0.550 OA
ENDBRANCH   2   3
BRANCH   2   6
ATOM      6  C   UNL     1      10.037  -6.320  43.670  1.00  0.00     0.004 C 
ATOM      7  C   UNL     1       9.741  -5.262  42.595  1.00  0.00     0.006 C 
ATOM      8  C   UNL     1       9.276  -7.625  43.234  1.00  0.00    -0.020 C 
ATOM      9  C   UNL     1       9.066  -5.977  41.431  1.00  0.00     0.012 C 
ATOM     10  C   UNL     1       9.217  -7.493  41.666  1.00  0.00    -0.006 C 
ATOM     11  C   UNL     1       7.831  -7.681  43.788  1.00  0.00     0.012 C 
ATOM     12  C   UNL     1      10.039  -8.903  43.691  1.00  0.00     0.012 C 
ATOM     13  C   UNL     1      10.548  -7.971  41.004  1.00  0.00     0.017 C 
ATOM     14  C   UNL     1       8.034  -8.226  40.994  1.00  0.00    -0.064 C 
ATOM     15  C   UNL     1       7.041  -8.850  43.209  1.00  0.00     0.032 C 
ATOM     16  C   UNL     1       7.064  -8.891  41.692  1.00  0.00    -0.064 C 
ATOM     17  C   UNL     1       7.827  -8.061  39.497  1.00  0.00     0.032 C 
ATOM     18  C   UNL     1       6.002  -9.721  40.921  1.00  0.00    -0.008 C 
ATOM     19  C   UNL     1       7.473  -9.378  38.791  1.00  0.00     0.009 C 
ATOM     20  C   UNL     1       6.755 -10.405  39.713  1.00  0.00     0.007 C 
ATOM     21  C   UNL     1       5.407 -10.843  41.831  1.00  0.00     0.014 C 
ATOM     22  C   UNL     1       4.864  -8.751  40.478  1.00  0.00     0.016 C 
ATOM     23  C   UNL     1       5.966 -11.531  38.936  1.00  0.00    -0.006 C 
ATOM     24  C   UNL     1       4.583 -11.896  41.072  1.00  0.00     0.033 C 
ATOM     25  C   UNL     1       5.403 -12.568  39.960  1.00  0.00     0.120 C 
ATOM     26  C   UNL     1       4.800 -10.985  38.067  1.00  0.00     0.014 C 
ATOM     27  C   UNL     1       6.934 -12.271  37.970  1.00  0.00     0.014 C 
BRANCH  25  28
ATOM     28  O   UNL     1       6.456 -13.302  40.540  1.00  0.00    -0.393 OA
ATOM     29  H   UNL     1       6.049 -14.086  40.996  1.00  0.00     0.210 HD
ENDBRANCH  25  28
ENDBRANCH   2   6
ENDBRANCH   1   2
BRANCH   1  30
ATOM     30  C   UNL     1      12.382  -6.573  45.428  1.00  0.00     0.028 C 
BRANCH  30  31
ATOM     31  C   UNL     1      13.490  -5.554  45.545  1.00  0.00    -0.028 C 
ATOM     32  C   UNL     1      13.914  -4.747  44.549  1.00  0.00    -0.080 C 
ATOM     33  C   UNL     1      13.321  -4.795  43.159  1.00  0.00     0.039 C 
ATOM     34  C   UNL     1      15.059  -3.804  44.818  1.00  0.00     0.039 C 
ENDBRANCH  30  31
ENDBRANCH   1  30
TORSDOF 6
ENDMDL
MODEL 6
REMARK VINA RESULT:    -5.540     11.566     15.326
REMARK INTER + INTRA:          -8.281
REMARK INTER:                  -7.256
REMARK INTRA:                  -1.025
REMARK UNBOUND:                -0.959
REMARK SMILES CC(C)=CCC[C@@H](C(=O)[O-])[C@@H]1CC[C@]2(C)C3=C(CC[C@]12C)[C@]1(C)CC[C@H](O)C(C)(C)[C@H]1CC3
REMARK SMILES IDX 6 1 7 2 8 3 9 4 10 5 11 6 12 7 20 8 13 9 14 10 19 11 21 12
REMARK SMILES IDX 15 13 16 14 18 15 17 16 33 17 22 18 32 19 31 20 24 21 23 22
REMARK SMILES IDX 28 23 25 24 26 25 29 26 30 27 27 28 5 30 4 31 2 32 1 33 3 34
REMARK H PARENT 27 29
REMARK Flexibility Score: inf
ROOT
ATOM      1  C   UNL     1      13.627 -18.748  39.502  1.00  0.00     0.014 C 
ENDROOT
BRANCH   1   2
ATOM      2  C   UNL     1      14.351 -18.558  40.868  1.00  0.00     0.039 C 
BRANCH   2   3
ATOM      3  C   UNL     1      13.743 -19.425  41.941  1.00  0.00     0.045 C 
ATOM      4  O   UNL     1      13.271 -20.566  41.673  1.00  0.00    -0.550 OA
ATOM      5  O   UNL     1      13.677 -18.955  43.248  1.00  0.00    -0.550 OA
ENDBRANCH   2   3
BRANCH   2   6
ATOM      6  C   UNL     1      15.921 -18.631  40.869  1.00  0.00     0.004 C 
ATOM      7  C   UNL     1      16.454 -19.843  41.651  1.00  0.00     0.006 C 
ATOM      8  C   UNL     1      16.827 -17.409  41.268  1.00  0.00    -0.020 C 
ATOM      9  C   UNL     1      17.783 -19.431  42.272  1.00  0.00     0.012 C 
ATOM     10  C   UNL     1      18.198 -18.091  41.635  1.00  0.00    -0.006 C 
ATOM     11  C   UNL     1      16.291 -16.656  42.511  1.00  0.00     0.012 C 
ATOM     12  C   UNL     1      16.965 -16.401  40.090  1.00  0.00     0.012 C 
ATOM     13  C   UNL     1      19.047 -18.385  40.358  1.00  0.00     0.017 C 
ATOM     14  C   UNL     1      19.068 -17.304  42.642  1.00  0.00    -0.064 C 
ATOM     15  C   UNL     1      17.270 -15.595  43.002  1.00  0.00     0.032 C 
ATOM     16  C   UNL     1      18.669 -16.137  43.232  1.00  0.00    -0.064 C 
ATOM     17  C   UNL     1      20.355 -17.936  43.146  1.00  0.00     0.032 C 
ATOM     18  C   UNL     1      19.674 -15.345  44.113  1.00  0.00    -0.008 C 
ATOM     19  C   UNL     1      21.527 -16.945  43.206  1.00  0.00     0.009 C 
ATOM     20  C   UNL     1      21.083 -15.468  43.412  1.00  0.00     0.007 C 
ATOM     21  C   UNL     1      19.284 -13.834  44.177  1.00  0.00     0.014 C 
ATOM     22  C   UNL     1      19.636 -15.954  45.548  1.00  0.00     0.016 C 
ATOM     23  C   UNL     1      22.225 -14.519  43.949  1.00  0.00    -0.006 C 
ATOM     24  C   UNL     1      20.378 -12.928  44.766  1.00  0.00     0.033 C 
ATOM     25  C   UNL     1      21.698 -13.049  43.989  1.00  0.00     0.120 C 
ATOM     26  C   UNL     1      22.748 -14.913  45.357  1.00  0.00     0.014 C 
ATOM     27  C   UNL     1      23.445 -14.577  42.987  1.00  0.00     0.014 C 
BRANCH  25  28
ATOM     28  O   UNL     1      21.510 -12.562  42.681  1.00  0.00    -0.393 OA
ATOM     29  H   UNL     1      20.841 -11.828  42.735  1.00  0.00     0.210 HD
ENDBRANCH  25  28
ENDBRANCH   2   6
ENDBRANCH   1   2
BRANCH   1  30
ATOM     30  C   UNL     1      13.877 -17.594  38.518  1.00  0.00     0.028 C 
BRANCH  30  31
ATOM     31  C   UNL     1      13.879 -18.031  37.073  1.00  0.00    -0.028 C 
ATOM     32  C   UNL     1      14.920 -17.903  36.222  1.00  0.00    -0.080 C 
ATOM     33  C   UNL     1      16.228 -17.267  36.632  1.00  0.00     0.039 C 
ATOM     34  C   UNL     1      14.750 -18.360  34.794  1.00  0.00     0.039 C 
ENDBRANCH  30  31
ENDBRANCH   1  30
TORSDOF 6
ENDMDL
MODEL 7
REMARK VINA RESULT:    -5.529     16.815     18.447
REMARK INTER + INTRA:          -8.266
REMARK INTER:                  -7.327
REMARK INTRA:                  -0.939
REMARK UNBOUND:                -0.959
REMARK SMILES CC(C)=CCC[C@@H](C(=O)[O-])[C@@H]1CC[C@]2(C)C3=C(CC[C@]12C)[C@]1(C)CC[C@H](O)C(C)(C)[C@H]1CC3
REMARK SMILES IDX 6 1 7 2 8 3 9 4 10 5 11 6 12 7 20 8 13 9 14 10 19 11 21 12
REMARK SMILES IDX 15 13 16 14 18 15 17 16 33 17 22 18 32 19 31 20 24 21 23 22
REMARK SMILES IDX 28 23 25 24 26 25 29 26 30 27 27 28 5 30 4 31 2 32 1 33 3 34
REMARK H PARENT 27 29
REMARK Flexibility Score: inf
ROOT
ATOM      1  C   UNL     1      22.765 -15.072  30.827  1.00  0.00     0.014 C 
ENDROOT
BRANCH   1   2
ATOM      2  C   UNL     1      22.071 -14.352  29.632  1.00  0.00     0.039 C 
BRANCH   2   3
ATOM      3  C   UNL     1      22.909 -13.211  29.112  1.00  0.00     0.045 C 
ATOM      4  O   UNL     1      24.105 -13.389  28.747  1.00  0.00    -0.550 OA
ATOM      5  O   UNL     1      22.366 -11.932  29.055  1.00  0.00    -0.550 OA
ENDBRANCH   2   3
BRANCH   2   6
ATOM      6  C   UNL     1      21.515 -15.253  28.470  1.00  0.00     0.004 C 
ATOM      7  C   UNL     1      20.946 -14.427  27.305  1.00  0.00     0.006 C 
ATOM      8  C   UNL     1      20.503 -16.429  28.720  1.00  0.00    -0.020 C 
ATOM      9  C   UNL     1      19.796 -15.226  26.705  1.00  0.00     0.012 C 
ATOM     10  C   UNL     1      19.855 -16.646  27.301  1.00  0.00    -0.006 C 
ATOM     11  C   UNL     1      19.390 -16.048  29.728  1.00  0.00     0.012 C 
ATOM     12  C   UNL     1      21.234 -17.703  29.236  1.00  0.00     0.012 C 
ATOM     13  C   UNL     1      20.761 -17.534  26.391  1.00  0.00     0.017 C 
ATOM     14  C   UNL     1      18.428 -17.242  27.320  1.00  0.00    -0.064 C 
ATOM     15  C   UNL     1      18.310 -17.122  29.821  1.00  0.00     0.032 C 
ATOM     16  C   UNL     1      17.738 -17.509  28.470  1.00  0.00    -0.064 C 
ATOM     17  C   UNL     1      17.676 -17.379  26.006  1.00  0.00     0.032 C 
ATOM     18  C   UNL     1      16.373 -18.246  28.386  1.00  0.00    -0.008 C 
ATOM     19  C   UNL     1      16.930 -18.715  25.878  1.00  0.00     0.009 C 
ATOM     20  C   UNL     1      16.515 -19.330  27.247  1.00  0.00     0.007 C 
ATOM     21  C   UNL     1      16.056 -18.980  29.728  1.00  0.00     0.014 C 
ATOM     22  C   UNL     1      15.270 -17.182  28.100  1.00  0.00     0.016 C 
ATOM     23  C   UNL     1      15.365 -20.407  27.149  1.00  0.00    -0.006 C 
ATOM     24  C   UNL     1      14.889 -19.976  29.638  1.00  0.00     0.033 C 
ATOM     25  C   UNL     1      15.131 -21.041  28.558  1.00  0.00     0.120 C 
ATOM     26  C   UNL     1      14.023 -19.836  26.616  1.00  0.00     0.014 C 
ATOM     27  C   UNL     1      15.792 -21.536  26.168  1.00  0.00     0.014 C 
BRANCH  25  28
ATOM     28  O   UNL     1      16.237 -21.832  28.927  1.00  0.00    -0.393 OA
ATOM     29  H   UNL     1      17.027 -21.473  28.442  1.00  0.00     0.210 HD
ENDBRANCH  25  28
ENDBRANCH   2   6
ENDBRANCH   1   2
BRANCH   1  30
ATOM     30  C   UNL     1      21.951 -15.008  32.129  1.00  0.00     0.028 C 
BRANCH  30  31
ATOM     31  C   UNL     1      22.733 -15.445  33.344  1.00  0.00    -0.028 C 
ATOM     32  C   UNL     1      22.888 -16.722  33.753  1.00  0.00    -0.080 C 
ATOM     33  C   UNL     1      22.256 -17.887  33.027  1.00  0.00     0.039 C 
ATOM     34  C   UNL     1      23.674 -16.990  35.013  1.00  0.00     0.039 C 
ENDBRANCH  30  31
ENDBRANCH   1  30
TORSDOF 6
ENDMDL
MODEL 8
REMARK VINA RESULT:    -5.490      2.073      3.040
REMARK INTER + INTRA:          -8.215
REMARK INTER:                  -7.031
REMARK INTRA:                  -1.184
REMARK UNBOUND:                -0.959
REMARK SMILES CC(C)=CCC[C@@H](C(=O)[O-])[C@@H]1CC[C@]2(C)C3=C(CC[C@]12C)[C@]1(C)CC[C@H](O)C(C)(C)[C@H]1CC3
REMARK SMILES IDX 6 1 7 2 8 3 9 4 10 5 11 6 12 7 20 8 13 9 14 10 19 11 21 12
REMARK SMILES IDX 15 13 16 14 18 15 17 16 33 17 22 18 32 19 31 20 24 21 23 22
REMARK SMILES IDX 28 23 25 24 26 25 29 26 30 27 27 28 5 30 4 31 2 32 1 33 3 34
REMARK H PARENT 27 29
REMARK Flexibility Score: inf
ROOT
ATOM      1  C   UNL     1      13.189  -6.008  43.380  1.00  0.00     0.014 C 
ENDROOT
BRANCH   1   2
ATOM      2  C   UNL     1      12.101  -7.109  43.560  1.00  0.00     0.039 C 
BRANCH   2   3
ATOM      3  C   UNL     1      11.895  -7.450  45.014  1.00  0.00     0.045 C 
ATOM      4  O   UNL     1      12.107  -6.599  45.923  1.00  0.00    -0.550 OA
ATOM      5  O   UNL     1      11.486  -8.731  45.367  1.00  0.00    -0.550 OA
ENDBRANCH   2   3
BRANCH   2   6
ATOM      6  C   UNL     1      10.739  -6.910  42.801  1.00  0.00     0.004 C 
ATOM      7  C   UNL     1       9.584  -6.548  43.749  1.00  0.00     0.006 C 
ATOM      8  C   UNL     1      10.171  -7.969  41.788  1.00  0.00    -0.020 C 
ATOM      9  C   UNL     1       8.313  -7.148  43.161  1.00  0.00     0.012 C 
ATOM     10  C   UNL     1       8.638  -7.613  41.728  1.00  0.00    -0.006 C 
ATOM     11  C   UNL     1      10.330  -9.422  42.298  1.00  0.00     0.012 C 
ATOM     12  C   UNL     1      10.860  -7.846  40.397  1.00  0.00     0.012 C 
ATOM     13  C   UNL     1       8.365  -6.431  40.745  1.00  0.00     0.017 C 
ATOM     14  C   UNL     1       7.709  -8.793  41.361  1.00  0.00    -0.064 C 
ATOM     15  C   UNL     1       9.610 -10.425  41.403  1.00  0.00     0.032 C 
ATOM     16  C   UNL     1       8.155 -10.070  41.161  1.00  0.00    -0.064 C 
ATOM     17  C   UNL     1       6.204  -8.576  41.392  1.00  0.00     0.032 C 
ATOM     18  C   UNL     1       7.165 -11.152  40.648  1.00  0.00    -0.008 C 
ATOM     19  C   UNL     1       5.481  -9.209  40.193  1.00  0.00     0.009 C 
ATOM     20  C   UNL     1       6.223 -10.442  39.600  1.00  0.00     0.007 C 
ATOM     21  C   UNL     1       7.931 -12.304  39.923  1.00  0.00     0.014 C 
ATOM     22  C   UNL     1       6.403 -11.728  41.882  1.00  0.00     0.016 C 
ATOM     23  C   UNL     1       5.311 -11.381  38.718  1.00  0.00    -0.006 C 
ATOM     24  C   UNL     1       7.024 -13.255  39.124  1.00  0.00     0.033 C 
ATOM     25  C   UNL     1       6.191 -12.501  38.076  1.00  0.00     0.120 C 
ATOM     26  C   UNL     1       4.148 -12.038  39.511  1.00  0.00     0.014 C 
ATOM     27  C   UNL     1       4.660 -10.553  37.575  1.00  0.00     0.014 C 
BRANCH  25  28
ATOM     28  O   UNL     1       7.054 -11.948  37.110  1.00  0.00    -0.393 OA
ATOM     29  H   UNL     1       7.969 -12.286  37.308  1.00  0.00     0.210 HD
ENDBRANCH  25  28
ENDBRANCH   2   6
ENDBRANCH   1   2
BRANCH   1  30
ATOM     30  C   UNL     1      12.605  -4.630  43.030  1.00  0.00     0.028 C 
BRANCH  30  31
ATOM     31  C   UNL     1      12.305  -3.783  44.243  1.00  0.00    -0.028 C 
ATOM     32  C   UNL     1      11.144  -3.130  44.469  1.00  0.00    -0.080 C 
ATOM     33  C   UNL     1       9.994  -3.161  43.490  1.00  0.00     0.039 C 
ATOM     34  C   UNL     1      11.014  -2.294  45.718  1.00  0.00     0.039 C 
ENDBRANCH  30  31
ENDBRANCH   1  30
TORSDOF 6
ENDMDL
MODEL 9
REMARK VINA RESULT:    -5.483      6.751     11.685
REMARK INTER + INTRA:          -8.205
REMARK INTER:                  -6.615
REMARK INTRA:                  -1.590
REMARK UNBOUND:                -0.959
REMARK SMILES CC(C)=CCC[C@@H](C(=O)[O-])[C@@H]1CC[C@]2(C)C3=C(CC[C@]12C)[C@]1(C)CC[C@H](O)C(C)(C)[C@H]1CC3
REMARK SMILES IDX 6 1 7 2 8 3 9 4 10 5 11 6 12 7 20 8 13 9 14 10 19 11 21 12
REMARK SMILES IDX 15 13 16 14 18 15 17 16 33 17 22 18 32 19 31 20 24 21 23 22
REMARK SMILES IDX 28 23 25 24 26 25 29 26 30 27 27 28 5 30 4 31 2 32 1 33 3 34
REMARK H PARENT 27 29
REMARK Flexibility Score: inf
ROOT
ATOM      1  C   UNL     1       5.394  -7.470  29.877  1.00  0.00     0.014 C 
ENDROOT
BRANCH   1   2
ATOM      2  C   UNL     1       6.564  -8.144  29.099  1.00  0.00     0.039 C 
BRANCH   2   3
ATOM      3  C   UNL     1       6.202  -8.384  27.656  1.00  0.00     0.045 C 
ATOM      4  O   UNL     1       5.873  -7.430  26.895  1.00  0.00    -0.550 OA
ATOM      5  O   UNL     1       6.208  -9.680  27.153  1.00  0.00    -0.550 OA
ENDBRANCH   2   3
BRANCH   2   6
ATOM      6  C   UNL     1       7.993  -7.509  29.253  1.00  0.00     0.004 C 
ATOM      7  C   UNL     1       8.984  -8.028  28.198  1.00  0.00     0.006 C 
ATOM      8  C   UNL     1       8.768  -7.485  30.621  1.00  0.00    -0.020 C 
ATOM      9  C   UNL     1      10.363  -8.049  28.847  1.00  0.00     0.012 C 
ATOM     10  C   UNL     1      10.264  -7.275  30.176  1.00  0.00    -0.006 C 
ATOM     11  C   UNL     1       8.655  -8.825  31.389  1.00  0.00     0.012 C 
ATOM     12  C   UNL     1       8.258  -6.335  31.538  1.00  0.00     0.012 C 
ATOM     13  C   UNL     1      10.571  -5.769  29.902  1.00  0.00     0.017 C 
ATOM     14  C   UNL     1      11.320  -7.830  31.159  1.00  0.00    -0.064 C 
ATOM     15  C   UNL     1       9.560  -8.859  32.616  1.00  0.00     0.032 C 
ATOM     16  C   UNL     1      11.003  -8.510  32.302  1.00  0.00    -0.064 C 
ATOM     17  C   UNL     1      12.787  -7.778  30.762  1.00  0.00     0.032 C 
ATOM     18  C   UNL     1      12.130  -8.894  33.300  1.00  0.00    -0.008 C 
ATOM     19  C   UNL     1      13.705  -7.340  31.913  1.00  0.00     0.009 C 
ATOM     20  C   UNL     1      13.143  -7.684  33.323  1.00  0.00     0.007 C 
ATOM     21  C   UNL     1      11.555  -9.085  34.739  1.00  0.00     0.014 C 
ATOM     22  C   UNL     1      12.767 -10.231  32.811  1.00  0.00     0.016 C 
ATOM     23  C   UNL     1      14.231  -7.695  34.467  1.00  0.00    -0.006 C 
ATOM     24  C   UNL     1      12.628  -9.164  35.838  1.00  0.00     0.033 C 
ATOM     25  C   UNL     1      13.529  -7.920  35.845  1.00  0.00     0.120 C 
ATOM     26  C   UNL     1      15.328  -8.776  34.270  1.00  0.00     0.014 C 
ATOM     27  C   UNL     1      14.960  -6.322  34.506  1.00  0.00     0.014 C 
BRANCH  25  28
ATOM     28  O   UNL     1      12.760  -6.792  36.190  1.00  0.00    -0.393 OA
ATOM     29  H   UNL     1      13.286  -5.989  35.931  1.00  0.00     0.210 HD
ENDBRANCH  25  28
ENDBRANCH   2   6
ENDBRANCH   1   2
BRANCH   1  30
ATOM     30  C   UNL     1       4.582  -8.458  30.729  1.00  0.00     0.028 C 
BRANCH  30  31
ATOM     31  C   UNL     1       5.301  -8.897  31.982  1.00  0.00    -0.028 C 
ATOM     32  C   UNL     1       5.342  -8.204  33.140  1.00  0.00    -0.080 C 
ATOM     33  C   UNL     1       4.670  -6.860  33.303  1.00  0.00     0.039 C 
ATOM     34  C   UNL     1       6.135  -8.765  34.294  1.00  0.00     0.039 C 
ENDBRANCH  30  31
ENDBRANCH   1  30
TORSDOF 6
ENDMDL
