MODEL 1
REMARK VINA RESULT:    -3.270      0.000      0.000
REMARK INTER + INTRA:          -4.202
REMARK INTER:                  -3.939
REMARK INTRA:                  -0.262
REMARK UNBOUND:                -0.262
REMARK SMILES NC(=O)C[C@H]([NH3+])C(=O)[O-]
REMARK SMILES IDX 4 1 5 2 6 3 7 7 8 8 9 9 2 10 3 11 1 12
REMARK H PARENT 6 4 6 5 6 6 1 13 1 14
REMARK Flexibility Score: inf
ROOT
ATOM      1  C   UNL     1       9.848   7.114  42.526  1.00  0.00     0.171 C 
ENDROOT
BRANCH   1   2
ATOM      2  C   UNL     1       8.691   6.179  42.929  1.00  0.00     0.237 C 
BRANCH   2   3
ATOM      3  N   UNL     1       7.650   6.171  41.893  1.00  0.00    -0.350 N 
ATOM      4  H   UNL     1       6.766   5.753  42.261  1.00  0.00     0.345 HD
ATOM      5  H   UNL     1       7.976   5.619  41.066  1.00  0.00     0.345 HD
ATOM      6  H   UNL     1       7.460   7.150  41.577  1.00  0.00     0.345 HD
ENDBRANCH   2   3
BRANCH   2   7
ATOM      7  C   UNL     1       8.102   6.584  44.256  1.00  0.00     0.100 C 
ATOM      8  O   UNL     1       8.599   7.538  44.911  1.00  0.00    -0.544 OA
ATOM      9  O   UNL     1       7.016   5.890  44.775  1.00  0.00    -0.544 OA
ENDBRANCH   2   7
ENDBRANCH   1   2
BRANCH   1  10
ATOM     10  C   UNL     1      10.605   6.581  41.343  1.00  0.00     0.223 C 
ATOM     11  O   UNL     1      10.176   6.797  40.178  1.00  0.00    -0.275 OA
ATOM     12  N   UNL     1      11.783   5.798  41.528  1.00  0.00    -0.369 N 
ATOM     13  H   UNL     1      12.297   5.417  40.704  1.00  0.00     0.159 HD
ATOM     14  H   UNL     1      12.142   5.592  42.487  1.00  0.00     0.159 HD
ENDBRANCH   1  10
TORSDOF 4
ENDMDL
MODEL 2
REMARK VINA RESULT:    -3.032      2.396      4.467
REMARK INTER + INTRA:          -3.915
REMARK INTER:                  -3.463
REMARK INTRA:                  -0.452
REMARK UNBOUND:                -0.262
REMARK SMILES NC(=O)C[C@H]([NH3+])C(=O)[O-]
REMARK SMILES IDX 4 1 5 2 6 3 7 7 8 8 9 9 2 10 3 11 1 12
REMARK H PARENT 6 4 6 5 6 6 1 13 1 14
REMARK Flexibility Score: inf
ROOT
ATOM      1  C   UNL     1       8.867   7.353  40.792  1.00  0.00     0.171 C 
ENDROOT
BRANCH   1   2
ATOM      2  C   UNL     1       8.253   6.610  39.588  1.00  0.00     0.237 C 
BRANCH   2   3
ATOM      3  N   UNL     1       7.997   5.205  39.926  1.00  0.00    -0.350 N 
ATOM      4  H   UNL     1       8.382   4.571  39.189  1.00  0.00     0.345 HD
ATOM      5  H   UNL     1       6.967   5.043  40.017  1.00  0.00     0.345 HD
ATOM      6  H   UNL     1       8.445   4.975  40.843  1.00  0.00     0.345 HD
ENDBRANCH   2   3
BRANCH   2   7
ATOM      7  C   UNL     1       9.149   6.701  38.380  1.00  0.00     0.100 C 
ATOM      8  O   UNL     1       8.852   6.092  37.317  1.00  0.00    -0.544 OA
ATOM      9  O   UNL     1      10.322   7.444  38.438  1.00  0.00    -0.544 OA
ENDBRANCH   2   7
ENDBRANCH   1   2
BRANCH   1  10
ATOM     10  C   UNL     1       9.634   6.420  41.685  1.00  0.00     0.223 C 
ATOM     11  O   UNL     1       9.084   5.948  42.715  1.00  0.00    -0.275 OA
ATOM     12  N   UNL     1      10.995   6.096  41.399  1.00  0.00    -0.369 N 
ATOM     13  H   UNL     1      11.529   5.460  42.030  1.00  0.00     0.159 HD
ATOM     14  H   UNL     1      11.473   6.494  40.560  1.00  0.00     0.159 HD
ENDBRANCH   1  10
TORSDOF 4
ENDMDL
MODEL 3
REMARK VINA RESULT:    -3.016      2.034      2.407
REMARK INTER + INTRA:          -3.896
REMARK INTER:                  -3.651
REMARK INTRA:                  -0.245
REMARK UNBOUND:                -0.262
REMARK SMILES NC(=O)C[C@H]([NH3+])C(=O)[O-]
REMARK SMILES IDX 4 1 5 2 6 3 7 7 8 8 9 9 2 10 3 11 1 12
REMARK H PARENT 6 4 6 5 6 6 1 13 1 14
REMARK Flexibility Score: inf
ROOT
ATOM      1  C   UNL     1       7.591   6.458  42.448  1.00  0.00     0.171 C 
ENDROOT
BRANCH   1   2
ATOM      2  C   UNL     1       8.332   6.413  43.799  1.00  0.00     0.237 C 
BRANCH   2   3
ATOM      3  N   UNL     1       7.423   5.987  44.871  1.00  0.00    -0.350 N 
ATOM      4  H   UNL     1       7.958   5.556  45.659  1.00  0.00     0.345 HD
ATOM      5  H   UNL     1       6.737   5.290  44.498  1.00  0.00     0.345 HD
ATOM      6  H   UNL     1       6.889   6.811  45.230  1.00  0.00     0.345 HD
ENDBRANCH   2   3
BRANCH   2   7
ATOM      7  C   UNL     1       8.937   7.753  44.132  1.00  0.00     0.100 C 
ATOM      8  O   UNL     1       8.616   8.354  45.192  1.00  0.00    -0.544 OA
ATOM      9  O   UNL     1       9.841   8.344  43.258  1.00  0.00    -0.544 OA
ENDBRANCH   2   7
ENDBRANCH   1   2
BRANCH   1  10
ATOM     10  C   UNL     1       8.381   5.786  41.361  1.00  0.00     0.223 C 
ATOM     11  O   UNL     1       7.782   5.290  40.370  1.00  0.00    -0.275 OA
ATOM     12  N   UNL     1       9.800   5.669  41.462  1.00  0.00    -0.369 N 
ATOM     13  H   UNL     1      10.342   5.187  40.712  1.00  0.00     0.159 HD
ATOM     14  H   UNL     1      10.310   6.056  42.286  1.00  0.00     0.159 HD
ENDBRANCH   1  10
TORSDOF 4
ENDMDL
MODEL 4
REMARK VINA RESULT:    -3.004      2.082      2.652
REMARK INTER + INTRA:          -3.881
REMARK INTER:                  -3.633
REMARK INTRA:                  -0.248
REMARK UNBOUND:                -0.262
REMARK SMILES NC(=O)C[C@H]([NH3+])C(=O)[O-]
REMARK SMILES IDX 4 1 5 2 6 3 7 7 8 8 9 9 2 10 3 11 1 12
REMARK H PARENT 6 4 6 5 6 6 1 13 1 14
REMARK Flexibility Score: inf
ROOT
ATOM      1  C   UNL     1       8.743   6.543  40.467  1.00  0.00     0.171 C 
ENDROOT
BRANCH   1   2
ATOM      2  C   UNL     1       9.846   6.951  41.464  1.00  0.00     0.237 C 
BRANCH   2   3
ATOM      3  N   UNL     1      10.957   5.992  41.423  1.00  0.00    -0.350 N 
ATOM      4  H   UNL     1      10.829   5.246  42.144  1.00  0.00     0.345 HD
ATOM      5  H   UNL     1      11.862   6.489  41.596  1.00  0.00     0.345 HD
ATOM      6  H   UNL     1      11.005   5.548  40.477  1.00  0.00     0.345 HD
ENDBRANCH   2   3
BRANCH   2   7
ATOM      7  C   UNL     1       9.301   7.057  42.865  1.00  0.00     0.100 C 
ATOM      8  O   UNL     1       9.618   8.027  43.602  1.00  0.00    -0.544 OA
ATOM      9  O   UNL     1       8.457   6.069  43.358  1.00  0.00    -0.544 OA
ENDBRANCH   2   7
ENDBRANCH   1   2
BRANCH   1  10
ATOM     10  C   UNL     1       9.222   6.624  39.046  1.00  0.00     0.223 C 
ATOM     11  O   UNL     1      10.086   7.483  38.726  1.00  0.00    -0.275 OA
ATOM     12  N   UNL     1       8.679   5.762  38.047  1.00  0.00    -0.369 N 
ATOM     13  H   UNL     1       9.004   5.832  37.058  1.00  0.00     0.159 HD
ATOM     14  H   UNL     1       7.948   5.057  38.290  1.00  0.00     0.159 HD
ENDBRANCH   1  10
TORSDOF 4
ENDMDL
MODEL 5
REMARK VINA RESULT:    -2.980      1.331      4.005
REMARK INTER + INTRA:          -3.852
REMARK INTER:                  -3.607
REMARK INTRA:                  -0.245
REMARK UNBOUND:                -0.262
REMARK SMILES NC(=O)C[C@H]([NH3+])C(=O)[O-]
REMARK SMILES IDX 4 1 5 2 6 3 7 7 8 8 9 9 2 10 3 11 1 12
REMARK H PARENT 6 4 6 5 6 6 1 13 1 14
REMARK Flexibility Score: inf
ROOT
ATOM      1  C   UNL     1       9.900   7.609  42.646  1.00  0.00     0.171 C 
ENDROOT
BRANCH   1   2
ATOM      2  C   UNL     1       9.977   6.459  41.621  1.00  0.00     0.237 C 
BRANCH   2   3
ATOM      3  N   UNL     1      11.373   6.064  41.394  1.00  0.00    -0.350 N 
ATOM      4  H   UNL     1      11.428   5.073  41.067  1.00  0.00     0.345 HD
ATOM      5  H   UNL     1      11.920   6.166  42.281  1.00  0.00     0.345 HD
ATOM      6  H   UNL     1      11.803   6.687  40.673  1.00  0.00     0.345 HD
ENDBRANCH   2   3
BRANCH   2   7
ATOM      7  C   UNL     1       9.327   6.848  40.319  1.00  0.00     0.100 C 
ATOM      8  O   UNL     1      10.031   7.119  39.309  1.00  0.00    -0.544 OA
ATOM      9  O   UNL     1       7.943   6.929  40.230  1.00  0.00    -0.544 OA
ENDBRANCH   2   7
ENDBRANCH   1   2
BRANCH   1  10
ATOM     10  C   UNL     1       8.839   7.360  43.679  1.00  0.00     0.223 C 
ATOM     11  O   UNL     1       8.878   7.977  44.776  1.00  0.00    -0.275 OA
ATOM     12  N   UNL     1       7.808   6.401  43.444  1.00  0.00    -0.369 N 
ATOM     13  H   UNL     1       7.082   6.220  44.170  1.00  0.00     0.159 HD
ATOM     14  H   UNL     1       7.771   5.866  42.548  1.00  0.00     0.159 HD
ENDBRANCH   1  10
TORSDOF 4
ENDMDL
MODEL 6
REMARK VINA RESULT:    -2.929     11.028     12.224
REMARK INTER + INTRA:          -3.791
REMARK INTER:                  -3.469
REMARK INTRA:                  -0.322
REMARK UNBOUND:                -0.262
REMARK SMILES NC(=O)C[C@H]([NH3+])C(=O)[O-]
REMARK SMILES IDX 4 1 5 2 6 3 7 7 8 8 9 9 2 10 3 11 1 12
REMARK H PARENT 6 4 6 5 6 6 1 13 1 14
REMARK Flexibility Score: inf
ROOT
ATOM      1  C   UNL     1       7.901  -1.969  36.254  1.00  0.00     0.171 C 
ENDROOT
BRANCH   1   2
ATOM      2  C   UNL     1       8.863  -2.135  35.061  1.00  0.00     0.237 C 
BRANCH   2   3
ATOM      3  N   UNL     1       8.611  -1.102  34.048  1.00  0.00    -0.350 N 
ATOM      4  H   UNL     1       9.511  -0.746  33.653  1.00  0.00     0.345 HD
ATOM      5  H   UNL     1       8.083  -0.307  34.476  1.00  0.00     0.345 HD
ATOM      6  H   UNL     1       8.031  -1.500  33.274  1.00  0.00     0.345 HD
ENDBRANCH   2   3
BRANCH   2   7
ATOM      7  C   UNL     1       8.736  -3.506  34.448  1.00  0.00     0.100 C 
ATOM      8  O   UNL     1       9.112  -4.527  35.084  1.00  0.00    -0.544 OA
ATOM      9  O   UNL     1       8.220  -3.650  33.166  1.00  0.00    -0.544 OA
ENDBRANCH   2   7
ENDBRANCH   1   2
BRANCH   1  10
ATOM     10  C   UNL     1       6.703  -1.140  35.889  1.00  0.00     0.223 C 
ATOM     11  O   UNL     1       5.932  -1.527  34.970  1.00  0.00    -0.275 OA
ATOM     12  N   UNL     1       6.452   0.103  36.545  1.00  0.00    -0.369 N 
ATOM     13  H   UNL     1       5.628   0.683  36.277  1.00  0.00     0.159 HD
ATOM     14  H   UNL     1       7.092   0.449  37.294  1.00  0.00     0.159 HD
ENDBRANCH   1  10
TORSDOF 4
ENDMDL
MODEL 7
REMARK VINA RESULT:    -2.912      9.747     10.783
REMARK INTER + INTRA:          -3.770
REMARK INTER:                  -3.488
REMARK INTRA:                  -0.282
REMARK UNBOUND:                -0.262
REMARK SMILES NC(=O)C[C@H]([NH3+])C(=O)[O-]
REMARK SMILES IDX 4 1 5 2 6 3 7 7 8 8 9 9 2 10 3 11 1 12
REMARK H PARENT 6 4 6 5 6 6 1 13 1 14
REMARK Flexibility Score: inf
ROOT
ATOM      1  C   UNL     1       6.043  -2.175  43.004  1.00  0.00     0.171 C 
ENDROOT
BRANCH   1   2
ATOM      2  C   UNL     1       5.255  -3.182  42.143  1.00  0.00     0.237 C 
BRANCH   2   3
ATOM      3  N   UNL     1       4.221  -3.847  42.945  1.00  0.00    -0.350 N 
ATOM      4  H   UNL     1       3.872  -3.211  43.699  1.00  0.00     0.345 HD
ATOM      5  H   UNL     1       4.612  -4.715  43.380  1.00  0.00     0.345 HD
ATOM      6  H   UNL     1       3.420  -4.122  42.332  1.00  0.00     0.345 HD
ENDBRANCH   2   3
BRANCH   2   7
ATOM      7  C   UNL     1       6.173  -4.205  41.525  1.00  0.00     0.100 C 
ATOM      8  O   UNL     1       6.687  -5.112  42.232  1.00  0.00    -0.544 OA
ATOM      9  O   UNL     1       6.473  -4.140  40.170  1.00  0.00    -0.544 OA
ENDBRANCH   2   7
ENDBRANCH   1   2
BRANCH   1  10
ATOM     10  C   UNL     1       5.143  -1.423  43.942  1.00  0.00     0.223 C 
ATOM     11  O   UNL     1       4.058  -0.944  43.516  1.00  0.00    -0.275 OA
ATOM     12  N   UNL     1       5.524  -1.213  45.301  1.00  0.00    -0.369 N 
ATOM     13  H   UNL     1       4.902  -0.677  45.945  1.00  0.00     0.159 HD
ATOM     14  H   UNL     1       6.428  -1.586  45.665  1.00  0.00     0.159 HD
ENDBRANCH   1  10
TORSDOF 4
ENDMDL
MODEL 8
REMARK VINA RESULT:    -2.886     10.505     11.925
REMARK INTER + INTRA:          -3.738
REMARK INTER:                  -3.488
REMARK INTRA:                  -0.250
REMARK UNBOUND:                -0.262
REMARK SMILES NC(=O)C[C@H]([NH3+])C(=O)[O-]
REMARK SMILES IDX 4 1 5 2 6 3 7 7 8 8 9 9 2 10 3 11 1 12
REMARK H PARENT 6 4 6 5 6 6 1 13 1 14
REMARK Flexibility Score: inf
ROOT
ATOM      1  C   UNL     1       8.254  -0.950  35.451  1.00  0.00     0.171 C 
ENDROOT
BRANCH   1   2
ATOM      2  C   UNL     1       8.289  -1.512  34.015  1.00  0.00     0.237 C 
BRANCH   2   3
ATOM      3  N   UNL     1       8.326  -2.980  34.038  1.00  0.00    -0.350 N 
ATOM      4  H   UNL     1       8.226  -3.337  35.016  1.00  0.00     0.345 HD
ATOM      5  H   UNL     1       9.231  -3.319  33.637  1.00  0.00     0.345 HD
ATOM      6  H   UNL     1       7.547  -3.361  33.453  1.00  0.00     0.345 HD
ENDBRANCH   2   3
BRANCH   2   7
ATOM      7  C   UNL     1       9.470  -0.974  33.250  1.00  0.00     0.100 C 
ATOM      8  O   UNL     1      10.513  -0.609  33.856  1.00  0.00    -0.544 OA
ATOM      9  O   UNL     1       9.408  -0.858  31.866  1.00  0.00    -0.544 OA
ENDBRANCH   2   7
ENDBRANCH   1   2
BRANCH   1  10
ATOM     10  C   UNL     1       6.846  -0.782  35.945  1.00  0.00     0.223 C 
ATOM     11  O   UNL     1       5.958  -1.603  35.592  1.00  0.00    -0.275 OA
ATOM     12  N   UNL     1       6.496   0.322  36.779  1.00  0.00    -0.369 N 
ATOM     13  H   UNL     1       5.514   0.443  37.108  1.00  0.00     0.159 HD
ATOM     14  H   UNL     1       7.215   1.023  37.066  1.00  0.00     0.159 HD
ENDBRANCH   1  10
TORSDOF 4
ENDMDL
MODEL 9
REMARK VINA RESULT:    -2.879      8.919      9.969
REMARK INTER + INTRA:          -3.730
REMARK INTER:                  -3.279
REMARK INTRA:                  -0.451
REMARK UNBOUND:                -0.262
REMARK SMILES NC(=O)C[C@H]([NH3+])C(=O)[O-]
REMARK SMILES IDX 4 1 5 2 6 3 7 7 8 8 9 9 2 10 3 11 1 12
REMARK H PARENT 6 4 6 5 6 6 1 13 1 14
REMARK Flexibility Score: inf
ROOT
ATOM      1  C   UNL     1       5.124  -2.840  42.989  1.00  0.00     0.171 C 
ENDROOT
BRANCH   1   2
ATOM      2  C   UNL     1       6.475  -2.894  42.248  1.00  0.00     0.237 C 
BRANCH   2   3
ATOM      3  N   UNL     1       7.484  -2.098  42.957  1.00  0.00    -0.350 N 
ATOM      4  H   UNL     1       7.046  -1.553  43.734  1.00  0.00     0.345 HD
ATOM      5  H   UNL     1       7.948  -1.437  42.290  1.00  0.00     0.345 HD
ATOM      6  H   UNL     1       8.218  -2.730  43.353  1.00  0.00     0.345 HD
ENDBRANCH   2   3
BRANCH   2   7
ATOM      7  C   UNL     1       6.334  -2.411  40.827  1.00  0.00     0.100 C 
ATOM      8  O   UNL     1       7.354  -2.116  40.148  1.00  0.00    -0.544 OA
ATOM      9  O   UNL     1       5.072  -2.270  40.263  1.00  0.00    -0.544 OA
ENDBRANCH   2   7
ENDBRANCH   1   2
BRANCH   1  10
ATOM     10  C   UNL     1       4.842  -1.466  43.526  1.00  0.00     0.223 C 
ATOM     11  O   UNL     1       5.361  -1.102  44.615  1.00  0.00    -0.275 OA
ATOM     12  N   UNL     1       3.959  -0.583  42.834  1.00  0.00    -0.369 N 
ATOM     13  H   UNL     1       3.754   0.364  43.218  1.00  0.00     0.159 HD
ATOM     14  H   UNL     1       3.505  -0.876  41.940  1.00  0.00     0.159 HD
ENDBRANCH   1  10
TORSDOF 4
ENDMDL
