MODEL 1
REMARK VINA RESULT:    -2.220      0.000      0.000
REMARK INTER + INTRA:          -2.220
REMARK INTER:                  -2.220
REMARK INTRA:                   0.000
REMARK UNBOUND:                 0.000
REMARK SMILES CC(=O)[O-]
REMARK SMILES IDX 1 1 2 2 3 3 4 4
REMARK H PARENT
REMARK Flexibility Score: inf
ROOT
ATOM      1  C   UNL     1      -2.345  -1.017  -8.180  1.00  0.00     0.063 C 
ATOM      2  C   UNL     1      -1.962  -1.074  -6.740  1.00  0.00     0.038 C 
ATOM      3  O   UNL     1      -2.764  -1.545  -5.891  1.00  0.00    -0.550 OA
ATOM      4  O   UNL     1      -0.742  -0.558  -6.323  1.00  0.00    -0.550 OA
ENDROOT
TORSDOF 0
ENDMDL
MODEL 2
REMARK VINA RESULT:    -2.198      0.243      1.638
REMARK INTER + INTRA:          -2.198
REMARK INTER:                  -2.198
REMARK INTRA:                   0.000
REMARK UNBOUND:                 0.000
REMARK SMILES CC(=O)[O-]
REMARK SMILES IDX 1 1 2 2 3 3 4 4
REMARK H PARENT
REMARK Flexibility Score: inf
ROOT
ATOM      1  C   UNL     1      -1.958  -1.213  -8.234  1.00  0.00     0.063 C 
ATOM      2  C   UNL     1      -1.768  -1.044  -6.764  1.00  0.00     0.038 C 
ATOM      3  O   UNL     1      -0.698  -0.552  -6.318  1.00  0.00    -0.550 OA
ATOM      4  O   UNL     1      -2.747  -1.480  -5.881  1.00  0.00    -0.550 OA
ENDROOT
TORSDOF 0
ENDMDL
MODEL 3
REMARK VINA RESULT:    -2.104      5.976      6.591
REMARK INTER + INTRA:          -2.104
REMARK INTER:                  -2.104
REMARK INTRA:                   0.000
REMARK UNBOUND:                 0.000
REMARK SMILES CC(=O)[O-]
REMARK SMILES IDX 1 1 2 2 3 3 4 4
REMARK H PARENT
REMARK Flexibility Score: inf
ROOT
ATOM      1  C   UNL     1       4.552  -1.913  -4.372  1.00  0.00     0.063 C 
ATOM      2  C   UNL     1       3.389  -1.955  -3.440  1.00  0.00     0.038 C 
ATOM      3  O   UNL     1       3.550  -1.708  -2.216  1.00  0.00    -0.550 OA
ATOM      4  O   UNL     1       2.134  -2.321  -3.910  1.00  0.00    -0.550 OA
ENDROOT
TORSDOF 0
ENDMDL
MODEL 4
REMARK VINA RESULT:    -2.084      5.920      6.427
REMARK INTER + INTRA:          -2.084
REMARK INTER:                  -2.084
REMARK INTRA:                   0.000
REMARK UNBOUND:                 0.000
REMARK SMILES CC(=O)[O-]
REMARK SMILES IDX 1 1 2 2 3 3 4 4
REMARK H PARENT
REMARK Flexibility Score: inf
ROOT
ATOM      1  C   UNL     1       4.413  -2.656  -4.490  1.00  0.00     0.063 C 
ATOM      2  C   UNL     1       3.309  -2.233  -3.580  1.00  0.00     0.038 C 
ATOM      3  O   UNL     1       2.111  -2.318  -3.959  1.00  0.00    -0.550 OA
ATOM      4  O   UNL     1       3.602  -1.693  -2.335  1.00  0.00    -0.550 OA
ENDROOT
TORSDOF 0
ENDMDL
MODEL 5
REMARK VINA RESULT:    -2.003      5.029      5.315
REMARK INTER + INTRA:          -2.003
REMARK INTER:                  -2.003
REMARK INTRA:                   0.000
REMARK UNBOUND:                 0.000
REMARK SMILES CC(=O)[O-]
REMARK SMILES IDX 1 1 2 2 3 3 4 4
REMARK H PARENT
REMARK Flexibility Score: inf
ROOT
ATOM      1  C   UNL     1       3.452  -2.157  -5.836  1.00  0.00     0.063 C 
ATOM      2  C   UNL     1       2.417  -2.659  -4.887  1.00  0.00     0.038 C 
ATOM      3  O   UNL     1       2.350  -2.190  -3.720  1.00  0.00    -0.550 OA
ATOM      4  O   UNL     1       1.560  -3.682  -5.269  1.00  0.00    -0.550 OA
ENDROOT
TORSDOF 0
ENDMDL
MODEL 6
REMARK VINA RESULT:    -1.815      2.701      3.103
REMARK INTER + INTRA:          -1.815
REMARK INTER:                  -1.815
REMARK INTRA:                   0.000
REMARK UNBOUND:                 0.000
REMARK SMILES CC(=O)[O-]
REMARK SMILES IDX 1 1 2 2 3 3 4 4
REMARK H PARENT
REMARK Flexibility Score: inf
ROOT
ATOM      1  C   UNL     1      -5.192  -2.799  -5.741  1.00  0.00     0.063 C 
ATOM      2  C   UNL     1      -4.269  -1.764  -5.192  1.00  0.00     0.038 C 
ATOM      3  O   UNL     1      -4.676  -0.956  -4.317  1.00  0.00    -0.550 OA
ATOM      4  O   UNL     1      -2.976  -1.654  -5.685  1.00  0.00    -0.550 OA
ENDROOT
TORSDOF 0
ENDMDL
MODEL 7
REMARK VINA RESULT:    -1.809      2.307      3.056
REMARK INTER + INTRA:          -1.809
REMARK INTER:                  -1.809
REMARK INTRA:                   0.000
REMARK UNBOUND:                 0.000
REMARK SMILES CC(=O)[O-]
REMARK SMILES IDX 1 1 2 2 3 3 4 4
REMARK H PARENT
REMARK Flexibility Score: inf
ROOT
ATOM      1  C   UNL     1      -4.194  -3.312  -5.750  1.00  0.00     0.063 C 
ATOM      2  C   UNL     1      -3.736  -1.924  -5.453  1.00  0.00     0.038 C 
ATOM      3  O   UNL     1      -2.658  -1.496  -5.942  1.00  0.00    -0.550 OA
ATOM      4  O   UNL     1      -4.470  -1.119  -4.592  1.00  0.00    -0.550 OA
ENDROOT
TORSDOF 0
ENDMDL
MODEL 8
REMARK VINA RESULT:    -1.755      5.314      5.911
REMARK INTER + INTRA:          -1.755
REMARK INTER:                  -1.755
REMARK INTRA:                   0.000
REMARK UNBOUND:                 0.000
REMARK SMILES CC(=O)[O-]
REMARK SMILES IDX 1 1 2 2 3 3 4 4
REMARK H PARENT
REMARK Flexibility Score: inf
ROOT
ATOM      1  C   UNL     1      -3.683  -4.159  -4.052  1.00  0.00     0.063 C 
ATOM      2  C   UNL     1      -3.503  -4.695  -2.671  1.00  0.00     0.038 C 
ATOM      3  O   UNL     1      -2.359  -5.037  -2.271  1.00  0.00    -0.550 OA
ATOM      4  O   UNL     1      -4.604  -4.869  -1.844  1.00  0.00    -0.550 OA
ENDROOT
TORSDOF 0
ENDMDL
MODEL 9
REMARK VINA RESULT:    -1.699      9.867     10.191
REMARK INTER + INTRA:          -1.699
REMARK INTER:                  -1.699
REMARK INTRA:                   0.000
REMARK UNBOUND:                 0.000
REMARK SMILES CC(=O)[O-]
REMARK SMILES IDX 1 1 2 2 3 3 4 4
REMARK H PARENT
REMARK Flexibility Score: inf
ROOT
ATOM      1  C   UNL     1      -2.178   5.907   0.999  1.00  0.00     0.063 C 
ATOM      2  C   UNL     1      -3.512   5.247   0.907  1.00  0.00     0.038 C 
ATOM      3  O   UNL     1      -4.086   4.835   1.950  1.00  0.00    -0.550 OA
ATOM      4  O   UNL     1      -4.100   5.035  -0.333  1.00  0.00    -0.550 OA
ENDROOT
TORSDOF 0
ENDMDL
