MODEL 1
REMARK VINA RESULT:    -3.384      0.000      0.000
REMARK INTER + INTRA:          -4.010
REMARK INTER:                  -3.978
REMARK INTRA:                  -0.032
REMARK UNBOUND:                -0.032
REMARK SMILES O=C([O-])CCC(=O)[O-]
REMARK SMILES IDX 4 1 2 2 1 3 3 4 5 5 6 6 7 7 8 8
REMARK H PARENT
REMARK Flexibility Score: inf
ROOT
ATOM      1  C   UNL     1      74.881   3.226  21.721  1.00  0.00     0.059 C 
ENDROOT
BRANCH   1   2
ATOM      2  C   UNL     1      73.689   2.640  21.027  1.00  0.00     0.042 C 
ATOM      3  O   UNL     1      72.526   2.919  21.422  1.00  0.00    -0.550 OA
ATOM      4  O   UNL     1      73.861   1.819  19.920  1.00  0.00    -0.550 OA
ENDBRANCH   1   2
BRANCH   1   5
ATOM      5  C   UNL     1      76.177   2.516  21.314  1.00  0.00     0.059 C 
BRANCH   5   6
ATOM      6  C   UNL     1      77.364   3.079  22.035  1.00  0.00     0.042 C 
ATOM      7  O   UNL     1      77.359   3.167  23.291  1.00  0.00    -0.550 OA
ATOM      8  O   UNL     1      78.490   3.469  21.321  1.00  0.00    -0.550 OA
ENDBRANCH   5   6
ENDBRANCH   1   5
TORSDOF 3
ENDMDL
MODEL 2
REMARK VINA RESULT:    -3.379      0.837      4.088
REMARK INTER + INTRA:          -4.004
REMARK INTER:                  -3.903
REMARK INTRA:                  -0.100
REMARK UNBOUND:                -0.032
REMARK SMILES O=C([O-])CCC(=O)[O-]
REMARK SMILES IDX 4 1 2 2 1 3 3 4 5 5 6 6 7 7 8 8
REMARK H PARENT
REMARK Flexibility Score: inf
ROOT
ATOM      1  C   UNL     1      75.612   3.578  22.462  1.00  0.00     0.059 C 
ENDROOT
BRANCH   1   2
ATOM      2  C   UNL     1      76.986   3.022  22.239  1.00  0.00     0.042 C 
ATOM      3  O   UNL     1      77.799   2.943  23.198  1.00  0.00    -0.550 OA
ATOM      4  O   UNL     1      77.353   2.555  20.984  1.00  0.00    -0.550 OA
ENDBRANCH   1   2
BRANCH   1   5
ATOM      5  C   UNL     1      74.845   3.733  21.144  1.00  0.00     0.059 C 
BRANCH   5   6
ATOM      6  C   UNL     1      73.827   2.647  20.967  1.00  0.00     0.042 C 
ATOM      7  O   UNL     1      73.897   1.869  19.980  1.00  0.00    -0.550 OA
ATOM      8  O   UNL     1      72.826   2.472  21.914  1.00  0.00    -0.550 OA
ENDBRANCH   5   6
ENDBRANCH   1   5
TORSDOF 3
ENDMDL
MODEL 3
REMARK VINA RESULT:    -3.365      1.943      3.026
REMARK INTER + INTRA:          -3.988
REMARK INTER:                  -3.869
REMARK INTRA:                  -0.119
REMARK UNBOUND:                -0.032
REMARK SMILES O=C([O-])CCC(=O)[O-]
REMARK SMILES IDX 4 1 2 2 1 3 3 4 5 5 6 6 7 7 8 8
REMARK H PARENT
REMARK Flexibility Score: inf
ROOT
ATOM      1  C   UNL     1      77.626   2.869  21.344  1.00  0.00     0.059 C 
ENDROOT
BRANCH   1   2
ATOM      2  C   UNL     1      76.223   2.865  21.868  1.00  0.00     0.042 C 
ATOM      3  O   UNL     1      75.895   3.637  22.807  1.00  0.00    -0.550 OA
ATOM      4  O   UNL     1      75.267   2.037  21.292  1.00  0.00    -0.550 OA
ENDBRANCH   1   2
BRANCH   1   5
ATOM      5  C   UNL     1      78.479   3.947  22.021  1.00  0.00     0.059 C 
BRANCH   5   6
ATOM      6  C   UNL     1      78.661   5.144  21.137  1.00  0.00     0.042 C 
ATOM      7  O   UNL     1      79.618   5.188  20.320  1.00  0.00    -0.550 OA
ATOM      8  O   UNL     1      77.749   6.191  21.188  1.00  0.00    -0.550 OA
ENDBRANCH   5   6
ENDBRANCH   1   5
TORSDOF 3
ENDMDL
MODEL 4
REMARK VINA RESULT:    -3.360     12.377     13.676
REMARK INTER + INTRA:          -3.982
REMARK INTER:                  -3.891
REMARK INTRA:                  -0.091
REMARK UNBOUND:                -0.032
REMARK SMILES O=C([O-])CCC(=O)[O-]
REMARK SMILES IDX 4 1 2 2 1 3 3 4 5 5 6 6 7 7 8 8
REMARK H PARENT
REMARK Flexibility Score: inf
ROOT
ATOM      1  C   UNL     1      61.214   2.889  19.841  1.00  0.00     0.059 C 
ENDROOT
BRANCH   1   2
ATOM      2  C   UNL     1      61.044   3.298  21.272  1.00  0.00     0.042 C 
ATOM      3  O   UNL     1      60.876   2.426  22.164  1.00  0.00    -0.550 OA
ATOM      4  O   UNL     1      61.112   4.639  21.625  1.00  0.00    -0.550 OA
ENDBRANCH   1   2
BRANCH   1   5
ATOM      5  C   UNL     1      61.840   1.495  19.722  1.00  0.00     0.059 C 
BRANCH   5   6
ATOM      6  C   UNL     1      63.309   1.572  19.432  1.00  0.00     0.042 C 
ATOM      7  O   UNL     1      63.840   2.677  19.143  1.00  0.00    -0.550 OA
ATOM      8  O   UNL     1      64.095   0.431  19.520  1.00  0.00    -0.550 OA
ENDBRANCH   5   6
ENDBRANCH   1   5
TORSDOF 3
ENDMDL
MODEL 5
REMARK VINA RESULT:    -3.359     12.336     13.905
REMARK INTER + INTRA:          -3.981
REMARK INTER:                  -3.846
REMARK INTRA:                  -0.135
REMARK UNBOUND:                -0.032
REMARK SMILES O=C([O-])CCC(=O)[O-]
REMARK SMILES IDX 4 1 2 2 1 3 3 4 5 5 6 6 7 7 8 8
REMARK H PARENT
REMARK Flexibility Score: inf
ROOT
ATOM      1  C   UNL     1      61.718   1.562  19.784  1.00  0.00     0.059 C 
ENDROOT
BRANCH   1   2
ATOM      2  C   UNL     1      63.206   1.729  19.811  1.00  0.00     0.042 C 
ATOM      3  O   UNL     1      63.758   2.607  19.097  1.00  0.00    -0.550 OA
ATOM      4  O   UNL     1      63.980   0.943  20.655  1.00  0.00    -0.550 OA
ENDBRANCH   1   2
BRANCH   1   5
ATOM      5  C   UNL     1      60.996   2.901  19.971  1.00  0.00     0.059 C 
BRANCH   5   6
ATOM      6  C   UNL     1      61.011   3.342  21.403  1.00  0.00     0.042 C 
ATOM      7  O   UNL     1      60.876   2.497  22.327  1.00  0.00    -0.550 OA
ATOM      8  O   UNL     1      61.215   4.679  21.717  1.00  0.00    -0.550 OA
ENDBRANCH   5   6
ENDBRANCH   1   5
TORSDOF 3
ENDMDL
MODEL 6
REMARK VINA RESULT:    -3.350      2.955      4.033
REMARK INTER + INTRA:          -3.969
REMARK INTER:                  -3.844
REMARK INTRA:                  -0.125
REMARK UNBOUND:                -0.032
REMARK SMILES O=C([O-])CCC(=O)[O-]
REMARK SMILES IDX 4 1 2 2 1 3 3 4 5 5 6 6 7 7 8 8
REMARK H PARENT
REMARK Flexibility Score: inf
ROOT
ATOM      1  C   UNL     1      79.009   4.063  22.101  1.00  0.00     0.059 C 
ENDROOT
BRANCH   1   2
ATOM      2  C   UNL     1      77.761   3.237  22.169  1.00  0.00     0.042 C 
ATOM      3  O   UNL     1      77.100   3.175  23.239  1.00  0.00    -0.550 OA
ATOM      4  O   UNL     1      77.306   2.568  21.040  1.00  0.00    -0.550 OA
ENDBRANCH   1   2
BRANCH   1   5
ATOM      5  C   UNL     1      78.937   5.103  20.978  1.00  0.00     0.059 C 
BRANCH   5   6
ATOM      6  C   UNL     1      78.041   6.248  21.341  1.00  0.00     0.042 C 
ATOM      7  O   UNL     1      76.853   6.278  20.926  1.00  0.00    -0.550 OA
ATOM      8  O   UNL     1      78.508   7.260  22.170  1.00  0.00    -0.550 OA
ENDBRANCH   5   6
ENDBRANCH   1   5
TORSDOF 3
ENDMDL
MODEL 7
REMARK VINA RESULT:    -3.346      2.983      4.284
REMARK INTER + INTRA:          -3.966
REMARK INTER:                  -3.819
REMARK INTRA:                  -0.147
REMARK UNBOUND:                -0.032
REMARK SMILES O=C([O-])CCC(=O)[O-]
REMARK SMILES IDX 4 1 2 2 1 3 3 4 5 5 6 6 7 7 8 8
REMARK H PARENT
REMARK Flexibility Score: inf
ROOT
ATOM      1  C   UNL     1      78.906   5.154  20.947  1.00  0.00     0.059 C 
ENDROOT
BRANCH   1   2
ATOM      2  C   UNL     1      77.964   6.250  21.339  1.00  0.00     0.042 C 
ATOM      3  O   UNL     1      78.366   7.204  22.056  1.00  0.00    -0.550 OA
ATOM      4  O   UNL     1      76.653   6.239  20.880  1.00  0.00    -0.550 OA
ENDBRANCH   1   2
BRANCH   1   5
ATOM      5  C   UNL     1      79.044   4.103  22.054  1.00  0.00     0.059 C 
BRANCH   5   6
ATOM      6  C   UNL     1      77.815   3.253  22.164  1.00  0.00     0.042 C 
ATOM      7  O   UNL     1      77.196   3.173  23.258  1.00  0.00    -0.550 OA
ATOM      8  O   UNL     1      77.331   2.582  21.048  1.00  0.00    -0.550 OA
ENDBRANCH   5   6
ENDBRANCH   1   5
TORSDOF 3
ENDMDL
MODEL 8
REMARK VINA RESULT:    -3.285      1.918      4.626
REMARK INTER + INTRA:          -3.893
REMARK INTER:                  -3.812
REMARK INTRA:                  -0.081
REMARK UNBOUND:                -0.032
REMARK SMILES O=C([O-])CCC(=O)[O-]
REMARK SMILES IDX 4 1 2 2 1 3 3 4 5 5 6 6 7 7 8 8
REMARK H PARENT
REMARK Flexibility Score: inf
ROOT
ATOM      1  C   UNL     1      78.684   3.427  22.379  1.00  0.00     0.059 C 
ENDROOT
BRANCH   1   2
ATOM      2  C   UNL     1      79.264   4.742  21.956  1.00  0.00     0.042 C 
ATOM      3  O   UNL     1      79.767   5.517  22.812  1.00  0.00    -0.550 OA
ATOM      4  O   UNL     1      79.287   5.093  20.613  1.00  0.00    -0.550 OA
ENDBRANCH   1   2
BRANCH   1   5
ATOM      5  C   UNL     1      77.679   2.896  21.352  1.00  0.00     0.059 C 
BRANCH   5   6
ATOM      6  C   UNL     1      76.277   2.934  21.880  1.00  0.00     0.042 C 
ATOM      7  O   UNL     1      75.970   3.734  22.803  1.00  0.00    -0.550 OA
ATOM      8  O   UNL     1      75.302   2.115  21.325  1.00  0.00    -0.550 OA
ENDBRANCH   5   6
ENDBRANCH   1   5
TORSDOF 3
ENDMDL
MODEL 9
REMARK VINA RESULT:    -3.284      0.300      1.609
REMARK INTER + INTRA:          -3.892
REMARK INTER:                  -3.857
REMARK INTRA:                  -0.035
REMARK UNBOUND:                -0.032
REMARK SMILES O=C([O-])CCC(=O)[O-]
REMARK SMILES IDX 4 1 2 2 1 3 3 4 5 5 6 6 7 7 8 8
REMARK H PARENT
REMARK Flexibility Score: inf
ROOT
ATOM      1  C   UNL     1      74.897   3.199  21.707  1.00  0.00     0.059 C 
ENDROOT
BRANCH   1   2
ATOM      2  C   UNL     1      73.771   2.679  20.866  1.00  0.00     0.042 C 
ATOM      3  O   UNL     1      73.985   1.790  20.001  1.00  0.00    -0.550 OA
ATOM      4  O   UNL     1      72.479   3.148  21.066  1.00  0.00    -0.550 OA
ENDBRANCH   1   2
BRANCH   1   5
ATOM      5  C   UNL     1      76.214   2.480  21.394  1.00  0.00     0.059 C 
BRANCH   5   6
ATOM      6  C   UNL     1      77.387   3.189  21.999  1.00  0.00     0.042 C 
ATOM      7  O   UNL     1      78.476   3.264  21.370  1.00  0.00    -0.550 OA
ATOM      8  O   UNL     1      77.265   3.802  23.240  1.00  0.00    -0.550 OA
ENDBRANCH   5   6
ENDBRANCH   1   5
TORSDOF 3
ENDMDL
