MODEL 1
REMARK VINA RESULT:     0.140      0.000      0.000
REMARK INTER + INTRA:           0.504
REMARK INTER:                   0.303
REMARK INTRA:                   0.201
REMARK UNBOUND:                 0.201
REMARK SMILES CCCCCCCCCCCCCCCCCCCCCC(=O)[O-]
REMARK SMILES IDX 12 1 11 2 10 3 9 4 8 5 7 6 6 7 5 8 4 9 3 10 2 11 1 12 13 13
REMARK SMILES IDX 14 14 15 15 16 16 17 17 18 18 19 19 20 20 21 21 22 22 23 23
REMARK SMILES IDX 24 24
REMARK H PARENT
REMARK Flexibility Score: inf
ROOT
ATOM      1  C   UNL     1      34.875 106.254 268.550  1.00  0.00     0.000 C 
ENDROOT
BRANCH   1   2
ATOM      2  C   UNL     1      35.476 104.975 267.928  1.00  0.00     0.000 C 
BRANCH   2   3
ATOM      3  C   UNL     1      35.039 104.719 266.473  1.00  0.00     0.000 C 
BRANCH   3   4
ATOM      4  C   UNL     1      36.169 104.783 265.428  1.00  0.00    -0.000 C 
BRANCH   4   5
ATOM      5  C   UNL     1      36.026 103.802 264.245  1.00  0.00    -0.000 C 
BRANCH   5   6
ATOM      6  C   UNL     1      35.133 104.294 263.093  1.00  0.00    -0.000 C 
BRANCH   6   7
ATOM      7  C   UNL     1      35.806 104.154 261.717  1.00  0.00    -0.000 C 
BRANCH   7   8
ATOM      8  C   UNL     1      35.950 105.502 260.990  1.00  0.00    -0.000 C 
BRANCH   8   9
ATOM      9  C   UNL     1      37.241 105.587 260.158  1.00  0.00    -0.000 C 
BRANCH   9  10
ATOM     10  C   UNL     1      36.987 105.441 258.646  1.00  0.00    -0.000 C 
BRANCH  10  11
ATOM     11  C   UNL     1      35.893 106.365 258.082  1.00  0.00    -0.003 C 
ATOM     12  C   UNL     1      36.248 107.848 258.196  1.00  0.00     0.004 C 
ENDBRANCH  10  11
ENDBRANCH   9  10
ENDBRANCH   8   9
ENDBRANCH   7   8
ENDBRANCH   6   7
ENDBRANCH   5   6
ENDBRANCH   4   5
ENDBRANCH   3   4
ENDBRANCH   2   3
ENDBRANCH   1   2
BRANCH   1  13
ATOM     13  C   UNL     1      35.648 106.728 269.790  1.00  0.00     0.000 C 
BRANCH  13  14
ATOM     14  C   UNL     1      35.817 108.252 269.794  1.00  0.00     0.000 C 
BRANCH  14  15
ATOM     15  C   UNL     1      34.989 108.892 268.671  1.00  0.00     0.000 C 
BRANCH  15  16
ATOM     16  C   UNL     1      35.776 109.047 267.357  1.00  0.00     0.000 C 
BRANCH  16  17
ATOM     17  C   UNL     1      34.923 108.975 266.077  1.00  0.00     0.000 C 
BRANCH  17  18
ATOM     18  C   UNL     1      35.157 107.687 265.271  1.00  0.00     0.000 C 
BRANCH  18  19
ATOM     19  C   UNL     1      35.161 107.971 263.761  1.00  0.00     0.000 C 
BRANCH  19  20
ATOM     20  C   UNL     1      36.292 107.237 263.023  1.00  0.00     0.006 C 
BRANCH  20  21
ATOM     21  C   UNL     1      37.557 107.087 263.878  1.00  0.00     0.053 C 
BRANCH  21  22
ATOM     22  C   UNL     1      38.780 107.249 263.032  1.00  0.00     0.041 C 
ATOM     23  O   UNL     1      39.837 106.627 263.319  1.00  0.00    -0.550 OA
ATOM     24  O   UNL     1      38.743 108.059 261.904  1.00  0.00    -0.550 OA
ENDBRANCH  21  22
ENDBRANCH  20  21
ENDBRANCH  19  20
ENDBRANCH  18  19
ENDBRANCH  17  18
ENDBRANCH  16  17
ENDBRANCH  15  16
ENDBRANCH  14  15
ENDBRANCH  13  14
ENDBRANCH   1  13
TORSDOF 20
ENDMDL
MODEL 2
REMARK VINA RESULT:     1.465      3.726      5.971
REMARK INTER + INTRA:           3.378
REMARK INTER:                   4.737
REMARK INTRA:                  -1.359
REMARK UNBOUND:                 0.201
REMARK SMILES CCCCCCCCCCCCCCCCCCCCCC(=O)[O-]
REMARK SMILES IDX 12 1 11 2 10 3 9 4 8 5 7 6 6 7 5 8 4 9 3 10 2 11 1 12 13 13
REMARK SMILES IDX 14 14 15 15 16 16 17 17 18 18 19 19 20 20 21 21 22 22 23 23
REMARK SMILES IDX 24 24
REMARK H PARENT
REMARK Flexibility Score: inf
ROOT
ATOM      1  C   UNL     1      35.340 107.069 265.418  1.00  0.00     0.000 C 
ENDROOT
BRANCH   1   2
ATOM      2  C   UNL     1      34.993 107.236 263.923  1.00  0.00     0.000 C 
BRANCH   2   3
ATOM      3  C   UNL     1      35.949 106.494 262.968  1.00  0.00     0.000 C 
BRANCH   3   4
ATOM      4  C   UNL     1      37.426 106.922 263.056  1.00  0.00    -0.000 C 
BRANCH   4   5
ATOM      5  C   UNL     1      38.075 107.321 261.714  1.00  0.00    -0.000 C 
BRANCH   5   6
ATOM      6  C   UNL     1      39.288 106.470 261.299  1.00  0.00    -0.000 C 
BRANCH   6   7
ATOM      7  C   UNL     1      38.970 105.505 260.143  1.00  0.00    -0.000 C 
BRANCH   7   8
ATOM      8  C   UNL     1      37.459 105.307 259.939  1.00  0.00    -0.000 C 
BRANCH   8   9
ATOM      9  C   UNL     1      37.069 105.245 258.452  1.00  0.00    -0.000 C 
BRANCH   9  10
ATOM     10  C   UNL     1      36.692 106.622 257.875  1.00  0.00    -0.000 C 
BRANCH  10  11
ATOM     11  C   UNL     1      36.041 107.588 258.882  1.00  0.00    -0.003 C 
ATOM     12  C   UNL     1      35.686 108.941 258.266  1.00  0.00     0.004 C 
ENDBRANCH  10  11
ENDBRANCH   9  10
ENDBRANCH   8   9
ENDBRANCH   7   8
ENDBRANCH   6   7
ENDBRANCH   5   6
ENDBRANCH   4   5
ENDBRANCH   3   4
ENDBRANCH   2   3
ENDBRANCH   1   2
BRANCH   1  13
ATOM     13  C   UNL     1      35.267 108.392 266.194  1.00  0.00     0.000 C 
BRANCH  13  14
ATOM     14  C   UNL     1      35.029 108.150 267.689  1.00  0.00     0.000 C 
BRANCH  14  15
ATOM     15  C   UNL     1      34.918 106.649 267.984  1.00  0.00     0.000 C 
BRANCH  15  16
ATOM     16  C   UNL     1      35.081 106.315 269.478  1.00  0.00     0.000 C 
BRANCH  16  17
ATOM     17  C   UNL     1      35.758 107.412 270.319  1.00  0.00     0.000 C 
BRANCH  17  18
ATOM     18  C   UNL     1      37.293 107.325 270.298  1.00  0.00     0.000 C 
BRANCH  18  19
ATOM     19  C   UNL     1      37.854 107.082 271.707  1.00  0.00     0.000 C 
BRANCH  19  20
ATOM     20  C   UNL     1      38.870 105.929 271.749  1.00  0.00     0.006 C 
BRANCH  20  21
ATOM     21  C   UNL     1      38.235 104.594 272.162  1.00  0.00     0.053 C 
BRANCH  21  22
ATOM     22  C   UNL     1      38.963 104.010 273.331  1.00  0.00     0.041 C 
ATOM     23  O   UNL     1      38.406 103.948 274.459  1.00  0.00    -0.550 OA
ATOM     24  O   UNL     1      40.245 103.500 273.166  1.00  0.00    -0.550 OA
ENDBRANCH  21  22
ENDBRANCH  20  21
ENDBRANCH  19  20
ENDBRANCH  18  19
ENDBRANCH  17  18
ENDBRANCH  16  17
ENDBRANCH  15  16
ENDBRANCH  14  15
ENDBRANCH  13  14
ENDBRANCH   1  13
TORSDOF 20
ENDMDL
MODEL 3
REMARK VINA RESULT:     1.476      2.468      7.821
REMARK INTER + INTRA:           3.402
REMARK INTER:                   3.761
REMARK INTRA:                  -0.359
REMARK UNBOUND:                 0.201
REMARK SMILES CCCCCCCCCCCCCCCCCCCCCC(=O)[O-]
REMARK SMILES IDX 12 1 11 2 10 3 9 4 8 5 7 6 6 7 5 8 4 9 3 10 2 11 1 12 13 13
REMARK SMILES IDX 14 14 15 15 16 16 17 17 18 18 19 19 20 20 21 21 22 22 23 23
REMARK SMILES IDX 24 24
REMARK H PARENT
REMARK Flexibility Score: inf
ROOT
ATOM      1  C   UNL     1      35.007 105.824 266.610  1.00  0.00     0.000 C 
ENDROOT
BRANCH   1   2
ATOM      2  C   UNL     1      35.049 106.868 265.473  1.00  0.00     0.000 C 
BRANCH   2   3
ATOM      3  C   UNL     1      35.990 108.057 265.747  1.00  0.00     0.000 C 
BRANCH   3   4
ATOM      4  C   UNL     1      35.360 109.226 266.527  1.00  0.00    -0.000 C 
BRANCH   4   5
ATOM      5  C   UNL     1      34.884 108.882 267.954  1.00  0.00    -0.000 C 
BRANCH   5   6
ATOM      6  C   UNL     1      35.995 108.453 268.927  1.00  0.00    -0.000 C 
BRANCH   6   7
ATOM      7  C   UNL     1      35.504 107.454 269.990  1.00  0.00    -0.000 C 
BRANCH   7   8
ATOM      8  C   UNL     1      36.536 106.354 270.286  1.00  0.00    -0.000 C 
BRANCH   8   9
ATOM      9  C   UNL     1      37.636 106.825 271.254  1.00  0.00    -0.000 C 
BRANCH   9  10
ATOM     10  C   UNL     1      38.638 105.709 271.607  1.00  0.00    -0.000 C 
BRANCH  10  11
ATOM     11  C   UNL     1      38.169 104.745 272.711  1.00  0.00    -0.003 C 
ATOM     12  C   UNL     1      39.323 103.995 273.377  1.00  0.00     0.004 C 
ENDBRANCH  10  11
ENDBRANCH   9  10
ENDBRANCH   8   9
ENDBRANCH   7   8
ENDBRANCH   6   7
ENDBRANCH   5   6
ENDBRANCH   4   5
ENDBRANCH   3   4
ENDBRANCH   2   3
ENDBRANCH   1   2
BRANCH   1  13
ATOM     13  C   UNL     1      35.299 104.399 266.116  1.00  0.00     0.000 C 
BRANCH  13  14
ATOM     14  C   UNL     1      36.015 104.415 264.760  1.00  0.00     0.000 C 
BRANCH  14  15
ATOM     15  C   UNL     1      35.095 104.974 263.667  1.00  0.00     0.000 C 
BRANCH  15  16
ATOM     16  C   UNL     1      35.210 104.212 262.334  1.00  0.00     0.000 C 
BRANCH  16  17
ATOM     17  C   UNL     1      36.039 104.922 261.249  1.00  0.00     0.000 C 
BRANCH  17  18
ATOM     18  C   UNL     1      36.643 106.252 261.728  1.00  0.00     0.000 C 
BRANCH  18  19
ATOM     19  C   UNL     1      37.385 106.966 260.587  1.00  0.00     0.000 C 
BRANCH  19  20
ATOM     20  C   UNL     1      37.635 106.050 259.379  1.00  0.00     0.006 C 
BRANCH  20  21
ATOM     21  C   UNL     1      37.397 106.759 258.039  1.00  0.00     0.053 C 
BRANCH  21  22
ATOM     22  C   UNL     1      36.007 107.310 257.980  1.00  0.00     0.041 C 
ATOM     23  O   UNL     1      35.818 108.555 257.992  1.00  0.00    -0.550 OA
ATOM     24  O   UNL     1      34.922 106.449 257.875  1.00  0.00    -0.550 OA
ENDBRANCH  21  22
ENDBRANCH  20  21
ENDBRANCH  19  20
ENDBRANCH  18  19
ENDBRANCH  17  18
ENDBRANCH  16  17
ENDBRANCH  15  16
ENDBRANCH  14  15
ENDBRANCH  13  14
ENDBRANCH   1  13
TORSDOF 20
ENDMDL
MODEL 4
REMARK VINA RESULT:     1.969      3.700      5.806
REMARK INTER + INTRA:           4.473
REMARK INTER:                   4.873
REMARK INTRA:                  -0.400
REMARK UNBOUND:                 0.201
REMARK SMILES CCCCCCCCCCCCCCCCCCCCCC(=O)[O-]
REMARK SMILES IDX 12 1 11 2 10 3 9 4 8 5 7 6 6 7 5 8 4 9 3 10 2 11 1 12 13 13
REMARK SMILES IDX 14 14 15 15 16 16 17 17 18 18 19 19 20 20 21 21 22 22 23 23
REMARK SMILES IDX 24 24
REMARK H PARENT
REMARK Flexibility Score: inf
ROOT
ATOM      1  C   UNL     1      36.146 106.980 265.168  1.00  0.00     0.000 C 
ENDROOT
BRANCH   1   2
ATOM      2  C   UNL     1      35.392 105.800 265.819  1.00  0.00     0.000 C 
BRANCH   2   3
ATOM      3  C   UNL     1      34.978 104.695 264.828  1.00  0.00     0.000 C 
BRANCH   3   4
ATOM      4  C   UNL     1      34.875 105.139 263.357  1.00  0.00    -0.000 C 
BRANCH   4   5
ATOM      5  C   UNL     1      35.331 104.091 262.320  1.00  0.00    -0.000 C 
BRANCH   5   6
ATOM      6  C   UNL     1      36.313 104.610 261.256  1.00  0.00    -0.000 C 
BRANCH   6   7
ATOM      7  C   UNL     1      36.283 106.142 261.115  1.00  0.00    -0.000 C 
BRANCH   7   8
ATOM      8  C   UNL     1      36.712 106.614 259.716  1.00  0.00    -0.000 C 
BRANCH   8   9
ATOM      9  C   UNL     1      38.233 106.518 259.504  1.00  0.00    -0.000 C 
BRANCH   9  10
ATOM     10  C   UNL     1      38.955 105.812 260.667  1.00  0.00    -0.000 C 
BRANCH  10  11
ATOM     11  C   UNL     1      39.635 106.756 261.675  1.00  0.00    -0.003 C 
ATOM     12  C   UNL     1      38.666 107.311 262.719  1.00  0.00     0.004 C 
ENDBRANCH  10  11
ENDBRANCH   9  10
ENDBRANCH   8   9
ENDBRANCH   7   8
ENDBRANCH   6   7
ENDBRANCH   5   6
ENDBRANCH   4   5
ENDBRANCH   3   4
ENDBRANCH   2   3
ENDBRANCH   1   2
BRANCH   1  13
ATOM     13  C   UNL     1      36.449 108.109 266.165  1.00  0.00     0.000 C 
BRANCH  13  14
ATOM     14  C   UNL     1      35.185 108.906 266.507  1.00  0.00     0.000 C 
BRANCH  14  15
ATOM     15  C   UNL     1      34.918 108.877 268.018  1.00  0.00     0.000 C 
BRANCH  15  16
ATOM     16  C   UNL     1      35.232 107.513 268.659  1.00  0.00     0.000 C 
BRANCH  16  17
ATOM     17  C   UNL     1      35.553 107.560 270.164  1.00  0.00     0.000 C 
BRANCH  17  18
ATOM     18  C   UNL     1      36.564 106.486 270.597  1.00  0.00     0.000 C 
BRANCH  18  19
ATOM     19  C   UNL     1      37.764 107.115 271.322  1.00  0.00     0.000 C 
BRANCH  19  20
ATOM     20  C   UNL     1      38.797 106.070 271.773  1.00  0.00     0.006 C 
BRANCH  20  21
ATOM     21  C   UNL     1      38.155 104.731 272.160  1.00  0.00     0.053 C 
BRANCH  21  22
ATOM     22  C   UNL     1      38.910 104.096 273.284  1.00  0.00     0.041 C 
ATOM     23  O   UNL     1      38.357 103.925 274.403  1.00  0.00    -0.550 OA
ATOM     24  O   UNL     1      40.214 103.659 273.085  1.00  0.00    -0.550 OA
ENDBRANCH  21  22
ENDBRANCH  20  21
ENDBRANCH  19  20
ENDBRANCH  18  19
ENDBRANCH  17  18
ENDBRANCH  16  17
ENDBRANCH  15  16
ENDBRANCH  14  15
ENDBRANCH  13  14
ENDBRANCH   1  13
TORSDOF 20
ENDMDL
MODEL 5
REMARK VINA RESULT:     2.367      1.642      6.556
REMARK INTER + INTRA:           5.335
REMARK INTER:                   4.278
REMARK INTRA:                   1.057
REMARK UNBOUND:                 0.201
REMARK SMILES CCCCCCCCCCCCCCCCCCCCCC(=O)[O-]
REMARK SMILES IDX 12 1 11 2 10 3 9 4 8 5 7 6 6 7 5 8 4 9 3 10 2 11 1 12 13 13
REMARK SMILES IDX 14 14 15 15 16 16 17 17 18 18 19 19 20 20 21 21 22 22 23 23
REMARK SMILES IDX 24 24
REMARK H PARENT
REMARK Flexibility Score: inf
ROOT
ATOM      1  C   UNL     1      36.530 107.376 264.532  1.00  0.00     0.000 C 
ENDROOT
BRANCH   1   2
ATOM      2  C   UNL     1      36.169 108.617 265.376  1.00  0.00     0.000 C 
BRANCH   2   3
ATOM      3  C   UNL     1      34.942 108.422 266.288  1.00  0.00     0.000 C 
BRANCH   3   4
ATOM      4  C   UNL     1      35.037 109.096 267.669  1.00  0.00    -0.000 C 
BRANCH   4   5
ATOM      5  C   UNL     1      36.273 108.706 268.507  1.00  0.00    -0.000 C 
BRANCH   5   6
ATOM      6  C   UNL     1      36.045 107.564 269.512  1.00  0.00    -0.000 C 
BRANCH   6   7
ATOM      7  C   UNL     1      34.876 106.645 269.115  1.00  0.00    -0.000 C 
BRANCH   7   8
ATOM      8  C   UNL     1      35.110 105.943 267.767  1.00  0.00    -0.000 C 
BRANCH   8   9
ATOM      9  C   UNL     1      34.959 104.415 267.866  1.00  0.00    -0.000 C 
BRANCH   9  10
ATOM     10  C   UNL     1      35.347 103.690 266.564  1.00  0.00    -0.000 C 
BRANCH  10  11
ATOM     11  C   UNL     1      36.624 104.219 265.886  1.00  0.00    -0.003 C 
ATOM     12  C   UNL     1      37.643 103.118 265.592  1.00  0.00     0.004 C 
ENDBRANCH  10  11
ENDBRANCH   9  10
ENDBRANCH   8   9
ENDBRANCH   7   8
ENDBRANCH   6   7
ENDBRANCH   5   6
ENDBRANCH   4   5
ENDBRANCH   3   4
ENDBRANCH   2   3
ENDBRANCH   1   2
BRANCH   1  13
ATOM     13  C   UNL     1      35.545 107.140 263.377  1.00  0.00     0.000 C 
BRANCH  13  14
ATOM     14  C   UNL     1      34.876 105.765 263.486  1.00  0.00     0.000 C 
BRANCH  14  15
ATOM     15  C   UNL     1      34.984 105.002 262.159  1.00  0.00     0.000 C 
BRANCH  15  16
ATOM     16  C   UNL     1      36.292 104.201 262.030  1.00  0.00     0.000 C 
BRANCH  16  17
ATOM     17  C   UNL     1      37.054 104.407 260.707  1.00  0.00     0.000 C 
BRANCH  17  18
ATOM     18  C   UNL     1      37.386 105.882 260.429  1.00  0.00     0.000 C 
BRANCH  18  19
ATOM     19  C   UNL     1      38.061 106.049 259.059  1.00  0.00     0.000 C 
BRANCH  19  20
ATOM     20  C   UNL     1      37.091 105.817 257.890  1.00  0.00     0.006 C 
BRANCH  20  21
ATOM     21  C   UNL     1      35.745 106.528 258.086  1.00  0.00     0.053 C 
BRANCH  21  22
ATOM     22  C   UNL     1      35.961 107.946 258.509  1.00  0.00     0.041 C 
ATOM     23  O   UNL     1      36.862 108.229 259.342  1.00  0.00    -0.550 OA
ATOM     24  O   UNL     1      35.191 108.961 257.955  1.00  0.00    -0.550 OA
ENDBRANCH  21  22
ENDBRANCH  20  21
ENDBRANCH  19  20
ENDBRANCH  18  19
ENDBRANCH  17  18
ENDBRANCH  16  17
ENDBRANCH  15  16
ENDBRANCH  14  15
ENDBRANCH  13  14
ENDBRANCH   1  13
TORSDOF 20
ENDMDL
MODEL 6
REMARK VINA RESULT:     2.672      2.016      7.693
REMARK INTER + INTRA:           5.997
REMARK INTER:                   6.547
REMARK INTRA:                  -0.550
REMARK UNBOUND:                 0.201
REMARK SMILES CCCCCCCCCCCCCCCCCCCCCC(=O)[O-]
REMARK SMILES IDX 12 1 11 2 10 3 9 4 8 5 7 6 6 7 5 8 4 9 3 10 2 11 1 12 13 13
REMARK SMILES IDX 14 14 15 15 16 16 17 17 18 18 19 19 20 20 21 21 22 22 23 23
REMARK SMILES IDX 24 24
REMARK H PARENT
REMARK Flexibility Score: inf
ROOT
ATOM      1  C   UNL     1      36.028 105.310 265.556  1.00  0.00     0.000 C 
ENDROOT
BRANCH   1   2
ATOM      2  C   UNL     1      35.021 106.445 265.844  1.00  0.00     0.000 C 
BRANCH   2   3
ATOM      3  C   UNL     1      35.672 107.827 266.047  1.00  0.00     0.000 C 
BRANCH   3   4
ATOM      4  C   UNL     1      34.924 108.769 267.008  1.00  0.00    -0.000 C 
BRANCH   4   5
ATOM      5  C   UNL     1      34.996 108.379 268.500  1.00  0.00    -0.000 C 
BRANCH   5   6
ATOM      6  C   UNL     1      35.184 106.877 268.773  1.00  0.00    -0.000 C 
BRANCH   6   7
ATOM      7  C   UNL     1      35.815 106.596 270.147  1.00  0.00    -0.000 C 
BRANCH   7   8
ATOM      8  C   UNL     1      36.942 107.584 270.491  1.00  0.00    -0.000 C 
BRANCH   8   9
ATOM      9  C   UNL     1      38.193 106.881 271.047  1.00  0.00    -0.000 C 
BRANCH   9  10
ATOM     10  C   UNL     1      37.853 105.762 272.049  1.00  0.00    -0.000 C 
BRANCH  10  11
ATOM     11  C   UNL     1      38.958 104.708 272.242  1.00  0.00    -0.003 C 
ATOM     12  C   UNL     1      38.883 104.006 273.598  1.00  0.00     0.004 C 
ENDBRANCH  10  11
ENDBRANCH   9  10
ENDBRANCH   8   9
ENDBRANCH   7   8
ENDBRANCH   6   7
ENDBRANCH   5   6
ENDBRANCH   4   5
ENDBRANCH   3   4
ENDBRANCH   2   3
ENDBRANCH   1   2
BRANCH   1  13
ATOM     13  C   UNL     1      35.395 104.137 264.793  1.00  0.00     0.000 C 
BRANCH  13  14
ATOM     14  C   UNL     1      34.919 104.568 263.401  1.00  0.00     0.000 C 
BRANCH  14  15
ATOM     15  C   UNL     1      36.100 105.062 262.554  1.00  0.00     0.000 C 
BRANCH  15  16
ATOM     16  C   UNL     1      35.751 105.207 261.061  1.00  0.00     0.000 C 
BRANCH  16  17
ATOM     17  C   UNL     1      36.384 106.423 260.361  1.00  0.00     0.000 C 
BRANCH  17  18
ATOM     18  C   UNL     1      37.085 106.060 259.042  1.00  0.00     0.000 C 
BRANCH  18  19
ATOM     19  C   UNL     1      38.610 106.017 259.219  1.00  0.00     0.000 C 
BRANCH  19  20
ATOM     20  C   UNL     1      39.030 105.677 260.658  1.00  0.00     0.006 C 
BRANCH  20  21
ATOM     21  C   UNL     1      39.821 106.809 261.328  1.00  0.00     0.053 C 
BRANCH  21  22
ATOM     22  C   UNL     1      39.340 107.023 262.727  1.00  0.00     0.041 C 
ATOM     23  O   UNL     1      40.114 106.826 263.702  1.00  0.00    -0.550 OA
ATOM     24  O   UNL     1      38.047 107.476 262.956  1.00  0.00    -0.550 OA
ENDBRANCH  21  22
ENDBRANCH  20  21
ENDBRANCH  19  20
ENDBRANCH  18  19
ENDBRANCH  17  18
ENDBRANCH  16  17
ENDBRANCH  15  16
ENDBRANCH  14  15
ENDBRANCH  13  14
ENDBRANCH   1  13
TORSDOF 20
ENDMDL
MODEL 7
REMARK VINA RESULT:     2.750      3.694      5.638
REMARK INTER + INTRA:           6.167
REMARK INTER:                   7.844
REMARK INTRA:                  -1.678
REMARK UNBOUND:                 0.201
REMARK SMILES CCCCCCCCCCCCCCCCCCCCCC(=O)[O-]
REMARK SMILES IDX 12 1 11 2 10 3 9 4 8 5 7 6 6 7 5 8 4 9 3 10 2 11 1 12 13 13
REMARK SMILES IDX 14 14 15 15 16 16 17 17 18 18 19 19 20 20 21 21 22 22 23 23
REMARK SMILES IDX 24 24
REMARK H PARENT
REMARK Flexibility Score: inf
ROOT
ATOM      1  C   UNL     1      36.258 107.847 265.496  1.00  0.00     0.000 C 
ENDROOT
BRANCH   1   2
ATOM      2  C   UNL     1      34.875 107.186 265.311  1.00  0.00     0.000 C 
BRANCH   2   3
ATOM      3  C   UNL     1      34.893 105.649 265.425  1.00  0.00     0.000 C 
BRANCH   3   4
ATOM      4  C   UNL     1      35.902 104.935 264.507  1.00  0.00    -0.000 C 
BRANCH   4   5
ATOM      5  C   UNL     1      35.282 104.169 263.320  1.00  0.00    -0.000 C 
BRANCH   5   6
ATOM      6  C   UNL     1      35.638 104.723 261.929  1.00  0.00    -0.000 C 
BRANCH   6   7
ATOM      7  C   UNL     1      35.954 106.229 261.951  1.00  0.00    -0.000 C 
BRANCH   7   8
ATOM      8  C   UNL     1      37.426 106.517 262.288  1.00  0.00    -0.000 C 
BRANCH   8   9
ATOM      9  C   UNL     1      38.183 107.160 261.112  1.00  0.00    -0.000 C 
BRANCH   9  10
ATOM     10  C   UNL     1      38.949 106.129 260.261  1.00  0.00    -0.000 C 
BRANCH  10  11
ATOM     11  C   UNL     1      38.086 105.363 259.242  1.00  0.00    -0.003 C 
ATOM     12  C   UNL     1      37.030 106.244 258.574  1.00  0.00     0.004 C 
ENDBRANCH  10  11
ENDBRANCH   9  10
ENDBRANCH   8   9
ENDBRANCH   7   8
ENDBRANCH   6   7
ENDBRANCH   5   6
ENDBRANCH   4   5
ENDBRANCH   3   4
ENDBRANCH   2   3
ENDBRANCH   1   2
BRANCH   1  13
ATOM     13  C   UNL     1      36.259 108.915 266.600  1.00  0.00     0.000 C 
BRANCH  13  14
ATOM     14  C   UNL     1      34.907 108.975 267.320  1.00  0.00     0.000 C 
BRANCH  14  15
ATOM     15  C   UNL     1      35.066 108.619 268.804  1.00  0.00     0.000 C 
BRANCH  15  16
ATOM     16  C   UNL     1      34.892 107.115 269.085  1.00  0.00     0.000 C 
BRANCH  16  17
ATOM     17  C   UNL     1      36.169 106.387 269.544  1.00  0.00     0.000 C 
BRANCH  17  18
ATOM     18  C   UNL     1      36.591 106.760 270.974  1.00  0.00     0.000 C 
BRANCH  18  19
ATOM     19  C   UNL     1      38.075 107.155 271.028  1.00  0.00     0.000 C 
BRANCH  19  20
ATOM     20  C   UNL     1      38.908 106.207 271.906  1.00  0.00     0.006 C 
BRANCH  20  21
ATOM     21  C   UNL     1      38.282 104.812 272.031  1.00  0.00     0.053 C 
BRANCH  21  22
ATOM     22  C   UNL     1      38.839 104.095 273.220  1.00  0.00     0.041 C 
ATOM     23  O   UNL     1      38.300 104.228 274.351  1.00  0.00    -0.550 OA
ATOM     24  O   UNL     1      39.933 103.251 273.073  1.00  0.00    -0.550 OA
ENDBRANCH  21  22
ENDBRANCH  20  21
ENDBRANCH  19  20
ENDBRANCH  18  19
ENDBRANCH  17  18
ENDBRANCH  16  17
ENDBRANCH  15  16
ENDBRANCH  14  15
ENDBRANCH  13  14
ENDBRANCH   1  13
TORSDOF 20
ENDMDL
