MODEL 1
REMARK VINA RESULT:    -4.105      0.000      0.000
REMARK INTER + INTRA:          -5.060
REMARK INTER:                  -4.945
REMARK INTRA:                  -0.115
REMARK UNBOUND:                -0.115
REMARK SMILES CC[C@@H](C)[C@H]([NH3+])C(=O)[O-]
REMARK SMILES IDX 3 1 4 2 5 3 6 4 7 8 8 9 9 10 2 11 1 12
REMARK H PARENT 6 5 6 6 6 7
REMARK Flexibility Score: inf
ROOT
ATOM      1  C   UNL     1     -27.001 -22.959 -26.829  1.00  0.00     0.050 C 
ATOM      2  C   UNL     1     -26.534 -24.416 -27.003  1.00  0.00     0.014 C 
ENDROOT
BRANCH   1   3
ATOM      3  C   UNL     1     -26.051 -22.122 -25.912  1.00  0.00     0.230 C 
BRANCH   3   4
ATOM      4  N   UNL     1     -25.046 -22.945 -25.221  1.00  0.00    -0.350 N 
ATOM      5  H   UNL     1     -24.826 -23.812 -25.759  1.00  0.00     0.345 HD
ATOM      6  H   UNL     1     -24.170 -22.398 -25.067  1.00  0.00     0.345 HD
ATOM      7  H   UNL     1     -25.408 -23.222 -24.279  1.00  0.00     0.345 HD
ENDBRANCH   3   4
BRANCH   3   8
ATOM      8  C   UNL     1     -26.841 -21.299 -24.923  1.00  0.00     0.099 C 
ATOM      9  O   UNL     1     -26.722 -21.516 -23.688  1.00  0.00    -0.544 OA
ATOM     10  O   UNL     1     -27.668 -20.269 -25.357  1.00  0.00    -0.544 OA
ENDBRANCH   3   8
ENDBRANCH   1   3
BRANCH   1  11
ATOM     11  C   UNL     1     -27.237 -22.328 -28.225  1.00  0.00     0.006 C 
ATOM     12  C   UNL     1     -28.652 -21.777 -28.414  1.00  0.00     0.004 C 
ENDBRANCH   1  11
TORSDOF 4
ENDMDL
MODEL 2
REMARK VINA RESULT:    -4.033      2.285      2.659
REMARK INTER + INTRA:          -4.973
REMARK INTER:                  -4.842
REMARK INTRA:                  -0.131
REMARK UNBOUND:                -0.115
REMARK SMILES CC[C@@H](C)[C@H]([NH3+])C(=O)[O-]
REMARK SMILES IDX 3 1 4 2 5 3 6 4 7 8 8 9 9 10 2 11 1 12
REMARK H PARENT 6 5 6 6 6 7
REMARK Flexibility Score: inf
ROOT
ATOM      1  C   UNL     1     -25.867 -22.576 -28.913  1.00  0.00     0.050 C 
ATOM      2  C   UNL     1     -24.714 -22.650 -29.931  1.00  0.00     0.014 C 
ENDROOT
BRANCH   1   3
ATOM      3  C   UNL     1     -25.416 -22.017 -27.524  1.00  0.00     0.230 C 
BRANCH   3   4
ATOM      4  N   UNL     1     -23.977 -21.714 -27.465  1.00  0.00    -0.350 N 
ATOM      5  H   UNL     1     -23.422 -22.551 -27.181  1.00  0.00     0.345 HD
ATOM      6  H   UNL     1     -23.639 -21.368 -28.391  1.00  0.00     0.345 HD
ATOM      7  H   UNL     1     -23.809 -20.952 -26.768  1.00  0.00     0.345 HD
ENDBRANCH   3   4
BRANCH   3   8
ATOM      8  C   UNL     1     -25.813 -22.953 -26.410  1.00  0.00     0.099 C 
ATOM      9  O   UNL     1     -25.697 -22.587 -25.210  1.00  0.00    -0.544 OA
ATOM     10  O   UNL     1     -26.349 -24.205 -26.691  1.00  0.00    -0.544 OA
ENDBRANCH   3   8
ENDBRANCH   1   3
BRANCH   1  11
ATOM     11  C   UNL     1     -27.056 -21.804 -29.541  1.00  0.00     0.006 C 
ATOM     12  C   UNL     1     -28.417 -22.221 -28.981  1.00  0.00     0.004 C 
ENDBRANCH   1  11
TORSDOF 4
ENDMDL
MODEL 3
REMARK VINA RESULT:    -3.990      0.675      1.546
REMARK INTER + INTRA:          -4.921
REMARK INTER:                  -4.816
REMARK INTRA:                  -0.105
REMARK UNBOUND:                -0.115
REMARK SMILES CC[C@@H](C)[C@H]([NH3+])C(=O)[O-]
REMARK SMILES IDX 3 1 4 2 5 3 6 4 7 8 8 9 9 10 2 11 1 12
REMARK H PARENT 6 5 6 6 6 7
REMARK Flexibility Score: inf
ROOT
ATOM      1  C   UNL     1     -26.851 -22.940 -26.911  1.00  0.00     0.050 C 
ATOM      2  C   UNL     1     -26.493 -24.438 -26.919  1.00  0.00     0.014 C 
ENDROOT
BRANCH   1   3
ATOM      3  C   UNL     1     -25.974 -22.111 -25.917  1.00  0.00     0.230 C 
BRANCH   3   4
ATOM      4  N   UNL     1     -25.029 -22.941 -25.153  1.00  0.00    -0.350 N 
ATOM      5  H   UNL     1     -24.162 -22.411 -24.915  1.00  0.00     0.345 HD
ATOM      6  H   UNL     1     -25.477 -23.289 -24.276  1.00  0.00     0.345 HD
ATOM      7  H   UNL     1     -24.762 -23.779 -25.719  1.00  0.00     0.345 HD
ENDBRANCH   3   4
BRANCH   3   8
ATOM      8  C   UNL     1     -26.837 -21.290 -24.991  1.00  0.00     0.099 C 
ATOM      9  O   UNL     1     -27.641 -20.444 -25.465  1.00  0.00    -0.544 OA
ATOM     10  O   UNL     1     -26.788 -21.486 -23.615  1.00  0.00    -0.544 OA
ENDBRANCH   3   8
ENDBRANCH   1   3
BRANCH   1  11
ATOM     11  C   UNL     1     -26.829 -22.401 -28.364  1.00  0.00     0.006 C 
ATOM     12  C   UNL     1     -25.418 -22.147 -28.898  1.00  0.00     0.004 C 
ENDBRANCH   1  11
TORSDOF 4
ENDMDL
MODEL 4
REMARK VINA RESULT:    -3.902      3.047      3.657
REMARK INTER + INTRA:          -4.815
REMARK INTER:                  -4.672
REMARK INTRA:                  -0.143
REMARK UNBOUND:                -0.115
REMARK SMILES CC[C@@H](C)[C@H]([NH3+])C(=O)[O-]
REMARK SMILES IDX 3 1 4 2 5 3 6 4 7 8 8 9 9 10 2 11 1 12
REMARK H PARENT 6 5 6 6 6 7
REMARK Flexibility Score: inf
ROOT
ATOM      1  C   UNL     1     -26.595 -21.783 -27.318  1.00  0.00     0.050 C 
ATOM      2  C   UNL     1     -26.544 -21.784 -25.779  1.00  0.00     0.014 C 
ENDROOT
BRANCH   1   3
ATOM      3  C   UNL     1     -25.272 -22.303 -27.970  1.00  0.00     0.230 C 
BRANCH   3   4
ATOM      4  N   UNL     1     -24.063 -21.739 -27.348  1.00  0.00    -0.350 N 
ATOM      5  H   UNL     1     -24.285 -21.261 -26.448  1.00  0.00     0.345 HD
ATOM      6  H   UNL     1     -23.355 -22.489 -27.181  1.00  0.00     0.345 HD
ATOM      7  H   UNL     1     -23.629 -21.043 -27.997  1.00  0.00     0.345 HD
ENDBRANCH   3   4
BRANCH   3   8
ATOM      8  C   UNL     1     -25.271 -22.062 -29.459  1.00  0.00     0.099 C 
ATOM      9  O   UNL     1     -24.934 -22.986 -30.246  1.00  0.00    -0.544 OA
ATOM     10  O   UNL     1     -25.682 -20.840 -29.981  1.00  0.00    -0.544 OA
ENDBRANCH   3   8
ENDBRANCH   1   3
BRANCH   1  11
ATOM     11  C   UNL     1     -27.863 -22.539 -27.789  1.00  0.00     0.006 C 
ATOM     12  C   UNL     1     -28.886 -21.639 -28.484  1.00  0.00     0.004 C 
ENDBRANCH   1  11
TORSDOF 4
ENDMDL
MODEL 5
REMARK VINA RESULT:    -3.820      2.852      3.297
REMARK INTER + INTRA:          -4.716
REMARK INTER:                  -4.627
REMARK INTRA:                  -0.089
REMARK UNBOUND:                -0.115
REMARK SMILES CC[C@@H](C)[C@H]([NH3+])C(=O)[O-]
REMARK SMILES IDX 3 1 4 2 5 3 6 4 7 8 8 9 9 10 2 11 1 12
REMARK H PARENT 6 5 6 6 6 7
REMARK Flexibility Score: inf
ROOT
ATOM      1  C   UNL     1     -25.722 -22.260 -29.232  1.00  0.00     0.050 C 
ATOM      2  C   UNL     1     -24.559 -22.898 -30.015  1.00  0.00     0.014 C 
ENDROOT
BRANCH   1   3
ATOM      3  C   UNL     1     -25.351 -21.939 -27.748  1.00  0.00     0.230 C 
BRANCH   3   4
ATOM      4  N   UNL     1     -23.905 -21.755 -27.542  1.00  0.00    -0.350 N 
ATOM      5  H   UNL     1     -23.410 -22.671 -27.476  1.00  0.00     0.345 HD
ATOM      6  H   UNL     1     -23.495 -21.192 -28.321  1.00  0.00     0.345 HD
ATOM      7  H   UNL     1     -23.743 -21.224 -26.656  1.00  0.00     0.345 HD
ENDBRANCH   3   4
BRANCH   3   8
ATOM      8  C   UNL     1     -25.895 -22.992 -26.814  1.00  0.00     0.099 C 
ATOM      9  O   UNL     1     -26.391 -24.050 -27.281  1.00  0.00    -0.544 OA
ATOM     10  O   UNL     1     -25.814 -22.828 -25.435  1.00  0.00    -0.544 OA
ENDBRANCH   3   8
ENDBRANCH   1   3
BRANCH   1  11
ATOM     11  C   UNL     1     -26.261 -21.039 -30.020  1.00  0.00     0.006 C 
ATOM     12  C   UNL     1     -25.197 -20.350 -30.878  1.00  0.00     0.004 C 
ENDBRANCH   1  11
TORSDOF 4
ENDMDL
MODEL 6
REMARK VINA RESULT:    -3.757      2.434      3.119
REMARK INTER + INTRA:          -4.641
REMARK INTER:                  -4.561
REMARK INTRA:                  -0.080
REMARK UNBOUND:                -0.115
REMARK SMILES CC[C@@H](C)[C@H]([NH3+])C(=O)[O-]
REMARK SMILES IDX 3 1 4 2 5 3 6 4 7 8 8 9 9 10 2 11 1 12
REMARK H PARENT 6 5 6 6 6 7
REMARK Flexibility Score: inf
ROOT
ATOM      1  C   UNL     1     -28.100 -22.221 -28.526  1.00  0.00     0.050 C 
ATOM      2  C   UNL     1     -26.974 -21.489 -29.280  1.00  0.00     0.014 C 
ENDROOT
BRANCH   1   3
ATOM      3  C   UNL     1     -27.738 -22.518 -27.034  1.00  0.00     0.230 C 
BRANCH   3   4
ATOM      4  N   UNL     1     -27.642 -21.302 -26.211  1.00  0.00    -0.350 N 
ATOM      5  H   UNL     1     -27.004 -21.441 -25.397  1.00  0.00     0.345 HD
ATOM      6  H   UNL     1     -27.304 -20.498 -26.786  1.00  0.00     0.345 HD
ATOM      7  H   UNL     1     -28.591 -21.049 -25.850  1.00  0.00     0.345 HD
ENDBRANCH   3   4
BRANCH   3   8
ATOM      8  C   UNL     1     -26.471 -23.332 -26.937  1.00  0.00     0.099 C 
ATOM      9  O   UNL     1     -26.470 -24.539 -27.296  1.00  0.00    -0.544 OA
ATOM     10  O   UNL     1     -25.286 -22.751 -26.497  1.00  0.00    -0.544 OA
ENDBRANCH   3   8
ENDBRANCH   1   3
BRANCH   1  11
ATOM     11  C   UNL     1     -29.427 -21.439 -28.703  1.00  0.00     0.006 C 
ATOM     12  C   UNL     1     -30.142 -21.744 -30.021  1.00  0.00     0.004 C 
ENDBRANCH   1  11
TORSDOF 4
ENDMDL
MODEL 7
REMARK VINA RESULT:    -3.748      3.374      4.358
REMARK INTER + INTRA:          -4.630
REMARK INTER:                  -4.534
REMARK INTRA:                  -0.096
REMARK UNBOUND:                -0.115
REMARK SMILES CC[C@@H](C)[C@H]([NH3+])C(=O)[O-]
REMARK SMILES IDX 3 1 4 2 5 3 6 4 7 8 8 9 9 10 2 11 1 12
REMARK H PARENT 6 5 6 6 6 7
REMARK Flexibility Score: inf
ROOT
ATOM      1  C   UNL     1     -26.544 -22.756 -28.115  1.00  0.00     0.050 C 
ATOM      2  C   UNL     1     -27.445 -21.518 -27.946  1.00  0.00     0.014 C 
ENDROOT
BRANCH   1   3
ATOM      3  C   UNL     1     -25.154 -22.415 -28.745  1.00  0.00     0.230 C 
BRANCH   3   4
ATOM      4  N   UNL     1     -24.308 -21.595 -27.864  1.00  0.00    -0.350 N 
ATOM      5  H   UNL     1     -23.627 -21.023 -28.411  1.00  0.00     0.345 HD
ATOM      6  H   UNL     1     -24.898 -20.965 -27.274  1.00  0.00     0.345 HD
ATOM      7  H   UNL     1     -23.773 -22.217 -27.215  1.00  0.00     0.345 HD
ENDBRANCH   3   4
BRANCH   3   8
ATOM      8  C   UNL     1     -25.319 -21.757 -30.093  1.00  0.00     0.099 C 
ATOM      9  O   UNL     1     -24.971 -20.557 -30.254  1.00  0.00    -0.544 OA
ATOM     10  O   UNL     1     -25.809 -22.475 -31.179  1.00  0.00    -0.544 OA
ENDBRANCH   3   8
ENDBRANCH   1   3
BRANCH   1  11
ATOM     11  C   UNL     1     -26.450 -23.509 -26.764  1.00  0.00     0.006 C 
ATOM     12  C   UNL     1     -26.392 -25.030 -26.916  1.00  0.00     0.004 C 
ENDBRANCH   1  11
TORSDOF 4
ENDMDL
MODEL 8
REMARK VINA RESULT:    -3.573      2.409      3.432
REMARK INTER + INTRA:          -4.419
REMARK INTER:                  -4.437
REMARK INTRA:                   0.018
REMARK UNBOUND:                -0.115
REMARK SMILES CC[C@@H](C)[C@H]([NH3+])C(=O)[O-]
REMARK SMILES IDX 3 1 4 2 5 3 6 4 7 8 8 9 9 10 2 11 1 12
REMARK H PARENT 6 5 6 6 6 7
REMARK Flexibility Score: inf
ROOT
ATOM      1  C   UNL     1     -27.238 -21.848 -25.997  1.00  0.00     0.050 C 
ATOM      2  C   UNL     1     -27.807 -21.289 -27.314  1.00  0.00     0.014 C 
ENDROOT
BRANCH   1   3
ATOM      3  C   UNL     1     -26.065 -22.857 -26.222  1.00  0.00     0.230 C 
BRANCH   3   4
ATOM      4  N   UNL     1     -25.100 -22.877 -25.111  1.00  0.00    -0.350 N 
ATOM      5  H   UNL     1     -25.498 -22.437 -24.252  1.00  0.00     0.345 HD
ATOM      6  H   UNL     1     -24.809 -23.858 -24.898  1.00  0.00     0.345 HD
ATOM      7  H   UNL     1     -24.240 -22.350 -25.386  1.00  0.00     0.345 HD
ENDBRANCH   3   4
BRANCH   3   8
ATOM      8  C   UNL     1     -25.366 -22.591 -27.533  1.00  0.00     0.099 C 
ATOM      9  O   UNL     1     -24.439 -21.740 -27.589  1.00  0.00    -0.544 OA
ATOM     10  O   UNL     1     -25.703 -23.307 -28.676  1.00  0.00    -0.544 OA
ENDBRANCH   3   8
ENDBRANCH   1   3
BRANCH   1  11
ATOM     11  C   UNL     1     -26.877 -20.671 -25.055  1.00  0.00     0.006 C 
ATOM     12  C   UNL     1     -27.716 -20.635 -23.776  1.00  0.00     0.004 C 
ENDBRANCH   1  11
TORSDOF 4
ENDMDL
MODEL 9
REMARK VINA RESULT:    -3.520      2.782      3.556
REMARK INTER + INTRA:          -4.354
REMARK INTER:                  -4.272
REMARK INTRA:                  -0.082
REMARK UNBOUND:                -0.115
REMARK SMILES CC[C@@H](C)[C@H]([NH3+])C(=O)[O-]
REMARK SMILES IDX 3 1 4 2 5 3 6 4 7 8 8 9 9 10 2 11 1 12
REMARK H PARENT 6 5 6 6 6 7
REMARK Flexibility Score: inf
ROOT
ATOM      1  C   UNL     1     -26.223 -21.808 -28.636  1.00  0.00     0.050 C 
ATOM      2  C   UNL     1     -26.940 -21.052 -29.770  1.00  0.00     0.014 C 
ENDROOT
BRANCH   1   3
ATOM      3  C   UNL     1     -27.157 -22.819 -27.894  1.00  0.00     0.230 C 
BRANCH   3   4
ATOM      4  N   UNL     1     -28.352 -22.183 -27.318  1.00  0.00    -0.350 N 
ATOM      5  H   UNL     1     -28.112 -21.294 -26.826  1.00  0.00     0.345 HD
ATOM      6  H   UNL     1     -29.058 -21.990 -28.064  1.00  0.00     0.345 HD
ATOM      7  H   UNL     1     -28.797 -22.833 -26.630  1.00  0.00     0.345 HD
ENDBRANCH   3   4
BRANCH   3   8
ATOM      8  C   UNL     1     -26.397 -23.584 -26.839  1.00  0.00     0.099 C 
ATOM      9  O   UNL     1     -26.361 -24.843 -26.879  1.00  0.00    -0.544 OA
ATOM     10  O   UNL     1     -25.693 -22.914 -25.844  1.00  0.00    -0.544 OA
ENDBRANCH   3   8
ENDBRANCH   1   3
BRANCH   1  11
ATOM     11  C   UNL     1     -24.924 -22.448 -29.189  1.00  0.00     0.006 C 
ATOM     12  C   UNL     1     -24.891 -22.536 -30.717  1.00  0.00     0.004 C 
ENDBRANCH   1  11
TORSDOF 4
ENDMDL
