MODEL 1
REMARK VINA RESULT:    -5.754      0.000      0.000
REMARK INTER + INTRA:          -7.540
REMARK INTER:                  -6.595
REMARK INTRA:                  -0.945
REMARK UNBOUND:                -0.945
REMARK SMILES C=C(C)[C@H]1CC[C@@]2(C(=O)[O-])CC[C@@]3(C)[C@H](CC[C@@H]4[C@]5(C)CC[C@H](O)C(C)(C)[C@@H]5CC[C@@]43C)[C@@H]12
REMARK SMILES IDX 7 1 6 2 33 3 11 4 5 5 15 6 4 7 12 8 16 9 13 10 17 11 31 12
REMARK SMILES IDX 14 13 18 14 30 15 32 16 19 17 29 18 21 19 20 20 28 21 22 22
REMARK SMILES IDX 25 23 23 24 26 25 27 26 8 27 9 28 10 29 2 30 3 31 1 32 24 33
REMARK H PARENT 24 34
REMARK Flexibility Score: inf
ROOT
ATOM      1  C   UNL     1      48.165  12.584  -4.529  1.00  0.00     0.014 C 
ATOM      2  C   UNL     1      49.625  12.029  -4.499  1.00  0.00     0.014 C 
ATOM      3  C   UNL     1      48.087  13.395  -5.862  1.00  0.00     0.012 C 
ATOM      4  C   UNL     1      47.864  13.426  -3.250  1.00  0.00     0.014 C 
ATOM      5  C   UNL     1      50.313  12.411  -5.804  1.00  0.00     0.009 C 
ATOM      6  C   UNL     1      47.128  14.644  -5.945  1.00  0.00     0.000 C 
ATOM      7  C   UNL     1      49.539  13.593  -6.381  1.00  0.00     0.018 C 
ATOM      8  C   UNL     1      47.739  14.943  -3.446  1.00  0.00     0.008 C 
ATOM      9  C   UNL     1      45.862  14.313  -6.750  1.00  0.00     0.005 C 
ATOM     10  C   UNL     1      46.828  15.468  -4.613  1.00  0.00    -0.024 C 
ATOM     11  C   UNL     1      44.944  15.522  -6.827  1.00  0.00     0.005 C 
ATOM     12  C   UNL     1      45.236  15.532  -4.214  1.00  0.00    -0.024 C 
ATOM     13  C   UNL     1      47.359  16.919  -4.872  1.00  0.00     0.012 C 
ATOM     14  C   UNL     1      44.254  15.774  -5.463  1.00  0.00     0.002 C 
ATOM     15  C   UNL     1      44.968  16.627  -3.138  1.00  0.00     0.008 C 
ATOM     16  C   UNL     1      44.805  14.186  -3.544  1.00  0.00     0.012 C 
ATOM     17  C   UNL     1      43.276  17.046  -5.437  1.00  0.00    -0.026 C 
ATOM     18  C   UNL     1      43.493  16.826  -2.808  1.00  0.00     0.005 C 
ATOM     19  C   UNL     1      44.010  18.376  -5.798  1.00  0.00     0.010 C 
ATOM     20  C   UNL     1      42.202  16.797  -6.550  1.00  0.00     0.012 C 
ATOM     21  C   UNL     1      42.552  17.166  -4.018  1.00  0.00     0.003 C 
ATOM     22  C   UNL     1      43.154  19.637  -5.609  1.00  0.00     0.033 C 
ATOM     23  C   UNL     1      41.706  18.510  -3.791  1.00  0.00    -0.006 C 
ATOM     24  C   UNL     1      42.567  19.749  -4.187  1.00  0.00     0.120 C 
ATOM     25  C   UNL     1      41.240  18.669  -2.304  1.00  0.00     0.014 C 
ATOM     26  C   UNL     1      40.368  18.497  -4.609  1.00  0.00     0.014 C 
ENDROOT
BRANCH   1  27
ATOM     27  C   UNL     1      47.212  11.386  -4.521  1.00  0.00     0.048 C 
ATOM     28  O   UNL     1      46.774  10.875  -5.586  1.00  0.00    -0.550 OA
ATOM     29  O   UNL     1      46.762  10.877  -3.307  1.00  0.00    -0.550 OA
ENDBRANCH   1  27
BRANCH   7  30
ATOM     30  C   UNL     1      50.213  14.949  -6.123  1.00  0.00    -0.077 C 
ATOM     31  C   UNL     1      51.036  15.246  -4.892  1.00  0.00     0.039 C 
ATOM     32  C   UNL     1      50.203  15.878  -7.095  1.00  0.00     0.008 C 
ENDBRANCH   7  30
BRANCH  24  33
ATOM     33  O   UNL     1      43.620  19.927  -3.270  1.00  0.00    -0.393 OA
ATOM     34  H   UNL     1      44.297  19.229  -3.465  1.00  0.00     0.210 HD
ENDBRANCH  24  33
TORSDOF 3
ENDMDL
MODEL 2
REMARK VINA RESULT:    -5.404      2.075      7.562
REMARK INTER + INTRA:          -7.138
REMARK INTER:                  -6.196
REMARK INTRA:                  -0.943
REMARK UNBOUND:                -0.945
REMARK SMILES C=C(C)[C@H]1CC[C@@]2(C(=O)[O-])CC[C@@]3(C)[C@H](CC[C@@H]4[C@]5(C)CC[C@H](O)C(C)(C)[C@@H]5CC[C@@]43C)[C@@H]12
REMARK SMILES IDX 7 1 6 2 33 3 11 4 5 5 15 6 4 7 12 8 16 9 13 10 17 11 31 12
REMARK SMILES IDX 14 13 18 14 30 15 32 16 19 17 29 18 21 19 20 20 28 21 22 22
REMARK SMILES IDX 25 23 23 24 26 25 27 26 8 27 9 28 10 29 2 30 3 31 1 32 24 33
REMARK H PARENT 24 34
REMARK Flexibility Score: inf
ROOT
ATOM      1  C   UNL     1      40.996  16.789  -4.785  1.00  0.00     0.014 C 
ATOM      2  C   UNL     1      39.879  17.863  -4.981  1.00  0.00     0.014 C 
ATOM      3  C   UNL     1      41.993  17.447  -3.778  1.00  0.00     0.012 C 
ATOM      4  C   UNL     1      41.636  16.395  -6.152  1.00  0.00     0.014 C 
ATOM      5  C   UNL     1      40.165  19.032  -4.048  1.00  0.00     0.009 C 
ATOM      6  C   UNL     1      43.523  17.073  -3.857  1.00  0.00     0.000 C 
ATOM      7  C   UNL     1      41.648  18.961  -3.693  1.00  0.00     0.018 C 
ATOM      8  C   UNL     1      43.070  16.883  -6.400  1.00  0.00     0.008 C 
ATOM      9  C   UNL     1      43.915  16.116  -2.721  1.00  0.00     0.005 C 
ATOM     10  C   UNL     1      44.136  16.657  -5.269  1.00  0.00    -0.024 C 
ATOM     11  C   UNL     1      45.391  15.762  -2.804  1.00  0.00     0.005 C 
ATOM     12  C   UNL     1      44.796  15.152  -5.290  1.00  0.00    -0.024 C 
ATOM     13  C   UNL     1      45.245  17.717  -5.590  1.00  0.00     0.012 C 
ATOM     14  C   UNL     1      45.657  14.793  -3.982  1.00  0.00     0.002 C 
ATOM     15  C   UNL     1      45.683  14.944  -6.554  1.00  0.00     0.008 C 
ATOM     16  C   UNL     1      43.662  14.081  -5.405  1.00  0.00     0.012 C 
ATOM     17  C   UNL     1      47.195  14.373  -4.164  1.00  0.00    -0.026 C 
ATOM     18  C   UNL     1      46.424  13.613  -6.580  1.00  0.00     0.005 C 
ATOM     19  C   UNL     1      48.128  15.602  -4.401  1.00  0.00     0.010 C 
ATOM     20  C   UNL     1      47.634  13.716  -2.812  1.00  0.00     0.012 C 
ATOM     21  C   UNL     1      47.347  13.310  -5.346  1.00  0.00     0.003 C 
ATOM     22  C   UNL     1      49.575  15.232  -4.760  1.00  0.00     0.033 C 
ATOM     23  C   UNL     1      48.857  12.964  -5.767  1.00  0.00    -0.006 C 
ATOM     24  C   UNL     1      49.663  14.284  -5.974  1.00  0.00     0.120 C 
ATOM     25  C   UNL     1      48.923  12.117  -7.084  1.00  0.00     0.014 C 
ATOM     26  C   UNL     1      49.564  12.060  -4.698  1.00  0.00     0.014 C 
ENDROOT
BRANCH   1  27
ATOM     27  C   UNL     1      40.337  15.532  -4.211  1.00  0.00     0.048 C 
ATOM     28  O   UNL     1      39.943  14.590  -4.949  1.00  0.00    -0.550 OA
ATOM     29  O   UNL     1      40.105  15.445  -2.842  1.00  0.00    -0.550 OA
ENDBRANCH   1  27
BRANCH   7  30
ATOM     30  C   UNL     1      42.516  19.941  -4.495  1.00  0.00    -0.077 C 
ATOM     31  C   UNL     1      42.225  20.329  -5.926  1.00  0.00     0.039 C 
ATOM     32  C   UNL     1      43.502  20.606  -3.866  1.00  0.00     0.008 C 
ENDBRANCH   7  30
BRANCH  24  33
ATOM     33  O   UNL     1      49.206  14.964  -7.118  1.00  0.00    -0.393 OA
ATOM     34  H   UNL     1      48.519  15.614  -6.816  1.00  0.00     0.210 HD
ENDBRANCH  24  33
TORSDOF 3
ENDMDL
MODEL 3
REMARK VINA RESULT:    -5.067      2.015      3.920
REMARK INTER + INTRA:          -6.753
REMARK INTER:                  -6.034
REMARK INTRA:                  -0.719
REMARK UNBOUND:                -0.945
REMARK SMILES C=C(C)[C@H]1CC[C@@]2(C(=O)[O-])CC[C@@]3(C)[C@H](CC[C@@H]4[C@]5(C)CC[C@H](O)C(C)(C)[C@@H]5CC[C@@]43C)[C@@H]12
REMARK SMILES IDX 7 1 6 2 33 3 11 4 5 5 15 6 4 7 12 8 16 9 13 10 17 11 31 12
REMARK SMILES IDX 14 13 18 14 30 15 32 16 19 17 29 18 21 19 20 20 28 21 22 22
REMARK SMILES IDX 25 23 23 24 26 25 27 26 8 27 9 28 10 29 2 30 3 31 1 32 24 33
REMARK H PARENT 24 34
REMARK Flexibility Score: inf
ROOT
ATOM      1  C   UNL     1      47.998  13.613  -5.299  1.00  0.00     0.014 C 
ATOM      2  C   UNL     1      48.579  12.219  -5.696  1.00  0.00     0.014 C 
ATOM      3  C   UNL     1      46.803  13.278  -4.349  1.00  0.00     0.012 C 
ATOM      4  C   UNL     1      47.596  14.429  -6.567  1.00  0.00     0.014 C 
ATOM      5  C   UNL     1      47.825  11.145  -4.923  1.00  0.00     0.009 C 
ATOM      6  C   UNL     1      45.562  14.251  -4.305  1.00  0.00     0.000 C 
ATOM      7  C   UNL     1      46.497  11.761  -4.493  1.00  0.00     0.018 C 
ATOM      8  C   UNL     1      46.092  14.611  -6.814  1.00  0.00     0.008 C 
ATOM      9  C   UNL     1      45.580  15.106  -3.029  1.00  0.00     0.005 C 
ATOM     10  C   UNL     1      45.195  15.083  -5.614  1.00  0.00    -0.024 C 
ATOM     11  C   UNL     1      44.381  16.039  -2.992  1.00  0.00     0.005 C 
ATOM     12  C   UNL     1      45.210  16.711  -5.394  1.00  0.00    -0.024 C 
ATOM     13  C   UNL     1      43.755  14.626  -6.029  1.00  0.00     0.012 C 
ATOM     14  C   UNL     1      44.553  17.194  -4.009  1.00  0.00     0.002 C 
ATOM     15  C   UNL     1      44.505  17.445  -6.574  1.00  0.00     0.008 C 
ATOM     16  C   UNL     1      46.686  17.231  -5.410  1.00  0.00     0.012 C 
ATOM     17  C   UNL     1      43.324  18.225  -4.060  1.00  0.00    -0.026 C 
ATOM     18  C   UNL     1      44.376  18.951  -6.378  1.00  0.00     0.005 C 
ATOM     19  C   UNL     1      41.973  17.533  -4.422  1.00  0.00     0.010 C 
ATOM     20  C   UNL     1      43.173  18.798  -2.610  1.00  0.00     0.012 C 
ATOM     21  C   UNL     1      43.639  19.419  -5.073  1.00  0.00     0.003 C 
ATOM     22  C   UNL     1      40.811  18.509  -4.658  1.00  0.00     0.033 C 
ATOM     23  C   UNL     1      42.410  20.407  -5.371  1.00  0.00    -0.006 C 
ATOM     24  C   UNL     1      41.137  19.577  -5.723  1.00  0.00     0.120 C 
ATOM     25  C   UNL     1      42.717  21.391  -6.552  1.00  0.00     0.014 C 
ATOM     26  C   UNL     1      42.120  21.354  -4.154  1.00  0.00     0.014 C 
ENDROOT
BRANCH   1  27
ATOM     27  C   UNL     1      49.105  14.393  -4.587  1.00  0.00     0.048 C 
ATOM     28  O   UNL     1      48.914  15.549  -4.122  1.00  0.00    -0.550 OA
ATOM     29  O   UNL     1      50.381  13.846  -4.498  1.00  0.00    -0.550 OA
ENDBRANCH   1  27
BRANCH   7  30
ATOM     30  C   UNL     1      45.315  11.349  -5.383  1.00  0.00    -0.077 C 
ATOM     31  C   UNL     1      45.445  11.085  -6.865  1.00  0.00     0.039 C 
ATOM     32  C   UNL     1      44.133  11.064  -4.809  1.00  0.00     0.008 C 
ENDBRANCH   7  30
BRANCH  24  33
ATOM     33  O   UNL     1      41.293  18.946  -6.970  1.00  0.00    -0.393 OA
ATOM     34  H   UNL     1      42.128  18.410  -6.924  1.00  0.00     0.210 HD
ENDBRANCH  24  33
TORSDOF 3
ENDMDL
MODEL 4
REMARK VINA RESULT:    -4.734      1.684      7.889
REMARK INTER + INTRA:          -6.370
REMARK INTER:                  -5.710
REMARK INTRA:                  -0.660
REMARK UNBOUND:                -0.945
REMARK SMILES C=C(C)[C@H]1CC[C@@]2(C(=O)[O-])CC[C@@]3(C)[C@H](CC[C@@H]4[C@]5(C)CC[C@H](O)C(C)(C)[C@@H]5CC[C@@]43C)[C@@H]12
REMARK SMILES IDX 7 1 6 2 33 3 11 4 5 5 15 6 4 7 12 8 16 9 13 10 17 11 31 12
REMARK SMILES IDX 14 13 18 14 30 15 32 16 19 17 29 18 21 19 20 20 28 21 22 22
REMARK SMILES IDX 25 23 23 24 26 25 27 26 8 27 9 28 10 29 2 30 3 31 1 32 24 33
REMARK H PARENT 24 34
REMARK Flexibility Score: inf
ROOT
ATOM      1  C   UNL     1      42.529  19.387  -5.190  1.00  0.00     0.014 C 
ATOM      2  C   UNL     1      41.402  20.312  -4.630  1.00  0.00     0.014 C 
ATOM      3  C   UNL     1      41.847  17.988  -5.332  1.00  0.00     0.012 C 
ATOM      4  C   UNL     1      43.775  19.397  -4.250  1.00  0.00     0.014 C 
ATOM      5  C   UNL     1      40.109  19.509  -4.561  1.00  0.00     0.009 C 
ATOM      6  C   UNL     1      42.722  16.687  -5.162  1.00  0.00     0.000 C 
ATOM      7  C   UNL     1      40.505  18.035  -4.548  1.00  0.00     0.018 C 
ATOM      8  C   UNL     1      44.034  18.115  -3.447  1.00  0.00     0.008 C 
ATOM      9  C   UNL     1      43.011  16.038  -6.524  1.00  0.00     0.005 C 
ATOM     10  C   UNL     1      43.998  16.742  -4.209  1.00  0.00    -0.024 C 
ATOM     11  C   UNL     1      43.852  14.784  -6.352  1.00  0.00     0.005 C 
ATOM     12  C   UNL     1      45.411  16.384  -4.967  1.00  0.00    -0.024 C 
ATOM     13  C   UNL     1      43.737  15.696  -3.072  1.00  0.00     0.012 C 
ATOM     14  C   UNL     1      45.313  15.149  -5.991  1.00  0.00     0.002 C 
ATOM     15  C   UNL     1      46.547  16.100  -3.938  1.00  0.00     0.008 C 
ATOM     16  C   UNL     1      45.900  17.624  -5.785  1.00  0.00     0.012 C 
ATOM     17  C   UNL     1      46.280  13.887  -5.769  1.00  0.00    -0.026 C 
ATOM     18  C   UNL     1      47.856  15.642  -4.569  1.00  0.00     0.005 C 
ATOM     19  C   UNL     1      45.780  12.941  -4.632  1.00  0.00     0.010 C 
ATOM     20  C   UNL     1      46.240  13.065  -7.102  1.00  0.00     0.012 C 
ATOM     21  C   UNL     1      47.775  14.372  -5.487  1.00  0.00     0.003 C 
ATOM     22  C   UNL     1      46.768  11.823  -4.266  1.00  0.00     0.033 C 
ATOM     23  C   UNL     1      48.798  13.217  -5.046  1.00  0.00    -0.006 C 
ATOM     24  C   UNL     1      48.168  12.361  -3.904  1.00  0.00     0.120 C 
ATOM     25  C   UNL     1      50.166  13.799  -4.548  1.00  0.00     0.014 C 
ATOM     26  C   UNL     1      49.193  12.300  -6.255  1.00  0.00     0.014 C 
ENDROOT
BRANCH   1  27
ATOM     27  C   UNL     1      42.972  19.957  -6.540  1.00  0.00     0.048 C 
ATOM     28  O   UNL     1      44.012  19.555  -7.124  1.00  0.00    -0.550 OA
ATOM     29  O   UNL     1      42.245  20.993  -7.117  1.00  0.00    -0.550 OA
ENDBRANCH   1  27
BRANCH   7  30
ATOM     30  C   UNL     1      40.472  17.407  -3.147  1.00  0.00    -0.077 C 
ATOM     31  C   UNL     1      40.863  18.152  -1.892  1.00  0.00     0.039 C 
ATOM     32  C   UNL     1      39.933  16.184  -2.993  1.00  0.00     0.008 C 
ENDBRANCH   7  30
BRANCH  24  33
ATOM     33  O   UNL     1      48.075  13.116  -2.720  1.00  0.00    -0.393 OA
ATOM     34  H   UNL     1      47.492  12.609  -2.096  1.00  0.00     0.210 HD
ENDBRANCH  24  33
TORSDOF 3
ENDMDL
MODEL 5
REMARK VINA RESULT:    -4.694      2.000      3.001
REMARK INTER + INTRA:          -6.325
REMARK INTER:                  -5.446
REMARK INTRA:                  -0.879
REMARK UNBOUND:                -0.945
REMARK SMILES C=C(C)[C@H]1CC[C@@]2(C(=O)[O-])CC[C@@]3(C)[C@H](CC[C@@H]4[C@]5(C)CC[C@H](O)C(C)(C)[C@@H]5CC[C@@]43C)[C@@H]12
REMARK SMILES IDX 7 1 6 2 33 3 11 4 5 5 15 6 4 7 12 8 16 9 13 10 17 11 31 12
REMARK SMILES IDX 14 13 18 14 30 15 32 16 19 17 29 18 21 19 20 20 28 21 22 22
REMARK SMILES IDX 25 23 23 24 26 25 27 26 8 27 9 28 10 29 2 30 3 31 1 32 24 33
REMARK H PARENT 24 34
REMARK Flexibility Score: inf
ROOT
ATOM      1  C   UNL     1      47.783  12.990  -3.018  1.00  0.00     0.014 C 
ATOM      2  C   UNL     1      49.075  12.145  -3.253  1.00  0.00     0.014 C 
ATOM      3  C   UNL     1      46.673  12.228  -3.812  1.00  0.00     0.012 C 
ATOM      4  C   UNL     1      47.993  14.467  -3.476  1.00  0.00     0.014 C 
ATOM      5  C   UNL     1      48.701  10.901  -4.047  1.00  0.00     0.009 C 
ATOM      6  C   UNL     1      45.474  13.043  -4.430  1.00  0.00     0.000 C 
ATOM      7  C   UNL     1      47.379  11.205  -4.747  1.00  0.00     0.018 C 
ATOM      8  C   UNL     1      47.250  14.901  -4.747  1.00  0.00     0.008 C 
ATOM      9  C   UNL     1      44.195  12.855  -3.600  1.00  0.00     0.005 C 
ATOM     10  C   UNL     1      45.722  14.556  -4.867  1.00  0.00    -0.024 C 
ATOM     11  C   UNL     1      43.044  13.642  -4.204  1.00  0.00     0.005 C 
ATOM     12  C   UNL     1      44.751  15.638  -4.102  1.00  0.00    -0.024 C 
ATOM     13  C   UNL     1      45.452  14.613  -6.409  1.00  0.00     0.012 C 
ATOM     14  C   UNL     1      43.225  15.159  -3.951  1.00  0.00     0.002 C 
ATOM     15  C   UNL     1      44.780  17.024  -4.814  1.00  0.00     0.008 C 
ATOM     16  C   UNL     1      45.295  15.907  -2.660  1.00  0.00     0.012 C 
ATOM     17  C   UNL     1      42.065  16.081  -4.569  1.00  0.00    -0.026 C 
ATOM     18  C   UNL     1      43.809  18.042  -4.229  1.00  0.00     0.005 C 
ATOM     19  C   UNL     1      41.929  15.917  -6.116  1.00  0.00     0.010 C 
ATOM     20  C   UNL     1      40.723  15.581  -3.934  1.00  0.00     0.012 C 
ATOM     21  C   UNL     1      42.300  17.611  -4.179  1.00  0.00     0.003 C 
ATOM     22  C   UNL     1      40.957  16.911  -6.769  1.00  0.00     0.033 C 
ATOM     23  C   UNL     1      41.328  18.661  -4.905  1.00  0.00    -0.006 C 
ATOM     24  C   UNL     1      41.297  18.380  -6.439  1.00  0.00     0.120 C 
ATOM     25  C   UNL     1      41.778  20.143  -4.670  1.00  0.00     0.014 C 
ATOM     26  C   UNL     1      39.875  18.608  -4.316  1.00  0.00     0.014 C 
ENDROOT
BRANCH   1  27
ATOM     27  C   UNL     1      47.509  13.013  -1.513  1.00  0.00     0.048 C 
ATOM     28  O   UNL     1      47.494  14.087  -0.854  1.00  0.00    -0.550 OA
ATOM     29  O   UNL     1      47.330  11.814  -0.831  1.00  0.00    -0.550 OA
ENDBRANCH   1  27
BRANCH   7  30
ATOM     30  C   UNL     1      47.544  11.582  -6.226  1.00  0.00    -0.077 C 
ATOM     31  C   UNL     1      48.739  12.334  -6.764  1.00  0.00     0.039 C 
ATOM     32  C   UNL     1      46.664  11.103  -7.124  1.00  0.00     0.008 C 
ENDBRANCH   7  30
BRANCH  24  33
ATOM     33  O   UNL     1      42.537  18.703  -7.021  1.00  0.00    -0.393 OA
ATOM     34  H   UNL     1      43.229  18.586  -6.319  1.00  0.00     0.210 HD
ENDBRANCH  24  33
TORSDOF 3
ENDMDL
MODEL 6
REMARK VINA RESULT:    -4.524      1.352      7.783
REMARK INTER + INTRA:          -6.130
REMARK INTER:                  -5.648
REMARK INTRA:                  -0.482
REMARK UNBOUND:                -0.945
REMARK SMILES C=C(C)[C@H]1CC[C@@]2(C(=O)[O-])CC[C@@]3(C)[C@H](CC[C@@H]4[C@]5(C)CC[C@H](O)C(C)(C)[C@@H]5CC[C@@]43C)[C@@H]12
REMARK SMILES IDX 7 1 6 2 33 3 11 4 5 5 15 6 4 7 12 8 16 9 13 10 17 11 31 12
REMARK SMILES IDX 14 13 18 14 30 15 32 16 19 17 29 18 21 19 20 20 28 21 22 22
REMARK SMILES IDX 25 23 23 24 26 25 27 26 8 27 9 28 10 29 2 30 3 31 1 32 24 33
REMARK H PARENT 24 34
REMARK Flexibility Score: inf
ROOT
ATOM      1  C   UNL     1      41.882  18.235  -2.862  1.00  0.00     0.014 C 
ATOM      2  C   UNL     1      40.371  18.615  -2.754  1.00  0.00     0.014 C 
ATOM      3  C   UNL     1      42.198  18.332  -4.389  1.00  0.00     0.012 C 
ATOM      4  C   UNL     1      42.146  16.826  -2.244  1.00  0.00     0.014 C 
ATOM      5  C   UNL     1      39.876  19.019  -4.137  1.00  0.00     0.009 C 
ATOM      6  C   UNL     1      43.303  17.392  -5.006  1.00  0.00     0.000 C 
ATOM      7  C   UNL     1      40.843  18.408  -5.147  1.00  0.00     0.018 C 
ATOM      8  C   UNL     1      42.473  15.698  -3.231  1.00  0.00     0.008 C 
ATOM      9  C   UNL     1      44.598  18.172  -5.280  1.00  0.00     0.005 C 
ATOM     10  C   UNL     1      43.558  15.968  -4.334  1.00  0.00    -0.024 C 
ATOM     11  C   UNL     1      45.657  17.260  -5.876  1.00  0.00     0.005 C 
ATOM     12  C   UNL     1      45.096  15.751  -3.798  1.00  0.00    -0.024 C 
ATOM     13  C   UNL     1      43.236  14.904  -5.438  1.00  0.00     0.012 C 
ATOM     14  C   UNL     1      46.226  16.303  -4.799  1.00  0.00     0.002 C 
ATOM     15  C   UNL     1      45.379  14.250  -3.492  1.00  0.00     0.008 C 
ATOM     16  C   UNL     1      45.288  16.491  -2.433  1.00  0.00     0.012 C 
ATOM     17  C   UNL     1      47.342  15.283  -5.336  1.00  0.00    -0.026 C 
ATOM     18  C   UNL     1      46.824  13.957  -3.105  1.00  0.00     0.005 C 
ATOM     19  C   UNL     1      46.815  14.369  -6.487  1.00  0.00     0.010 C 
ATOM     20  C   UNL     1      48.489  16.165  -5.937  1.00  0.00     0.012 C 
ATOM     21  C   UNL     1      47.921  14.405  -4.135  1.00  0.00     0.003 C 
ATOM     22  C   UNL     1      47.792  13.259  -6.904  1.00  0.00     0.033 C 
ATOM     23  C   UNL     1      48.895  13.206  -4.569  1.00  0.00    -0.006 C 
ATOM     24  C   UNL     1      48.236  12.380  -5.717  1.00  0.00     0.120 C 
ATOM     25  C   UNL     1      49.218  12.245  -3.374  1.00  0.00     0.014 C 
ATOM     26  C   UNL     1      50.300  13.735  -5.021  1.00  0.00     0.014 C 
ENDROOT
BRANCH   1  27
ATOM     27  C   UNL     1      42.677  19.251  -2.038  1.00  0.00     0.048 C 
ATOM     28  O   UNL     1      43.770  19.728  -2.444  1.00  0.00    -0.550 OA
ATOM     29  O   UNL     1      42.220  19.618  -0.777  1.00  0.00    -0.550 OA
ENDBRANCH   1  27
BRANCH   7  30
ATOM     30  C   UNL     1      40.313  17.122  -5.799  1.00  0.00    -0.077 C 
ATOM     31  C   UNL     1      39.875  15.911  -5.010  1.00  0.00     0.039 C 
ATOM     32  C   UNL     1      40.085  17.108  -7.125  1.00  0.00     0.008 C 
ENDBRANCH   7  30
BRANCH  24  33
ATOM     33  O   UNL     1      47.122  11.670  -5.233  1.00  0.00    -0.393 OA
ATOM     34  H   UNL     1      46.343  11.936  -5.788  1.00  0.00     0.210 HD
ENDBRANCH  24  33
TORSDOF 3
ENDMDL
MODEL 7
REMARK VINA RESULT:    -4.337      1.917      3.363
REMARK INTER + INTRA:          -5.916
REMARK INTER:                  -5.476
REMARK INTRA:                  -0.440
REMARK UNBOUND:                -0.945
REMARK SMILES C=C(C)[C@H]1CC[C@@]2(C(=O)[O-])CC[C@@]3(C)[C@H](CC[C@@H]4[C@]5(C)CC[C@H](O)C(C)(C)[C@@H]5CC[C@@]43C)[C@@H]12
REMARK SMILES IDX 7 1 6 2 33 3 11 4 5 5 15 6 4 7 12 8 16 9 13 10 17 11 31 12
REMARK SMILES IDX 14 13 18 14 30 15 32 16 19 17 29 18 21 19 20 20 28 21 22 22
REMARK SMILES IDX 25 23 23 24 26 25 27 26 8 27 9 28 10 29 2 30 3 31 1 32 24 33
REMARK H PARENT 24 34
REMARK Flexibility Score: inf
ROOT
ATOM      1  C   UNL     1      47.417  12.108  -5.074  1.00  0.00     0.014 C 
ATOM      2  C   UNL     1      48.092  10.875  -4.394  1.00  0.00     0.014 C 
ATOM      3  C   UNL     1      47.854  13.324  -4.195  1.00  0.00     0.012 C 
ATOM      4  C   UNL     1      45.871  11.913  -5.169  1.00  0.00     0.014 C 
ATOM      5  C   UNL     1      48.964  11.375  -3.249  1.00  0.00     0.009 C 
ATOM      6  C   UNL     1      46.891  14.565  -4.067  1.00  0.00     0.000 C 
ATOM      7  C   UNL     1      48.448  12.761  -2.873  1.00  0.00     0.018 C 
ATOM      8  C   UNL     1      45.015  12.789  -4.244  1.00  0.00     0.008 C 
ATOM      9  C   UNL     1      47.394  15.742  -4.917  1.00  0.00     0.005 C 
ATOM     10  C   UNL     1      45.318  14.329  -4.190  1.00  0.00    -0.024 C 
ATOM     11  C   UNL     1      46.461  16.934  -4.787  1.00  0.00     0.005 C 
ATOM     12  C   UNL     1      44.611  15.173  -5.409  1.00  0.00    -0.024 C 
ATOM     13  C   UNL     1      44.704  14.777  -2.820  1.00  0.00     0.012 C 
ATOM     14  C   UNL     1      45.140  16.684  -5.555  1.00  0.00     0.002 C 
ATOM     15  C   UNL     1      43.061  15.190  -5.257  1.00  0.00     0.008 C 
ATOM     16  C   UNL     1      44.881  14.456  -6.773  1.00  0.00     0.012 C 
ATOM     17  C   UNL     1      44.077  17.883  -5.462  1.00  0.00    -0.026 C 
ATOM     18  C   UNL     1      42.346  16.058  -6.286  1.00  0.00     0.005 C 
ATOM     19  C   UNL     1      43.663  18.205  -3.991  1.00  0.00     0.010 C 
ATOM     20  C   UNL     1      44.799  19.153  -6.025  1.00  0.00     0.012 C 
ATOM     21  C   UNL     1      42.793  17.561  -6.355  1.00  0.00     0.003 C 
ATOM     22  C   UNL     1      42.516  19.219  -3.869  1.00  0.00     0.033 C 
ATOM     23  C   UNL     1      41.567  18.584  -6.187  1.00  0.00    -0.006 C 
ATOM     24  C   UNL     1      41.266  18.802  -4.671  1.00  0.00     0.120 C 
ATOM     25  C   UNL     1      40.267  18.069  -6.894  1.00  0.00     0.014 C 
ATOM     26  C   UNL     1      41.860  19.958  -6.884  1.00  0.00     0.014 C 
ENDROOT
BRANCH   1  27
ATOM     27  C   UNL     1      47.953  12.202  -6.505  1.00  0.00     0.048 C 
ATOM     28  O   UNL     1      48.380  11.192  -7.125  1.00  0.00    -0.550 OA
ATOM     29  O   UNL     1      48.034  13.444  -7.125  1.00  0.00    -0.550 OA
ENDBRANCH   1  27
BRANCH   7  30
ATOM     30  C   UNL     1      47.551  12.762  -1.627  1.00  0.00    -0.077 C 
ATOM     31  C   UNL     1      46.962  11.507  -1.027  1.00  0.00     0.039 C 
ATOM     32  C   UNL     1      47.390  13.906  -0.940  1.00  0.00     0.008 C 
ENDBRANCH   7  30
BRANCH  24  33
ATOM     33  O   UNL     1      40.729  17.632  -4.105  1.00  0.00    -0.393 OA
ATOM     34  H   UNL     1      40.287  17.129  -4.838  1.00  0.00     0.210 HD
ENDBRANCH  24  33
TORSDOF 3
ENDMDL
MODEL 8
REMARK VINA RESULT:    -4.247      2.139      3.787
REMARK INTER + INTRA:          -5.813
REMARK INTER:                  -5.115
REMARK INTRA:                  -0.698
REMARK UNBOUND:                -0.945
REMARK SMILES C=C(C)[C@H]1CC[C@@]2(C(=O)[O-])CC[C@@]3(C)[C@H](CC[C@@H]4[C@]5(C)CC[C@H](O)C(C)(C)[C@@H]5CC[C@@]43C)[C@@H]12
REMARK SMILES IDX 7 1 6 2 33 3 11 4 5 5 15 6 4 7 12 8 16 9 13 10 17 11 31 12
REMARK SMILES IDX 14 13 18 14 30 15 32 16 19 17 29 18 21 19 20 20 28 21 22 22
REMARK SMILES IDX 25 23 23 24 26 25 27 26 8 27 9 28 10 29 2 30 3 31 1 32 24 33
REMARK H PARENT 24 34
REMARK Flexibility Score: inf
ROOT
ATOM      1  C   UNL     1      49.195  14.156  -5.861  1.00  0.00     0.014 C 
ATOM      2  C   UNL     1      50.082  12.913  -6.187  1.00  0.00     0.014 C 
ATOM      3  C   UNL     1      48.285  13.683  -4.682  1.00  0.00     0.012 C 
ATOM      4  C   UNL     1      48.409  14.625  -7.125  1.00  0.00     0.014 C 
ATOM      5  C   UNL     1      49.774  11.821  -5.172  1.00  0.00     0.009 C 
ATOM      6  C   UNL     1      46.840  14.298  -4.533  1.00  0.00     0.000 C 
ATOM      7  C   UNL     1      48.399  12.136  -4.588  1.00  0.00     0.018 C 
ATOM      8  C   UNL     1      46.895  14.371  -7.121  1.00  0.00     0.008 C 
ATOM      9  C   UNL     1      46.794  15.324  -3.390  1.00  0.00     0.005 C 
ATOM     10  C   UNL     1      46.077  14.784  -5.846  1.00  0.00    -0.024 C 
ATOM     11  C   UNL     1      45.398  15.909  -3.252  1.00  0.00     0.005 C 
ATOM     12  C   UNL     1      45.666  16.375  -5.826  1.00  0.00    -0.024 C 
ATOM     13  C   UNL     1      44.779  13.912  -5.942  1.00  0.00     0.012 C 
ATOM     14  C   UNL     1      45.098  16.889  -4.413  1.00  0.00     0.002 C 
ATOM     15  C   UNL     1      44.627  16.702  -6.940  1.00  0.00     0.008 C 
ATOM     16  C   UNL     1      46.919  17.248  -6.164  1.00  0.00     0.012 C 
ATOM     17  C   UNL     1      43.635  17.548  -4.367  1.00  0.00    -0.026 C 
ATOM     18  C   UNL     1      44.109  18.135  -6.904  1.00  0.00     0.005 C 
ATOM     19  C   UNL     1      42.495  16.482  -4.399  1.00  0.00     0.010 C 
ATOM     20  C   UNL     1      43.531  18.289  -2.991  1.00  0.00     0.012 C 
ATOM     21  C   UNL     1      43.459  18.602  -5.553  1.00  0.00     0.003 C 
ATOM     22  C   UNL     1      41.085  17.074  -4.540  1.00  0.00     0.033 C 
ATOM     23  C   UNL     1      41.974  19.180  -5.743  1.00  0.00    -0.006 C 
ATOM     24  C   UNL     1      40.949  18.004  -5.763  1.00  0.00     0.120 C 
ATOM     25  C   UNL     1      41.826  20.004  -7.067  1.00  0.00     0.014 C 
ATOM     26  C   UNL     1      41.602  20.203  -4.615  1.00  0.00     0.014 C 
ENDROOT
BRANCH   1  27
ATOM     27  C   UNL     1      50.127  15.300  -5.453  1.00  0.00     0.048 C 
ATOM     28  O   UNL     1      50.235  16.350  -6.141  1.00  0.00    -0.550 OA
ATOM     29  O   UNL     1      50.928  15.160  -4.324  1.00  0.00    -0.550 OA
ENDBRANCH   1  27
BRANCH   7  30
ATOM     30  C   UNL     1      47.269  11.295  -5.201  1.00  0.00    -0.077 C 
ATOM     31  C   UNL     1      46.036  10.877  -4.434  1.00  0.00     0.039 C 
ATOM     32  C   UNL     1      47.291  11.033  -6.520  1.00  0.00     0.008 C 
ENDBRANCH   7  30
BRANCH  24  33
ATOM     33  O   UNL     1      41.101  17.241  -6.936  1.00  0.00    -0.393 OA
ATOM     34  H   UNL     1      40.551  17.675  -7.640  1.00  0.00     0.210 HD
ENDBRANCH  24  33
TORSDOF 3
ENDMDL
