MODEL 1
REMARK VINA RESULT:    29.874      0.000      0.000
REMARK INTER + INTRA:          42.582
REMARK INTER:                  42.098
REMARK INTRA:                   0.483
REMARK UNBOUND:                 0.483
REMARK SMILES O=C(C=Cc1ccc(O)cc1)CC(=O)C=Cc1ccc(O)cc1
REMARK SMILES IDX 12 1 2 2 1 3 3 4 4 5 5 6 6 7 7 8 8 9 11 10 10 11 9 12 13 14
REMARK SMILES IDX 14 15 15 16 16 17 17 18 18 19 23 20 19 21 22 22 20 23 21 24
REMARK H PARENT 9 13 21 25
REMARK Flexibility Score: inf
ROOT
ATOM      1  C   UNL     1      -4.848  -2.024   1.718  1.00  0.00     0.160 C 
ENDROOT
BRANCH   1   2
ATOM      2  C   UNL     1      -4.629  -1.744   3.178  1.00  0.00     0.163 C 
ATOM      3  O   UNL     1      -4.433  -2.710   3.965  1.00  0.00    -0.294 OA
BRANCH   2   4
ATOM      4  C   UNL     1      -4.679  -0.351   3.675  1.00  0.00     0.048 C 
ATOM      5  C   UNL     1      -3.615   0.430   3.917  1.00  0.00     0.012 C 
BRANCH   5   6
ATOM      6  C   UNL     1      -2.218   0.108   3.561  1.00  0.00    -0.025 A 
ATOM      7  C   UNL     1      -1.408  -0.560   4.491  1.00  0.00     0.012 A 
ATOM      8  C   UNL     1      -0.070  -0.834   4.194  1.00  0.00     0.047 A 
ATOM      9  C   UNL     1       0.479  -0.422   2.975  1.00  0.00     0.115 A 
ATOM     10  C   UNL     1      -1.655   0.546   2.349  1.00  0.00     0.012 A 
ATOM     11  C   UNL     1      -0.317   0.272   2.054  1.00  0.00     0.047 A 
BRANCH   9  12
ATOM     12  O   UNL     1       1.814  -0.703   2.691  1.00  0.00    -0.508 OA
ATOM     13  H   UNL     1       2.078  -1.262   1.888  1.00  0.00     0.293 HD
ENDBRANCH   9  12
ENDBRANCH   5   6
ENDBRANCH   2   4
ENDBRANCH   1   2
BRANCH   1  14
ATOM     14  C   UNL     1      -4.465  -0.851   0.846  1.00  0.00     0.163 C 
ATOM     15  O   UNL     1      -3.469  -0.938   0.077  1.00  0.00    -0.294 OA
BRANCH  14  16
ATOM     16  C   UNL     1      -5.245   0.406   0.833  1.00  0.00     0.048 C 
ATOM     17  C   UNL     1      -4.843   1.527   1.448  1.00  0.00     0.012 C 
BRANCH  17  18
ATOM     18  C   UNL     1      -5.627   2.787   1.450  1.00  0.00    -0.025 A 
ATOM     19  C   UNL     1      -6.410   3.191   2.551  1.00  0.00     0.012 A 
ATOM     20  C   UNL     1      -5.619   3.588   0.295  1.00  0.00     0.012 A 
ATOM     21  C   UNL     1      -7.142   4.381   2.501  1.00  0.00     0.047 A 
ATOM     22  C   UNL     1      -6.352   4.777   0.248  1.00  0.00     0.047 A 
ATOM     23  C   UNL     1      -7.113   5.178   1.352  1.00  0.00     0.115 A 
BRANCH  23  24
ATOM     24  O   UNL     1      -7.847   6.361   1.318  1.00  0.00    -0.508 OA
ATOM     25  H   UNL     1      -7.431   7.235   1.016  1.00  0.00     0.293 HD
ENDBRANCH  23  24
ENDBRANCH  17  18
ENDBRANCH  14  16
ENDBRANCH   1  14
TORSDOF 8
ENDMDL
MODEL 2
REMARK VINA RESULT:    30.911      1.222      2.315
REMARK INTER + INTRA:          44.043
REMARK INTER:                  43.309
REMARK INTRA:                   0.735
REMARK UNBOUND:                 0.483
REMARK SMILES O=C(C=Cc1ccc(O)cc1)CC(=O)C=Cc1ccc(O)cc1
REMARK SMILES IDX 12 1 2 2 1 3 3 4 4 5 5 6 6 7 7 8 8 9 11 10 10 11 9 12 13 14
REMARK SMILES IDX 14 15 15 16 16 17 17 18 18 19 23 20 19 21 22 22 20 23 21 24
REMARK H PARENT 9 13 21 25
REMARK Flexibility Score: inf
ROOT
ATOM      1  C   UNL     1      -4.628  -1.282   3.029  1.00  0.00     0.160 C 
ENDROOT
BRANCH   1   2
ATOM      2  C   UNL     1      -4.101  -1.180   1.625  1.00  0.00     0.163 C 
ATOM      3  O   UNL     1      -3.943  -2.233   0.951  1.00  0.00    -0.294 OA
BRANCH   2   4
ATOM      4  C   UNL     1      -3.746   0.145   1.069  1.00  0.00     0.048 C 
ATOM      5  C   UNL     1      -2.631   0.838   1.353  1.00  0.00     0.012 C 
BRANCH   5   6
ATOM      6  C   UNL     1      -1.479   0.327   2.124  1.00  0.00    -0.025 A 
ATOM      7  C   UNL     1      -1.564   0.260   3.522  1.00  0.00     0.012 A 
ATOM      8  C   UNL     1      -0.470  -0.175   4.276  1.00  0.00     0.047 A 
ATOM      9  C   UNL     1       0.727  -0.526   3.642  1.00  0.00     0.115 A 
ATOM     10  C   UNL     1      -0.265   0.002   1.492  1.00  0.00     0.012 A 
ATOM     11  C   UNL     1       0.828  -0.432   2.247  1.00  0.00     0.047 A 
BRANCH   9  12
ATOM     12  O   UNL     1       1.809  -0.959   4.406  1.00  0.00    -0.508 OA
ATOM     13  H   UNL     1       1.950  -1.941   4.614  1.00  0.00     0.293 HD
ENDBRANCH   9  12
ENDBRANCH   5   6
ENDBRANCH   2   4
ENDBRANCH   1   2
BRANCH   1  14
ATOM     14  C   UNL     1      -4.775   0.070   3.687  1.00  0.00     0.163 C 
ATOM     15  O   UNL     1      -4.329   0.254   4.852  1.00  0.00    -0.294 OA
BRANCH  14  16
ATOM     16  C   UNL     1      -5.403   1.217   2.994  1.00  0.00     0.048 C 
ATOM     17  C   UNL     1      -5.798   2.331   3.625  1.00  0.00     0.012 C 
BRANCH  17  18
ATOM     18  C   UNL     1      -6.440   3.479   2.938  1.00  0.00    -0.025 A 
ATOM     19  C   UNL     1      -6.279   3.723   1.558  1.00  0.00     0.012 A 
ATOM     20  C   UNL     1      -7.207   4.377   3.700  1.00  0.00     0.012 A 
ATOM     21  C   UNL     1      -6.895   4.825   0.958  1.00  0.00     0.047 A 
ATOM     22  C   UNL     1      -7.821   5.478   3.096  1.00  0.00     0.047 A 
ATOM     23  C   UNL     1      -7.669   5.703   1.722  1.00  0.00     0.115 A 
BRANCH  23  24
ATOM     24  O   UNL     1      -8.276   6.797   1.109  1.00  0.00    -0.508 OA
ATOM     25  H   UNL     1      -8.798   6.697   0.245  1.00  0.00     0.293 HD
ENDBRANCH  23  24
ENDBRANCH  17  18
ENDBRANCH  14  16
ENDBRANCH   1  14
TORSDOF 8
ENDMDL
