MODEL 1
REMARK VINA RESULT:    -3.423      0.000      0.000
REMARK INTER + INTRA:          -4.886
REMARK INTER:                  -4.624
REMARK INTRA:                  -0.263
REMARK UNBOUND:                -0.263
REMARK SMILES CCCCCCCC(=O)[O-]
REMARK SMILES IDX 5 1 6 2 7 3 8 4 9 5 10 6 4 7 3 8 2 9 1 10
REMARK H PARENT
REMARK Flexibility Score: inf
ROOT
ATOM      1  C   UNL     1      57.151  28.122  50.475  1.00  0.00     0.000 C 
ENDROOT
BRANCH   1   2
ATOM      2  C   UNL     1      58.278  29.125  50.176  1.00  0.00     0.006 C 
BRANCH   2   3
ATOM      3  C   UNL     1      59.157  28.677  49.001  1.00  0.00     0.053 C 
BRANCH   3   4
ATOM      4  C   UNL     1      60.248  27.752  49.445  1.00  0.00     0.041 C 
ATOM      5  O   UNL     1      61.320  28.218  49.917  1.00  0.00    -0.550 OA
ATOM      6  O   UNL     1      60.069  26.377  49.373  1.00  0.00    -0.550 OA
ENDBRANCH   3   4
ENDBRANCH   2   3
ENDBRANCH   1   2
BRANCH   1   7
ATOM      7  C   UNL     1      55.763  28.781  50.507  1.00  0.00     0.000 C 
BRANCH   7   8
ATOM      8  C   UNL     1      54.628  27.783  50.236  1.00  0.00    -0.000 C 
BRANCH   8   9
ATOM      9  C   UNL     1      55.184  26.439  49.750  1.00  0.00    -0.003 C 
ATOM     10  C   UNL     1      54.088  25.582  49.126  1.00  0.00     0.004 C 
ENDBRANCH   8   9
ENDBRANCH   7   8
ENDBRANCH   1   7
TORSDOF 6
ENDMDL
MODEL 2
REMARK VINA RESULT:    -3.349     12.371     13.861
REMARK INTER + INTRA:          -4.786
REMARK INTER:                  -4.501
REMARK INTRA:                  -0.285
REMARK UNBOUND:                -0.263
REMARK SMILES CCCCCCCC(=O)[O-]
REMARK SMILES IDX 5 1 6 2 7 3 8 4 9 5 10 6 4 7 3 8 2 9 1 10
REMARK H PARENT
REMARK Flexibility Score: inf
ROOT
ATOM      1  C   UNL     1      61.668  33.025  60.581  1.00  0.00     0.000 C 
ENDROOT
BRANCH   1   2
ATOM      2  C   UNL     1      61.376  31.540  60.305  1.00  0.00     0.006 C 
BRANCH   2   3
ATOM      3  C   UNL     1      61.306  30.714  61.596  1.00  0.00     0.053 C 
BRANCH   3   4
ATOM      4  C   UNL     1      62.398  29.691  61.661  1.00  0.00     0.041 C 
ATOM      5  O   UNL     1      63.604  30.053  61.694  1.00  0.00    -0.550 OA
ATOM      6  O   UNL     1      62.084  28.339  61.722  1.00  0.00    -0.550 OA
ENDBRANCH   3   4
ENDBRANCH   2   3
ENDBRANCH   1   2
BRANCH   1   7
ATOM      7  C   UNL     1      63.173  33.338  60.608  1.00  0.00     0.000 C 
BRANCH   7   8
ATOM      8  C   UNL     1      63.464  34.816  60.903  1.00  0.00    -0.000 C 
BRANCH   8   9
ATOM      9  C   UNL     1      62.167  35.633  60.943  1.00  0.00    -0.003 C 
ATOM     10  C   UNL     1      62.458  37.123  61.094  1.00  0.00     0.004 C 
ENDBRANCH   8   9
ENDBRANCH   7   8
ENDBRANCH   1   7
TORSDOF 6
ENDMDL
MODEL 3
REMARK VINA RESULT:    -3.305     12.880     14.261
REMARK INTER + INTRA:          -4.726
REMARK INTER:                  -4.432
REMARK INTRA:                  -0.294
REMARK UNBOUND:                -0.263
REMARK SMILES CCCCCCCC(=O)[O-]
REMARK SMILES IDX 5 1 6 2 7 3 8 4 9 5 10 6 4 7 3 8 2 9 1 10
REMARK H PARENT
REMARK Flexibility Score: inf
ROOT
ATOM      1  C   UNL     1      64.129  33.665  60.304  1.00  0.00     0.000 C 
ENDROOT
BRANCH   1   2
ATOM      2  C   UNL     1      63.791  32.256  60.819  1.00  0.00     0.006 C 
BRANCH   2   3
ATOM      3  C   UNL     1      62.337  31.864  60.524  1.00  0.00     0.053 C 
BRANCH   3   4
ATOM      4  C   UNL     1      61.827  30.848  61.498  1.00  0.00     0.041 C 
ATOM      5  O   UNL     1      60.668  30.958  61.980  1.00  0.00    -0.550 OA
ATOM      6  O   UNL     1      62.616  29.759  61.847  1.00  0.00    -0.550 OA
ENDBRANCH   3   4
ENDBRANCH   2   3
ENDBRANCH   1   2
BRANCH   1   7
ATOM      7  C   UNL     1      64.450  34.650  61.439  1.00  0.00     0.000 C 
BRANCH   7   8
ATOM      8  C   UNL     1      63.548  35.893  61.416  1.00  0.00    -0.000 C 
BRANCH   8   9
ATOM      9  C   UNL     1      62.193  35.575  60.773  1.00  0.00    -0.003 C 
ATOM     10  C   UNL     1      61.289  36.804  60.756  1.00  0.00     0.004 C 
ENDBRANCH   8   9
ENDBRANCH   7   8
ENDBRANCH   1   7
TORSDOF 6
ENDMDL
MODEL 4
REMARK VINA RESULT:    -3.300     12.785     14.405
REMARK INTER + INTRA:          -4.721
REMARK INTER:                  -4.500
REMARK INTRA:                  -0.221
REMARK UNBOUND:                -0.263
REMARK SMILES CCCCCCCC(=O)[O-]
REMARK SMILES IDX 5 1 6 2 7 3 8 4 9 5 10 6 4 7 3 8 2 9 1 10
REMARK H PARENT
REMARK Flexibility Score: inf
ROOT
ATOM      1  C   UNL     1      61.887  34.185  60.280  1.00  0.00     0.000 C 
ENDROOT
BRANCH   1   2
ATOM      2  C   UNL     1      62.233  32.733  60.651  1.00  0.00     0.006 C 
BRANCH   2   3
ATOM      3  C   UNL     1      61.037  31.788  60.472  1.00  0.00     0.053 C 
BRANCH   3   4
ATOM      4  C   UNL     1      61.244  30.489  61.187  1.00  0.00     0.041 C 
ATOM      5  O   UNL     1      62.289  30.299  61.865  1.00  0.00    -0.550 OA
ATOM      6  O   UNL     1      60.268  29.502  61.136  1.00  0.00    -0.550 OA
ENDBRANCH   3   4
ENDBRANCH   2   3
ENDBRANCH   1   2
BRANCH   1   7
ATOM      7  C   UNL     1      62.814  35.207  60.958  1.00  0.00     0.000 C 
BRANCH   7   8
ATOM      8  C   UNL     1      64.196  34.623  61.288  1.00  0.00    -0.000 C 
BRANCH   8   9
ATOM      9  C   UNL     1      65.216  35.740  61.541  1.00  0.00    -0.003 C 
ATOM     10  C   UNL     1      64.536  37.000  62.066  1.00  0.00     0.004 C 
ENDBRANCH   8   9
ENDBRANCH   7   8
ENDBRANCH   1   7
TORSDOF 6
ENDMDL
MODEL 5
REMARK VINA RESULT:    -3.283     12.843     14.203
REMARK INTER + INTRA:          -4.697
REMARK INTER:                  -4.329
REMARK INTRA:                  -0.368
REMARK UNBOUND:                -0.263
REMARK SMILES CCCCCCCC(=O)[O-]
REMARK SMILES IDX 5 1 6 2 7 3 8 4 9 5 10 6 4 7 3 8 2 9 1 10
REMARK H PARENT
REMARK Flexibility Score: inf
ROOT
ATOM      1  C   UNL     1      61.626  33.636  60.126  1.00  0.00     0.000 C 
ENDROOT
BRANCH   1   2
ATOM      2  C   UNL     1      62.122  32.273  60.637  1.00  0.00     0.006 C 
BRANCH   2   3
ATOM      3  C   UNL     1      63.653  32.188  60.672  1.00  0.00     0.053 C 
BRANCH   3   4
ATOM      4  C   UNL     1      64.127  30.790  60.925  1.00  0.00     0.041 C 
ATOM      5  O   UNL     1      65.239  30.407  60.474  1.00  0.00    -0.550 OA
ATOM      6  O   UNL     1      63.359  29.922  61.690  1.00  0.00    -0.550 OA
ENDBRANCH   3   4
ENDBRANCH   2   3
ENDBRANCH   1   2
BRANCH   1   7
ATOM      7  C   UNL     1      62.731  34.705  60.124  1.00  0.00     0.000 C 
BRANCH   7   8
ATOM      8  C   UNL     1      62.441  35.857  61.098  1.00  0.00    -0.000 C 
BRANCH   8   9
ATOM      9  C   UNL     1      63.740  36.533  61.551  1.00  0.00    -0.003 C 
ATOM     10  C   UNL     1      64.859  35.512  61.732  1.00  0.00     0.004 C 
ENDBRANCH   8   9
ENDBRANCH   7   8
ENDBRANCH   1   7
TORSDOF 6
ENDMDL
MODEL 6
REMARK VINA RESULT:    -3.265      0.858      1.646
REMARK INTER + INTRA:          -4.673
REMARK INTER:                  -4.372
REMARK INTRA:                  -0.301
REMARK UNBOUND:                -0.263
REMARK SMILES CCCCCCCC(=O)[O-]
REMARK SMILES IDX 5 1 6 2 7 3 8 4 9 5 10 6 4 7 3 8 2 9 1 10
REMARK H PARENT
REMARK Flexibility Score: inf
ROOT
ATOM      1  C   UNL     1      58.108  29.138  50.133  1.00  0.00     0.000 C 
ENDROOT
BRANCH   1   2
ATOM      2  C   UNL     1      59.315  28.691  49.291  1.00  0.00     0.006 C 
BRANCH   2   3
ATOM      3  C   UNL     1      59.503  27.168  49.310  1.00  0.00     0.053 C 
BRANCH   3   4
ATOM      4  C   UNL     1      60.914  26.787  49.636  1.00  0.00     0.041 C 
ATOM      5  O   UNL     1      61.156  25.705  50.234  1.00  0.00    -0.550 OA
ATOM      6  O   UNL     1      61.965  27.608  49.248  1.00  0.00    -0.550 OA
ENDBRANCH   3   4
ENDBRANCH   2   3
ENDBRANCH   1   2
BRANCH   1   7
ATOM      7  C   UNL     1      57.079  28.014  50.336  1.00  0.00     0.000 C 
BRANCH   7   8
ATOM      8  C   UNL     1      55.634  28.533  50.359  1.00  0.00    -0.000 C 
BRANCH   8   9
ATOM      9  C   UNL     1      54.641  27.402  50.063  1.00  0.00    -0.003 C 
ATOM     10  C   UNL     1      55.367  26.114  49.690  1.00  0.00     0.004 C 
ENDBRANCH   8   9
ENDBRANCH   7   8
ENDBRANCH   1   7
TORSDOF 6
ENDMDL
MODEL 7
REMARK VINA RESULT:    -3.265     13.170     13.951
REMARK INTER + INTRA:          -4.673
REMARK INTER:                  -4.342
REMARK INTRA:                  -0.331
REMARK UNBOUND:                -0.263
REMARK SMILES CCCCCCCC(=O)[O-]
REMARK SMILES IDX 5 1 6 2 7 3 8 4 9 5 10 6 4 7 3 8 2 9 1 10
REMARK H PARENT
REMARK Flexibility Score: inf
ROOT
ATOM      1  C   UNL     1      62.100  32.234  60.150  1.00  0.00     0.000 C 
ENDROOT
BRANCH   1   2
ATOM      2  C   UNL     1      62.445  33.682  60.537  1.00  0.00     0.006 C 
BRANCH   2   3
ATOM      3  C   UNL     1      63.924  33.845  60.912  1.00  0.00     0.053 C 
BRANCH   3   4
ATOM      4  C   UNL     1      64.234  35.242  61.355  1.00  0.00     0.041 C 
ATOM      5  O   UNL     1      65.425  35.588  61.571  1.00  0.00    -0.550 OA
ATOM      6  O   UNL     1      63.211  36.172  61.493  1.00  0.00    -0.550 OA
ENDBRANCH   3   4
ENDBRANCH   2   3
ENDBRANCH   1   2
BRANCH   1   7
ATOM      7  C   UNL     1      61.149  31.562  61.154  1.00  0.00     0.000 C 
BRANCH   7   8
ATOM      8  C   UNL     1      61.724  30.262  61.734  1.00  0.00    -0.000 C 
BRANCH   8   9
ATOM      9  C   UNL     1      63.234  30.170  61.484  1.00  0.00    -0.003 C 
ATOM     10  C   UNL     1      63.650  28.744  61.137  1.00  0.00     0.004 C 
ENDBRANCH   8   9
ENDBRANCH   7   8
ENDBRANCH   1   7
TORSDOF 6
ENDMDL
MODEL 8
REMARK VINA RESULT:    -3.097     12.936     13.642
REMARK INTER + INTRA:          -4.446
REMARK INTER:                  -4.064
REMARK INTRA:                  -0.381
REMARK UNBOUND:                -0.263
REMARK SMILES CCCCCCCC(=O)[O-]
REMARK SMILES IDX 5 1 6 2 7 3 8 4 9 5 10 6 4 7 3 8 2 9 1 10
REMARK H PARENT
REMARK Flexibility Score: inf
ROOT
ATOM      1  C   UNL     1      64.125  32.759  60.637  1.00  0.00     0.000 C 
ENDROOT
BRANCH   1   2
ATOM      2  C   UNL     1      63.361  34.053  60.961  1.00  0.00     0.006 C 
BRANCH   2   3
ATOM      3  C   UNL     1      61.928  34.033  60.411  1.00  0.00     0.053 C 
BRANCH   3   4
ATOM      4  C   UNL     1      61.375  35.416  60.253  1.00  0.00     0.041 C 
ATOM      5  O   UNL     1      61.775  36.348  61.000  1.00  0.00    -0.550 OA
ATOM      6  O   UNL     1      60.444  35.684  59.257  1.00  0.00    -0.550 OA
ENDBRANCH   3   4
ENDBRANCH   2   3
ENDBRANCH   1   2
BRANCH   1   7
ATOM      7  C   UNL     1      63.190  31.567  60.377  1.00  0.00     0.000 C 
BRANCH   7   8
ATOM      8  C   UNL     1      63.430  30.403  61.350  1.00  0.00    -0.000 C 
BRANCH   8   9
ATOM      9  C   UNL     1      62.106  29.741  61.750  1.00  0.00    -0.003 C 
ATOM     10  C   UNL     1      60.962  30.750  61.748  1.00  0.00     0.004 C 
ENDBRANCH   8   9
ENDBRANCH   7   8
ENDBRANCH   1   7
TORSDOF 6
ENDMDL
MODEL 9
REMARK VINA RESULT:    -3.082      2.736      5.275
REMARK INTER + INTRA:          -4.425
REMARK INTER:                  -4.207
REMARK INTRA:                  -0.218
REMARK UNBOUND:                -0.263
REMARK SMILES CCCCCCCC(=O)[O-]
REMARK SMILES IDX 5 1 6 2 7 3 8 4 9 5 10 6 4 7 3 8 2 9 1 10
REMARK H PARENT
REMARK Flexibility Score: inf
ROOT
ATOM      1  C   UNL     1      57.967  29.170  50.230  1.00  0.00     0.000 C 
ENDROOT
BRANCH   1   2
ATOM      2  C   UNL     1      57.098  27.903  50.199  1.00  0.00     0.006 C 
BRANCH   2   3
ATOM      3  C   UNL     1      55.622  28.204  50.492  1.00  0.00     0.053 C 
BRANCH   3   4
ATOM      4  C   UNL     1      54.710  27.237  49.803  1.00  0.00     0.041 C 
ATOM      5  O   UNL     1      53.555  27.596  49.451  1.00  0.00    -0.550 OA
ATOM      6  O   UNL     1      55.147  25.950  49.516  1.00  0.00    -0.550 OA
ENDBRANCH   3   4
ENDBRANCH   2   3
ENDBRANCH   1   2
BRANCH   1   7
ATOM      7  C   UNL     1      59.232  29.043  49.366  1.00  0.00     0.000 C 
BRANCH   7   8
ATOM      8  C   UNL     1      59.651  27.582  49.142  1.00  0.00    -0.000 C 
BRANCH   8   9
ATOM      9  C   UNL     1      60.858  27.218  50.014  1.00  0.00    -0.003 C 
ATOM     10  C   UNL     1      62.165  27.635  49.347  1.00  0.00     0.004 C 
ENDBRANCH   8   9
ENDBRANCH   7   8
ENDBRANCH   1   7
TORSDOF 6
ENDMDL
