MODEL 1
REMARK VINA RESULT:    -4.313      0.000      0.000
REMARK INTER + INTRA:          -5.700
REMARK INTER:                  -5.574
REMARK INTRA:                  -0.126
REMARK UNBOUND:                -0.126
REMARK SMILES CCCCCCC(=O)[O-]
REMARK SMILES IDX 5 1 6 2 7 3 8 4 9 5 4 6 3 7 2 8 1 9
REMARK H PARENT
REMARK Flexibility Score: inf
ROOT
ATOM      1  C   UNL     1      19.200  24.921   8.627  1.00  0.00     0.006 C 
ENDROOT
BRANCH   1   2
ATOM      2  C   UNL     1      17.910  25.713   8.373  1.00  0.00     0.053 C 
BRANCH   2   3
ATOM      3  C   UNL     1      17.981  27.092   8.953  1.00  0.00     0.041 C 
ATOM      4  O   UNL     1      16.935  27.784   9.071  1.00  0.00    -0.550 OA
ATOM      5  O   UNL     1      19.206  27.626   9.332  1.00  0.00    -0.550 OA
ENDBRANCH   2   3
ENDBRANCH   1   2
BRANCH   1   6
ATOM      6  C   UNL     1      19.368  23.752   7.645  1.00  0.00     0.000 C 
BRANCH   6   7
ATOM      7  C   UNL     1      20.771  23.137   7.760  1.00  0.00    -0.000 C 
BRANCH   7   8
ATOM      8  C   UNL     1      21.117  22.228   6.570  1.00  0.00    -0.003 C 
ATOM      9  C   UNL     1      19.951  22.060   5.596  1.00  0.00     0.004 C 
ENDBRANCH   7   8
ENDBRANCH   6   7
ENDBRANCH   1   6
TORSDOF 5
ENDMDL
MODEL 2
REMARK VINA RESULT:    -4.288      3.332      5.051
REMARK INTER + INTRA:          -5.668
REMARK INTER:                  -5.448
REMARK INTRA:                  -0.220
REMARK UNBOUND:                -0.126
REMARK SMILES CCCCCCC(=O)[O-]
REMARK SMILES IDX 5 1 6 2 7 3 8 4 9 5 4 6 3 7 2 8 1 9
REMARK H PARENT
REMARK Flexibility Score: inf
ROOT
ATOM      1  C   UNL     1      20.297  23.948   8.439  1.00  0.00     0.006 C 
ENDROOT
BRANCH   1   2
ATOM      2  C   UNL     1      20.632  23.218   9.747  1.00  0.00     0.053 C 
BRANCH   2   3
ATOM      3  C   UNL     1      19.663  22.111  10.030  1.00  0.00     0.041 C 
ATOM      4  O   UNL     1      19.461  21.210   9.173  1.00  0.00    -0.550 OA
ATOM      5  O   UNL     1      18.957  22.093  11.227  1.00  0.00    -0.550 OA
ENDBRANCH   2   3
ENDBRANCH   1   2
BRANCH   1   6
ATOM      6  C   UNL     1      18.980  24.731   8.531  1.00  0.00     0.000 C 
BRANCH   6   7
ATOM      7  C   UNL     1      19.045  25.784   9.648  1.00  0.00    -0.000 C 
BRANCH   7   8
ATOM      8  C   UNL     1      18.929  27.220   9.114  1.00  0.00    -0.003 C 
ATOM      9  C   UNL     1      17.484  27.631   8.831  1.00  0.00     0.004 C 
ENDBRANCH   7   8
ENDBRANCH   6   7
ENDBRANCH   1   6
TORSDOF 5
ENDMDL
MODEL 3
REMARK VINA RESULT:    -4.263      0.785      1.474
REMARK INTER + INTRA:          -5.634
REMARK INTER:                  -5.416
REMARK INTRA:                  -0.219
REMARK UNBOUND:                -0.126
REMARK SMILES CCCCCCC(=O)[O-]
REMARK SMILES IDX 5 1 6 2 7 3 8 4 9 5 4 6 3 7 2 8 1 9
REMARK H PARENT
REMARK Flexibility Score: inf
ROOT
ATOM      1  C   UNL     1      17.891  24.745   8.158  1.00  0.00     0.006 C 
ENDROOT
BRANCH   1   2
ATOM      2  C   UNL     1      18.411  25.540   9.363  1.00  0.00     0.053 C 
BRANCH   2   3
ATOM      3  C   UNL     1      18.384  27.016   9.109  1.00  0.00     0.041 C 
ATOM      4  O   UNL     1      19.460  27.652   8.952  1.00  0.00    -0.550 OA
ATOM      5  O   UNL     1      17.173  27.695   9.080  1.00  0.00    -0.550 OA
ENDBRANCH   2   3
ENDBRANCH   1   2
BRANCH   1   6
ATOM      6  C   UNL     1      18.946  23.777   7.601  1.00  0.00     0.000 C 
BRANCH   6   7
ATOM      7  C   UNL     1      20.250  23.864   8.407  1.00  0.00    -0.000 C 
BRANCH   7   8
ATOM      8  C   UNL     1      21.375  23.007   7.807  1.00  0.00    -0.003 C 
ATOM      9  C   UNL     1      20.922  22.209   6.584  1.00  0.00     0.004 C 
ENDBRANCH   7   8
ENDBRANCH   6   7
ENDBRANCH   1   6
TORSDOF 5
ENDMDL
MODEL 4
REMARK VINA RESULT:    -4.249      0.743      1.305
REMARK INTER + INTRA:          -5.617
REMARK INTER:                  -5.472
REMARK INTRA:                  -0.145
REMARK UNBOUND:                -0.126
REMARK SMILES CCCCCCC(=O)[O-]
REMARK SMILES IDX 5 1 6 2 7 3 8 4 9 5 4 6 3 7 2 8 1 9
REMARK H PARENT
REMARK Flexibility Score: inf
ROOT
ATOM      1  C   UNL     1      17.808  24.934   7.846  1.00  0.00     0.006 C 
ENDROOT
BRANCH   1   2
ATOM      2  C   UNL     1      17.511  25.623   9.185  1.00  0.00     0.053 C 
BRANCH   2   3
ATOM      3  C   UNL     1      17.813  27.089   9.135  1.00  0.00     0.041 C 
ATOM      4  O   UNL     1      16.876  27.931   9.143  1.00  0.00    -0.550 OA
ATOM      5  O   UNL     1      19.129  27.526   9.043  1.00  0.00    -0.550 OA
ENDBRANCH   2   3
ENDBRANCH   1   2
BRANCH   1   6
ATOM      6  C   UNL     1      19.117  24.130   7.884  1.00  0.00     0.000 C 
BRANCH   6   7
ATOM      7  C   UNL     1      19.168  23.112   6.735  1.00  0.00    -0.000 C 
BRANCH   7   8
ATOM      8  C   UNL     1      20.551  22.460   6.585  1.00  0.00    -0.003 C 
ATOM      9  C   UNL     1      21.487  22.783   7.749  1.00  0.00     0.004 C 
ENDBRANCH   7   8
ENDBRANCH   6   7
ENDBRANCH   1   6
TORSDOF 5
ENDMDL
MODEL 5
REMARK VINA RESULT:    -4.199      3.040      3.689
REMARK INTER + INTRA:          -5.553
REMARK INTER:                  -5.161
REMARK INTRA:                  -0.392
REMARK UNBOUND:                -0.126
REMARK SMILES CCCCCCC(=O)[O-]
REMARK SMILES IDX 5 1 6 2 7 3 8 4 9 5 4 6 3 7 2 8 1 9
REMARK H PARENT
REMARK Flexibility Score: inf
ROOT
ATOM      1  C   UNL     1      21.491  22.891   9.345  1.00  0.00     0.006 C 
ENDROOT
BRANCH   1   2
ATOM      2  C   UNL     1      20.494  23.169  10.478  1.00  0.00     0.053 C 
BRANCH   2   3
ATOM      3  C   UNL     1      19.131  22.632  10.165  1.00  0.00     0.041 C 
ATOM      4  O   UNL     1      18.122  23.382  10.239  1.00  0.00    -0.550 OA
ATOM      5  O   UNL     1      18.971  21.295   9.826  1.00  0.00    -0.550 OA
ENDBRANCH   2   3
ENDBRANCH   1   2
BRANCH   1   6
ATOM      6  C   UNL     1      21.002  23.435   7.994  1.00  0.00     0.000 C 
BRANCH   6   7
ATOM      7  C   UNL     1      21.108  22.362   6.900  1.00  0.00    -0.000 C 
BRANCH   7   8
ATOM      8  C   UNL     1      19.878  22.333   5.980  1.00  0.00    -0.003 C 
ATOM      9  C   UNL     1      18.709  23.149   6.530  1.00  0.00     0.004 C 
ENDBRANCH   7   8
ENDBRANCH   6   7
ENDBRANCH   1   6
TORSDOF 5
ENDMDL
MODEL 6
REMARK VINA RESULT:    -4.199      3.261      5.078
REMARK INTER + INTRA:          -5.552
REMARK INTER:                  -5.314
REMARK INTRA:                  -0.238
REMARK UNBOUND:                -0.126
REMARK SMILES CCCCCCC(=O)[O-]
REMARK SMILES IDX 5 1 6 2 7 3 8 4 9 5 4 6 3 7 2 8 1 9
REMARK H PARENT
REMARK Flexibility Score: inf
ROOT
ATOM      1  C   UNL     1      19.151  23.597   7.373  1.00  0.00     0.006 C 
ENDROOT
BRANCH   1   2
ATOM      2  C   UNL     1      20.539  23.456   8.012  1.00  0.00     0.053 C 
BRANCH   2   3
ATOM      3  C   UNL     1      20.734  22.105   8.628  1.00  0.00     0.041 C 
ATOM      4  O   UNL     1      19.850  21.619   9.382  1.00  0.00    -0.550 OA
ATOM      5  O   UNL     1      21.907  21.398   8.399  1.00  0.00    -0.550 OA
ENDBRANCH   2   3
ENDBRANCH   1   2
BRANCH   1   6
ATOM      6  C   UNL     1      18.305  24.684   8.053  1.00  0.00     0.000 C 
BRANCH   6   7
ATOM      7  C   UNL     1      19.150  25.494   9.048  1.00  0.00    -0.000 C 
BRANCH   7   8
ATOM      8  C   UNL     1      19.033  27.009   8.826  1.00  0.00    -0.003 C 
ATOM      9  C   UNL     1      17.591  27.509   8.899  1.00  0.00     0.004 C 
ENDBRANCH   7   8
ENDBRANCH   6   7
ENDBRANCH   1   6
TORSDOF 5
ENDMDL
MODEL 7
REMARK VINA RESULT:    -4.176      1.481      1.993
REMARK INTER + INTRA:          -5.522
REMARK INTER:                  -5.308
REMARK INTRA:                  -0.214
REMARK UNBOUND:                -0.126
REMARK SMILES CCCCCCC(=O)[O-]
REMARK SMILES IDX 5 1 6 2 7 3 8 4 9 5 4 6 3 7 2 8 1 9
REMARK H PARENT
REMARK Flexibility Score: inf
ROOT
ATOM      1  C   UNL     1      17.514  24.267   8.173  1.00  0.00     0.006 C 
ENDROOT
BRANCH   1   2
ATOM      2  C   UNL     1      17.602  25.791   8.337  1.00  0.00     0.053 C 
BRANCH   2   3
ATOM      3  C   UNL     1      18.712  26.188   9.261  1.00  0.00     0.041 C 
ATOM      4  O   UNL     1      19.263  25.327   9.997  1.00  0.00    -0.550 OA
ATOM      5  O   UNL     1      19.114  27.515   9.335  1.00  0.00    -0.550 OA
ENDBRANCH   2   3
ENDBRANCH   1   2
BRANCH   1   6
ATOM      6  C   UNL     1      17.225  23.854   6.722  1.00  0.00     0.000 C 
BRANCH   6   7
ATOM      7  C   UNL     1      18.389  23.036   6.143  1.00  0.00    -0.000 C 
BRANCH   7   8
ATOM      8  C   UNL     1      19.662  23.133   6.998  1.00  0.00    -0.003 C 
ATOM      9  C   UNL     1      20.791  22.242   6.480  1.00  0.00     0.004 C 
ENDBRANCH   7   8
ENDBRANCH   6   7
ENDBRANCH   1   6
TORSDOF 5
ENDMDL
MODEL 8
REMARK VINA RESULT:    -4.175      1.126      1.324
REMARK INTER + INTRA:          -5.521
REMARK INTER:                  -5.258
REMARK INTRA:                  -0.262
REMARK UNBOUND:                -0.126
REMARK SMILES CCCCCCC(=O)[O-]
REMARK SMILES IDX 5 1 6 2 7 3 8 4 9 5 4 6 3 7 2 8 1 9
REMARK H PARENT
REMARK Flexibility Score: inf
ROOT
ATOM      1  C   UNL     1      19.342  24.012   9.791  1.00  0.00     0.006 C 
ENDROOT
BRANCH   1   2
ATOM      2  C   UNL     1      19.207  25.116   8.734  1.00  0.00     0.053 C 
BRANCH   2   3
ATOM      3  C   UNL     1      18.410  26.278   9.241  1.00  0.00     0.041 C 
ATOM      4  O   UNL     1      17.213  26.117   9.600  1.00  0.00    -0.550 OA
ATOM      5  O   UNL     1      18.977  27.545   9.284  1.00  0.00    -0.550 OA
ENDBRANCH   2   3
ENDBRANCH   1   2
BRANCH   1   6
ATOM      6  C   UNL     1      20.573  23.125   9.553  1.00  0.00     0.000 C 
BRANCH   6   7
ATOM      7  C   UNL     1      21.294  23.526   8.257  1.00  0.00    -0.000 C 
BRANCH   7   8
ATOM      8  C   UNL     1      21.294  22.402   7.209  1.00  0.00    -0.003 C 
ATOM      9  C   UNL     1      20.082  22.460   6.280  1.00  0.00     0.004 C 
ENDBRANCH   7   8
ENDBRANCH   6   7
ENDBRANCH   1   6
TORSDOF 5
ENDMDL
MODEL 9
REMARK VINA RESULT:    -4.119      1.983      2.838
REMARK INTER + INTRA:          -5.449
REMARK INTER:                  -5.191
REMARK INTRA:                  -0.259
REMARK UNBOUND:                -0.126
REMARK SMILES CCCCCCC(=O)[O-]
REMARK SMILES IDX 5 1 6 2 7 3 8 4 9 5 4 6 3 7 2 8 1 9
REMARK H PARENT
REMARK Flexibility Score: inf
ROOT
ATOM      1  C   UNL     1      19.058  24.727   8.197  1.00  0.00     0.006 C 
ENDROOT
BRANCH   1   2
ATOM      2  C   UNL     1      18.443  25.495   9.375  1.00  0.00     0.053 C 
BRANCH   2   3
ATOM      3  C   UNL     1      18.369  26.966   9.102  1.00  0.00     0.041 C 
ATOM      4  O   UNL     1      19.424  27.637   8.951  1.00  0.00    -0.550 OA
ATOM      5  O   UNL     1      17.135  27.602   9.049  1.00  0.00    -0.550 OA
ENDBRANCH   2   3
ENDBRANCH   1   2
BRANCH   1   6
ATOM      6  C   UNL     1      20.210  23.811   8.637  1.00  0.00     0.000 C 
BRANCH   6   7
ATOM      7  C   UNL     1      20.025  23.359  10.093  1.00  0.00    -0.000 C 
BRANCH   7   8
ATOM      8  C   UNL     1      19.326  21.995  10.204  1.00  0.00    -0.003 C 
ATOM      9  C   UNL     1      18.332  21.932  11.363  1.00  0.00     0.004 C 
ENDBRANCH   7   8
ENDBRANCH   6   7
ENDBRANCH   1   6
TORSDOF 5
ENDMDL
