MODEL 1
REMARK VINA RESULT:    -3.389      0.000      0.000
REMARK INTER + INTRA:          -8.039
REMARK INTER:                  -6.361
REMARK INTRA:                  -1.678
REMARK UNBOUND:                -1.678
REMARK SMILES O=C([O-])CCCCCCCCCCCCCCC(=O)[O-]
REMARK SMILES IDX 10 1 9 2 8 3 7 4 6 5 5 6 4 7 2 8 1 9 3 10 11 11 12 12 13 13
REMARK SMILES IDX 14 14 15 15 16 16 17 17 18 18 19 19 20 20
REMARK H PARENT
REMARK Flexibility Score: inf
ROOT
ATOM      1  C   UNL     1      18.667  21.142  43.730  1.00  0.00     0.000 C 
ENDROOT
BRANCH   1   2
ATOM      2  C   UNL     1      19.344  20.642  42.441  1.00  0.00     0.000 C 
BRANCH   2   3
ATOM      3  C   UNL     1      20.727  20.025  42.697  1.00  0.00     0.000 C 
BRANCH   3   4
ATOM      4  C   UNL     1      21.522  20.786  43.773  1.00  0.00     0.000 C 
BRANCH   4   5
ATOM      5  C   UNL     1      22.090  19.857  44.857  1.00  0.00     0.000 C 
BRANCH   5   6
ATOM      6  C   UNL     1      21.759  18.378  44.605  1.00  0.00     0.006 C 
BRANCH   6   7
ATOM      7  C   UNL     1      23.016  17.594  44.214  1.00  0.00     0.053 C 
BRANCH   7   8
ATOM      8  C   UNL     1      22.737  16.710  43.040  1.00  0.00     0.041 C 
ATOM      9  O   UNL     1      22.431  15.501  43.215  1.00  0.00    -0.550 OA
ATOM     10  O   UNL     1      22.869  17.207  41.750  1.00  0.00    -0.550 OA
ENDBRANCH   7   8
ENDBRANCH   6   7
ENDBRANCH   5   6
ENDBRANCH   4   5
ENDBRANCH   3   4
ENDBRANCH   2   3
ENDBRANCH   1   2
BRANCH   1  11
ATOM     11  C   UNL     1      17.263  20.551  43.930  1.00  0.00     0.000 C 
BRANCH  11  12
ATOM     12  C   UNL     1      17.283  19.245  44.744  1.00  0.00     0.000 C 
BRANCH  12  13
ATOM     13  C   UNL     1      18.525  19.129  45.642  1.00  0.00     0.000 C 
BRANCH  13  14
ATOM     14  C   UNL     1      18.238  19.522  47.100  1.00  0.00     0.000 C 
BRANCH  14  15
ATOM     15  C   UNL     1      17.240  18.574  47.787  1.00  0.00     0.000 C 
BRANCH  15  16
ATOM     16  C   UNL     1      16.158  19.304  48.613  1.00  0.00     0.006 C 
BRANCH  16  17
ATOM     17  C   UNL     1      14.770  18.674  48.434  1.00  0.00     0.053 C 
BRANCH  17  18
ATOM     18  C   UNL     1      14.382  18.665  46.990  1.00  0.00     0.041 C 
ATOM     19  O   UNL     1      14.171  17.575  46.397  1.00  0.00    -0.550 OA
ATOM     20  O   UNL     1      14.202  19.864  46.311  1.00  0.00    -0.550 OA
ENDBRANCH  17  18
ENDBRANCH  16  17
ENDBRANCH  15  16
ENDBRANCH  14  15
ENDBRANCH  13  14
ENDBRANCH  12  13
ENDBRANCH  11  12
ENDBRANCH   1  11
TORSDOF 15
ENDMDL
MODEL 2
REMARK VINA RESULT:    -3.280      4.697      7.969
REMARK INTER + INTRA:          -7.835
REMARK INTER:                  -5.305
REMARK INTRA:                  -2.531
REMARK UNBOUND:                -1.678
REMARK SMILES O=C([O-])CCCCCCCCCCCCCCC(=O)[O-]
REMARK SMILES IDX 10 1 9 2 8 3 7 4 6 5 5 6 4 7 2 8 1 9 3 10 11 11 12 12 13 13
REMARK SMILES IDX 14 14 15 15 16 16 17 17 18 18 19 19 20 20
REMARK H PARENT
REMARK Flexibility Score: inf
ROOT
ATOM      1  C   UNL     1      15.621  21.138  51.996  1.00  0.00     0.000 C 
ENDROOT
BRANCH   1   2
ATOM      2  C   UNL     1      14.879  20.043  51.208  1.00  0.00     0.000 C 
BRANCH   2   3
ATOM      3  C   UNL     1      15.576  19.688  49.885  1.00  0.00     0.000 C 
BRANCH   3   4
ATOM      4  C   UNL     1      16.821  20.553  49.624  1.00  0.00     0.000 C 
BRANCH   4   5
ATOM      5  C   UNL     1      17.806  19.892  48.647  1.00  0.00     0.000 C 
BRANCH   5   6
ATOM      6  C   UNL     1      17.401  18.457  48.274  1.00  0.00     0.006 C 
BRANCH   6   7
ATOM      7  C   UNL     1      17.194  18.323  46.762  1.00  0.00     0.053 C 
BRANCH   7   8
ATOM      8  C   UNL     1      15.737  18.386  46.426  1.00  0.00     0.041 C 
ATOM      9  O   UNL     1      15.155  19.499  46.337  1.00  0.00    -0.550 OA
ATOM     10  O   UNL     1      15.010  17.213  46.266  1.00  0.00    -0.550 OA
ENDBRANCH   7   8
ENDBRANCH   6   7
ENDBRANCH   5   6
ENDBRANCH   4   5
ENDBRANCH   3   4
ENDBRANCH   2   3
ENDBRANCH   1   2
BRANCH   1  11
ATOM     11  C   UNL     1      16.047  20.674  53.398  1.00  0.00     0.000 C 
BRANCH  11  12
ATOM     12  C   UNL     1      15.593  19.237  53.707  1.00  0.00     0.000 C 
BRANCH  12  13
ATOM     13  C   UNL     1      16.774  18.262  53.841  1.00  0.00     0.000 C 
BRANCH  13  14
ATOM     14  C   UNL     1      17.045  17.482  52.545  1.00  0.00     0.000 C 
BRANCH  14  15
ATOM     15  C   UNL     1      18.333  17.935  51.836  1.00  0.00     0.000 C 
BRANCH  15  16
ATOM     16  C   UNL     1      19.196  18.904  52.675  1.00  0.00     0.006 C 
BRANCH  16  17
ATOM     17  C   UNL     1      19.736  20.071  51.838  1.00  0.00     0.053 C 
BRANCH  17  18
ATOM     18  C   UNL     1      21.180  20.311  52.145  1.00  0.00     0.041 C 
ATOM     19  O   UNL     1      21.971  19.340  52.274  1.00  0.00    -0.550 OA
ATOM     20  O   UNL     1      21.664  21.610  52.236  1.00  0.00    -0.550 OA
ENDBRANCH  17  18
ENDBRANCH  16  17
ENDBRANCH  15  16
ENDBRANCH  14  15
ENDBRANCH  13  14
ENDBRANCH  12  13
ENDBRANCH  11  12
ENDBRANCH   1  11
TORSDOF 15
ENDMDL
MODEL 3
REMARK VINA RESULT:    -3.259     13.264     16.015
REMARK INTER + INTRA:          -7.796
REMARK INTER:                  -6.160
REMARK INTRA:                  -1.636
REMARK UNBOUND:                -1.678
REMARK SMILES O=C([O-])CCCCCCCCCCCCCCC(=O)[O-]
REMARK SMILES IDX 10 1 9 2 8 3 7 4 6 5 5 6 4 7 2 8 1 9 3 10 11 11 12 12 13 13
REMARK SMILES IDX 14 14 15 15 16 16 17 17 18 18 19 19 20 20
REMARK H PARENT
REMARK Flexibility Score: inf
ROOT
ATOM      1  C   UNL     1      19.348  27.547  55.821  1.00  0.00     0.000 C 
ENDROOT
BRANCH   1   2
ATOM      2  C   UNL     1      19.713  28.582  54.741  1.00  0.00     0.000 C 
BRANCH   2   3
ATOM      3  C   UNL     1      18.914  29.888  54.874  1.00  0.00     0.000 C 
BRANCH   3   4
ATOM      4  C   UNL     1      17.623  29.876  54.038  1.00  0.00     0.000 C 
BRANCH   4   5
ATOM      5  C   UNL     1      16.363  29.680  54.896  1.00  0.00     0.000 C 
BRANCH   5   6
ATOM      6  C   UNL     1      15.494  28.506  54.417  1.00  0.00     0.006 C 
BRANCH   6   7
ATOM      7  C   UNL     1      16.208  27.708  53.321  1.00  0.00     0.053 C 
BRANCH   7   8
ATOM      8  C   UNL     1      15.370  27.654  52.083  1.00  0.00     0.041 C 
ATOM      9  O   UNL     1      15.895  27.376  50.973  1.00  0.00    -0.550 OA
ATOM     10  O   UNL     1      14.017  27.964  52.147  1.00  0.00    -0.550 OA
ENDBRANCH   7   8
ENDBRANCH   6   7
ENDBRANCH   5   6
ENDBRANCH   4   5
ENDBRANCH   3   4
ENDBRANCH   2   3
ENDBRANCH   1   2
BRANCH   1  11
ATOM     11  C   UNL     1      18.752  28.192  57.082  1.00  0.00     0.000 C 
BRANCH  11  12
ATOM     12  C   UNL     1      19.549  27.849  58.353  1.00  0.00     0.000 C 
BRANCH  12  13
ATOM     13  C   UNL     1      20.372  29.039  58.872  1.00  0.00     0.000 C 
BRANCH  13  14
ATOM     14  C   UNL     1      21.819  29.026  58.355  1.00  0.00     0.000 C 
BRANCH  14  15
ATOM     15  C   UNL     1      22.083  30.114  57.299  1.00  0.00     0.000 C 
BRANCH  15  16
ATOM     16  C   UNL     1      23.525  30.104  56.745  1.00  0.00     0.006 C 
BRANCH  16  17
ATOM     17  C   UNL     1      23.563  30.346  55.230  1.00  0.00     0.053 C 
BRANCH  17  18
ATOM     18  C   UNL     1      24.877  30.937  54.827  1.00  0.00     0.041 C 
ATOM     19  O   UNL     1      25.954  30.416  55.220  1.00  0.00    -0.550 OA
ATOM     20  O   UNL     1      24.913  32.033  53.974  1.00  0.00    -0.550 OA
ENDBRANCH  17  18
ENDBRANCH  16  17
ENDBRANCH  15  16
ENDBRANCH  14  15
ENDBRANCH  13  14
ENDBRANCH  12  13
ENDBRANCH  11  12
ENDBRANCH   1  11
TORSDOF 15
ENDMDL
MODEL 4
REMARK VINA RESULT:    -3.245     17.001     18.847
REMARK INTER + INTRA:          -7.768
REMARK INTER:                  -5.100
REMARK INTRA:                  -2.669
REMARK UNBOUND:                -1.678
REMARK SMILES O=C([O-])CCCCCCCCCCCCCCC(=O)[O-]
REMARK SMILES IDX 10 1 9 2 8 3 7 4 6 5 5 6 4 7 2 8 1 9 3 10 11 11 12 12 13 13
REMARK SMILES IDX 14 14 15 15 16 16 17 17 18 18 19 19 20 20
REMARK H PARENT
REMARK Flexibility Score: inf
ROOT
ATOM      1  C   UNL     1      25.043  31.533  54.135  1.00  0.00     0.000 C 
ENDROOT
BRANCH   1   2
ATOM      2  C   UNL     1      25.366  32.233  52.802  1.00  0.00     0.000 C 
BRANCH   2   3
ATOM      3  C   UNL     1      25.473  33.759  52.942  1.00  0.00     0.000 C 
BRANCH   3   4
ATOM      4  C   UNL     1      26.666  34.189  53.813  1.00  0.00     0.000 C 
BRANCH   4   5
ATOM      5  C   UNL     1      28.011  33.691  53.262  1.00  0.00     0.000 C 
BRANCH   5   6
ATOM      6  C   UNL     1      29.172  33.899  54.248  1.00  0.00     0.006 C 
BRANCH   6   7
ATOM      7  C   UNL     1      30.506  33.492  53.617  1.00  0.00     0.053 C 
BRANCH   7   8
ATOM      8  C   UNL     1      31.244  32.550  54.516  1.00  0.00     0.041 C 
ATOM      9  O   UNL     1      30.987  32.519  55.749  1.00  0.00    -0.550 OA
ATOM     10  O   UNL     1      32.254  31.747  54.002  1.00  0.00    -0.550 OA
ENDBRANCH   7   8
ENDBRANCH   6   7
ENDBRANCH   5   6
ENDBRANCH   4   5
ENDBRANCH   3   4
ENDBRANCH   2   3
ENDBRANCH   1   2
BRANCH   1  11
ATOM     11  C   UNL     1      25.915  30.292  54.380  1.00  0.00     0.000 C 
BRANCH  11  12
ATOM     12  C   UNL     1      27.102  30.579  55.315  1.00  0.00     0.000 C 
BRANCH  12  13
ATOM     13  C   UNL     1      28.455  30.224  54.677  1.00  0.00     0.000 C 
BRANCH  13  14
ATOM     14  C   UNL     1      28.351  29.997  53.160  1.00  0.00     0.000 C 
BRANCH  14  15
ATOM     15  C   UNL     1      29.721  29.777  52.496  1.00  0.00     0.000 C 
BRANCH  15  16
ATOM     16  C   UNL     1      29.973  30.691  51.277  1.00  0.00     0.006 C 
BRANCH  16  17
ATOM     17  C   UNL     1      28.665  31.184  50.642  1.00  0.00     0.053 C 
BRANCH  17  18
ATOM     18  C   UNL     1      28.863  32.524  50.009  1.00  0.00     0.041 C 
ATOM     19  O   UNL     1      29.992  33.080  50.041  1.00  0.00    -0.550 OA
ATOM     20  O   UNL     1      27.812  33.137  49.338  1.00  0.00    -0.550 OA
ENDBRANCH  17  18
ENDBRANCH  16  17
ENDBRANCH  15  16
ENDBRANCH  14  15
ENDBRANCH  13  14
ENDBRANCH  12  13
ENDBRANCH  11  12
ENDBRANCH   1  11
TORSDOF 15
ENDMDL
MODEL 5
REMARK VINA RESULT:    -3.234      3.373      7.212
REMARK INTER + INTRA:          -7.748
REMARK INTER:                  -5.256
REMARK INTRA:                  -2.492
REMARK UNBOUND:                -1.678
REMARK SMILES O=C([O-])CCCCCCCCCCCCCCC(=O)[O-]
REMARK SMILES IDX 10 1 9 2 8 3 7 4 6 5 5 6 4 7 2 8 1 9 3 10 11 11 12 12 13 13
REMARK SMILES IDX 14 14 15 15 16 16 17 17 18 18 19 19 20 20
REMARK H PARENT
REMARK Flexibility Score: inf
ROOT
ATOM      1  C   UNL     1      14.331  20.340  49.188  1.00  0.00     0.000 C 
ENDROOT
BRANCH   1   2
ATOM      2  C   UNL     1      15.076  21.366  48.315  1.00  0.00     0.000 C 
BRANCH   2   3
ATOM      3  C   UNL     1      16.477  21.697  48.852  1.00  0.00     0.000 C 
BRANCH   3   4
ATOM      4  C   UNL     1      16.870  20.819  50.052  1.00  0.00     0.000 C 
BRANCH   4   5
ATOM      5  C   UNL     1      18.014  19.846  49.724  1.00  0.00     0.000 C 
BRANCH   5   6
ATOM      6  C   UNL     1      17.631  18.377  49.962  1.00  0.00     0.006 C 
BRANCH   6   7
ATOM      7  C   UNL     1      18.366  17.810  51.180  1.00  0.00     0.053 C 
BRANCH   7   8
ATOM      8  C   UNL     1      17.541  17.983  52.416  1.00  0.00     0.041 C 
ATOM      9  O   UNL     1      17.932  18.748  53.337  1.00  0.00    -0.550 OA
ATOM     10  O   UNL     1      16.367  17.257  52.576  1.00  0.00    -0.550 OA
ENDBRANCH   7   8
ENDBRANCH   6   7
ENDBRANCH   5   6
ENDBRANCH   4   5
ENDBRANCH   3   4
ENDBRANCH   2   3
ENDBRANCH   1   2
BRANCH   1  11
ATOM     11  C   UNL     1      14.203  18.967  48.510  1.00  0.00     0.000 C 
BRANCH  11  12
ATOM     12  C   UNL     1      14.508  19.022  47.003  1.00  0.00     0.000 C 
BRANCH  12  13
ATOM     13  C   UNL     1      15.477  17.915  46.557  1.00  0.00     0.000 C 
BRANCH  13  14
ATOM     14  C   UNL     1      16.899  18.441  46.305  1.00  0.00     0.000 C 
BRANCH  14  15
ATOM     15  C   UNL     1      16.916  19.732  45.467  1.00  0.00     0.000 C 
BRANCH  15  16
ATOM     16  C   UNL     1      18.136  20.637  45.748  1.00  0.00     0.006 C 
BRANCH  16  17
ATOM     17  C   UNL     1      19.344  19.840  46.258  1.00  0.00     0.053 C 
BRANCH  17  18
ATOM     18  C   UNL     1      20.518  20.032  45.352  1.00  0.00     0.041 C 
ATOM     19  O   UNL     1      21.307  19.077  45.125  1.00  0.00    -0.550 OA
ATOM     20  O   UNL     1      20.712  21.251  44.715  1.00  0.00    -0.550 OA
ENDBRANCH  17  18
ENDBRANCH  16  17
ENDBRANCH  15  16
ENDBRANCH  14  15
ENDBRANCH  13  14
ENDBRANCH  12  13
ENDBRANCH  11  12
ENDBRANCH   1  11
TORSDOF 15
ENDMDL
MODEL 6
REMARK VINA RESULT:    -3.225      3.844      5.533
REMARK INTER + INTRA:          -7.730
REMARK INTER:                  -5.965
REMARK INTRA:                  -1.765
REMARK UNBOUND:                -1.678
REMARK SMILES O=C([O-])CCCCCCCCCCCCCCC(=O)[O-]
REMARK SMILES IDX 10 1 9 2 8 3 7 4 6 5 5 6 4 7 2 8 1 9 3 10 11 11 12 12 13 13
REMARK SMILES IDX 14 14 15 15 16 16 17 17 18 18 19 19 20 20
REMARK H PARENT
REMARK Flexibility Score: inf
ROOT
ATOM      1  C   UNL     1      14.610  19.356  47.203  1.00  0.00     0.000 C 
ENDROOT
BRANCH   1   2
ATOM      2  C   UNL     1      15.160  18.012  46.690  1.00  0.00     0.000 C 
BRANCH   2   3
ATOM      3  C   UNL     1      16.512  18.157  45.975  1.00  0.00     0.000 C 
BRANCH   3   4
ATOM      4  C   UNL     1      16.721  19.563  45.388  1.00  0.00     0.000 C 
BRANCH   4   5
ATOM      5  C   UNL     1      18.054  19.699  44.636  1.00  0.00     0.000 C 
BRANCH   5   6
ATOM      6  C   UNL     1      19.251  19.181  45.450  1.00  0.00     0.006 C 
BRANCH   6   7
ATOM      7  C   UNL     1      19.589  20.139  46.596  1.00  0.00     0.053 C 
BRANCH   7   8
ATOM      8  C   UNL     1      20.946  20.736  46.395  1.00  0.00     0.041 C 
ATOM      9  O   UNL     1      21.871  20.050  45.885  1.00  0.00    -0.550 OA
ATOM     10  O   UNL     1      21.206  22.032  46.823  1.00  0.00    -0.550 OA
ENDBRANCH   7   8
ENDBRANCH   6   7
ENDBRANCH   5   6
ENDBRANCH   4   5
ENDBRANCH   3   4
ENDBRANCH   2   3
ENDBRANCH   1   2
BRANCH   1  11
ATOM     11  C   UNL     1      13.998  19.248  48.608  1.00  0.00     0.000 C 
BRANCH  11  12
ATOM     12  C   UNL     1      15.064  19.240  49.717  1.00  0.00     0.000 C 
BRANCH  12  13
ATOM     13  C   UNL     1      16.053  20.411  49.595  1.00  0.00     0.000 C 
BRANCH  13  14
ATOM     14  C   UNL     1      17.515  19.968  49.762  1.00  0.00     0.000 C 
BRANCH  14  15
ATOM     15  C   UNL     1      17.664  18.443  49.897  1.00  0.00     0.000 C 
BRANCH  15  16
ATOM     16  C   UNL     1      18.193  17.991  51.276  1.00  0.00     0.006 C 
BRANCH  16  17
ATOM     17  C   UNL     1      17.059  17.561  52.217  1.00  0.00     0.053 C 
BRANCH  17  18
ATOM     18  C   UNL     1      17.036  18.425  53.437  1.00  0.00     0.041 C 
ATOM     19  O   UNL     1      18.044  19.112  53.748  1.00  0.00    -0.550 OA
ATOM     20  O   UNL     1      15.881  18.513  54.205  1.00  0.00    -0.550 OA
ENDBRANCH  17  18
ENDBRANCH  16  17
ENDBRANCH  15  16
ENDBRANCH  14  15
ENDBRANCH  13  14
ENDBRANCH  12  13
ENDBRANCH  11  12
ENDBRANCH   1  11
TORSDOF 15
ENDMDL
MODEL 7
REMARK VINA RESULT:    -3.217      3.776      6.445
REMARK INTER + INTRA:          -7.717
REMARK INTER:                  -5.727
REMARK INTRA:                  -1.990
REMARK UNBOUND:                -1.678
REMARK SMILES O=C([O-])CCCCCCCCCCCCCCC(=O)[O-]
REMARK SMILES IDX 10 1 9 2 8 3 7 4 6 5 5 6 4 7 2 8 1 9 3 10 11 11 12 12 13 13
REMARK SMILES IDX 14 14 15 15 16 16 17 17 18 18 19 19 20 20
REMARK H PARENT
REMARK Flexibility Score: inf
ROOT
ATOM      1  C   UNL     1      14.121  19.881  48.948  1.00  0.00     0.000 C 
ENDROOT
BRANCH   1   2
ATOM      2  C   UNL     1      14.212  18.636  48.047  1.00  0.00     0.000 C 
BRANCH   2   3
ATOM      3  C   UNL     1      14.855  18.936  46.683  1.00  0.00     0.000 C 
BRANCH   3   4
ATOM      4  C   UNL     1      15.982  17.948  46.334  1.00  0.00     0.000 C 
BRANCH   4   5
ATOM      5  C   UNL     1      17.381  18.554  46.529  1.00  0.00     0.000 C 
BRANCH   5   6
ATOM      6  C   UNL     1      17.358  20.088  46.610  1.00  0.00     0.006 C 
BRANCH   6   7
ATOM      7  C   UNL     1      18.071  20.711  45.405  1.00  0.00     0.053 C 
BRANCH   7   8
ATOM      8  C   UNL     1      17.183  20.685  44.201  1.00  0.00     0.041 C 
ATOM      9  O   UNL     1      17.476  19.963  43.212  1.00  0.00    -0.550 OA
ATOM     10  O   UNL     1      16.060  21.501  44.149  1.00  0.00    -0.550 OA
ENDBRANCH   7   8
ENDBRANCH   6   7
ENDBRANCH   5   6
ENDBRANCH   4   5
ENDBRANCH   3   4
ENDBRANCH   2   3
ENDBRANCH   1   2
BRANCH   1  11
ATOM     11  C   UNL     1      15.380  20.086  49.805  1.00  0.00     0.000 C 
BRANCH  11  12
ATOM     12  C   UNL     1      15.914  18.769  50.395  1.00  0.00     0.000 C 
BRANCH  12  13
ATOM     13  C   UNL     1      17.442  18.647  50.279  1.00  0.00     0.000 C 
BRANCH  13  14
ATOM     14  C   UNL     1      18.064  17.889  51.463  1.00  0.00     0.000 C 
BRANCH  14  15
ATOM     15  C   UNL     1      17.033  17.527  52.547  1.00  0.00     0.000 C 
BRANCH  15  16
ATOM     16  C   UNL     1      17.199  18.331  53.855  1.00  0.00     0.006 C 
BRANCH  16  17
ATOM     17  C   UNL     1      15.852  18.803  54.419  1.00  0.00     0.053 C 
BRANCH  17  18
ATOM     18  C   UNL     1      15.409  20.057  53.737  1.00  0.00     0.041 C 
ATOM     19  O   UNL     1      16.258  20.856  53.262  1.00  0.00    -0.550 OA
ATOM     20  O   UNL     1      14.053  20.320  53.578  1.00  0.00    -0.550 OA
ENDBRANCH  17  18
ENDBRANCH  16  17
ENDBRANCH  15  16
ENDBRANCH  14  15
ENDBRANCH  13  14
ENDBRANCH  12  13
ENDBRANCH  11  12
ENDBRANCH   1  11
TORSDOF 15
ENDMDL
MODEL 8
REMARK VINA RESULT:    -3.201     16.633     18.216
REMARK INTER + INTRA:          -7.687
REMARK INTER:                  -5.293
REMARK INTRA:                  -2.394
REMARK UNBOUND:                -1.678
REMARK SMILES O=C([O-])CCCCCCCCCCCCCCC(=O)[O-]
REMARK SMILES IDX 10 1 9 2 8 3 7 4 6 5 5 6 4 7 2 8 1 9 3 10 11 11 12 12 13 13
REMARK SMILES IDX 14 14 15 15 16 16 17 17 18 18 19 19 20 20
REMARK H PARENT
REMARK Flexibility Score: inf
ROOT
ATOM      1  C   UNL     1      27.737  33.551  54.112  1.00  0.00     0.000 C 
ENDROOT
BRANCH   1   2
ATOM      2  C   UNL     1      29.056  34.341  54.179  1.00  0.00     0.000 C 
BRANCH   2   3
ATOM      3  C   UNL     1      30.156  33.739  53.291  1.00  0.00     0.000 C 
BRANCH   3   4
ATOM      4  C   UNL     1      29.620  32.648  52.348  1.00  0.00     0.000 C 
BRANCH   4   5
ATOM      5  C   UNL     1      29.862  32.976  50.866  1.00  0.00     0.000 C 
BRANCH   5   6
ATOM      6  C   UNL     1      28.752  32.437  49.949  1.00  0.00     0.006 C 
BRANCH   6   7
ATOM      7  C   UNL     1      27.399  33.062  50.302  1.00  0.00     0.053 C 
BRANCH   7   8
ATOM      8  C   UNL     1      26.289  32.325  49.621  1.00  0.00     0.041 C 
ATOM      9  O   UNL     1      26.520  31.240  49.026  1.00  0.00    -0.550 OA
ATOM     10  O   UNL     1      25.009  32.864  49.597  1.00  0.00    -0.550 OA
ENDBRANCH   7   8
ENDBRANCH   6   7
ENDBRANCH   5   6
ENDBRANCH   4   5
ENDBRANCH   3   4
ENDBRANCH   2   3
ENDBRANCH   1   2
BRANCH   1  11
ATOM     11  C   UNL     1      26.529  34.442  53.784  1.00  0.00     0.000 C 
BRANCH  11  12
ATOM     12  C   UNL     1      25.325  33.636  53.266  1.00  0.00     0.000 C 
BRANCH  12  13
ATOM     13  C   UNL     1      25.251  32.227  53.877  1.00  0.00     0.000 C 
BRANCH  13  14
ATOM     14  C   UNL     1      25.220  31.122  52.809  1.00  0.00     0.000 C 
BRANCH  14  15
ATOM     15  C   UNL     1      26.384  30.126  52.949  1.00  0.00     0.000 C 
BRANCH  15  16
ATOM     16  C   UNL     1      26.918  29.995  54.392  1.00  0.00     0.006 C 
BRANCH  16  17
ATOM     17  C   UNL     1      28.450  29.914  54.437  1.00  0.00     0.053 C 
BRANCH  17  18
ATOM     18  C   UNL     1      28.973  30.559  55.680  1.00  0.00     0.041 C 
ATOM     19  O   UNL     1      28.176  30.984  56.558  1.00  0.00    -0.550 OA
ATOM     20  O   UNL     1      30.343  30.645  55.896  1.00  0.00    -0.550 OA
ENDBRANCH  17  18
ENDBRANCH  16  17
ENDBRANCH  15  16
ENDBRANCH  14  15
ENDBRANCH  13  14
ENDBRANCH  12  13
ENDBRANCH  11  12
ENDBRANCH   1  11
TORSDOF 15
ENDMDL
MODEL 9
REMARK VINA RESULT:    -3.187     13.175     15.876
REMARK INTER + INTRA:          -7.660
REMARK INTER:                  -5.447
REMARK INTRA:                  -2.213
REMARK UNBOUND:                -1.678
REMARK SMILES O=C([O-])CCCCCCCCCCCCCCC(=O)[O-]
REMARK SMILES IDX 10 1 9 2 8 3 7 4 6 5 5 6 4 7 2 8 1 9 3 10 11 11 12 12 13 13
REMARK SMILES IDX 14 14 15 15 16 16 17 17 18 18 19 19 20 20
REMARK H PARENT
REMARK Flexibility Score: inf
ROOT
ATOM      1  C   UNL     1      19.342  27.282  55.476  1.00  0.00     0.000 C 
ENDROOT
BRANCH   1   2
ATOM      2  C   UNL     1      19.952  28.514  54.783  1.00  0.00     0.000 C 
BRANCH   2   3
ATOM      3  C   UNL     1      19.074  29.768  54.919  1.00  0.00     0.000 C 
BRANCH   3   4
ATOM      4  C   UNL     1      17.844  29.729  53.995  1.00  0.00     0.000 C 
BRANCH   4   5
ATOM      5  C   UNL     1      16.521  29.861  54.765  1.00  0.00     0.000 C 
BRANCH   5   6
ATOM      6  C   UNL     1      15.519  28.749  54.417  1.00  0.00     0.006 C 
BRANCH   6   7
ATOM      7  C   UNL     1      16.167  27.686  53.526  1.00  0.00     0.053 C 
BRANCH   7   8
ATOM      8  C   UNL     1      15.998  26.326  54.126  1.00  0.00     0.041 C 
ATOM      9  O   UNL     1      15.753  26.201  55.354  1.00  0.00    -0.550 OA
ATOM     10  O   UNL     1      16.166  25.194  53.338  1.00  0.00    -0.550 OA
ENDBRANCH   7   8
ENDBRANCH   6   7
ENDBRANCH   5   6
ENDBRANCH   4   5
ENDBRANCH   3   4
ENDBRANCH   2   3
ENDBRANCH   1   2
BRANCH   1  11
ATOM     11  C   UNL     1      18.684  27.624  56.822  1.00  0.00     0.000 C 
BRANCH  11  12
ATOM     12  C   UNL     1      19.609  27.343  58.019  1.00  0.00     0.000 C 
BRANCH  12  13
ATOM     13  C   UNL     1      19.930  28.611  58.827  1.00  0.00     0.000 C 
BRANCH  13  14
ATOM     14  C   UNL     1      21.408  29.019  58.723  1.00  0.00     0.000 C 
BRANCH  14  15
ATOM     15  C   UNL     1      21.607  30.355  57.985  1.00  0.00     0.000 C 
BRANCH  15  16
ATOM     16  C   UNL     1      22.520  30.249  56.744  1.00  0.00     0.006 C 
BRANCH  16  17
ATOM     17  C   UNL     1      23.230  28.890  56.662  1.00  0.00     0.053 C 
BRANCH  17  18
ATOM     18  C   UNL     1      24.711  29.078  56.588  1.00  0.00     0.041 C 
ATOM     19  O   UNL     1      25.290  29.873  57.374  1.00  0.00    -0.550 OA
ATOM     20  O   UNL     1      25.461  28.334  55.686  1.00  0.00    -0.550 OA
ENDBRANCH  17  18
ENDBRANCH  16  17
ENDBRANCH  15  16
ENDBRANCH  14  15
ENDBRANCH  13  14
ENDBRANCH  12  13
ENDBRANCH  11  12
ENDBRANCH   1  11
TORSDOF 15
ENDMDL
