MODEL 1
REMARK VINA RESULT:    -0.515      0.000      0.000
REMARK INTER + INTRA:          -1.498
REMARK INTER:                  -0.786
REMARK INTRA:                  -0.712
REMARK UNBOUND:                -0.712
REMARK SMILES CCCCCCCCCCC(=O)[O-]
REMARK SMILES IDX 7 1 8 2 9 3 10 4 11 5 12 6 13 7 6 8 5 9 4 10 3 11 2 12 1 13
REMARK H PARENT
REMARK Flexibility Score: inf
ROOT
ATOM      1  C   UNL     1      23.837  54.688  31.822  1.00  0.00     0.000 C 
ENDROOT
BRANCH   1   2
ATOM      2  C   UNL     1      22.426  54.093  31.884  1.00  0.00     0.000 C 
BRANCH   2   3
ATOM      3  C   UNL     1      21.924  53.717  30.482  1.00  0.00     0.006 C 
BRANCH   3   4
ATOM      4  C   UNL     1      22.881  52.761  29.759  1.00  0.00     0.053 C 
BRANCH   4   5
ATOM      5  C   UNL     1      22.355  52.359  28.415  1.00  0.00     0.041 C 
ATOM      6  O   UNL     1      22.946  51.474  27.742  1.00  0.00    -0.550 OA
ATOM      7  O   UNL     1      21.194  52.939  27.918  1.00  0.00    -0.550 OA
ENDBRANCH   4   5
ENDBRANCH   3   4
ENDBRANCH   2   3
ENDBRANCH   1   2
BRANCH   1   8
ATOM      8  C   UNL     1      24.313  55.123  33.216  1.00  0.00     0.000 C 
BRANCH   8   9
ATOM      9  C   UNL     1      23.709  54.271  34.346  1.00  0.00    -0.000 C 
BRANCH   9  10
ATOM     10  C   UNL     1      23.154  55.069  35.543  1.00  0.00    -0.000 C 
BRANCH  10  11
ATOM     11  C   UNL     1      21.654  54.865  35.825  1.00  0.00    -0.000 C 
BRANCH  11  12
ATOM     12  C   UNL     1      21.202  53.412  35.621  1.00  0.00    -0.003 C 
ATOM     13  C   UNL     1      20.087  53.324  34.583  1.00  0.00     0.004 C 
ENDBRANCH  11  12
ENDBRANCH  10  11
ENDBRANCH   9  10
ENDBRANCH   8   9
ENDBRANCH   1   8
TORSDOF 9
ENDMDL
MODEL 2
REMARK VINA RESULT:    -0.479      2.654      5.533
REMARK INTER + INTRA:          -1.443
REMARK INTER:                  -0.944
REMARK INTRA:                  -0.500
REMARK UNBOUND:                -0.712
REMARK SMILES CCCCCCCCCCC(=O)[O-]
REMARK SMILES IDX 7 1 8 2 9 3 10 4 11 5 12 6 13 7 6 8 5 9 4 10 3 11 2 12 1 13
REMARK H PARENT
REMARK Flexibility Score: inf
ROOT
ATOM      1  C   UNL     1      23.904  54.050  33.713  1.00  0.00     0.000 C 
ENDROOT
BRANCH   1   2
ATOM      2  C   UNL     1      23.636  54.804  35.020  1.00  0.00     0.000 C 
BRANCH   2   3
ATOM      3  C   UNL     1      22.468  54.172  35.792  1.00  0.00     0.006 C 
BRANCH   3   4
ATOM      4  C   UNL     1      21.115  54.780  35.400  1.00  0.00     0.053 C 
BRANCH   4   5
ATOM      5  C   UNL     1      20.337  53.870  34.501  1.00  0.00     0.041 C 
ATOM      6  O   UNL     1      19.876  52.784  34.944  1.00  0.00    -0.550 OA
ATOM      7  O   UNL     1      20.091  54.234  33.183  1.00  0.00    -0.550 OA
ENDBRANCH   4   5
ENDBRANCH   3   4
ENDBRANCH   2   3
ENDBRANCH   1   2
BRANCH   1   8
ATOM      8  C   UNL     1      23.587  54.930  32.494  1.00  0.00     0.000 C 
BRANCH   8   9
ATOM      9  C   UNL     1      24.660  54.836  31.394  1.00  0.00    -0.000 C 
BRANCH   9  10
ATOM     10  C   UNL     1      24.648  53.529  30.577  1.00  0.00    -0.000 C 
BRANCH  10  11
ATOM     11  C   UNL     1      23.253  53.042  30.144  1.00  0.00    -0.000 C 
BRANCH  11  12
ATOM     12  C   UNL     1      23.297  52.130  28.910  1.00  0.00    -0.003 C 
ATOM     13  C   UNL     1      22.079  52.354  28.019  1.00  0.00     0.004 C 
ENDBRANCH  11  12
ENDBRANCH  10  11
ENDBRANCH   9  10
ENDBRANCH   8   9
ENDBRANCH   1   8
TORSDOF 9
ENDMDL
MODEL 3
REMARK VINA RESULT:    -0.150     21.751     22.802
REMARK INTER + INTRA:          -0.941
REMARK INTER:                  -0.852
REMARK INTRA:                  -0.088
REMARK UNBOUND:                -0.712
REMARK SMILES CCCCCCCCCCC(=O)[O-]
REMARK SMILES IDX 7 1 8 2 9 3 10 4 11 5 12 6 13 7 6 8 5 9 4 10 3 11 2 12 1 13
REMARK H PARENT
REMARK Flexibility Score: inf
ROOT
ATOM      1  C   UNL     1      24.974  35.051  19.655  1.00  0.00     0.000 C 
ENDROOT
BRANCH   1   2
ATOM      2  C   UNL     1      25.317  35.782  18.351  1.00  0.00     0.000 C 
BRANCH   2   3
ATOM      3  C   UNL     1      24.085  35.896  17.443  1.00  0.00     0.006 C 
BRANCH   3   4
ATOM      4  C   UNL     1      22.793  35.484  18.160  1.00  0.00     0.053 C 
BRANCH   4   5
ATOM      5  C   UNL     1      21.687  36.466  17.920  1.00  0.00     0.041 C 
ATOM      6  O   UNL     1      21.375  36.793  16.744  1.00  0.00    -0.550 OA
ATOM      7  O   UNL     1      20.979  36.995  18.992  1.00  0.00    -0.550 OA
ENDBRANCH   4   5
ENDBRANCH   3   4
ENDBRANCH   2   3
ENDBRANCH   1   2
BRANCH   1   8
ATOM      8  C   UNL     1      25.820  35.581  20.822  1.00  0.00     0.000 C 
BRANCH   8   9
ATOM      9  C   UNL     1      27.183  34.878  20.940  1.00  0.00    -0.000 C 
BRANCH   9  10
ATOM     10  C   UNL     1      28.054  34.919  19.668  1.00  0.00    -0.000 C 
BRANCH  10  11
ATOM     11  C   UNL     1      29.474  35.478  19.867  1.00  0.00    -0.000 C 
BRANCH  11  12
ATOM     12  C   UNL     1      30.149  34.953  21.142  1.00  0.00    -0.003 C 
ATOM     13  C   UNL     1      31.563  35.506  21.283  1.00  0.00     0.004 C 
ENDBRANCH  11  12
ENDBRANCH  10  11
ENDBRANCH   9  10
ENDBRANCH   8   9
ENDBRANCH   1   8
TORSDOF 9
ENDMDL
MODEL 4
REMARK VINA RESULT:    -0.002      2.974      6.417
REMARK INTER + INTRA:          -0.715
REMARK INTER:                  -0.321
REMARK INTRA:                  -0.394
REMARK UNBOUND:                -0.712
REMARK SMILES CCCCCCCCCCC(=O)[O-]
REMARK SMILES IDX 7 1 8 2 9 3 10 4 11 5 12 6 13 7 6 8 5 9 4 10 3 11 2 12 1 13
REMARK H PARENT
REMARK Flexibility Score: inf
ROOT
ATOM      1  C   UNL     1      24.516  54.734  31.726  1.00  0.00     0.000 C 
ENDROOT
BRANCH   1   2
ATOM      2  C   UNL     1      24.302  55.125  33.193  1.00  0.00     0.000 C 
BRANCH   2   3
ATOM      3  C   UNL     1      23.511  54.042  33.942  1.00  0.00     0.006 C 
BRANCH   3   4
ATOM      4  C   UNL     1      22.500  54.638  34.929  1.00  0.00     0.053 C 
BRANCH   4   5
ATOM      5  C   UNL     1      21.104  54.177  34.641  1.00  0.00     0.041 C 
ATOM      6  O   UNL     1      20.457  54.678  33.683  1.00  0.00    -0.550 OA
ATOM      7  O   UNL     1      20.529  53.171  35.408  1.00  0.00    -0.550 OA
ENDBRANCH   4   5
ENDBRANCH   3   4
ENDBRANCH   2   3
ENDBRANCH   1   2
BRANCH   1   8
ATOM      8  C   UNL     1      23.377  53.836  31.223  1.00  0.00     0.000 C 
BRANCH   8   9
ATOM      9  C   UNL     1      23.741  53.071  29.938  1.00  0.00    -0.000 C 
BRANCH   9  10
ATOM     10  C   UNL     1      22.544  52.479  29.167  1.00  0.00    -0.000 C 
BRANCH  10  11
ATOM     11  C   UNL     1      22.899  51.799  27.832  1.00  0.00    -0.000 C 
BRANCH  11  12
ATOM     12  C   UNL     1      23.284  52.802  26.736  1.00  0.00    -0.003 C 
ATOM     13  C   UNL     1      23.893  52.092  25.531  1.00  0.00     0.004 C 
ENDBRANCH  11  12
ENDBRANCH  10  11
ENDBRANCH   9  10
ENDBRANCH   8   9
ENDBRANCH   1   8
TORSDOF 9
ENDMDL
MODEL 5
REMARK VINA RESULT:     0.183     15.224     17.689
REMARK INTER + INTRA:          -0.433
REMARK INTER:                   0.057
REMARK INTRA:                  -0.489
REMARK UNBOUND:                -0.712
REMARK SMILES CCCCCCCCCCC(=O)[O-]
REMARK SMILES IDX 7 1 8 2 9 3 10 4 11 5 12 6 13 7 6 8 5 9 4 10 3 11 2 12 1 13
REMARK H PARENT
REMARK Flexibility Score: inf
ROOT
ATOM      1  C   UNL     1      34.433  47.063  23.638  1.00  0.00     0.000 C 
ENDROOT
BRANCH   1   2
ATOM      2  C   UNL     1      33.366  45.982  23.434  1.00  0.00     0.000 C 
BRANCH   2   3
ATOM      3  C   UNL     1      32.595  45.715  24.735  1.00  0.00     0.006 C 
BRANCH   3   4
ATOM      4  C   UNL     1      33.410  46.086  25.981  1.00  0.00     0.053 C 
BRANCH   4   5
ATOM      5  C   UNL     1      32.780  47.212  26.742  1.00  0.00     0.041 C 
ATOM      6  O   UNL     1      32.325  48.214  26.128  1.00  0.00    -0.550 OA
ATOM      7  O   UNL     1      32.666  47.142  28.125  1.00  0.00    -0.550 OA
ENDBRANCH   4   5
ENDBRANCH   3   4
ENDBRANCH   2   3
ENDBRANCH   1   2
BRANCH   1   8
ATOM      8  C   UNL     1      35.822  46.550  23.229  1.00  0.00     0.000 C 
BRANCH   8   9
ATOM      9  C   UNL     1      36.737  46.274  24.435  1.00  0.00    -0.000 C 
BRANCH   9  10
ATOM     10  C   UNL     1      37.667  45.053  24.287  1.00  0.00    -0.000 C 
BRANCH  10  11
ATOM     11  C   UNL     1      39.153  45.326  24.577  1.00  0.00    -0.000 C 
BRANCH  11  12
ATOM     12  C   UNL     1      40.085  44.769  23.491  1.00  0.00    -0.003 C 
ATOM     13  C   UNL     1      40.125  45.692  22.276  1.00  0.00     0.004 C 
ENDBRANCH  11  12
ENDBRANCH  10  11
ENDBRANCH   9  10
ENDBRANCH   8   9
ENDBRANCH   1   8
TORSDOF 9
ENDMDL
MODEL 6
REMARK VINA RESULT:     0.299     15.090     17.589
REMARK INTER + INTRA:          -0.256
REMARK INTER:                   0.090
REMARK INTRA:                  -0.346
REMARK UNBOUND:                -0.712
REMARK SMILES CCCCCCCCCCC(=O)[O-]
REMARK SMILES IDX 7 1 8 2 9 3 10 4 11 5 12 6 13 7 6 8 5 9 4 10 3 11 2 12 1 13
REMARK H PARENT
REMARK Flexibility Score: inf
ROOT
ATOM      1  C   UNL     1      34.032  47.209  23.396  1.00  0.00     0.000 C 
ENDROOT
BRANCH   1   2
ATOM      2  C   UNL     1      33.226  45.905  23.425  1.00  0.00     0.000 C 
BRANCH   2   3
ATOM      3  C   UNL     1      32.493  45.740  24.764  1.00  0.00     0.006 C 
BRANCH   3   4
ATOM      4  C   UNL     1      33.376  46.115  25.961  1.00  0.00     0.053 C 
BRANCH   4   5
ATOM      5  C   UNL     1      32.823  47.285  26.715  1.00  0.00     0.041 C 
ATOM      6  O   UNL     1      32.643  47.209  27.959  1.00  0.00    -0.550 OA
ATOM      7  O   UNL     1      32.537  48.471  26.050  1.00  0.00    -0.550 OA
ENDBRANCH   4   5
ENDBRANCH   3   4
ENDBRANCH   2   3
ENDBRANCH   1   2
BRANCH   1   8
ATOM      8  C   UNL     1      35.472  46.956  22.925  1.00  0.00     0.000 C 
BRANCH   8   9
ATOM      9  C   UNL     1      36.275  46.078  23.901  1.00  0.00    -0.000 C 
BRANCH   9  10
ATOM     10  C   UNL     1      37.798  46.058  23.664  1.00  0.00    -0.000 C 
BRANCH  10  11
ATOM     11  C   UNL     1      38.573  45.009  24.482  1.00  0.00    -0.000 C 
BRANCH  11  12
ATOM     12  C   UNL     1      39.928  44.648  23.857  1.00  0.00    -0.003 C 
ATOM     13  C   UNL     1      40.125  45.361  22.523  1.00  0.00     0.004 C 
ENDBRANCH  11  12
ENDBRANCH  10  11
ENDBRANCH   9  10
ENDBRANCH   8   9
ENDBRANCH   1   8
TORSDOF 9
ENDMDL
MODEL 7
REMARK VINA RESULT:     0.422      1.305      2.144
REMARK INTER + INTRA:          -0.068
REMARK INTER:                   0.433
REMARK INTRA:                  -0.501
REMARK UNBOUND:                -0.712
REMARK SMILES CCCCCCCCCCC(=O)[O-]
REMARK SMILES IDX 7 1 8 2 9 3 10 4 11 5 12 6 13 7 6 8 5 9 4 10 3 11 2 12 1 13
REMARK H PARENT
REMARK Flexibility Score: inf
ROOT
ATOM      1  C   UNL     1      20.597  54.368  30.800  1.00  0.00     0.000 C 
ENDROOT
BRANCH   1   2
ATOM      2  C   UNL     1      21.779  53.616  30.177  1.00  0.00     0.000 C 
BRANCH   2   3
ATOM      3  C   UNL     1      21.497  53.263  28.710  1.00  0.00     0.006 C 
BRANCH   3   4
ATOM      4  C   UNL     1      22.122  51.922  28.303  1.00  0.00     0.053 C 
BRANCH   4   5
ATOM      5  C   UNL     1      23.050  52.073  27.136  1.00  0.00     0.041 C 
ATOM      6  O   UNL     1      23.795  51.117  26.793  1.00  0.00    -0.550 OA
ATOM      7  O   UNL     1      23.069  53.256  26.408  1.00  0.00    -0.550 OA
ENDBRANCH   4   5
ENDBRANCH   3   4
ENDBRANCH   2   3
ENDBRANCH   1   2
BRANCH   1   8
ATOM      8  C   UNL     1      21.028  55.117  32.070  1.00  0.00     0.000 C 
BRANCH   8   9
ATOM      9  C   UNL     1      22.503  54.873  32.435  1.00  0.00    -0.000 C 
BRANCH   9  10
ATOM     10  C   UNL     1      22.861  55.125  33.913  1.00  0.00    -0.000 C 
BRANCH  10  11
ATOM     11  C   UNL     1      23.199  53.863  34.727  1.00  0.00    -0.000 C 
BRANCH  11  12
ATOM     12  C   UNL     1      22.280  53.674  35.943  1.00  0.00    -0.003 C 
ATOM     13  C   UNL     1      20.813  53.677  35.528  1.00  0.00     0.004 C 
ENDBRANCH  11  12
ENDBRANCH  10  11
ENDBRANCH   9  10
ENDBRANCH   8   9
ENDBRANCH   1   8
TORSDOF 9
ENDMDL
