MODEL 1
REMARK VINA RESULT:    -6.637      0.000      0.000
REMARK INTER + INTRA:          -7.216
REMARK INTER:                  -7.219
REMARK INTRA:                   0.003
REMARK UNBOUND:                 0.003
REMARK SMILES COc1cc2ccc(=O)oc2cc1O
REMARK SMILES IDX 3 1 13 2 12 3 11 4 5 5 4 6 6 7 7 8 8 9 9 10 10 11 2 12 1 13
REMARK SMILES IDX 14 14
REMARK H PARENT 14 15
REMARK Flexibility Score: inf
ROOT
ATOM      1  C   UNL     1      56.280  16.986   0.696  1.00  0.00     0.161 A 
ATOM      2  C   UNL     1      55.757  17.069  -0.609  1.00  0.00     0.161 A 
ATOM      3  C   UNL     1      54.392  17.316  -0.808  1.00  0.00     0.098 A 
ATOM      4  C   UNL     1      53.538  17.482   0.285  1.00  0.00     0.142 A 
ATOM      5  C   UNL     1      54.052  17.399   1.596  1.00  0.00     0.022 A 
ATOM      6  C   UNL     1      55.417  17.152   1.798  1.00  0.00     0.062 A 
ATOM      7  C   UNL     1      53.171  17.568   2.668  1.00  0.00     0.019 A 
ATOM      8  C   UNL     1      51.822  17.812   2.415  1.00  0.00     0.094 A 
ATOM      9  C   UNL     1      51.384  17.880   1.088  1.00  0.00     0.336 A 
ATOM     10  O   UNL     1      50.170  18.099   0.838  1.00  0.00    -0.246 OA
ATOM     11  O   UNL     1      52.243  17.716   0.086  1.00  0.00    -0.423 OA
ENDROOT
BRANCH   1  12
ATOM     12  O   UNL     1      57.652  16.737   0.859  1.00  0.00    -0.493 OA
ATOM     13  C   UNL     1      58.257  15.451   0.757  1.00  0.00     0.278 C 
ENDBRANCH   1  12
BRANCH   2  14
ATOM     14  O   UNL     1      56.578  16.910  -1.725  1.00  0.00    -0.504 OA
ATOM     15  H   UNL     1      57.530  16.574  -1.651  1.00  0.00     0.293 HD
ENDBRANCH   2  14
TORSDOF 2
ENDMDL
MODEL 2
REMARK VINA RESULT:    -6.566      2.817      3.575
REMARK INTER + INTRA:          -7.138
REMARK INTER:                  -7.181
REMARK INTRA:                   0.043
REMARK UNBOUND:                 0.003
REMARK SMILES COc1cc2ccc(=O)oc2cc1O
REMARK SMILES IDX 3 1 13 2 12 3 11 4 5 5 4 6 6 7 7 8 8 9 9 10 10 11 2 12 1 13
REMARK SMILES IDX 14 14
REMARK H PARENT 14 15
REMARK Flexibility Score: inf
ROOT
ATOM      1  C   UNL     1      54.249  13.993  -0.132  1.00  0.00     0.161 A 
ATOM      2  C   UNL     1      53.972  14.421   1.181  1.00  0.00     0.161 A 
ATOM      3  C   UNL     1      53.213  15.578   1.400  1.00  0.00     0.098 A 
ATOM      4  C   UNL     1      52.725  16.318   0.320  1.00  0.00     0.142 A 
ATOM      5  C   UNL     1      52.999  15.898  -0.998  1.00  0.00     0.022 A 
ATOM      6  C   UNL     1      53.757  14.741  -1.221  1.00  0.00     0.062 A 
ATOM      7  C   UNL     1      52.497  16.660  -2.058  1.00  0.00     0.019 A 
ATOM      8  C   UNL     1      51.748  17.804  -1.784  1.00  0.00     0.094 A 
ATOM      9  C   UNL     1      51.518  18.160  -0.451  1.00  0.00     0.336 A 
ATOM     10  O   UNL     1      50.844  19.189  -0.183  1.00  0.00    -0.246 OA
ATOM     11  O   UNL     1      52.006  17.417   0.538  1.00  0.00    -0.423 OA
ENDROOT
BRANCH   1  12
ATOM     12  O   UNL     1      55.012  12.829  -0.315  1.00  0.00    -0.493 OA
ATOM     13  C   UNL     1      56.421  12.748  -0.124  1.00  0.00     0.278 C 
ENDBRANCH   1  12
BRANCH   2  14
ATOM     14  O   UNL     1      54.441  13.709   2.284  1.00  0.00    -0.504 OA
ATOM     15  H   UNL     1      54.255  12.722   2.409  1.00  0.00     0.293 HD
ENDBRANCH   2  14
TORSDOF 2
ENDMDL
MODEL 3
REMARK VINA RESULT:    -6.530      1.906      5.256
REMARK INTER + INTRA:          -7.100
REMARK INTER:                  -7.103
REMARK INTRA:                   0.003
REMARK UNBOUND:                 0.003
REMARK SMILES COc1cc2ccc(=O)oc2cc1O
REMARK SMILES IDX 3 1 13 2 12 3 11 4 5 5 4 6 6 7 7 8 8 9 9 10 10 11 2 12 1 13
REMARK SMILES IDX 14 14
REMARK H PARENT 14 15
REMARK Flexibility Score: inf
ROOT
ATOM      1  C   UNL     1      53.046  17.125   2.088  1.00  0.00     0.161 A 
ATOM      2  C   UNL     1      52.736  15.803   1.711  1.00  0.00     0.161 A 
ATOM      3  C   UNL     1      53.723  14.978   1.157  1.00  0.00     0.098 A 
ATOM      4  C   UNL     1      55.022  15.456   0.972  1.00  0.00     0.142 A 
ATOM      5  C   UNL     1      55.342  16.779   1.344  1.00  0.00     0.022 A 
ATOM      6  C   UNL     1      54.358  17.607   1.900  1.00  0.00     0.062 A 
ATOM      7  C   UNL     1      56.651  17.228   1.147  1.00  0.00     0.019 A 
ATOM      8  C   UNL     1      57.595  16.365   0.590  1.00  0.00     0.094 A 
ATOM      9  C   UNL     1      57.205  15.067   0.244  1.00  0.00     0.336 A 
ATOM     10  O   UNL     1      58.041  14.272  -0.259  1.00  0.00    -0.246 OA
ATOM     11  O   UNL     1      55.953  14.665   0.444  1.00  0.00    -0.423 OA
ENDROOT
BRANCH   1  12
ATOM     12  O   UNL     1      52.033  17.925   2.640  1.00  0.00    -0.493 OA
ATOM     13  C   UNL     1      51.030  18.595   1.883  1.00  0.00     0.278 C 
ENDBRANCH   1  12
BRANCH   2  14
ATOM     14  O   UNL     1      51.451  15.290   1.881  1.00  0.00    -0.504 OA
ATOM     15  H   UNL     1      50.887  14.975   1.101  1.00  0.00     0.293 HD
ENDBRANCH   2  14
TORSDOF 2
ENDMDL
MODEL 4
REMARK VINA RESULT:    -6.524      2.506      5.289
REMARK INTER + INTRA:          -7.093
REMARK INTER:                  -7.124
REMARK INTRA:                   0.032
REMARK UNBOUND:                 0.003
REMARK SMILES COc1cc2ccc(=O)oc2cc1O
REMARK SMILES IDX 3 1 13 2 12 3 11 4 5 5 4 6 6 7 7 8 8 9 9 10 10 11 2 12 1 13
REMARK SMILES IDX 14 14
REMARK H PARENT 14 15
REMARK Flexibility Score: inf
ROOT
ATOM      1  C   UNL     1      52.899  16.848  -1.430  1.00  0.00     0.161 A 
ATOM      2  C   UNL     1      53.998  17.638  -1.041  1.00  0.00     0.161 A 
ATOM      3  C   UNL     1      55.142  17.036  -0.501  1.00  0.00     0.098 A 
ATOM      4  C   UNL     1      55.203  15.650  -0.341  1.00  0.00     0.142 A 
ATOM      5  C   UNL     1      54.107  14.851  -0.726  1.00  0.00     0.022 A 
ATOM      6  C   UNL     1      52.961  15.449  -1.268  1.00  0.00     0.062 A 
ATOM      7  C   UNL     1      54.199  13.466  -0.554  1.00  0.00     0.019 A 
ATOM      8  C   UNL     1      55.361  12.919  -0.011  1.00  0.00     0.094 A 
ATOM      9  C   UNL     1      56.408  13.774   0.349  1.00  0.00     0.336 A 
ATOM     10  O   UNL     1      57.465  13.301   0.841  1.00  0.00    -0.246 OA
ATOM     11  O   UNL     1      56.295  15.088   0.174  1.00  0.00    -0.423 OA
ENDROOT
BRANCH   1  12
ATOM     12  O   UNL     1      51.768  17.483  -1.968  1.00  0.00    -0.493 OA
ATOM     13  C   UNL     1      50.799  18.192  -1.202  1.00  0.00     0.278 C 
ENDBRANCH   1  12
BRANCH   2  14
ATOM     14  O   UNL     1      53.974  19.024  -1.185  1.00  0.00    -0.504 OA
ATOM     15  H   UNL     1      54.757  19.542  -1.566  1.00  0.00     0.293 HD
ENDBRANCH   2  14
TORSDOF 2
ENDMDL
MODEL 5
REMARK VINA RESULT:    -6.264      1.246      5.498
REMARK INTER + INTRA:          -6.811
REMARK INTER:                  -6.752
REMARK INTRA:                  -0.059
REMARK UNBOUND:                 0.003
REMARK SMILES COc1cc2ccc(=O)oc2cc1O
REMARK SMILES IDX 3 1 13 2 12 3 11 4 5 5 4 6 6 7 7 8 8 9 9 10 10 11 2 12 1 13
REMARK SMILES IDX 14 14
REMARK H PARENT 14 15
REMARK Flexibility Score: inf
ROOT
ATOM      1  C   UNL     1      51.406  17.890   0.998  1.00  0.00     0.161 A 
ATOM      2  C   UNL     1      51.929  17.872   2.306  1.00  0.00     0.161 A 
ATOM      3  C   UNL     1      53.289  17.610   2.517  1.00  0.00     0.098 A 
ATOM      4  C   UNL     1      54.137  17.363   1.436  1.00  0.00     0.142 A 
ATOM      5  C   UNL     1      53.622  17.377   0.123  1.00  0.00     0.022 A 
ATOM      6  C   UNL     1      52.262  17.639  -0.093  1.00  0.00     0.062 A 
ATOM      7  C   UNL     1      54.497  17.126  -0.939  1.00  0.00     0.019 A 
ATOM      8  C   UNL     1      55.842  16.870  -0.672  1.00  0.00     0.094 A 
ATOM      9  C   UNL     1      56.281  16.872   0.656  1.00  0.00     0.336 A 
ATOM     10  O   UNL     1      57.491  16.643   0.918  1.00  0.00    -0.246 OA
ATOM     11  O   UNL     1      55.428  17.114   1.647  1.00  0.00    -0.423 OA
ENDROOT
BRANCH   1  12
ATOM     12  O   UNL     1      50.038  18.155   0.822  1.00  0.00    -0.493 OA
ATOM     13  C   UNL     1      49.517  19.276   0.114  1.00  0.00     0.278 C 
ENDBRANCH   1  12
BRANCH   2  14
ATOM     14  O   UNL     1      51.113  18.115   3.410  1.00  0.00    -0.504 OA
ATOM     15  H   UNL     1      51.417  18.681   4.192  1.00  0.00     0.293 HD
ENDBRANCH   2  14
TORSDOF 2
ENDMDL
MODEL 6
REMARK VINA RESULT:    -6.188      2.724      5.081
REMARK INTER + INTRA:          -6.727
REMARK INTER:                  -6.668
REMARK INTRA:                  -0.059
REMARK UNBOUND:                 0.003
REMARK SMILES COc1cc2ccc(=O)oc2cc1O
REMARK SMILES IDX 3 1 13 2 12 3 11 4 5 5 4 6 6 7 7 8 8 9 9 10 10 11 2 12 1 13
REMARK SMILES IDX 14 14
REMARK H PARENT 14 15
REMARK Flexibility Score: inf
ROOT
ATOM      1  C   UNL     1      51.422  18.214  -0.242  1.00  0.00     0.161 A 
ATOM      2  C   UNL     1      51.682  17.822  -1.570  1.00  0.00     0.161 A 
ATOM      3  C   UNL     1      52.477  16.699  -1.831  1.00  0.00     0.098 A 
ATOM      4  C   UNL     1      53.021  15.959  -0.779  1.00  0.00     0.142 A 
ATOM      5  C   UNL     1      52.768  16.345   0.554  1.00  0.00     0.022 A 
ATOM      6  C   UNL     1      51.972  17.467   0.819  1.00  0.00     0.062 A 
ATOM      7  C   UNL     1      53.327  15.584   1.585  1.00  0.00     0.019 A 
ATOM      8  C   UNL     1      54.113  14.475   1.270  1.00  0.00     0.094 A 
ATOM      9  C   UNL     1      54.321  14.153  -0.075  1.00  0.00     0.336 A 
ATOM     10  O   UNL     1      55.027  13.157  -0.381  1.00  0.00    -0.246 OA
ATOM     11  O   UNL     1      53.777  14.894  -1.037  1.00  0.00    -0.423 OA
ENDROOT
BRANCH   1  12
ATOM     12  O   UNL     1      50.620  19.345  -0.017  1.00  0.00    -0.493 OA
ATOM     13  C   UNL     1      49.370  19.326   0.664  1.00  0.00     0.278 C 
ENDBRANCH   1  12
BRANCH   2  14
ATOM     14  O   UNL     1      51.156  18.535  -2.647  1.00  0.00    -0.504 OA
ATOM     15  H   UNL     1      50.975  19.530  -2.599  1.00  0.00     0.293 HD
ENDBRANCH   2  14
TORSDOF 2
ENDMDL
MODEL 7
REMARK VINA RESULT:    -6.136      1.975      2.592
REMARK INTER + INTRA:          -6.671
REMARK INTER:                  -6.612
REMARK INTRA:                  -0.058
REMARK UNBOUND:                 0.003
REMARK SMILES COc1cc2ccc(=O)oc2cc1O
REMARK SMILES IDX 3 1 13 2 12 3 11 4 5 5 4 6 6 7 7 8 8 9 9 10 10 11 2 12 1 13
REMARK SMILES IDX 14 14
REMARK H PARENT 14 15
REMARK Flexibility Score: inf
ROOT
ATOM      1  C   UNL     1      57.109  14.973   0.254  1.00  0.00     0.161 A 
ATOM      2  C   UNL     1      57.489  16.268   0.660  1.00  0.00     0.161 A 
ATOM      3  C   UNL     1      56.539  17.143   1.202  1.00  0.00     0.098 A 
ATOM      4  C   UNL     1      55.209  16.742   1.346  1.00  0.00     0.142 A 
ATOM      5  C   UNL     1      54.819  15.449   0.942  1.00  0.00     0.022 A 
ATOM      6  C   UNL     1      55.766  14.570   0.399  1.00  0.00     0.062 A 
ATOM      7  C   UNL     1      53.480  15.077   1.098  1.00  0.00     0.019 A 
ATOM      8  C   UNL     1      52.576  15.988   1.644  1.00  0.00     0.094 A 
ATOM      9  C   UNL     1      53.035  17.254   2.022  1.00  0.00     0.336 A 
ATOM     10  O   UNL     1      52.235  18.091   2.516  1.00  0.00    -0.246 OA
ATOM     11  O   UNL     1      54.314  17.582   1.863  1.00  0.00    -0.423 OA
ENDROOT
BRANCH   1  12
ATOM     12  O   UNL     1      58.086  14.122  -0.286  1.00  0.00    -0.493 OA
ATOM     13  C   UNL     1      58.481  12.879   0.287  1.00  0.00     0.278 C 
ENDBRANCH   1  12
BRANCH   2  14
ATOM     14  O   UNL     1      58.807  16.704   0.533  1.00  0.00    -0.504 OA
ATOM     15  H   UNL     1      59.365  16.505  -0.288  1.00  0.00     0.293 HD
ENDBRANCH   2  14
TORSDOF 2
ENDMDL
MODEL 8
REMARK VINA RESULT:    -6.124      2.933      6.083
REMARK INTER + INTRA:          -6.658
REMARK INTER:                  -6.596
REMARK INTRA:                  -0.062
REMARK UNBOUND:                 0.003
REMARK SMILES COc1cc2ccc(=O)oc2cc1O
REMARK SMILES IDX 3 1 13 2 12 3 11 4 5 5 4 6 6 7 7 8 8 9 9 10 10 11 2 12 1 13
REMARK SMILES IDX 14 14
REMARK H PARENT 14 15
REMARK Flexibility Score: inf
ROOT
ATOM      1  C   UNL     1      50.001  19.282   1.766  1.00  0.00     0.161 A 
ATOM      2  C   UNL     1      50.827  18.516   2.612  1.00  0.00     0.161 A 
ATOM      3  C   UNL     1      51.782  17.648   2.068  1.00  0.00     0.098 A 
ATOM      4  C   UNL     1      51.924  17.533   0.683  1.00  0.00     0.142 A 
ATOM      5  C   UNL     1      51.101  18.295  -0.172  1.00  0.00     0.022 A 
ATOM      6  C   UNL     1      50.144  19.164   0.369  1.00  0.00     0.062 A 
ATOM      7  C   UNL     1      51.267  18.157  -1.554  1.00  0.00     0.019 A 
ATOM      8  C   UNL     1      52.233  17.278  -2.043  1.00  0.00     0.094 A 
ATOM      9  C   UNL     1      53.013  16.555  -1.135  1.00  0.00     0.336 A 
ATOM     10  O   UNL     1      53.891  15.757  -1.556  1.00  0.00    -0.246 OA
ATOM     11  O   UNL     1      52.835  16.705   0.175  1.00  0.00    -0.423 OA
ENDROOT
BRANCH   1  12
ATOM     12  O   UNL     1      49.054  20.141   2.346  1.00  0.00    -0.493 OA
ATOM     13  C   UNL     1      47.643  19.954   2.276  1.00  0.00     0.278 C 
ENDBRANCH   1  12
BRANCH   2  14
ATOM     14  O   UNL     1      50.715  18.604   3.999  1.00  0.00    -0.504 OA
ATOM     15  H   UNL     1      51.524  18.686   4.603  1.00  0.00     0.293 HD
ENDBRANCH   2  14
TORSDOF 2
ENDMDL
MODEL 9
REMARK VINA RESULT:    -6.092      3.465      5.031
REMARK INTER + INTRA:          -6.624
REMARK INTER:                  -6.559
REMARK INTRA:                  -0.065
REMARK UNBOUND:                 0.003
REMARK SMILES COc1cc2ccc(=O)oc2cc1O
REMARK SMILES IDX 3 1 13 2 12 3 11 4 5 5 4 6 6 7 7 8 8 9 9 10 10 11 2 12 1 13
REMARK SMILES IDX 14 14
REMARK H PARENT 14 15
REMARK Flexibility Score: inf
ROOT
ATOM      1  C   UNL     1      57.813  12.218  -0.023  1.00  0.00     0.161 A 
ATOM      2  C   UNL     1      56.414  12.069  -0.095  1.00  0.00     0.161 A 
ATOM      3  C   UNL     1      55.579  13.182   0.066  1.00  0.00     0.098 A 
ATOM      4  C   UNL     1      56.123  14.447   0.300  1.00  0.00     0.142 A 
ATOM      5  C   UNL     1      57.522  14.605   0.376  1.00  0.00     0.022 A 
ATOM      6  C   UNL     1      58.362  13.494   0.215  1.00  0.00     0.062 A 
ATOM      7  C   UNL     1      58.037  15.883   0.611  1.00  0.00     0.019 A 
ATOM      8  C   UNL     1      57.160  16.957   0.765  1.00  0.00     0.094 A 
ATOM      9  C   UNL     1      55.783  16.724   0.678  1.00  0.00     0.336 A 
ATOM     10  O   UNL     1      54.974  17.679   0.813  1.00  0.00    -0.246 OA
ATOM     11  O   UNL     1      55.320  15.498   0.452  1.00  0.00    -0.423 OA
ENDROOT
BRANCH   1  12
ATOM     12  O   UNL     1      58.622  11.081  -0.188  1.00  0.00    -0.493 OA
ATOM     13  C   UNL     1      59.185  10.328   0.881  1.00  0.00     0.278 C 
ENDBRANCH   1  12
BRANCH   2  14
ATOM     14  O   UNL     1      55.834  10.823  -0.328  1.00  0.00    -0.504 OA
ATOM     15  H   UNL     1      56.252   9.962   0.003  1.00  0.00     0.293 HD
ENDBRANCH   2  14
TORSDOF 2
ENDMDL
