MODEL 1
REMARK VINA RESULT:    -2.912      0.000      0.000
REMARK INTER + INTRA:          -3.179
REMARK INTER:                  -3.082
REMARK INTRA:                  -0.097
REMARK UNBOUND:                -0.097
REMARK SMILES C=C(C)[C@@H]1CC=C(C)C(=O)C1
REMARK SMILES IDX 8 1 7 2 6 3 5 4 4 5 11 6 9 7 10 8 2 9 1 10 3 11
REMARK H PARENT
REMARK Flexibility Score: inf
ROOT
ATOM      1  C   UNL     1     155.337 151.934 144.767  1.00  0.00     0.048 C 
ATOM      2  C   UNL     1     154.882 152.498 146.085  1.00  0.00    -0.012 C 
ATOM      3  C   UNL     1     155.243 151.894 147.230  1.00  0.00    -0.019 C 
ATOM      4  C   UNL     1     154.830 152.426 148.578  1.00  0.00     0.036 C 
ATOM      5  C   UNL     1     153.448 153.103 148.507  1.00  0.00     0.025 C 
ATOM      6  C   UNL     1     153.443 154.195 147.422  1.00  0.00     0.089 C 
ATOM      7  C   UNL     1     153.938 153.643 146.113  1.00  0.00     0.158 C 
ATOM      8  O   UNL     1     153.571 154.188 145.038  1.00  0.00    -0.295 OA
ENDROOT
BRANCH   5   9
ATOM      9  C   UNL     1     153.023 153.655 149.861  1.00  0.00    -0.077 C 
ATOM     10  C   UNL     1     152.430 154.856 149.973  1.00  0.00     0.008 C 
ATOM     11  C   UNL     1     153.265 152.852 151.114  1.00  0.00     0.039 C 
ENDBRANCH   5   9
TORSDOF 1
ENDMDL
MODEL 2
REMARK VINA RESULT:    -2.905     23.857     24.467
REMARK INTER + INTRA:          -3.172
REMARK INTER:                  -3.074
REMARK INTRA:                  -0.098
REMARK UNBOUND:                -0.097
REMARK SMILES C=C(C)[C@@H]1CC=C(C)C(=O)C1
REMARK SMILES IDX 8 1 7 2 6 3 5 4 4 5 11 6 9 7 10 8 2 9 1 10 3 11
REMARK H PARENT
REMARK Flexibility Score: inf
ROOT
ATOM      1  C   UNL     1     171.000 170.613 152.128  1.00  0.00     0.048 C 
ATOM      2  C   UNL     1     170.885 170.731 150.633  1.00  0.00    -0.012 C 
ATOM      3  C   UNL     1     170.374 171.848 150.088  1.00  0.00    -0.019 C 
ATOM      4  C   UNL     1     170.252 172.026 148.597  1.00  0.00     0.036 C 
ATOM      5  C   UNL     1     169.986 170.679 147.898  1.00  0.00     0.025 C 
ATOM      6  C   UNL     1     171.074 169.656 148.277  1.00  0.00     0.089 C 
ATOM      7  C   UNL     1     171.219 169.569 149.772  1.00  0.00     0.158 C 
ATOM      8  O   UNL     1     171.666 168.508 150.284  1.00  0.00    -0.295 OA
ENDROOT
BRANCH   5   9
ATOM      9  C   UNL     1     169.872 170.842 146.389  1.00  0.00    -0.077 C 
ATOM     10  C   UNL     1     170.241 169.861 145.548  1.00  0.00     0.008 C 
ATOM     11  C   UNL     1     169.335 172.125 145.807  1.00  0.00     0.039 C 
ENDBRANCH   5   9
TORSDOF 1
ENDMDL
MODEL 3
REMARK VINA RESULT:    -2.879      2.290      3.475
REMARK INTER + INTRA:          -3.144
REMARK INTER:                  -3.046
REMARK INTRA:                  -0.098
REMARK UNBOUND:                -0.097
REMARK SMILES C=C(C)[C@@H]1CC=C(C)C(=O)C1
REMARK SMILES IDX 8 1 7 2 6 3 5 4 4 5 11 6 9 7 10 8 2 9 1 10 3 11
REMARK H PARENT
REMARK Flexibility Score: inf
ROOT
ATOM      1  C   UNL     1     154.468 151.877 147.168  1.00  0.00     0.048 C 
ATOM      2  C   UNL     1     154.362 152.167 148.640  1.00  0.00    -0.012 C 
ATOM      3  C   UNL     1     153.152 152.240 149.221  1.00  0.00    -0.019 C 
ATOM      4  C   UNL     1     152.988 152.510 150.694  1.00  0.00     0.036 C 
ATOM      5  C   UNL     1     154.112 153.425 151.218  1.00  0.00     0.025 C 
ATOM      6  C   UNL     1     155.490 152.824 150.885  1.00  0.00     0.089 C 
ATOM      7  C   UNL     1     155.582 152.494 149.420  1.00  0.00     0.158 C 
ATOM      8  O   UNL     1     156.714 152.460 148.868  1.00  0.00    -0.295 OA
ENDROOT
BRANCH   5   9
ATOM      9  C   UNL     1     153.965 153.698 152.709  1.00  0.00    -0.077 C 
ATOM     10  C   UNL     1     155.023 154.031 153.468  1.00  0.00     0.008 C 
ATOM     11  C   UNL     1     152.611 153.597 153.365  1.00  0.00     0.039 C 
ENDBRANCH   5   9
TORSDOF 1
ENDMDL
MODEL 4
REMARK VINA RESULT:    -2.857     23.521     24.098
REMARK INTER + INTRA:          -3.121
REMARK INTER:                  -3.026
REMARK INTRA:                  -0.094
REMARK UNBOUND:                -0.097
REMARK SMILES C=C(C)[C@@H]1CC=C(C)C(=O)C1
REMARK SMILES IDX 8 1 7 2 6 3 5 4 4 5 11 6 9 7 10 8 2 9 1 10 3 11
REMARK H PARENT
REMARK Flexibility Score: inf
ROOT
ATOM      1  C   UNL     1     170.962 170.632 152.300  1.00  0.00     0.048 C 
ATOM      2  C   UNL     1     170.331 170.752 150.940  1.00  0.00    -0.012 C 
ATOM      3  C   UNL     1     171.104 170.732 149.841  1.00  0.00    -0.019 C 
ATOM      4  C   UNL     1     170.523 170.832 148.454  1.00  0.00     0.036 C 
ATOM      5  C   UNL     1     169.255 171.707 148.445  1.00  0.00     0.025 C 
ATOM      6  C   UNL     1     168.234 171.178 149.469  1.00  0.00     0.089 C 
ATOM      7  C   UNL     1     168.875 171.016 150.820  1.00  0.00     0.158 C 
ATOM      8  O   UNL     1     168.155 171.070 151.853  1.00  0.00    -0.295 OA
ENDROOT
BRANCH   5   9
ATOM      9  C   UNL     1     168.651 171.806 147.051  1.00  0.00    -0.077 C 
ATOM     10  C   UNL     1     169.404 172.124 145.983  1.00  0.00     0.008 C 
ATOM     11  C   UNL     1     167.181 171.547 146.844  1.00  0.00     0.039 C 
ENDBRANCH   5   9
TORSDOF 1
ENDMDL
MODEL 5
REMARK VINA RESULT:    -2.847     23.642     24.006
REMARK INTER + INTRA:          -3.110
REMARK INTER:                  -3.015
REMARK INTRA:                  -0.095
REMARK UNBOUND:                -0.097
REMARK SMILES C=C(C)[C@@H]1CC=C(C)C(=O)C1
REMARK SMILES IDX 8 1 7 2 6 3 5 4 4 5 11 6 9 7 10 8 2 9 1 10 3 11
REMARK H PARENT
REMARK Flexibility Score: inf
ROOT
ATOM      1  C   UNL     1     169.396 172.050 147.226  1.00  0.00     0.048 C 
ATOM      2  C   UNL     1     169.556 171.764 148.694  1.00  0.00    -0.012 C 
ATOM      3  C   UNL     1     170.783 171.747 149.241  1.00  0.00    -0.019 C 
ATOM      4  C   UNL     1     171.000 171.483 150.709  1.00  0.00     0.036 C 
ATOM      5  C   UNL     1     169.935 170.517 151.262  1.00  0.00     0.025 C 
ATOM      6  C   UNL     1     168.522 171.054 150.967  1.00  0.00     0.089 C 
ATOM      7  C   UNL     1     168.375 171.381 149.506  1.00  0.00     0.158 C 
ATOM      8  O   UNL     1     167.227 171.363 148.985  1.00  0.00    -0.295 OA
ENDROOT
BRANCH   5   9
ATOM      9  C   UNL     1     170.135 170.250 152.747  1.00  0.00    -0.077 C 
ATOM     10  C   UNL     1     171.358 170.030 153.260  1.00  0.00     0.008 C 
ATOM     11  C   UNL     1     168.950 170.228 153.677  1.00  0.00     0.039 C 
ENDBRANCH   5   9
TORSDOF 1
ENDMDL
MODEL 6
REMARK VINA RESULT:    -2.837      2.497      5.084
REMARK INTER + INTRA:          -3.100
REMARK INTER:                  -3.002
REMARK INTRA:                  -0.097
REMARK UNBOUND:                -0.097
REMARK SMILES C=C(C)[C@@H]1CC=C(C)C(=O)C1
REMARK SMILES IDX 8 1 7 2 6 3 5 4 4 5 11 6 9 7 10 8 2 9 1 10 3 11
REMARK H PARENT
REMARK Flexibility Score: inf
ROOT
ATOM      1  C   UNL     1     152.993 153.373 152.441  1.00  0.00     0.048 C 
ATOM      2  C   UNL     1     153.662 153.240 151.100  1.00  0.00    -0.012 C 
ATOM      3  C   UNL     1     152.914 153.170 149.986  1.00  0.00    -0.019 C 
ATOM      4  C   UNL     1     153.531 153.054 148.616  1.00  0.00     0.036 C 
ATOM      5  C   UNL     1     154.851 152.260 148.668  1.00  0.00     0.025 C 
ATOM      6  C   UNL     1     155.814 152.890 149.691  1.00  0.00     0.089 C 
ATOM      7  C   UNL     1     155.133 153.063 151.021  1.00  0.00     0.158 C 
ATOM      8  O   UNL     1     155.832 153.094 152.069  1.00  0.00    -0.295 OA
ENDROOT
BRANCH   5   9
ATOM      9  C   UNL     1     155.491 152.145 147.291  1.00  0.00    -0.077 C 
ATOM     10  C   UNL     1     156.818 152.278 147.123  1.00  0.00     0.008 C 
ATOM     11  C   UNL     1     154.635 151.875 146.080  1.00  0.00     0.039 C 
ENDBRANCH   5   9
TORSDOF 1
ENDMDL
MODEL 7
REMARK VINA RESULT:    -2.778      2.126      2.653
REMARK INTER + INTRA:          -3.037
REMARK INTER:                  -2.948
REMARK INTRA:                  -0.090
REMARK UNBOUND:                -0.097
REMARK SMILES C=C(C)[C@@H]1CC=C(C)C(=O)C1
REMARK SMILES IDX 8 1 7 2 6 3 5 4 4 5 11 6 9 7 10 8 2 9 1 10 3 11
REMARK H PARENT
REMARK Flexibility Score: inf
ROOT
ATOM      1  C   UNL     1     157.653 152.306 144.860  1.00  0.00     0.048 C 
ATOM      2  C   UNL     1     156.520 152.373 145.847  1.00  0.00    -0.012 C 
ATOM      3  C   UNL     1     155.281 152.673 145.422  1.00  0.00    -0.019 C 
ATOM      4  C   UNL     1     154.107 152.737 146.364  1.00  0.00     0.036 C 
ATOM      5  C   UNL     1     154.542 153.220 147.761  1.00  0.00     0.025 C 
ATOM      6  C   UNL     1     155.678 152.333 148.303  1.00  0.00     0.089 C 
ATOM      7  C   UNL     1     156.793 152.230 147.298  1.00  0.00     0.158 C 
ATOM      8  O   UNL     1     157.961 151.983 147.702  1.00  0.00    -0.295 OA
ENDROOT
BRANCH   5   9
ATOM      9  C   UNL     1     153.366 153.279 148.726  1.00  0.00    -0.077 C 
ATOM     10  C   UNL     1     152.562 154.355 148.785  1.00  0.00     0.008 C 
ATOM     11  C   UNL     1     153.082 152.116 149.642  1.00  0.00     0.039 C 
ENDBRANCH   5   9
TORSDOF 1
ENDMDL
MODEL 8
REMARK VINA RESULT:    -2.769     23.118     23.616
REMARK INTER + INTRA:          -3.028
REMARK INTER:                  -2.938
REMARK INTRA:                  -0.090
REMARK UNBOUND:                -0.097
REMARK SMILES C=C(C)[C@@H]1CC=C(C)C(=O)C1
REMARK SMILES IDX 8 1 7 2 6 3 5 4 4 5 11 6 9 7 10 8 2 9 1 10 3 11
REMARK H PARENT
REMARK Flexibility Score: inf
ROOT
ATOM      1  C   UNL     1     166.365 171.660 144.775  1.00  0.00     0.048 C 
ATOM      2  C   UNL     1     167.491 171.613 145.771  1.00  0.00    -0.012 C 
ATOM      3  C   UNL     1     168.733 171.304 145.361  1.00  0.00    -0.019 C 
ATOM      4  C   UNL     1     169.901 171.261 146.313  1.00  0.00     0.036 C 
ATOM      5  C   UNL     1     169.455 170.807 147.716  1.00  0.00     0.025 C 
ATOM      6  C   UNL     1     168.315 171.705 148.231  1.00  0.00     0.089 C 
ATOM      7  C   UNL     1     167.207 171.786 147.217  1.00  0.00     0.158 C 
ATOM      8  O   UNL     1     166.036 172.042 147.607  1.00  0.00    -0.295 OA
ENDROOT
BRANCH   5   9
ATOM      9  C   UNL     1     170.624 170.769 148.691  1.00  0.00    -0.077 C 
ATOM     10  C   UNL     1     171.439 169.702 148.766  1.00  0.00     0.008 C 
ATOM     11  C   UNL     1     170.889 171.942 149.600  1.00  0.00     0.039 C 
ENDBRANCH   5   9
TORSDOF 1
ENDMDL
MODEL 9
REMARK VINA RESULT:    -2.764     23.743     24.140
REMARK INTER + INTRA:          -3.022
REMARK INTER:                  -2.933
REMARK INTRA:                  -0.090
REMARK UNBOUND:                -0.097
REMARK SMILES C=C(C)[C@@H]1CC=C(C)C(=O)C1
REMARK SMILES IDX 8 1 7 2 6 3 5 4 4 5 11 6 9 7 10 8 2 9 1 10 3 11
REMARK H PARENT
REMARK Flexibility Score: inf
ROOT
ATOM      1  C   UNL     1     168.076 171.949 148.627  1.00  0.00     0.048 C 
ATOM      2  C   UNL     1     168.852 171.264 149.718  1.00  0.00    -0.012 C 
ATOM      3  C   UNL     1     168.373 171.256 150.974  1.00  0.00    -0.019 C 
ATOM      4  C   UNL     1     169.100 170.571 152.101  1.00  0.00     0.036 C 
ATOM      5  C   UNL     1     170.626 170.634 151.897  1.00  0.00     0.025 C 
ATOM      6  C   UNL     1     171.005 170.056 150.521  1.00  0.00     0.089 C 
ATOM      7  C   UNL     1     170.199 170.710 149.433  1.00  0.00     0.158 C 
ATOM      8  O   UNL     1     170.664 170.749 148.262  1.00  0.00    -0.295 OA
ENDROOT
BRANCH   5   9
ATOM      9  C   UNL     1     171.373 169.935 153.025  1.00  0.00    -0.077 C 
ATOM     10  C   UNL     1     171.657 170.570 154.175  1.00  0.00     0.008 C 
ATOM     11  C   UNL     1     171.811 168.502 152.866  1.00  0.00     0.039 C 
ENDBRANCH   5   9
TORSDOF 1
ENDMDL
