MODEL 1
REMARK VINA RESULT:    -2.803      0.000      0.000
REMARK INTER + INTRA:          -2.803
REMARK INTER:                  -2.803
REMARK INTRA:                   0.000
REMARK UNBOUND:                 0.000
REMARK SMILES CC(=O)[O-]
REMARK SMILES IDX 1 1 2 2 3 3 4 4
REMARK H PARENT
REMARK Flexibility Score: inf
ROOT
ATOM      1  C   UNL     1     -12.967   4.373  -7.982  1.00  0.00     0.063 C 
ATOM      2  C   UNL     1     -11.710   4.042  -8.713  1.00  0.00     0.038 C 
ATOM      3  O   UNL     1     -11.685   4.071  -9.972  1.00  0.00    -0.550 OA
ATOM      4  O   UNL     1     -10.550   3.752  -8.007  1.00  0.00    -0.550 OA
ENDROOT
TORSDOF 0
ENDMDL
MODEL 2
REMARK VINA RESULT:    -2.799      0.153      1.627
REMARK INTER + INTRA:          -2.799
REMARK INTER:                  -2.799
REMARK INTRA:                   0.000
REMARK UNBOUND:                 0.000
REMARK SMILES CC(=O)[O-]
REMARK SMILES IDX 1 1 2 2 3 3 4 4
REMARK H PARENT
REMARK Flexibility Score: inf
ROOT
ATOM      1  C   UNL     1     -12.841   4.350  -7.785  1.00  0.00     0.063 C 
ATOM      2  C   UNL     1     -11.605   4.054  -8.565  1.00  0.00     0.038 C 
ATOM      3  O   UNL     1     -10.546   3.724  -7.969  1.00  0.00    -0.550 OA
ATOM      4  O   UNL     1     -11.632   4.091  -9.953  1.00  0.00    -0.550 OA
ENDROOT
TORSDOF 0
ENDMDL
MODEL 3
REMARK VINA RESULT:    -2.635      1.322      2.085
REMARK INTER + INTRA:          -2.635
REMARK INTER:                  -2.635
REMARK INTRA:                   0.000
REMARK UNBOUND:                 0.000
REMARK SMILES CC(=O)[O-]
REMARK SMILES IDX 1 1 2 2 3 3 4 4
REMARK H PARENT
REMARK Flexibility Score: inf
ROOT
ATOM      1  C   UNL     1     -11.976   2.371  -9.352  1.00  0.00     0.063 C 
ATOM      2  C   UNL     1     -11.646   3.587  -8.555  1.00  0.00     0.038 C 
ATOM      3  O   UNL     1     -10.504   3.712  -8.038  1.00  0.00    -0.550 OA
ATOM      4  O   UNL     1     -12.578   4.608  -8.425  1.00  0.00    -0.550 OA
ENDROOT
TORSDOF 0
ENDMDL
MODEL 4
REMARK VINA RESULT:    -2.525      1.947      2.438
REMARK INTER + INTRA:          -2.525
REMARK INTER:                  -2.525
REMARK INTRA:                   0.000
REMARK UNBOUND:                 0.000
REMARK SMILES CC(=O)[O-]
REMARK SMILES IDX 1 1 2 2 3 3 4 4
REMARK H PARENT
REMARK Flexibility Score: inf
ROOT
ATOM      1  C   UNL     1     -11.017   3.769  -8.401  1.00  0.00     0.063 C 
ATOM      2  C   UNL     1     -11.689   2.599  -9.037  1.00  0.00     0.038 C 
ATOM      3  O   UNL     1     -11.123   1.474  -9.043  1.00  0.00    -0.550 OA
ATOM      4  O   UNL     1     -12.960   2.735  -9.577  1.00  0.00    -0.550 OA
ENDROOT
TORSDOF 0
ENDMDL
MODEL 5
REMARK VINA RESULT:    -2.503      2.406      2.554
REMARK INTER + INTRA:          -2.503
REMARK INTER:                  -2.503
REMARK INTRA:                   0.000
REMARK UNBOUND:                 0.000
REMARK SMILES CC(=O)[O-]
REMARK SMILES IDX 1 1 2 2 3 3 4 4
REMARK H PARENT
REMARK Flexibility Score: inf
ROOT
ATOM      1  C   UNL     1     -13.119   1.884  -9.522  1.00  0.00     0.063 C 
ATOM      2  C   UNL     1     -11.683   1.971  -9.132  1.00  0.00     0.038 C 
ATOM      3  O   UNL     1     -11.223   3.041  -8.653  1.00  0.00    -0.550 OA
ATOM      4  O   UNL     1     -10.862   0.857  -9.246  1.00  0.00    -0.550 OA
ENDROOT
TORSDOF 0
ENDMDL
MODEL 6
REMARK VINA RESULT:    -2.438      1.775      2.267
REMARK INTER + INTRA:          -2.438
REMARK INTER:                  -2.438
REMARK INTRA:                   0.000
REMARK UNBOUND:                 0.000
REMARK SMILES CC(=O)[O-]
REMARK SMILES IDX 1 1 2 2 3 3 4 4
REMARK H PARENT
REMARK Flexibility Score: inf
ROOT
ATOM      1  C   UNL     1     -10.986   3.849  -8.398  1.00  0.00     0.063 C 
ATOM      2  C   UNL     1     -12.455   3.775  -8.642  1.00  0.00     0.038 C 
ATOM      3  O   UNL     1     -13.239   4.526  -8.004  1.00  0.00    -0.550 OA
ATOM      4  O   UNL     1     -12.957   2.916  -9.611  1.00  0.00    -0.550 OA
ENDROOT
TORSDOF 0
ENDMDL
MODEL 7
REMARK VINA RESULT:    -2.341      3.166      3.768
REMARK INTER + INTRA:          -2.341
REMARK INTER:                  -2.341
REMARK INTRA:                   0.000
REMARK UNBOUND:                 0.000
REMARK SMILES CC(=O)[O-]
REMARK SMILES IDX 1 1 2 2 3 3 4 4
REMARK H PARENT
REMARK Flexibility Score: inf
ROOT
ATOM      1  C   UNL     1     -11.006   0.126 -10.123  1.00  0.00     0.063 C 
ATOM      2  C   UNL     1     -11.848   1.253  -9.625  1.00  0.00     0.038 C 
ATOM      3  O   UNL     1     -11.341   2.144  -8.895  1.00  0.00    -0.550 OA
ATOM      4  O   UNL     1     -13.179   1.349 -10.009  1.00  0.00    -0.550 OA
ENDROOT
TORSDOF 0
ENDMDL
MODEL 8
REMARK VINA RESULT:    -2.332     15.984     16.468
REMARK INTER + INTRA:          -2.332
REMARK INTER:                  -2.332
REMARK INTRA:                   0.000
REMARK UNBOUND:                 0.000
REMARK SMILES CC(=O)[O-]
REMARK SMILES IDX 1 1 2 2 3 3 4 4
REMARK H PARENT
REMARK Flexibility Score: inf
ROOT
ATOM      1  C   UNL     1     -10.658   4.258   9.125  1.00  0.00     0.063 C 
ATOM      2  C   UNL     1     -10.566   4.381   7.641  1.00  0.00     0.038 C 
ATOM      3  O   UNL     1      -9.779   5.216   7.124  1.00  0.00    -0.550 OA
ATOM      4  O   UNL     1     -11.310   3.537   6.827  1.00  0.00    -0.550 OA
ENDROOT
TORSDOF 0
ENDMDL
MODEL 9
REMARK VINA RESULT:    -2.313     16.048     16.448
REMARK INTER + INTRA:          -2.313
REMARK INTER:                  -2.313
REMARK INTRA:                   0.000
REMARK UNBOUND:                 0.000
REMARK SMILES CC(=O)[O-]
REMARK SMILES IDX 1 1 2 2 3 3 4 4
REMARK H PARENT
REMARK Flexibility Score: inf
ROOT
ATOM      1  C   UNL     1     -10.588   4.264   9.125  1.00  0.00     0.063 C 
ATOM      2  C   UNL     1     -10.618   4.368   7.637  1.00  0.00     0.038 C 
ATOM      3  O   UNL     1     -11.360   3.604   6.967  1.00  0.00    -0.550 OA
ATOM      4  O   UNL     1      -9.867   5.342   6.992  1.00  0.00    -0.550 OA
ENDROOT
TORSDOF 0
ENDMDL
