MODEL 1
REMARK VINA RESULT:     0.377      0.000      0.000
REMARK INTER + INTRA:           0.377
REMARK INTER:                   0.377
REMARK INTRA:                   0.000
REMARK UNBOUND:                 0.000
REMARK SMILES C=C1CC[C@@H]2C[C@H]1C2(C)C
REMARK SMILES IDX 9 1 8 2 5 3 4 4 3 5 2 6 1 7 7 8 6 9 10 10
REMARK H PARENT
REMARK Flexibility Score: inf
ROOT
ATOM      1  C   UNL     1     137.236 135.556 161.933  1.00  0.00     0.012 C 
ATOM      2  C   UNL     1     136.740 137.023 161.903  1.00  0.00    -0.026 C 
ATOM      3  C   UNL     1     135.248 137.122 161.498  1.00  0.00    -0.004 C 
ATOM      4  C   UNL     1     134.875 138.582 161.081  1.00  0.00     0.008 C 
ATOM      5  C   UNL     1     135.310 139.648 162.157  1.00  0.00     0.031 C 
ATOM      6  C   UNL     1     136.149 139.029 163.286  1.00  0.00    -0.074 C 
ATOM      7  C   UNL     1     136.731 139.791 164.219  1.00  0.00     0.008 C 
ATOM      8  C   UNL     1     136.285 137.510 163.298  1.00  0.00     0.021 C 
ATOM      9  C   UNL     1     134.875 136.983 162.983  1.00  0.00     0.012 C 
ATOM     10  C   UNL     1     137.781 137.876 161.128  1.00  0.00     0.012 C 
ENDROOT
TORSDOF 0
ENDMDL
MODEL 2
REMARK VINA RESULT:     0.849      1.144      3.341
REMARK INTER + INTRA:           0.849
REMARK INTER:                   0.849
REMARK INTRA:                   0.000
REMARK UNBOUND:                 0.000
REMARK SMILES C=C1CC[C@@H]2C[C@H]1C2(C)C
REMARK SMILES IDX 9 1 8 2 5 3 4 4 3 5 2 6 1 7 7 8 6 9 10 10
REMARK H PARENT
REMARK Flexibility Score: inf
ROOT
ATOM      1  C   UNL     1     136.834 139.555 162.631  1.00  0.00     0.012 C 
ATOM      2  C   UNL     1     136.457 138.054 162.572  1.00  0.00    -0.026 C 
ATOM      3  C   UNL     1     135.571 137.727 161.344  1.00  0.00    -0.004 C 
ATOM      4  C   UNL     1     134.876 136.337 161.508  1.00  0.00     0.008 C 
ATOM      5  C   UNL     1     135.893 135.190 161.877  1.00  0.00     0.031 C 
ATOM      6  C   UNL     1     137.304 135.731 162.157  1.00  0.00    -0.074 C 
ATOM      7  C   UNL     1     138.274 134.936 162.621  1.00  0.00     0.008 C 
ATOM      8  C   UNL     1     137.550 137.209 161.876  1.00  0.00     0.021 C 
ATOM      9  C   UNL     1     136.854 137.480 160.532  1.00  0.00     0.012 C 
ATOM     10  C   UNL     1     135.972 137.615 163.981  1.00  0.00     0.012 C 
ENDROOT
TORSDOF 0
ENDMDL
MODEL 3
REMARK VINA RESULT:     0.958      1.345      2.525
REMARK INTER + INTRA:           0.958
REMARK INTER:                   0.958
REMARK INTRA:                   0.000
REMARK UNBOUND:                 0.000
REMARK SMILES C=C1CC[C@@H]2C[C@H]1C2(C)C
REMARK SMILES IDX 9 1 8 2 5 3 4 4 3 5 2 6 1 7 7 8 6 9 10 10
REMARK H PARENT
REMARK Flexibility Score: inf
ROOT
ATOM      1  C   UNL     1     137.094 137.039 161.801  1.00  0.00     0.012 C 
ATOM      2  C   UNL     1     136.191 138.193 162.305  1.00  0.00    -0.026 C 
ATOM      3  C   UNL     1     136.077 138.207 163.850  1.00  0.00    -0.004 C 
ATOM      4  C   UNL     1     134.875 139.090 164.316  1.00  0.00     0.008 C 
ATOM      5  C   UNL     1     134.895 140.528 163.671  1.00  0.00     0.031 C 
ATOM      6  C   UNL     1     135.992 140.674 162.605  1.00  0.00    -0.074 C 
ATOM      7  C   UNL     1     136.082 141.770 161.844  1.00  0.00     0.008 C 
ATOM      8  C   UNL     1     136.975 139.518 162.456  1.00  0.00     0.021 C 
ATOM      9  C   UNL     1     137.324 139.106 163.896  1.00  0.00     0.012 C 
ATOM     10  C   UNL     1     134.888 138.199 161.460  1.00  0.00     0.012 C 
ENDROOT
TORSDOF 0
ENDMDL
MODEL 4
REMARK VINA RESULT:     1.150      1.164      3.361
REMARK INTER + INTRA:           1.150
REMARK INTER:                   1.150
REMARK INTRA:                   0.000
REMARK UNBOUND:                 0.000
REMARK SMILES C=C1CC[C@@H]2C[C@H]1C2(C)C
REMARK SMILES IDX 9 1 8 2 5 3 4 4 3 5 2 6 1 7 7 8 6 9 10 10
REMARK H PARENT
REMARK Flexibility Score: inf
ROOT
ATOM      1  C   UNL     1     137.053 139.722 165.236  1.00  0.00     0.012 C 
ATOM      2  C   UNL     1     136.177 139.222 164.059  1.00  0.00    -0.026 C 
ATOM      3  C   UNL     1     136.057 140.282 162.936  1.00  0.00    -0.004 C 
ATOM      4  C   UNL     1     134.875 139.945 161.970  1.00  0.00     0.008 C 
ATOM      5  C   UNL     1     134.933 138.463 161.437  1.00  0.00     0.031 C 
ATOM      6  C   UNL     1     136.037 137.640 162.120  1.00  0.00    -0.074 C 
ATOM      7  C   UNL     1     136.157 136.326 161.908  1.00  0.00     0.008 C 
ATOM      8  C   UNL     1     136.993 138.390 163.043  1.00  0.00     0.021 C 
ATOM      9  C   UNL     1     137.326 139.693 162.297  1.00  0.00     0.012 C 
ATOM     10  C   UNL     1     134.877 138.605 164.644  1.00  0.00     0.012 C 
ENDROOT
TORSDOF 0
ENDMDL
