MODEL 1
REMARK VINA RESULT:    -5.078      0.000      0.000
REMARK INTER + INTRA:          -5.651
REMARK INTER:                  -5.524
REMARK INTRA:                  -0.127
REMARK UNBOUND:                -0.127
REMARK SMILES Cc1ccc(C(C)C)cc1O
REMARK SMILES IDX 1 1 2 2 10 3 9 4 5 5 4 6 3 7 11 8 6 10 7 11 8 12
REMARK H PARENT 11 9
REMARK Flexibility Score: inf
ROOT
ATOM      1  C   UNL     1     -19.309  42.243  33.860  1.00  0.00     0.048 C 
ATOM      2  C   UNL     1     -18.079  42.896  33.295  1.00  0.00    -0.009 A 
ATOM      3  C   UNL     1     -18.151  43.742  32.166  1.00  0.00     0.118 A 
ATOM      4  C   UNL     1     -16.986  44.335  31.665  1.00  0.00     0.050 A 
ATOM      5  C   UNL     1     -15.737  44.100  32.269  1.00  0.00    -0.042 A 
ATOM      6  C   UNL     1     -15.675  43.258  33.390  1.00  0.00     0.004 A 
ATOM      7  C   UNL     1     -16.831  42.663  33.898  1.00  0.00     0.007 A 
ENDROOT
BRANCH   3   8
ATOM      8  O   UNL     1     -19.360  44.013  31.523  1.00  0.00    -0.508 OA
ATOM      9  H   UNL     1     -20.262  43.874  31.962  1.00  0.00     0.293 HD
ENDBRANCH   3   8
BRANCH   5  10
ATOM     10  C   UNL     1     -14.473  44.741  31.728  1.00  0.00     0.013 C 
ATOM     11  C   UNL     1     -13.995  44.032  30.456  1.00  0.00     0.012 C 
ATOM     12  C   UNL     1     -13.369  44.770  32.792  1.00  0.00     0.012 C 
ENDBRANCH   5  10
TORSDOF 2
ENDMDL
MODEL 2
REMARK VINA RESULT:    -5.031      1.658      4.304
REMARK INTER + INTRA:          -5.600
REMARK INTER:                  -5.472
REMARK INTRA:                  -0.128
REMARK UNBOUND:                -0.127
REMARK SMILES Cc1ccc(C(C)C)cc1O
REMARK SMILES IDX 1 1 2 2 10 3 9 4 5 5 4 6 3 7 11 8 6 10 7 11 8 12
REMARK H PARENT 11 9
REMARK Flexibility Score: inf
ROOT
ATOM      1  C   UNL     1     -14.092  44.823  30.513  1.00  0.00     0.048 C 
ATOM      2  C   UNL     1     -15.416  44.577  31.181  1.00  0.00    -0.009 A 
ATOM      3  C   UNL     1     -16.633  44.783  30.494  1.00  0.00     0.118 A 
ATOM      4  C   UNL     1     -17.849  44.545  31.145  1.00  0.00     0.050 A 
ATOM      5  C   UNL     1     -17.880  44.101  32.480  1.00  0.00    -0.042 A 
ATOM      6  C   UNL     1     -16.666  43.898  33.154  1.00  0.00     0.004 A 
ATOM      7  C   UNL     1     -15.448  44.133  32.513  1.00  0.00     0.007 A 
ENDROOT
BRANCH   3   8
ATOM      8  O   UNL     1     -16.667  45.223  29.169  1.00  0.00    -0.508 OA
ATOM      9  H   UNL     1     -17.484  45.133  28.578  1.00  0.00     0.293 HD
ENDBRANCH   3   8
BRANCH   5  10
ATOM     10  C   UNL     1     -19.196  43.841  33.189  1.00  0.00     0.013 C 
ATOM     11  C   UNL     1     -19.545  44.988  34.144  1.00  0.00     0.012 C 
ATOM     12  C   UNL     1     -19.171  42.497  33.926  1.00  0.00     0.012 C 
ENDBRANCH   5  10
TORSDOF 2
ENDMDL
MODEL 3
REMARK VINA RESULT:    -5.025      2.243      4.761
REMARK INTER + INTRA:          -5.593
REMARK INTER:                  -5.465
REMARK INTRA:                  -0.127
REMARK UNBOUND:                -0.127
REMARK SMILES Cc1ccc(C(C)C)cc1O
REMARK SMILES IDX 1 1 2 2 10 3 9 4 5 5 4 6 3 7 11 8 6 10 7 11 8 12
REMARK H PARENT 11 9
REMARK Flexibility Score: inf
ROOT
ATOM      1  C   UNL     1     -12.401  44.587  32.131  1.00  0.00     0.048 C 
ATOM      2  C   UNL     1     -13.857  44.363  32.430  1.00  0.00    -0.009 A 
ATOM      3  C   UNL     1     -14.283  43.901  33.696  1.00  0.00     0.118 A 
ATOM      4  C   UNL     1     -15.646  43.703  33.942  1.00  0.00     0.050 A 
ATOM      5  C   UNL     1     -16.606  43.956  32.944  1.00  0.00    -0.042 A 
ATOM      6  C   UNL     1     -16.174  44.415  31.690  1.00  0.00     0.004 A 
ATOM      7  C   UNL     1     -14.816  44.616  31.435  1.00  0.00     0.007 A 
ENDROOT
BRANCH   3   8
ATOM      8  O   UNL     1     -13.379  43.632  34.725  1.00  0.00    -0.508 OA
ATOM      9  H   UNL     1     -12.554  43.059  34.601  1.00  0.00     0.293 HD
ENDBRANCH   3   8
BRANCH   5  10
ATOM     10  C   UNL     1     -18.085  43.742  33.207  1.00  0.00     0.013 C 
ATOM     11  C   UNL     1     -18.332  42.408  33.920  1.00  0.00     0.012 C 
ATOM     12  C   UNL     1     -18.896  43.834  31.910  1.00  0.00     0.012 C 
ENDBRANCH   5  10
TORSDOF 2
ENDMDL
MODEL 4
REMARK VINA RESULT:    -4.998      2.108      4.671
REMARK INTER + INTRA:          -5.564
REMARK INTER:                  -5.464
REMARK INTRA:                  -0.099
REMARK UNBOUND:                -0.127
REMARK SMILES Cc1ccc(C(C)C)cc1O
REMARK SMILES IDX 1 1 2 2 10 3 9 4 5 5 4 6 3 7 11 8 6 10 7 11 8 12
REMARK H PARENT 11 9
REMARK Flexibility Score: inf
ROOT
ATOM      1  C   UNL     1     -13.068  44.570  32.144  1.00  0.00     0.048 C 
ATOM      2  C   UNL     1     -14.530  44.305  32.376  1.00  0.00    -0.009 A 
ATOM      3  C   UNL     1     -14.996  43.805  33.612  1.00  0.00     0.118 A 
ATOM      4  C   UNL     1     -16.364  43.568  33.795  1.00  0.00     0.050 A 
ATOM      5  C   UNL     1     -17.286  43.822  32.764  1.00  0.00    -0.042 A 
ATOM      6  C   UNL     1     -16.814  44.319  31.539  1.00  0.00     0.004 A 
ATOM      7  C   UNL     1     -15.452  44.558  31.347  1.00  0.00     0.007 A 
ENDROOT
BRANCH   3   8
ATOM      8  O   UNL     1     -14.130  43.533  34.673  1.00  0.00    -0.508 OA
ATOM      9  H   UNL     1     -14.452  43.259  35.593  1.00  0.00     0.293 HD
ENDBRANCH   3   8
BRANCH   5  10
ATOM     10  C   UNL     1     -18.769  43.567  32.959  1.00  0.00     0.013 C 
ATOM     11  C   UNL     1     -19.410  44.662  33.820  1.00  0.00     0.012 C 
ATOM     12  C   UNL     1     -19.017  42.178  33.558  1.00  0.00     0.012 C 
ENDBRANCH   5  10
TORSDOF 2
ENDMDL
MODEL 5
REMARK VINA RESULT:    -4.809      1.507      2.093
REMARK INTER + INTRA:          -5.358
REMARK INTER:                  -5.251
REMARK INTRA:                  -0.107
REMARK UNBOUND:                -0.127
REMARK SMILES Cc1ccc(C(C)C)cc1O
REMARK SMILES IDX 1 1 2 2 10 3 9 4 5 5 4 6 3 7 11 8 6 10 7 11 8 12
REMARK H PARENT 11 9
REMARK Flexibility Score: inf
ROOT
ATOM      1  C   UNL     1     -19.288  42.301  33.858  1.00  0.00     0.048 C 
ATOM      2  C   UNL     1     -18.016  42.935  33.368  1.00  0.00    -0.009 A 
ATOM      3  C   UNL     1     -16.759  42.544  33.880  1.00  0.00     0.118 A 
ATOM      4  C   UNL     1     -15.592  43.154  33.403  1.00  0.00     0.050 A 
ATOM      5  C   UNL     1     -15.652  44.155  32.417  1.00  0.00    -0.042 A 
ATOM      6  C   UNL     1     -16.905  44.537  31.914  1.00  0.00     0.004 A 
ATOM      7  C   UNL     1     -18.074  43.935  32.384  1.00  0.00     0.007 A 
ENDROOT
BRANCH   3   8
ATOM      8  O   UNL     1     -16.635  41.556  34.859  1.00  0.00    -0.508 OA
ATOM      9  H   UNL     1     -17.278  41.465  35.636  1.00  0.00     0.293 HD
ENDBRANCH   3   8
BRANCH   5  10
ATOM     10  C   UNL     1     -14.390  44.819  31.897  1.00  0.00     0.013 C 
ATOM     11  C   UNL     1     -13.947  44.200  30.566  1.00  0.00     0.012 C 
ATOM     12  C   UNL     1     -13.265  44.757  32.937  1.00  0.00     0.012 C 
ENDBRANCH   5  10
TORSDOF 2
ENDMDL
MODEL 6
REMARK VINA RESULT:    -4.806      2.519      4.961
REMARK INTER + INTRA:          -5.355
REMARK INTER:                  -5.227
REMARK INTRA:                  -0.127
REMARK UNBOUND:                -0.127
REMARK SMILES Cc1ccc(C(C)C)cc1O
REMARK SMILES IDX 1 1 2 2 10 3 9 4 5 5 4 6 3 7 11 8 6 10 7 11 8 12
REMARK H PARENT 11 9
REMARK Flexibility Score: inf
ROOT
ATOM      1  C   UNL     1     -11.077  44.122  32.447  1.00  0.00     0.048 C 
ATOM      2  C   UNL     1     -12.571  44.273  32.377  1.00  0.00    -0.009 A 
ATOM      3  C   UNL     1     -13.353  44.378  33.548  1.00  0.00     0.118 A 
ATOM      4  C   UNL     1     -14.742  44.517  33.448  1.00  0.00     0.050 A 
ATOM      5  C   UNL     1     -15.376  44.553  32.192  1.00  0.00    -0.042 A 
ATOM      6  C   UNL     1     -14.591  44.448  31.034  1.00  0.00     0.004 A 
ATOM      7  C   UNL     1     -13.205  44.309  31.124  1.00  0.00     0.007 A 
ENDROOT
BRANCH   3   8
ATOM      8  O   UNL     1     -12.782  44.349  34.822  1.00  0.00    -0.508 OA
ATOM      9  H   UNL     1     -11.959  43.802  35.046  1.00  0.00     0.293 HD
ENDBRANCH   3   8
BRANCH   5  10
ATOM     10  C   UNL     1     -16.882  44.704  32.079  1.00  0.00     0.013 C 
ATOM     11  C   UNL     1     -17.605  43.492  32.680  1.00  0.00     0.012 C 
ATOM     12  C   UNL     1     -17.307  44.935  30.625  1.00  0.00     0.012 C 
ENDBRANCH   5  10
TORSDOF 2
ENDMDL
MODEL 7
REMARK VINA RESULT:    -4.791      3.083      4.478
REMARK INTER + INTRA:          -5.338
REMARK INTER:                  -5.211
REMARK INTRA:                  -0.127
REMARK UNBOUND:                -0.127
REMARK SMILES Cc1ccc(C(C)C)cc1O
REMARK SMILES IDX 1 1 2 2 10 3 9 4 5 5 4 6 3 7 11 8 6 10 7 11 8 12
REMARK H PARENT 11 9
REMARK Flexibility Score: inf
ROOT
ATOM      1  C   UNL     1     -15.731  44.705  33.881  1.00  0.00     0.048 C 
ATOM      2  C   UNL     1     -14.579  44.598  32.921  1.00  0.00    -0.009 A 
ATOM      3  C   UNL     1     -13.249  44.487  33.381  1.00  0.00     0.118 A 
ATOM      4  C   UNL     1     -12.199  44.391  32.460  1.00  0.00     0.050 A 
ATOM      5  C   UNL     1     -12.448  44.402  31.076  1.00  0.00    -0.042 A 
ATOM      6  C   UNL     1     -13.773  44.512  30.627  1.00  0.00     0.004 A 
ATOM      7  C   UNL     1     -14.827  44.610  31.538  1.00  0.00     0.007 A 
ENDROOT
BRANCH   3   8
ATOM      8  O   UNL     1     -12.938  44.471  34.743  1.00  0.00    -0.508 OA
ATOM      9  H   UNL     1     -12.099  44.890  35.123  1.00  0.00     0.293 HD
ENDBRANCH   3   8
BRANCH   5  10
ATOM     10  C   UNL     1     -11.313  44.297  30.074  1.00  0.00     0.013 C 
ATOM     11  C   UNL     1     -10.785  45.684  29.690  1.00  0.00     0.012 C 
ATOM     12  C   UNL     1     -11.741  43.506  28.834  1.00  0.00     0.012 C 
ENDBRANCH   5  10
TORSDOF 2
ENDMDL
MODEL 8
REMARK VINA RESULT:    -4.784      1.515      2.006
REMARK INTER + INTRA:          -5.331
REMARK INTER:                  -5.204
REMARK INTRA:                  -0.127
REMARK UNBOUND:                -0.127
REMARK SMILES Cc1ccc(C(C)C)cc1O
REMARK SMILES IDX 1 1 2 2 10 3 9 4 5 5 4 6 3 7 11 8 6 10 7 11 8 12
REMARK H PARENT 11 9
REMARK Flexibility Score: inf
ROOT
ATOM      1  C   UNL     1     -18.057  44.489  33.423  1.00  0.00     0.048 C 
ATOM      2  C   UNL     1     -16.756  44.496  32.668  1.00  0.00    -0.009 A 
ATOM      3  C   UNL     1     -16.723  44.678  31.268  1.00  0.00     0.118 A 
ATOM      4  C   UNL     1     -15.496  44.680  30.595  1.00  0.00     0.050 A 
ATOM      5  C   UNL     1     -14.287  44.502  31.294  1.00  0.00    -0.042 A 
ATOM      6  C   UNL     1     -14.330  44.322  32.685  1.00  0.00     0.004 A 
ATOM      7  C   UNL     1     -15.550  44.319  33.365  1.00  0.00     0.007 A 
ENDROOT
BRANCH   3   8
ATOM      8  O   UNL     1     -17.888  44.860  30.519  1.00  0.00    -0.508 OA
ATOM      9  H   UNL     1     -18.813  44.672  30.884  1.00  0.00     0.293 HD
ENDBRANCH   3   8
BRANCH   5  10
ATOM     10  C   UNL     1     -12.955  44.502  30.568  1.00  0.00     0.013 C 
ATOM     11  C   UNL     1     -12.862  43.332  29.582  1.00  0.00     0.012 C 
ATOM     12  C   UNL     1     -11.786  44.484  31.559  1.00  0.00     0.012 C 
ENDBRANCH   5  10
TORSDOF 2
ENDMDL
MODEL 9
REMARK VINA RESULT:    -4.770      1.925      2.598
REMARK INTER + INTRA:          -5.315
REMARK INTER:                  -5.188
REMARK INTRA:                  -0.128
REMARK UNBOUND:                -0.127
REMARK SMILES Cc1ccc(C(C)C)cc1O
REMARK SMILES IDX 1 1 2 2 10 3 9 4 5 5 4 6 3 7 11 8 6 10 7 11 8 12
REMARK H PARENT 11 9
REMARK Flexibility Score: inf
ROOT
ATOM      1  C   UNL     1     -19.405  42.221  34.299  1.00  0.00     0.048 C 
ATOM      2  C   UNL     1     -18.516  42.644  33.163  1.00  0.00    -0.009 A 
ATOM      3  C   UNL     1     -17.944  41.694  32.288  1.00  0.00     0.118 A 
ATOM      4  C   UNL     1     -17.120  42.120  31.240  1.00  0.00     0.050 A 
ATOM      5  C   UNL     1     -16.851  43.487  31.042  1.00  0.00    -0.042 A 
ATOM      6  C   UNL     1     -17.424  44.424  31.916  1.00  0.00     0.004 A 
ATOM      7  C   UNL     1     -18.246  44.008  32.965  1.00  0.00     0.007 A 
ENDROOT
BRANCH   3   8
ATOM      8  O   UNL     1     -18.174  40.324  32.433  1.00  0.00    -0.508 OA
ATOM      9  H   UNL     1     -18.896  39.946  33.033  1.00  0.00     0.293 HD
ENDBRANCH   3   8
BRANCH   5  10
ATOM     10  C   UNL     1     -15.958  43.953  29.907  1.00  0.00     0.013 C 
ATOM     11  C   UNL     1     -14.773  44.769  30.435  1.00  0.00     0.012 C 
ATOM     12  C   UNL     1     -16.756  44.748  28.867  1.00  0.00     0.012 C 
ENDBRANCH   5  10
TORSDOF 2
ENDMDL
