MODEL 1
REMARK VINA RESULT:    15.219      0.000      0.000
REMARK INTER + INTRA:          17.752
REMARK INTER:                  17.888
REMARK INTRA:                  -0.136
REMARK UNBOUND:                -0.136
REMARK SMILES O=C([O-])C=Cc1ccc(O)c(O)c1
REMARK SMILES IDX 6 1 13 2 7 3 11 4 8 5 9 6 5 7 4 8 2 9 1 10 3 11 12 12 10 14
REMARK H PARENT 12 13 10 15
REMARK Flexibility Score: inf
ROOT
ATOM      1  C   UNL     1     -31.460  40.945 -22.865  1.00  0.00    -0.022 A 
ATOM      2  C   UNL     1     -31.923  41.086 -24.184  1.00  0.00     0.058 A 
ATOM      3  C   UNL     1     -32.395  40.708 -21.839  1.00  0.00     0.012 A 
ATOM      4  C   UNL     1     -33.288  40.969 -24.481  1.00  0.00     0.157 A 
ATOM      5  C   UNL     1     -33.756  40.592 -22.135  1.00  0.00     0.051 A 
ATOM      6  C   UNL     1     -34.206  40.719 -23.455  1.00  0.00     0.157 A 
ENDROOT
BRANCH   1   7
ATOM      7  C   UNL     1     -30.006  41.087 -22.604  1.00  0.00     0.010 C 
ATOM      8  C   UNL     1     -29.381  40.538 -21.552  1.00  0.00     0.025 C 
BRANCH   8   9
ATOM      9  C   UNL     1     -27.934  40.691 -21.330  1.00  0.00     0.064 C 
ATOM     10  O   UNL     1     -27.480  41.062 -20.214  1.00  0.00    -0.545 OA
ATOM     11  O   UNL     1     -27.052  40.422 -22.368  1.00  0.00    -0.545 OA
ENDBRANCH   8   9
ENDBRANCH   1   7
BRANCH   4  12
ATOM     12  O   UNL     1     -33.738  41.101 -25.794  1.00  0.00    -0.504 OA
ATOM     13  H   UNL     1     -33.180  40.791 -26.580  1.00  0.00     0.293 HD
ENDBRANCH   4  12
BRANCH   6  14
ATOM     14  O   UNL     1     -35.563  40.604 -23.753  1.00  0.00    -0.504 OA
ATOM     15  H   UNL     1     -36.276  40.792 -23.059  1.00  0.00     0.293 HD
ENDBRANCH   6  14
TORSDOF 4
ENDMDL
MODEL 2
REMARK VINA RESULT:    18.193     13.806     14.401
REMARK INTER + INTRA:          21.248
REMARK INTER:                  21.382
REMARK INTRA:                  -0.134
REMARK UNBOUND:                -0.136
REMARK SMILES O=C([O-])C=Cc1ccc(O)c(O)c1
REMARK SMILES IDX 6 1 13 2 7 3 11 4 8 5 9 6 5 7 4 8 2 9 1 10 3 11 12 12 10 14
REMARK H PARENT 12 13 10 15
REMARK Flexibility Score: inf
ROOT
ATOM      1  C   UNL     1     -30.979  28.400 -16.420  1.00  0.00    -0.022 A 
ATOM      2  C   UNL     1     -30.567  28.332 -17.761  1.00  0.00     0.058 A 
ATOM      3  C   UNL     1     -31.763  29.495 -16.005  1.00  0.00     0.012 A 
ATOM      4  C   UNL     1     -30.947  29.322 -18.679  1.00  0.00     0.157 A 
ATOM      5  C   UNL     1     -32.142  30.481 -16.920  1.00  0.00     0.051 A 
ATOM      6  C   UNL     1     -31.739  30.396 -18.258  1.00  0.00     0.157 A 
ENDROOT
BRANCH   1   7
ATOM      7  C   UNL     1     -30.541  27.332 -15.487  1.00  0.00     0.010 C 
ATOM      8  C   UNL     1     -29.858  26.243 -15.870  1.00  0.00     0.025 C 
BRANCH   8   9
ATOM      9  C   UNL     1     -29.429  25.209 -14.914  1.00  0.00     0.064 C 
ATOM     10  O   UNL     1     -28.735  24.225 -15.286  1.00  0.00    -0.545 OA
ATOM     11  O   UNL     1     -29.795  25.320 -13.579  1.00  0.00    -0.545 OA
ENDBRANCH   8   9
ENDBRANCH   1   7
BRANCH   4  12
ATOM     12  O   UNL     1     -30.542  29.242 -20.010  1.00  0.00    -0.504 OA
ATOM     13  H   UNL     1     -30.119  28.402 -20.387  1.00  0.00     0.293 HD
ENDBRANCH   4  12
BRANCH   6  14
ATOM     14  O   UNL     1     -32.116  31.379 -19.173  1.00  0.00    -0.504 OA
ATOM     15  H   UNL     1     -32.016  32.365 -18.963  1.00  0.00     0.293 HD
ENDBRANCH   6  14
TORSDOF 4
ENDMDL
