MODEL 1
REMARK VINA RESULT:    -4.489      0.000      0.000
REMARK INTER + INTRA:         -14.973
REMARK INTER:                 -10.261
REMARK INTRA:                  -4.712
REMARK UNBOUND:                -4.712
REMARK SMILES CCCCCCCCCCCCCCCCCCCCCCCC(=O)[O-]
REMARK SMILES IDX 13 1 14 2 15 3 16 4 17 5 18 6 19 7 20 8 21 9 22 10 23 11
REMARK SMILES IDX 24 12 25 13 26 14 12 15 11 16 10 17 9 18 8 19 7 20 6 21 5 22
REMARK SMILES IDX 4 23 3 24 2 25 1 26
REMARK H PARENT
REMARK Flexibility Score: inf
ROOT
ATOM      1  C   UNL     1      18.089 -36.495  22.863  1.00  0.00     0.000 C 
ENDROOT
BRANCH   1   2
ATOM      2  C   UNL     1      18.734 -36.619  21.474  1.00  0.00     0.000 C 
BRANCH   2   3
ATOM      3  C   UNL     1      18.002 -37.668  20.623  1.00  0.00     0.000 C 
BRANCH   3   4
ATOM      4  C   UNL     1      17.090 -37.036  19.560  1.00  0.00     0.000 C 
BRANCH   4   5
ATOM      5  C   UNL     1      17.367 -35.536  19.362  1.00  0.00     0.000 C 
BRANCH   5   6
ATOM      6  C   UNL     1      16.113 -34.672  19.611  1.00  0.00     0.000 C 
BRANCH   6   7
ATOM      7  C   UNL     1      15.355 -35.039  20.898  1.00  0.00     0.000 C 
BRANCH   7   8
ATOM      8  C   UNL     1      15.049 -33.820  21.778  1.00  0.00     0.000 C 
BRANCH   8   9
ATOM      9  C   UNL     1      14.472 -32.667  20.940  1.00  0.00     0.000 C 
BRANCH   9  10
ATOM     10  C   UNL     1      13.333 -31.917  21.657  1.00  0.00     0.006 C 
BRANCH  10  11
ATOM     11  C   UNL     1      13.779 -30.648  22.400  1.00  0.00     0.053 C 
BRANCH  11  12
ATOM     12  C   UNL     1      13.553 -30.754  23.877  1.00  0.00     0.041 C 
ATOM     13  O   UNL     1      13.133 -29.763  24.527  1.00  0.00    -0.550 OA
ATOM     14  O   UNL     1      13.774 -31.961  24.527  1.00  0.00    -0.550 OA
ENDBRANCH  11  12
ENDBRANCH  10  11
ENDBRANCH   9  10
ENDBRANCH   8   9
ENDBRANCH   7   8
ENDBRANCH   6   7
ENDBRANCH   5   6
ENDBRANCH   4   5
ENDBRANCH   3   4
ENDBRANCH   2   3
ENDBRANCH   1   2
BRANCH   1  15
ATOM     15  C   UNL     1      18.147 -35.063  23.425  1.00  0.00     0.000 C 
BRANCH  15  16
ATOM     16  C   UNL     1      18.277 -34.968  24.958  1.00  0.00     0.000 C 
BRANCH  16  17
ATOM     17  C   UNL     1      18.002 -33.560  25.527  1.00  0.00     0.000 C 
BRANCH  17  18
ATOM     18  C   UNL     1      17.089 -32.728  24.611  1.00  0.00    -0.000 C 
BRANCH  18  19
ATOM     19  C   UNL     1      17.689 -31.338  24.354  1.00  0.00    -0.000 C 
BRANCH  19  20
ATOM     20  C   UNL     1      17.291 -30.764  22.983  1.00  0.00    -0.000 C 
BRANCH  20  21
ATOM     21  C   UNL     1      18.401 -30.804  21.912  1.00  0.00    -0.000 C 
BRANCH  21  22
ATOM     22  C   UNL     1      18.156 -31.852  20.803  1.00  0.00    -0.000 C 
BRANCH  22  23
ATOM     23  C   UNL     1      19.339 -32.827  20.661  1.00  0.00    -0.000 C 
BRANCH  23  24
ATOM     24  C   UNL     1      20.627 -32.312  21.325  1.00  0.00    -0.000 C 
BRANCH  24  25
ATOM     25  C   UNL     1      21.189 -33.237  22.420  1.00  0.00    -0.003 C 
ATOM     26  C   UNL     1      21.167 -32.595  23.809  1.00  0.00     0.004 C 
ENDBRANCH  24  25
ENDBRANCH  23  24
ENDBRANCH  22  23
ENDBRANCH  21  22
ENDBRANCH  20  21
ENDBRANCH  19  20
ENDBRANCH  18  19
ENDBRANCH  17  18
ENDBRANCH  16  17
ENDBRANCH  15  16
ENDBRANCH   1  15
TORSDOF 22
ENDMDL
MODEL 2
REMARK VINA RESULT:    -4.396      2.229      5.751
REMARK INTER + INTRA:         -14.762
REMARK INTER:                 -11.298
REMARK INTRA:                  -3.464
REMARK UNBOUND:                -4.712
REMARK SMILES CCCCCCCCCCCCCCCCCCCCCCCC(=O)[O-]
REMARK SMILES IDX 13 1 14 2 15 3 16 4 17 5 18 6 19 7 20 8 21 9 22 10 23 11
REMARK SMILES IDX 24 12 25 13 26 14 12 15 11 16 10 17 9 18 8 19 7 20 6 21 5 22
REMARK SMILES IDX 4 23 3 24 2 25 1 26
REMARK H PARENT
REMARK Flexibility Score: inf
ROOT
ATOM      1  C   UNL     1      16.257 -33.853  20.634  1.00  0.00     0.000 C 
ENDROOT
BRANCH   1   2
ATOM      2  C   UNL     1      15.527 -34.539  21.800  1.00  0.00     0.000 C 
BRANCH   2   3
ATOM      3  C   UNL     1      16.526 -35.006  22.870  1.00  0.00     0.000 C 
BRANCH   3   4
ATOM      4  C   UNL     1      15.945 -34.939  24.290  1.00  0.00     0.000 C 
BRANCH   4   5
ATOM      5  C   UNL     1      16.650 -33.890  25.167  1.00  0.00     0.000 C 
BRANCH   5   6
ATOM      6  C   UNL     1      17.695 -33.076  24.378  1.00  0.00     0.000 C 
BRANCH   6   7
ATOM      7  C   UNL     1      17.394 -31.569  24.324  1.00  0.00     0.000 C 
BRANCH   7   8
ATOM      8  C   UNL     1      17.163 -31.056  22.898  1.00  0.00     0.000 C 
BRANCH   8   9
ATOM      9  C   UNL     1      15.740 -30.496  22.737  1.00  0.00     0.000 C 
BRANCH   9  10
ATOM     10  C   UNL     1      14.808 -30.890  23.899  1.00  0.00     0.006 C 
BRANCH  10  11
ATOM     11  C   UNL     1      13.688 -31.868  23.509  1.00  0.00     0.053 C 
BRANCH  11  12
ATOM     12  C   UNL     1      12.905 -31.381  22.328  1.00  0.00     0.041 C 
ATOM     13  O   UNL     1      12.076 -30.445  22.459  1.00  0.00    -0.550 OA
ATOM     14  O   UNL     1      13.119 -31.942  21.076  1.00  0.00    -0.550 OA
ENDBRANCH  11  12
ENDBRANCH  10  11
ENDBRANCH   9  10
ENDBRANCH   8   9
ENDBRANCH   7   8
ENDBRANCH   6   7
ENDBRANCH   5   6
ENDBRANCH   4   5
ENDBRANCH   3   4
ENDBRANCH   2   3
ENDBRANCH   1   2
BRANCH   1  15
ATOM     15  C   UNL     1      16.482 -34.790  19.434  1.00  0.00     0.000 C 
BRANCH  15  16
ATOM     16  C   UNL     1      17.729 -35.690  19.534  1.00  0.00     0.000 C 
BRANCH  16  17
ATOM     17  C   UNL     1      17.443 -37.190  19.308  1.00  0.00     0.000 C 
BRANCH  17  18
ATOM     18  C   UNL     1      17.879 -38.055  20.503  1.00  0.00    -0.000 C 
BRANCH  18  19
ATOM     19  C   UNL     1      18.794 -37.264  21.449  1.00  0.00    -0.000 C 
BRANCH  19  20
ATOM     20  C   UNL     1      19.103 -38.024  22.750  1.00  0.00    -0.000 C 
BRANCH  20  21
ATOM     21  C   UNL     1      18.928 -37.202  24.043  1.00  0.00    -0.000 C 
BRANCH  21  22
ATOM     22  C   UNL     1      19.258 -37.990  25.331  1.00  0.00    -0.000 C 
BRANCH  22  23
ATOM     23  C   UNL     1      18.437 -37.495  26.534  1.00  0.00    -0.000 C 
BRANCH  23  24
ATOM     24  C   UNL     1      16.933 -37.787  26.400  1.00  0.00    -0.000 C 
BRANCH  24  25
ATOM     25  C   UNL     1      16.375 -38.743  27.471  1.00  0.00    -0.003 C 
ATOM     26  C   UNL     1      15.967 -38.021  28.757  1.00  0.00     0.004 C 
ENDBRANCH  24  25
ENDBRANCH  23  24
ENDBRANCH  22  23
ENDBRANCH  21  22
ENDBRANCH  20  21
ENDBRANCH  19  20
ENDBRANCH  18  19
ENDBRANCH  17  18
ENDBRANCH  16  17
ENDBRANCH  15  16
ENDBRANCH   1  15
TORSDOF 22
ENDMDL
MODEL 3
REMARK VINA RESULT:    -4.387      2.628      6.381
REMARK INTER + INTRA:         -14.742
REMARK INTER:                 -10.077
REMARK INTRA:                  -4.664
REMARK UNBOUND:                -4.712
REMARK SMILES CCCCCCCCCCCCCCCCCCCCCCCC(=O)[O-]
REMARK SMILES IDX 13 1 14 2 15 3 16 4 17 5 18 6 19 7 20 8 21 9 22 10 23 11
REMARK SMILES IDX 24 12 25 13 26 14 12 15 11 16 10 17 9 18 8 19 7 20 6 21 5 22
REMARK SMILES IDX 4 23 3 24 2 25 1 26
REMARK H PARENT
REMARK Flexibility Score: inf
ROOT
ATOM      1  C   UNL     1      18.633 -28.912  21.295  1.00  0.00     0.000 C 
ENDROOT
BRANCH   1   2
ATOM      2  C   UNL     1      20.059 -28.554  20.845  1.00  0.00     0.000 C 
BRANCH   2   3
ATOM      3  C   UNL     1      20.998 -29.761  20.992  1.00  0.00     0.000 C 
BRANCH   3   4
ATOM      4  C   UNL     1      21.429 -30.001  22.447  1.00  0.00     0.000 C 
BRANCH   4   5
ATOM      5  C   UNL     1      21.588 -31.495  22.777  1.00  0.00     0.000 C 
BRANCH   5   6
ATOM      6  C   UNL     1      21.246 -32.398  21.574  1.00  0.00     0.000 C 
BRANCH   6   7
ATOM      7  C   UNL     1      21.342 -33.902  21.883  1.00  0.00     0.000 C 
BRANCH   7   8
ATOM      8  C   UNL     1      20.274 -34.730  21.157  1.00  0.00     0.000 C 
BRANCH   8   9
ATOM      9  C   UNL     1      19.550 -33.884  20.096  1.00  0.00     0.000 C 
BRANCH   9  10
ATOM     10  C   UNL     1      18.018 -34.040  20.151  1.00  0.00     0.006 C 
BRANCH  10  11
ATOM     11  C   UNL     1      17.438 -34.980  19.083  1.00  0.00     0.053 C 
BRANCH  11  12
ATOM     12  C   UNL     1      17.296 -36.383  19.588  1.00  0.00     0.041 C 
ATOM     13  O   UNL     1      16.967 -36.597  20.782  1.00  0.00    -0.550 OA
ATOM     14  O   UNL     1      17.496 -37.454  18.726  1.00  0.00    -0.550 OA
ENDBRANCH  11  12
ENDBRANCH  10  11
ENDBRANCH   9  10
ENDBRANCH   8   9
ENDBRANCH   7   8
ENDBRANCH   6   7
ENDBRANCH   5   6
ENDBRANCH   4   5
ENDBRANCH   3   4
ENDBRANCH   2   3
ENDBRANCH   1   2
BRANCH   1  15
ATOM     15  C   UNL     1      18.201 -30.320  20.848  1.00  0.00     0.000 C 
BRANCH  15  16
ATOM     16  C   UNL     1      17.463 -31.147  21.919  1.00  0.00     0.000 C 
BRANCH  16  17
ATOM     17  C   UNL     1      17.533 -30.544  23.338  1.00  0.00     0.000 C 
BRANCH  17  18
ATOM     18  C   UNL     1      17.879 -31.596  24.405  1.00  0.00    -0.000 C 
BRANCH  18  19
ATOM     19  C   UNL     1      18.228 -32.943  23.755  1.00  0.00    -0.000 C 
BRANCH  19  20
ATOM     20  C   UNL     1      17.604 -34.139  24.494  1.00  0.00    -0.000 C 
BRANCH  20  21
ATOM     21  C   UNL     1      16.514 -34.895  23.706  1.00  0.00    -0.000 C 
BRANCH  21  22
ATOM     22  C   UNL     1      15.174 -34.129  23.607  1.00  0.00    -0.000 C 
BRANCH  22  23
ATOM     23  C   UNL     1      14.936 -33.568  22.195  1.00  0.00    -0.000 C 
BRANCH  23  24
ATOM     24  C   UNL     1      13.968 -32.374  22.175  1.00  0.00    -0.000 C 
BRANCH  24  25
ATOM     25  C   UNL     1      13.488 -31.924  23.567  1.00  0.00    -0.003 C 
ATOM     26  C   UNL     1      13.964 -30.518  23.935  1.00  0.00     0.004 C 
ENDBRANCH  24  25
ENDBRANCH  23  24
ENDBRANCH  22  23
ENDBRANCH  21  22
ENDBRANCH  20  21
ENDBRANCH  19  20
ENDBRANCH  18  19
ENDBRANCH  17  18
ENDBRANCH  16  17
ENDBRANCH  15  16
ENDBRANCH   1  15
TORSDOF 22
ENDMDL
MODEL 4
REMARK VINA RESULT:    -4.354      1.960      4.761
REMARK INTER + INTRA:         -14.666
REMARK INTER:                 -11.488
REMARK INTRA:                  -3.178
REMARK UNBOUND:                -4.712
REMARK SMILES CCCCCCCCCCCCCCCCCCCCCCCC(=O)[O-]
REMARK SMILES IDX 13 1 14 2 15 3 16 4 17 5 18 6 19 7 20 8 21 9 22 10 23 11
REMARK SMILES IDX 24 12 25 13 26 14 12 15 11 16 10 17 9 18 8 19 7 20 6 21 5 22
REMARK SMILES IDX 4 23 3 24 2 25 1 26
REMARK H PARENT
REMARK Flexibility Score: inf
ROOT
ATOM      1  C   UNL     1      17.785 -34.225  19.322  1.00  0.00     0.000 C 
ENDROOT
BRANCH   1   2
ATOM      2  C   UNL     1      19.232 -34.671  19.589  1.00  0.00     0.000 C 
BRANCH   2   3
ATOM      3  C   UNL     1      20.076 -33.500  20.114  1.00  0.00     0.000 C 
BRANCH   3   4
ATOM      4  C   UNL     1      19.555 -32.947  21.449  1.00  0.00     0.000 C 
BRANCH   4   5
ATOM      5  C   UNL     1      19.050 -31.499  21.331  1.00  0.00     0.000 C 
BRANCH   5   6
ATOM      6  C   UNL     1      17.528 -31.390  21.553  1.00  0.00     0.000 C 
BRANCH   6   7
ATOM      7  C   UNL     1      17.124 -30.283  22.541  1.00  0.00     0.000 C 
BRANCH   7   8
ATOM      8  C   UNL     1      15.722 -29.723  22.270  1.00  0.00     0.000 C 
BRANCH   8   9
ATOM      9  C   UNL     1      14.796 -30.809  21.699  1.00  0.00     0.000 C 
BRANCH   9  10
ATOM     10  C   UNL     1      13.642 -31.174  22.653  1.00  0.00     0.006 C 
BRANCH  10  11
ATOM     11  C   UNL     1      13.705 -30.474  24.020  1.00  0.00     0.053 C 
BRANCH  11  12
ATOM     12  C   UNL     1      12.711 -29.358  24.125  1.00  0.00     0.041 C 
ATOM     13  O   UNL     1      11.691 -29.346  23.391  1.00  0.00    -0.550 OA
ATOM     14  O   UNL     1      12.898 -28.349  25.061  1.00  0.00    -0.550 OA
ENDBRANCH  11  12
ENDBRANCH  10  11
ENDBRANCH   9  10
ENDBRANCH   8   9
ENDBRANCH   7   8
ENDBRANCH   6   7
ENDBRANCH   5   6
ENDBRANCH   4   5
ENDBRANCH   3   4
ENDBRANCH   2   3
ENDBRANCH   1   2
BRANCH   1  15
ATOM     15  C   UNL     1      16.762 -35.356  19.530  1.00  0.00     0.000 C 
BRANCH  15  16
ATOM     16  C   UNL     1      16.947 -36.173  20.825  1.00  0.00     0.000 C 
BRANCH  16  17
ATOM     17  C   UNL     1      16.934 -35.323  22.113  1.00  0.00     0.000 C 
BRANCH  17  18
ATOM     18  C   UNL     1      15.590 -34.607  22.327  1.00  0.00    -0.000 C 
BRANCH  18  19
ATOM     19  C   UNL     1      15.361 -34.302  23.814  1.00  0.00    -0.000 C 
BRANCH  19  20
ATOM     20  C   UNL     1      16.436 -33.372  24.403  1.00  0.00    -0.000 C 
BRANCH  20  21
ATOM     21  C   UNL     1      17.351 -34.022  25.462  1.00  0.00    -0.000 C 
BRANCH  21  22
ATOM     22  C   UNL     1      16.865 -35.410  25.936  1.00  0.00    -0.000 C 
BRANCH  22  23
ATOM     23  C   UNL     1      17.789 -36.540  25.450  1.00  0.00    -0.000 C 
BRANCH  23  24
ATOM     24  C   UNL     1      17.718 -37.799  26.329  1.00  0.00    -0.000 C 
BRANCH  24  25
ATOM     25  C   UNL     1      16.311 -38.118  26.867  1.00  0.00    -0.003 C 
ATOM     26  C   UNL     1      16.298 -38.388  28.373  1.00  0.00     0.004 C 
ENDBRANCH  24  25
ENDBRANCH  23  24
ENDBRANCH  22  23
ENDBRANCH  21  22
ENDBRANCH  20  21
ENDBRANCH  19  20
ENDBRANCH  18  19
ENDBRANCH  17  18
ENDBRANCH  16  17
ENDBRANCH  15  16
ENDBRANCH   1  15
TORSDOF 22
ENDMDL
MODEL 5
REMARK VINA RESULT:    -4.315      2.719      6.132
REMARK INTER + INTRA:         -14.577
REMARK INTER:                 -10.952
REMARK INTRA:                  -3.625
REMARK UNBOUND:                -4.712
REMARK SMILES CCCCCCCCCCCCCCCCCCCCCCCC(=O)[O-]
REMARK SMILES IDX 13 1 14 2 15 3 16 4 17 5 18 6 19 7 20 8 21 9 22 10 23 11
REMARK SMILES IDX 24 12 25 13 26 14 12 15 11 16 10 17 9 18 8 19 7 20 6 21 5 22
REMARK SMILES IDX 4 23 3 24 2 25 1 26
REMARK H PARENT
REMARK Flexibility Score: inf
ROOT
ATOM      1  C   UNL     1      13.878 -32.750  20.423  1.00  0.00     0.000 C 
ENDROOT
BRANCH   1   2
ATOM      2  C   UNL     1      14.002 -31.460  21.251  1.00  0.00     0.000 C 
BRANCH   2   3
ATOM      3  C   UNL     1      13.238 -31.587  22.578  1.00  0.00     0.000 C 
BRANCH   3   4
ATOM      4  C   UNL     1      14.040 -31.055  23.775  1.00  0.00     0.000 C 
BRANCH   4   5
ATOM      5  C   UNL     1      15.431 -31.703  23.889  1.00  0.00     0.000 C 
BRANCH   5   6
ATOM      6  C   UNL     1      15.350 -33.197  24.265  1.00  0.00     0.000 C 
BRANCH   6   7
ATOM      7  C   UNL     1      16.724 -33.869  24.426  1.00  0.00     0.000 C 
BRANCH   7   8
ATOM      8  C   UNL     1      16.800 -35.243  23.748  1.00  0.00     0.000 C 
BRANCH   8   9
ATOM      9  C   UNL     1      17.872 -36.125  24.409  1.00  0.00     0.000 C 
BRANCH   9  10
ATOM     10  C   UNL     1      17.739 -36.181  25.944  1.00  0.00     0.006 C 
BRANCH  10  11
ATOM     11  C   UNL     1      16.824 -37.303  26.460  1.00  0.00     0.053 C 
BRANCH  11  12
ATOM     12  C   UNL     1      17.058 -37.594  27.910  1.00  0.00     0.041 C 
ATOM     13  O   UNL     1      16.088 -37.665  28.707  1.00  0.00    -0.550 OA
ATOM     14  O   UNL     1      18.348 -37.821  28.373  1.00  0.00    -0.550 OA
ENDBRANCH  11  12
ENDBRANCH  10  11
ENDBRANCH   9  10
ENDBRANCH   8   9
ENDBRANCH   7   8
ENDBRANCH   6   7
ENDBRANCH   5   6
ENDBRANCH   4   5
ENDBRANCH   3   4
ENDBRANCH   2   3
ENDBRANCH   1   2
BRANCH   1  15
ATOM     15  C   UNL     1      14.828 -33.862  20.904  1.00  0.00     0.000 C 
BRANCH  15  16
ATOM     16  C   UNL     1      15.633 -34.559  19.789  1.00  0.00     0.000 C 
BRANCH  16  17
ATOM     17  C   UNL     1      16.165 -35.955  20.176  1.00  0.00     0.000 C 
BRANCH  17  18
ATOM     18  C   UNL     1      17.397 -36.360  19.350  1.00  0.00    -0.000 C 
BRANCH  18  19
ATOM     19  C   UNL     1      18.554 -35.375  19.569  1.00  0.00    -0.000 C 
BRANCH  19  20
ATOM     20  C   UNL     1      19.224 -35.542  20.944  1.00  0.00    -0.000 C 
BRANCH  20  21
ATOM     21  C   UNL     1      20.274 -34.466  21.292  1.00  0.00    -0.000 C 
BRANCH  21  22
ATOM     22  C   UNL     1      19.918 -33.056  20.766  1.00  0.00    -0.000 C 
BRANCH  22  23
ATOM     23  C   UNL     1      18.925 -32.331  21.691  1.00  0.00    -0.000 C 
BRANCH  23  24
ATOM     24  C   UNL     1      17.778 -31.649  20.928  1.00  0.00    -0.000 C 
BRANCH  24  25
ATOM     25  C   UNL     1      17.513 -30.192  21.353  1.00  0.00    -0.003 C 
ATOM     26  C   UNL     1      18.765 -29.315  21.280  1.00  0.00     0.004 C 
ENDBRANCH  24  25
ENDBRANCH  23  24
ENDBRANCH  22  23
ENDBRANCH  21  22
ENDBRANCH  20  21
ENDBRANCH  19  20
ENDBRANCH  18  19
ENDBRANCH  17  18
ENDBRANCH  16  17
ENDBRANCH  15  16
ENDBRANCH   1  15
TORSDOF 22
ENDMDL
MODEL 6
REMARK VINA RESULT:    -4.314      3.925      6.609
REMARK INTER + INTRA:         -14.575
REMARK INTER:                 -11.581
REMARK INTRA:                  -2.994
REMARK UNBOUND:                -4.712
REMARK SMILES CCCCCCCCCCCCCCCCCCCCCCCC(=O)[O-]
REMARK SMILES IDX 13 1 14 2 15 3 16 4 17 5 18 6 19 7 20 8 21 9 22 10 23 11
REMARK SMILES IDX 24 12 25 13 26 14 12 15 11 16 10 17 9 18 8 19 7 20 6 21 5 22
REMARK SMILES IDX 4 23 3 24 2 25 1 26
REMARK H PARENT
REMARK Flexibility Score: inf
ROOT
ATOM      1  C   UNL     1      17.045 -35.385  19.564  1.00  0.00     0.000 C 
ENDROOT
BRANCH   1   2
ATOM      2  C   UNL     1      17.919 -34.202  19.116  1.00  0.00     0.000 C 
BRANCH   2   3
ATOM      3  C   UNL     1      19.380 -34.410  19.544  1.00  0.00     0.000 C 
BRANCH   3   4
ATOM      4  C   UNL     1      19.817 -33.434  20.647  1.00  0.00     0.000 C 
BRANCH   4   5
ATOM      5  C   UNL     1      18.803 -32.298  20.865  1.00  0.00     0.000 C 
BRANCH   5   6
ATOM      6  C   UNL     1      19.466 -31.022  21.427  1.00  0.00     0.000 C 
BRANCH   6   7
ATOM      7  C   UNL     1      18.577 -29.771  21.333  1.00  0.00     0.000 C 
BRANCH   7   8
ATOM      8  C   UNL     1      19.320 -28.553  20.769  1.00  0.00     0.000 C 
BRANCH   8   9
ATOM      9  C   UNL     1      20.842 -28.752  20.846  1.00  0.00     0.000 C 
BRANCH   9  10
ATOM     10  C   UNL     1      21.538 -27.709  21.744  1.00  0.00     0.006 C 
BRANCH  10  11
ATOM     11  C   UNL     1      22.866 -27.177  21.184  1.00  0.00     0.053 C 
BRANCH  11  12
ATOM     12  C   UNL     1      22.690 -25.873  20.467  1.00  0.00     0.041 C 
ATOM     13  O   UNL     1      21.605 -25.608  19.891  1.00  0.00    -0.550 OA
ATOM     14  O   UNL     1      23.717 -24.938  20.467  1.00  0.00    -0.550 OA
ENDBRANCH  11  12
ENDBRANCH  10  11
ENDBRANCH   9  10
ENDBRANCH   8   9
ENDBRANCH   7   8
ENDBRANCH   6   7
ENDBRANCH   5   6
ENDBRANCH   4   5
ENDBRANCH   3   4
ENDBRANCH   2   3
ENDBRANCH   1   2
BRANCH   1  15
ATOM     15  C   UNL     1      15.757 -34.940  20.279  1.00  0.00     0.000 C 
BRANCH  15  16
ATOM     16  C   UNL     1      15.811 -34.999  21.818  1.00  0.00     0.000 C 
BRANCH  16  17
ATOM     17  C   UNL     1      17.148 -35.528  22.381  1.00  0.00     0.000 C 
BRANCH  17  18
ATOM     18  C   UNL     1      17.173 -35.535  23.918  1.00  0.00    -0.000 C 
BRANCH  18  19
ATOM     19  C   UNL     1      16.619 -34.220  24.483  1.00  0.00    -0.000 C 
BRANCH  19  20
ATOM     20  C   UNL     1      17.686 -33.117  24.576  1.00  0.00    -0.000 C 
BRANCH  20  21
ATOM     21  C   UNL     1      17.174 -31.688  24.298  1.00  0.00    -0.000 C 
BRANCH  21  22
ATOM     22  C   UNL     1      16.005 -31.633  23.289  1.00  0.00    -0.000 C 
BRANCH  22  23
ATOM     23  C   UNL     1      14.788 -30.884  23.860  1.00  0.00    -0.000 C 
BRANCH  23  24
ATOM     24  C   UNL     1      13.796 -30.430  22.776  1.00  0.00    -0.000 C 
BRANCH  24  25
ATOM     25  C   UNL     1      12.992 -31.575  22.132  1.00  0.00    -0.003 C 
ATOM     26  C   UNL     1      13.531 -31.980  20.759  1.00  0.00     0.004 C 
ENDBRANCH  24  25
ENDBRANCH  23  24
ENDBRANCH  22  23
ENDBRANCH  21  22
ENDBRANCH  20  21
ENDBRANCH  19  20
ENDBRANCH  18  19
ENDBRANCH  17  18
ENDBRANCH  16  17
ENDBRANCH  15  16
ENDBRANCH   1  15
TORSDOF 22
ENDMDL
MODEL 7
REMARK VINA RESULT:    -4.301      1.799      4.089
REMARK INTER + INTRA:         -14.543
REMARK INTER:                 -10.298
REMARK INTRA:                  -4.245
REMARK UNBOUND:                -4.712
REMARK SMILES CCCCCCCCCCCCCCCCCCCCCCCC(=O)[O-]
REMARK SMILES IDX 13 1 14 2 15 3 16 4 17 5 18 6 19 7 20 8 21 9 22 10 23 11
REMARK SMILES IDX 24 12 25 13 26 14 12 15 11 16 10 17 9 18 8 19 7 20 6 21 5 22
REMARK SMILES IDX 4 23 3 24 2 25 1 26
REMARK H PARENT
REMARK Flexibility Score: inf
ROOT
ATOM      1  C   UNL     1      15.576 -34.828  21.259  1.00  0.00     0.000 C 
ENDROOT
BRANCH   1   2
ATOM      2  C   UNL     1      16.584 -35.862  20.733  1.00  0.00     0.000 C 
BRANCH   2   3
ATOM      3  C   UNL     1      17.053 -35.497  19.316  1.00  0.00     0.000 C 
BRANCH   3   4
ATOM      4  C   UNL     1      17.812 -34.162  19.271  1.00  0.00     0.000 C 
BRANCH   4   5
ATOM      5  C   UNL     1      19.247 -34.280  19.813  1.00  0.00     0.000 C 
BRANCH   5   6
ATOM      6  C   UNL     1      19.689 -33.015  20.577  1.00  0.00     0.000 C 
BRANCH   6   7
ATOM      7  C   UNL     1      18.677 -32.546  21.636  1.00  0.00     0.000 C 
BRANCH   7   8
ATOM      8  C   UNL     1      18.004 -31.217  21.271  1.00  0.00     0.000 C 
BRANCH   8   9
ATOM      9  C   UNL     1      16.493 -31.269  21.554  1.00  0.00     0.000 C 
BRANCH   9  10
ATOM     10  C   UNL     1      16.162 -31.176  23.056  1.00  0.00     0.006 C 
BRANCH  10  11
ATOM     11  C   UNL     1      15.200 -30.035  23.424  1.00  0.00     0.053 C 
BRANCH  11  12
ATOM     12  C   UNL     1      13.876 -30.550  23.901  1.00  0.00     0.041 C 
ATOM     13  O   UNL     1      13.086 -29.792  24.517  1.00  0.00    -0.550 OA
ATOM     14  O   UNL     1      13.505 -31.861  23.632  1.00  0.00    -0.550 OA
ENDBRANCH  11  12
ENDBRANCH  10  11
ENDBRANCH   9  10
ENDBRANCH   8   9
ENDBRANCH   7   8
ENDBRANCH   6   7
ENDBRANCH   5   6
ENDBRANCH   4   5
ENDBRANCH   3   4
ENDBRANCH   2   3
ENDBRANCH   1   2
BRANCH   1  15
ATOM     15  C   UNL     1      15.644 -34.648  22.786  1.00  0.00     0.000 C 
BRANCH  15  16
ATOM     16  C   UNL     1      16.897 -35.242  23.457  1.00  0.00     0.000 C 
BRANCH  16  17
ATOM     17  C   UNL     1      17.413 -34.426  24.661  1.00  0.00     0.000 C 
BRANCH  17  18
ATOM     18  C   UNL     1      17.734 -35.313  25.876  1.00  0.00    -0.000 C 
BRANCH  18  19
ATOM     19  C   UNL     1      16.961 -36.638  25.807  1.00  0.00    -0.000 C 
BRANCH  19  20
ATOM     20  C   UNL     1      17.736 -37.811  26.432  1.00  0.00    -0.000 C 
BRANCH  20  21
ATOM     21  C   UNL     1      19.155 -38.030  25.866  1.00  0.00    -0.000 C 
BRANCH  21  22
ATOM     22  C   UNL     1      19.176 -38.778  24.514  1.00  0.00    -0.000 C 
BRANCH  22  23
ATOM     23  C   UNL     1      20.304 -38.276  23.596  1.00  0.00    -0.000 C 
BRANCH  23  24
ATOM     24  C   UNL     1      19.859 -37.140  22.659  1.00  0.00    -0.000 C 
BRANCH  24  25
ATOM     25  C   UNL     1      20.843 -35.958  22.585  1.00  0.00    -0.003 C 
ATOM     26  C   UNL     1      20.928 -35.173  23.895  1.00  0.00     0.004 C 
ENDBRANCH  24  25
ENDBRANCH  23  24
ENDBRANCH  22  23
ENDBRANCH  21  22
ENDBRANCH  20  21
ENDBRANCH  19  20
ENDBRANCH  18  19
ENDBRANCH  17  18
ENDBRANCH  16  17
ENDBRANCH  15  16
ENDBRANCH   1  15
TORSDOF 22
ENDMDL
MODEL 8
REMARK VINA RESULT:    -4.287      1.415      4.519
REMARK INTER + INTRA:         -14.512
REMARK INTER:                 -10.413
REMARK INTRA:                  -4.099
REMARK UNBOUND:                -4.712
REMARK SMILES CCCCCCCCCCCCCCCCCCCCCCCC(=O)[O-]
REMARK SMILES IDX 13 1 14 2 15 3 16 4 17 5 18 6 19 7 20 8 21 9 22 10 23 11
REMARK SMILES IDX 24 12 25 13 26 14 12 15 11 16 10 17 9 18 8 19 7 20 6 21 5 22
REMARK SMILES IDX 4 23 3 24 2 25 1 26
REMARK H PARENT
REMARK Flexibility Score: inf
ROOT
ATOM      1  C   UNL     1      18.232 -37.328  21.863  1.00  0.00     0.000 C 
ENDROOT
BRANCH   1   2
ATOM      2  C   UNL     1      19.727 -37.126  22.158  1.00  0.00     0.000 C 
BRANCH   2   3
ATOM      3  C   UNL     1      19.982 -35.736  22.760  1.00  0.00     0.000 C 
BRANCH   3   4
ATOM      4  C   UNL     1      20.110 -34.642  21.689  1.00  0.00     0.000 C 
BRANCH   4   5
ATOM      5  C   UNL     1      19.310 -33.376  22.041  1.00  0.00     0.000 C 
BRANCH   5   6
ATOM      6  C   UNL     1      19.321 -32.341  20.896  1.00  0.00     0.000 C 
BRANCH   6   7
ATOM      7  C   UNL     1      18.041 -31.492  20.817  1.00  0.00     0.000 C 
BRANCH   7   8
ATOM      8  C   UNL     1      18.150 -30.173  21.592  1.00  0.00     0.000 C 
BRANCH   8   9
ATOM      9  C   UNL     1      16.767 -29.530  21.783  1.00  0.00     0.000 C 
BRANCH   9  10
ATOM     10  C   UNL     1      15.909 -30.257  22.837  1.00  0.00     0.006 C 
BRANCH  10  11
ATOM     11  C   UNL     1      14.486 -30.602  22.368  1.00  0.00     0.053 C 
BRANCH  11  12
ATOM     12  C   UNL     1      13.513 -30.631  23.506  1.00  0.00     0.041 C 
ATOM     13  O   UNL     1      13.745 -31.334  24.522  1.00  0.00    -0.550 OA
ATOM     14  O   UNL     1      12.364 -29.852  23.455  1.00  0.00    -0.550 OA
ENDBRANCH  11  12
ENDBRANCH  10  11
ENDBRANCH   9  10
ENDBRANCH   8   9
ENDBRANCH   7   8
ENDBRANCH   6   7
ENDBRANCH   5   6
ENDBRANCH   4   5
ENDBRANCH   3   4
ENDBRANCH   2   3
ENDBRANCH   1   2
BRANCH   1  15
ATOM     15  C   UNL     1      17.974 -37.954  20.480  1.00  0.00     0.000 C 
BRANCH  15  16
ATOM     16  C   UNL     1      17.152 -37.080  19.512  1.00  0.00     0.000 C 
BRANCH  16  17
ATOM     17  C   UNL     1      17.708 -35.652  19.327  1.00  0.00     0.000 C 
BRANCH  17  18
ATOM     18  C   UNL     1      16.610 -34.580  19.429  1.00  0.00    -0.000 C 
BRANCH  18  19
ATOM     19  C   UNL     1      15.507 -35.014  20.405  1.00  0.00    -0.000 C 
BRANCH  19  20
ATOM     20  C   UNL     1      15.455 -34.141  21.670  1.00  0.00    -0.000 C 
BRANCH  20  21
ATOM     21  C   UNL     1      15.953 -34.828  22.958  1.00  0.00    -0.000 C 
BRANCH  21  22
ATOM     22  C   UNL     1      16.243 -33.845  24.115  1.00  0.00    -0.000 C 
BRANCH  22  23
ATOM     23  C   UNL     1      16.928 -34.543  25.304  1.00  0.00    -0.000 C 
BRANCH  23  24
ATOM     24  C   UNL     1      17.163 -36.044  25.069  1.00  0.00    -0.000 C 
BRANCH  24  25
ATOM     25  C   UNL     1      16.942 -36.923  26.314  1.00  0.00    -0.003 C 
ATOM     26  C   UNL     1      17.940 -38.078  26.410  1.00  0.00     0.004 C 
ENDBRANCH  24  25
ENDBRANCH  23  24
ENDBRANCH  22  23
ENDBRANCH  21  22
ENDBRANCH  20  21
ENDBRANCH  19  20
ENDBRANCH  18  19
ENDBRANCH  17  18
ENDBRANCH  16  17
ENDBRANCH  15  16
ENDBRANCH   1  15
TORSDOF 22
ENDMDL
MODEL 9
REMARK VINA RESULT:    -4.251      4.137      6.652
REMARK INTER + INTRA:         -14.429
REMARK INTER:                 -11.018
REMARK INTRA:                  -3.410
REMARK UNBOUND:                -4.712
REMARK SMILES CCCCCCCCCCCCCCCCCCCCCCCC(=O)[O-]
REMARK SMILES IDX 13 1 14 2 15 3 16 4 17 5 18 6 19 7 20 8 21 9 22 10 23 11
REMARK SMILES IDX 24 12 25 13 26 14 12 15 11 16 10 17 9 18 8 19 7 20 6 21 5 22
REMARK SMILES IDX 4 23 3 24 2 25 1 26
REMARK H PARENT
REMARK Flexibility Score: inf
ROOT
ATOM      1  C   UNL     1      18.846 -34.950  19.362  1.00  0.00     0.000 C 
ENDROOT
BRANCH   1   2
ATOM      2  C   UNL     1      19.359 -34.635  20.777  1.00  0.00     0.000 C 
BRANCH   2   3
ATOM      3  C   UNL     1      19.739 -33.151  20.902  1.00  0.00     0.000 C 
BRANCH   3   4
ATOM      4  C   UNL     1      18.703 -32.341  21.697  1.00  0.00     0.000 C 
BRANCH   4   5
ATOM      5  C   UNL     1      18.047 -31.234  20.853  1.00  0.00     0.000 C 
BRANCH   5   6
ATOM      6  C   UNL     1      18.061 -29.868  21.570  1.00  0.00     0.000 C 
BRANCH   6   7
ATOM      7  C   UNL     1      18.957 -28.820  20.887  1.00  0.00     0.000 C 
BRANCH   7   8
ATOM      8  C   UNL     1      20.449 -29.164  20.973  1.00  0.00     0.000 C 
BRANCH   8   9
ATOM      9  C   UNL     1      21.305 -27.889  21.046  1.00  0.00     0.000 C 
BRANCH   9  10
ATOM     10  C   UNL     1      20.542 -26.629  20.592  1.00  0.00     0.006 C 
BRANCH  10  11
ATOM     11  C   UNL     1      21.004 -25.329  21.270  1.00  0.00     0.053 C 
BRANCH  11  12
ATOM     12  C   UNL     1      22.417 -24.982  20.911  1.00  0.00     0.041 C 
ATOM     13  O   UNL     1      23.218 -24.590  21.797  1.00  0.00    -0.550 OA
ATOM     14  O   UNL     1      22.855 -25.124  19.601  1.00  0.00    -0.550 OA
ENDBRANCH  11  12
ENDBRANCH  10  11
ENDBRANCH   9  10
ENDBRANCH   8   9
ENDBRANCH   7   8
ENDBRANCH   6   7
ENDBRANCH   5   6
ENDBRANCH   4   5
ENDBRANCH   3   4
ENDBRANCH   2   3
ENDBRANCH   1   2
BRANCH   1  15
ATOM     15  C   UNL     1      17.333 -34.713  19.208  1.00  0.00     0.000 C 
BRANCH  15  16
ATOM     16  C   UNL     1      16.437 -35.643  20.049  1.00  0.00     0.000 C 
BRANCH  16  17
ATOM     17  C   UNL     1      15.340 -34.908  20.849  1.00  0.00     0.000 C 
BRANCH  17  18
ATOM     18  C   UNL     1      15.288 -33.406  20.524  1.00  0.00    -0.000 C 
BRANCH  18  19
ATOM     19  C   UNL     1      13.880 -32.842  20.763  1.00  0.00    -0.000 C 
BRANCH  19  20
ATOM     20  C   UNL     1      13.890 -31.563  21.618  1.00  0.00    -0.000 C 
BRANCH  20  21
ATOM     21  C   UNL     1      14.000 -31.797  23.139  1.00  0.00    -0.000 C 
BRANCH  21  22
ATOM     22  C   UNL     1      15.295 -31.227  23.763  1.00  0.00    -0.000 C 
BRANCH  22  23
ATOM     23  C   UNL     1      16.274 -32.340  24.174  1.00  0.00    -0.000 C 
BRANCH  23  24
ATOM     24  C   UNL     1      15.606 -33.721  24.284  1.00  0.00    -0.000 C 
BRANCH  24  25
ATOM     25  C   UNL     1      16.589 -34.905  24.258  1.00  0.00    -0.003 C 
ATOM     26  C   UNL     1      18.002 -34.514  24.696  1.00  0.00     0.004 C 
ENDBRANCH  24  25
ENDBRANCH  23  24
ENDBRANCH  22  23
ENDBRANCH  21  22
ENDBRANCH  20  21
ENDBRANCH  19  20
ENDBRANCH  18  19
ENDBRANCH  17  18
ENDBRANCH  16  17
ENDBRANCH  15  16
ENDBRANCH   1  15
TORSDOF 22
ENDMDL
