MODEL 1
REMARK VINA RESULT:    -5.326      0.000      0.000
REMARK INTER + INTRA:         -10.097
REMARK INTER:                  -8.440
REMARK INTRA:                  -1.657
REMARK UNBOUND:                -1.657
REMARK SMILES C[C@H]1O[C@H](O[C@H]2[C@@H](Oc3cc(O)c4c(c3)O[C@H](c3ccc(O)cc3)CC4=O)O[C@H](CO)[C@H](O)[C@@H]2O)[C@H](O)[C@H](O)[C@@H]1O
REMARK SMILES IDX 6 1 34 2 32 3 29 4 28 5 7 6 5 7 4 8 1 9 2 10 40 11 3 12
REMARK SMILES IDX 38 13 36 14 41 15 39 17 37 19 35 21 8 23 9 24 10 25 15 26
REMARK SMILES IDX 11 27 14 28 13 29 16 30 26 31 17 32 27 33 25 34 12 35 18 37
REMARK SMILES IDX 19 38 24 39 20 40 23 41 21 42 22 43 33 45 30 47 31 48
REMARK H PARENT 41 16 39 18 37 20 35 22 12 36 22 44 33 46 31 49
REMARK Flexibility Score: inf
ROOT
ATOM      1  C   UNL     1      20.330  33.215  42.989  1.00  0.00     0.221 C 
ATOM      2  C   UNL     1      21.618  32.411  42.752  1.00  0.00     0.181 C 
ATOM      3  C   UNL     1      22.541  33.169  41.778  1.00  0.00     0.177 C 
ATOM      4  C   UNL     1      21.783  33.672  40.518  1.00  0.00     0.179 C 
ATOM      5  O   UNL     1      20.591  34.368  40.856  1.00  0.00    -0.332 OA
ATOM      6  C   UNL     1      19.700  33.582  41.634  1.00  0.00     0.339 C 
ENDROOT
BRANCH   1   7
ATOM      7  O   UNL     1      20.627  34.421  43.683  1.00  0.00    -0.337 OA
BRANCH   7   8
ATOM      8  C   UNL     1      20.007  34.482  44.961  1.00  0.00     0.282 C 
ATOM      9  C   UNL     1      22.992  34.579  47.114  1.00  0.00     0.041 C 
ATOM     10  C   UNL     1      22.002  35.078  46.060  1.00  0.00     0.150 C 
ATOM     11  C   UNL     1      21.492  36.496  46.404  1.00  0.00     0.174 C 
ATOM     12  O   UNL     1      20.924  34.153  45.996  1.00  0.00    -0.344 OA
ATOM     13  C   UNL     1      20.472  36.951  45.347  1.00  0.00     0.179 C 
ATOM     14  C   UNL     1      19.384  35.874  45.187  1.00  0.00     0.202 C 
BRANCH  11  15
ATOM     15  O   UNL     1      22.561  37.409  46.445  1.00  0.00    -0.388 OA
ATOM     16  H   UNL     1      23.022  37.279  47.315  1.00  0.00     0.211 HD
ENDBRANCH  11  15
BRANCH  13  17
ATOM     17  O   UNL     1      21.102  37.177  44.110  1.00  0.00    -0.387 OA
ATOM     18  H   UNL     1      20.536  37.821  43.611  1.00  0.00     0.211 HD
ENDBRANCH  13  17
BRANCH  14  19
ATOM     19  O   UNL     1      18.533  36.190  44.115  1.00  0.00    -0.385 OA
ATOM     20  H   UNL     1      18.448  35.368  43.565  1.00  0.00     0.211 HD
ENDBRANCH  14  19
ENDBRANCH   7   8
ENDBRANCH   1   7
BRANCH   2  21
ATOM     21  O   UNL     1      21.292  31.138  42.253  1.00  0.00    -0.387 OA
ATOM     22  H   UNL     1      21.022  30.581  43.030  1.00  0.00     0.211 HD
ENDBRANCH   2  21
BRANCH   6  23
ATOM     23  O   UNL     1      18.516  34.339  41.880  1.00  0.00    -0.462 OA
BRANCH  23  24
ATOM     24  C   UNL     1      17.694  34.890  40.883  1.00  0.00     0.130 A 
ATOM     25  C   UNL     1      18.088  34.971  39.537  1.00  0.00     0.093 A 
ATOM     26  C   UNL     1      16.438  35.369  41.255  1.00  0.00     0.094 A 
ATOM     27  C   UNL     1      17.241  35.525  38.571  1.00  0.00     0.133 A 
ATOM     28  C   UNL     1      15.599  35.971  40.317  1.00  0.00     0.138 A 
ATOM     29  C   UNL     1      15.991  36.067  38.964  1.00  0.00     0.102 A 
ATOM     30  O   UNL     1      14.363  36.484  40.737  1.00  0.00    -0.484 OA
ATOM     31  C   UNL     1      15.049  36.751  38.041  1.00  0.00     0.174 C 
ATOM     32  C   UNL     1      13.596  37.382  39.932  1.00  0.00     0.211 C 
ATOM     33  O   UNL     1      15.432  37.253  36.951  1.00  0.00    -0.294 OA
ATOM     34  C   UNL     1      13.620  36.915  38.466  1.00  0.00     0.131 C 
BRANCH  27  35
ATOM     35  O   UNL     1      17.670  35.486  37.242  1.00  0.00    -0.507 OA
ATOM     36  H   UNL     1      18.630  35.359  36.961  1.00  0.00     0.293 HD
ENDBRANCH  27  35
BRANCH  32  37
ATOM     37  C   UNL     1      12.217  37.547  40.541  1.00  0.00    -0.007 A 
ATOM     38  C   UNL     1      12.128  37.732  41.933  1.00  0.00     0.011 A 
ATOM     39  C   UNL     1      11.023  37.508  39.788  1.00  0.00     0.011 A 
ATOM     40  C   UNL     1      10.888  37.881  42.558  1.00  0.00     0.046 A 
ATOM     41  C   UNL     1       9.784  37.655  40.418  1.00  0.00     0.046 A 
ATOM     42  C   UNL     1       9.713  37.840  41.804  1.00  0.00     0.115 A 
BRANCH  42  43
ATOM     43  O   UNL     1       8.482  37.982  42.439  1.00  0.00    -0.508 OA
ATOM     44  H   UNL     1       7.798  37.235  42.439  1.00  0.00     0.293 HD
ENDBRANCH  42  43
ENDBRANCH  32  37
ENDBRANCH  23  24
ENDBRANCH   6  23
BRANCH   3  45
ATOM     45  O   UNL     1      23.639  32.365  41.427  1.00  0.00    -0.387 OA
ATOM     46  H   UNL     1      23.924  31.893  42.252  1.00  0.00     0.211 HD
ENDBRANCH   3  45
BRANCH   4  47
ATOM     47  C   UNL     1      21.537  32.608  39.426  1.00  0.00     0.191 C 
BRANCH  47  48
ATOM     48  O   UNL     1      22.693  32.437  38.655  1.00  0.00    -0.394 OA
ATOM     49  H   UNL     1      23.353  31.985  39.241  1.00  0.00     0.210 HD
ENDBRANCH  47  48
ENDBRANCH   4  47
TORSDOF 14
ENDMDL
MODEL 2
REMARK VINA RESULT:    -5.266      2.136      4.824
REMARK INTER + INTRA:         -10.000
REMARK INTER:                  -8.510
REMARK INTRA:                  -1.490
REMARK UNBOUND:                -1.657
REMARK SMILES C[C@H]1O[C@H](O[C@H]2[C@@H](Oc3cc(O)c4c(c3)O[C@H](c3ccc(O)cc3)CC4=O)O[C@H](CO)[C@H](O)[C@@H]2O)[C@H](O)[C@H](O)[C@@H]1O
REMARK SMILES IDX 6 1 34 2 32 3 29 4 28 5 7 6 5 7 4 8 1 9 2 10 40 11 3 12
REMARK SMILES IDX 38 13 36 14 41 15 39 17 37 19 35 21 8 23 9 24 10 25 15 26
REMARK SMILES IDX 11 27 14 28 13 29 16 30 26 31 17 32 27 33 25 34 12 35 18 37
REMARK SMILES IDX 19 38 24 39 20 40 23 41 21 42 22 43 33 45 30 47 31 48
REMARK H PARENT 41 16 39 18 37 20 35 22 12 36 22 44 33 46 31 49
REMARK Flexibility Score: inf
ROOT
ATOM      1  C   UNL     1      20.227  33.218  43.049  1.00  0.00     0.221 C 
ATOM      2  C   UNL     1      21.500  32.444  42.668  1.00  0.00     0.181 C 
ATOM      3  C   UNL     1      22.306  33.236  41.620  1.00  0.00     0.177 C 
ATOM      4  C   UNL     1      21.415  33.744  40.452  1.00  0.00     0.179 C 
ATOM      5  O   UNL     1      20.250  34.410  40.921  1.00  0.00    -0.332 OA
ATOM      6  C   UNL     1      19.458  33.593  41.770  1.00  0.00     0.339 C 
ENDROOT
BRANCH   1   7
ATOM      7  O   UNL     1      20.571  34.419  43.730  1.00  0.00    -0.337 OA
BRANCH   7   8
ATOM      8  C   UNL     1      19.972  34.505  45.016  1.00  0.00     0.282 C 
ATOM      9  C   UNL     1      22.991  34.511  47.125  1.00  0.00     0.041 C 
ATOM     10  C   UNL     1      22.002  35.038  46.083  1.00  0.00     0.150 C 
ATOM     11  C   UNL     1      21.544  36.475  46.429  1.00  0.00     0.174 C 
ATOM     12  O   UNL     1      20.892  34.150  46.040  1.00  0.00    -0.344 OA
ATOM     13  C   UNL     1      20.524  36.959  45.385  1.00  0.00     0.179 C 
ATOM     14  C   UNL     1      19.399  35.918  45.246  1.00  0.00     0.202 C 
BRANCH  11  15
ATOM     15  O   UNL     1      22.644  37.352  46.450  1.00  0.00    -0.388 OA
ATOM     16  H   UNL     1      22.558  37.907  47.269  1.00  0.00     0.211 HD
ENDBRANCH  11  15
BRANCH  13  17
ATOM     17  O   UNL     1      21.144  37.160  44.138  1.00  0.00    -0.387 OA
ATOM     18  H   UNL     1      21.978  36.624  44.141  1.00  0.00     0.211 HD
ENDBRANCH  13  17
BRANCH  14  19
ATOM     19  O   UNL     1      18.543  36.258  44.185  1.00  0.00    -0.385 OA
ATOM     20  H   UNL     1      18.849  35.742  43.394  1.00  0.00     0.211 HD
ENDBRANCH  14  19
ENDBRANCH   7   8
ENDBRANCH   1   7
BRANCH   2  21
ATOM     21  O   UNL     1      21.149  31.173  42.182  1.00  0.00    -0.387 OA
ATOM     22  H   UNL     1      21.986  30.741  41.865  1.00  0.00     0.211 HD
ENDBRANCH   2  21
BRANCH   6  23
ATOM     23  O   UNL     1      18.291  34.322  42.147  1.00  0.00    -0.462 OA
BRANCH  23  24
ATOM     24  C   UNL     1      17.367  34.881  41.248  1.00  0.00     0.130 A 
ATOM     25  C   UNL     1      16.032  35.141  41.600  1.00  0.00     0.093 A 
ATOM     26  C   UNL     1      17.805  35.189  39.960  1.00  0.00     0.094 A 
ATOM     27  C   UNL     1      15.140  35.700  40.678  1.00  0.00     0.133 A 
ATOM     28  C   UNL     1      16.918  35.700  39.010  1.00  0.00     0.138 A 
ATOM     29  C   UNL     1      15.572  35.954  39.351  1.00  0.00     0.102 A 
ATOM     30  O   UNL     1      17.383  35.953  37.711  1.00  0.00    -0.484 OA
ATOM     31  C   UNL     1      14.693  36.468  38.270  1.00  0.00     0.174 C 
ATOM     32  C   UNL     1      16.496  36.167  36.612  1.00  0.00     0.211 C 
ATOM     33  O   UNL     1      13.441  36.348  38.318  1.00  0.00    -0.294 OA
ATOM     34  C   UNL     1      15.331  37.071  37.053  1.00  0.00     0.131 C 
BRANCH  27  35
ATOM     35  O   UNL     1      13.857  36.010  41.133  1.00  0.00    -0.507 OA
ATOM     36  H   UNL     1      13.076  35.372  41.102  1.00  0.00     0.293 HD
ENDBRANCH  27  35
BRANCH  32  37
ATOM     37  C   UNL     1      17.288  36.662  35.417  1.00  0.00    -0.007 A 
ATOM     38  C   UNL     1      18.527  36.051  35.148  1.00  0.00     0.011 A 
ATOM     39  C   UNL     1      16.856  37.711  34.576  1.00  0.00     0.011 A 
ATOM     40  C   UNL     1      19.309  36.466  34.068  1.00  0.00     0.046 A 
ATOM     41  C   UNL     1      17.644  38.125  33.499  1.00  0.00     0.046 A 
ATOM     42  C   UNL     1      18.874  37.505  33.244  1.00  0.00     0.115 A 
BRANCH  42  43
ATOM     43  O   UNL     1      19.667  37.914  32.175  1.00  0.00    -0.508 OA
ATOM     44  H   UNL     1      19.417  38.716  31.609  1.00  0.00     0.293 HD
ENDBRANCH  42  43
ENDBRANCH  32  37
ENDBRANCH  23  24
ENDBRANCH   6  23
BRANCH   3  45
ATOM     45  O   UNL     1      23.378  32.460  41.147  1.00  0.00    -0.387 OA
ATOM     46  H   UNL     1      23.403  32.577  40.162  1.00  0.00     0.211 HD
ENDBRANCH   3  45
BRANCH   4  47
ATOM     47  C   UNL     1      21.080  32.693  39.372  1.00  0.00     0.191 C 
BRANCH  47  48
ATOM     48  O   UNL     1      22.123  32.612  38.442  1.00  0.00    -0.394 OA
ATOM     49  H   UNL     1      22.222  33.521  38.055  1.00  0.00     0.210 HD
ENDBRANCH  47  48
ENDBRANCH   4  47
TORSDOF 14
ENDMDL
MODEL 3
REMARK VINA RESULT:    -4.815      2.545      5.843
REMARK INTER + INTRA:          -9.286
REMARK INTER:                  -7.298
REMARK INTRA:                  -1.988
REMARK UNBOUND:                -1.657
REMARK SMILES C[C@H]1O[C@H](O[C@H]2[C@@H](Oc3cc(O)c4c(c3)O[C@H](c3ccc(O)cc3)CC4=O)O[C@H](CO)[C@H](O)[C@@H]2O)[C@H](O)[C@H](O)[C@@H]1O
REMARK SMILES IDX 6 1 34 2 32 3 29 4 28 5 7 6 5 7 4 8 1 9 2 10 40 11 3 12
REMARK SMILES IDX 38 13 36 14 41 15 39 17 37 19 35 21 8 23 9 24 10 25 15 26
REMARK SMILES IDX 11 27 14 28 13 29 16 30 26 31 17 32 27 33 25 34 12 35 18 37
REMARK SMILES IDX 19 38 24 39 20 40 23 41 21 42 22 43 33 45 30 47 31 48
REMARK H PARENT 41 16 39 18 37 20 35 22 12 36 22 44 33 46 31 49
REMARK Flexibility Score: inf
ROOT
ATOM      1  C   UNL     1      20.428  33.648  44.058  1.00  0.00     0.221 C 
ATOM      2  C   UNL     1      21.825  34.258  43.861  1.00  0.00     0.181 C 
ATOM      3  C   UNL     1      22.524  34.426  45.224  1.00  0.00     0.177 C 
ATOM      4  C   UNL     1      21.603  35.101  46.279  1.00  0.00     0.179 C 
ATOM      5  O   UNL     1      20.327  34.480  46.348  1.00  0.00    -0.332 OA
ATOM      6  C   UNL     1      19.653  34.474  45.099  1.00  0.00     0.339 C 
ENDROOT
BRANCH   1   7
ATOM      7  O   UNL     1      20.540  32.314  44.542  1.00  0.00    -0.337 OA
BRANCH   7   8
ATOM      8  C   UNL     1      20.131  31.350  43.581  1.00  0.00     0.282 C 
ATOM      9  C   UNL     1      23.303  29.539  43.108  1.00  0.00     0.041 C 
ATOM     10  C   UNL     1      22.069  30.041  43.860  1.00  0.00     0.150 C 
ATOM     11  C   UNL     1      21.289  28.866  44.495  1.00  0.00     0.174 C 
ATOM     12  O   UNL     1      21.251  30.753  42.940  1.00  0.00    -0.344 OA
ATOM     13  C   UNL     1      20.037  29.400  45.209  1.00  0.00     0.179 C 
ATOM     14  C   UNL     1      19.232  30.286  44.241  1.00  0.00     0.202 C 
BRANCH  11  15
ATOM     15  O   UNL     1      22.097  28.179  45.419  1.00  0.00    -0.388 OA
ATOM     16  H   UNL     1      21.972  27.208  45.249  1.00  0.00     0.211 HD
ENDBRANCH  11  15
BRANCH  13  17
ATOM     17  O   UNL     1      20.392  30.143  46.350  1.00  0.00    -0.387 OA
ATOM     18  H   UNL     1      21.297  30.514  46.183  1.00  0.00     0.211 HD
ENDBRANCH  13  17
BRANCH  14  19
ATOM     19  O   UNL     1      18.173  30.915  44.916  1.00  0.00    -0.385 OA
ATOM     20  H   UNL     1      18.296  30.724  45.883  1.00  0.00     0.211 HD
ENDBRANCH  14  19
ENDBRANCH   7   8
ENDBRANCH   1   7
BRANCH   2  21
ATOM     21  O   UNL     1      21.710  35.490  43.195  1.00  0.00    -0.387 OA
ATOM     22  H   UNL     1      20.740  35.683  43.106  1.00  0.00     0.211 HD
ENDBRANCH   2  21
BRANCH   6  23
ATOM     23  O   UNL     1      18.367  33.882  45.275  1.00  0.00    -0.462 OA
BRANCH  23  24
ATOM     24  C   UNL     1      17.192  34.305  44.633  1.00  0.00     0.130 A 
ATOM     25  C   UNL     1      15.943  34.324  45.277  1.00  0.00     0.093 A 
ATOM     26  C   UNL     1      17.281  34.724  43.306  1.00  0.00     0.094 A 
ATOM     27  C   UNL     1      14.794  34.754  44.606  1.00  0.00     0.133 A 
ATOM     28  C   UNL     1      16.138  35.108  42.603  1.00  0.00     0.138 A 
ATOM     29  C   UNL     1      14.877  35.120  43.238  1.00  0.00     0.102 A 
ATOM     30  O   UNL     1      16.258  35.478  41.255  1.00  0.00    -0.484 OA
ATOM     31  C   UNL     1      13.712  35.513  42.405  1.00  0.00     0.174 C 
ATOM     32  C   UNL     1      15.128  35.575  40.386  1.00  0.00     0.211 C 
ATOM     33  O   UNL     1      12.535  35.182  42.709  1.00  0.00    -0.294 OA
ATOM     34  C   UNL     1      13.962  36.254  41.125  1.00  0.00     0.131 C 
BRANCH  27  35
ATOM     35  O   UNL     1      13.609  34.828  45.342  1.00  0.00    -0.507 OA
ATOM     36  H   UNL     1      13.571  34.991  46.337  1.00  0.00     0.293 HD
ENDBRANCH  27  35
BRANCH  32  37
ATOM     37  C   UNL     1      15.550  36.235  39.087  1.00  0.00    -0.007 A 
ATOM     38  C   UNL     1      16.528  35.591  38.307  1.00  0.00     0.011 A 
ATOM     39  C   UNL     1      15.026  37.465  38.633  1.00  0.00     0.011 A 
ATOM     40  C   UNL     1      16.966  36.151  37.105  1.00  0.00     0.046 A 
ATOM     41  C   UNL     1      15.469  38.022  37.430  1.00  0.00     0.046 A 
ATOM     42  C   UNL     1      16.443  37.368  36.665  1.00  0.00     0.115 A 
BRANCH  42  43
ATOM     43  O   UNL     1      16.894  37.919  35.468  1.00  0.00    -0.508 OA
ATOM     44  H   UNL     1      17.794  38.380  35.406  1.00  0.00     0.293 HD
ENDBRANCH  42  43
ENDBRANCH  32  37
ENDBRANCH  23  24
ENDBRANCH   6  23
BRANCH   3  45
ATOM     45  O   UNL     1      23.727  35.135  45.067  1.00  0.00    -0.387 OA
ATOM     46  H   UNL     1      24.345  34.812  45.771  1.00  0.00     0.211 HD
ENDBRANCH   3  45
BRANCH   4  47
ATOM     47  C   UNL     1      21.489  36.637  46.170  1.00  0.00     0.191 C 
BRANCH  47  48
ATOM     48  O   UNL     1      22.629  37.243  46.712  1.00  0.00    -0.394 OA
ATOM     49  H   UNL     1      23.405  36.860  46.225  1.00  0.00     0.210 HD
ENDBRANCH  47  48
ENDBRANCH   4  47
TORSDOF 14
ENDMDL
MODEL 4
REMARK VINA RESULT:    -4.767      1.412      1.651
REMARK INTER + INTRA:          -9.211
REMARK INTER:                  -7.373
REMARK INTRA:                  -1.838
REMARK UNBOUND:                -1.657
REMARK SMILES C[C@H]1O[C@H](O[C@H]2[C@@H](Oc3cc(O)c4c(c3)O[C@H](c3ccc(O)cc3)CC4=O)O[C@H](CO)[C@H](O)[C@@H]2O)[C@H](O)[C@H](O)[C@@H]1O
REMARK SMILES IDX 6 1 34 2 32 3 29 4 28 5 7 6 5 7 4 8 1 9 2 10 40 11 3 12
REMARK SMILES IDX 38 13 36 14 41 15 39 17 37 19 35 21 8 23 9 24 10 25 15 26
REMARK SMILES IDX 11 27 14 28 13 29 16 30 26 31 17 32 27 33 25 34 12 35 18 37
REMARK SMILES IDX 19 38 24 39 20 40 23 41 21 42 22 43 33 45 30 47 31 48
REMARK H PARENT 41 16 39 18 37 20 35 22 12 36 22 44 33 46 31 49
REMARK Flexibility Score: inf
ROOT
ATOM      1  C   UNL     1      20.562  32.773  41.070  1.00  0.00     0.221 C 
ATOM      2  C   UNL     1      21.692  31.828  40.631  1.00  0.00     0.181 C 
ATOM      3  C   UNL     1      22.846  32.637  40.009  1.00  0.00     0.177 C 
ATOM      4  C   UNL     1      22.344  33.670  38.961  1.00  0.00     0.179 C 
ATOM      5  O   UNL     1      21.277  34.462  39.462  1.00  0.00    -0.332 OA
ATOM      6  C   UNL     1      20.171  33.682  39.891  1.00  0.00     0.339 C 
ENDROOT
BRANCH   1   7
ATOM      7  O   UNL     1      21.004  33.599  42.141  1.00  0.00    -0.337 OA
BRANCH   7   8
ATOM      8  C   UNL     1      20.452  33.211  43.392  1.00  0.00     0.282 C 
ATOM      9  C   UNL     1      23.546  32.580  45.286  1.00  0.00     0.041 C 
ATOM     10  C   UNL     1      22.508  33.405  44.522  1.00  0.00     0.150 C 
ATOM     11  C   UNL     1      22.032  34.614  45.361  1.00  0.00     0.174 C 
ATOM     12  O   UNL     1      21.417  32.552  44.200  1.00  0.00    -0.344 OA
ATOM     13  C   UNL     1      20.964  35.398  44.581  1.00  0.00     0.179 C 
ATOM     14  C   UNL     1      19.857  34.435  44.116  1.00  0.00     0.202 C 
BRANCH  11  15
ATOM     15  O   UNL     1      23.113  35.464  45.658  1.00  0.00    -0.388 OA
ATOM     16  H   UNL     1      23.360  35.926  44.814  1.00  0.00     0.211 HD
ENDBRANCH  11  15
BRANCH  13  17
ATOM     17  O   UNL     1      21.533  36.042  43.467  1.00  0.00    -0.387 OA
ATOM     18  H   UNL     1      22.360  36.490  43.783  1.00  0.00     0.211 HD
ENDBRANCH  13  17
BRANCH  14  19
ATOM     19  O   UNL     1      18.956  35.095  43.266  1.00  0.00    -0.385 OA
ATOM     20  H   UNL     1      18.112  35.211  43.778  1.00  0.00     0.211 HD
ENDBRANCH  14  19
ENDBRANCH   7   8
ENDBRANCH   1   7
BRANCH   2  21
ATOM     21  O   UNL     1      21.187  30.885  39.720  1.00  0.00    -0.387 OA
ATOM     22  H   UNL     1      21.829  30.837  38.963  1.00  0.00     0.211 HD
ENDBRANCH   2  21
BRANCH   6  23
ATOM     23  O   UNL     1      19.133  34.559  40.326  1.00  0.00    -0.462 OA
BRANCH  23  24
ATOM     24  C   UNL     1      18.131  35.091  39.498  1.00  0.00     0.130 A 
ATOM     25  C   UNL     1      18.263  35.160  38.101  1.00  0.00     0.093 A 
ATOM     26  C   UNL     1      16.962  35.561  40.097  1.00  0.00     0.094 A 
ATOM     27  C   UNL     1      17.242  35.695  37.307  1.00  0.00     0.133 A 
ATOM     28  C   UNL     1      15.954  36.145  39.328  1.00  0.00     0.138 A 
ATOM     29  C   UNL     1      16.082  36.230  37.925  1.00  0.00     0.102 A 
ATOM     30  O   UNL     1      14.814  36.650  39.970  1.00  0.00    -0.484 OA
ATOM     31  C   UNL     1      14.975  36.894  37.190  1.00  0.00     0.174 C 
ATOM     32  C   UNL     1      13.898  37.532  39.317  1.00  0.00     0.211 C 
ATOM     33  O   UNL     1      15.139  37.387  36.044  1.00  0.00    -0.294 OA
ATOM     34  C   UNL     1      13.650  37.048  37.877  1.00  0.00     0.131 C 
BRANCH  27  35
ATOM     35  O   UNL     1      17.412  35.646  35.922  1.00  0.00    -0.507 OA
ATOM     36  H   UNL     1      18.199  36.047  35.435  1.00  0.00     0.293 HD
ENDBRANCH  27  35
BRANCH  32  37
ATOM     37  C   UNL     1      12.657  37.690  40.174  1.00  0.00    -0.007 A 
ATOM     38  C   UNL     1      12.783  37.493  41.561  1.00  0.00     0.011 A 
ATOM     39  C   UNL     1      11.384  38.006  39.650  1.00  0.00     0.011 A 
ATOM     40  C   UNL     1      11.678  37.615  42.405  1.00  0.00     0.046 A 
ATOM     41  C   UNL     1      10.279  38.125  40.499  1.00  0.00     0.046 A 
ATOM     42  C   UNL     1      10.423  37.927  41.877  1.00  0.00     0.115 A 
BRANCH  42  43
ATOM     43  O   UNL     1       9.327  38.039  42.729  1.00  0.00    -0.508 OA
ATOM     44  H   UNL     1       9.210  37.420  43.522  1.00  0.00     0.293 HD
ENDBRANCH  42  43
ENDBRANCH  32  37
ENDBRANCH  23  24
ENDBRANCH   6  23
BRANCH   3  45
ATOM     45  O   UNL     1      23.803  31.770  39.456  1.00  0.00    -0.387 OA
ATOM     46  H   UNL     1      23.529  30.848  39.699  1.00  0.00     0.211 HD
ENDBRANCH   3  45
BRANCH   4  47
ATOM     47  C   UNL     1      22.025  33.091  37.565  1.00  0.00     0.191 C 
BRANCH  47  48
ATOM     48  O   UNL     1      21.700  34.126  36.680  1.00  0.00    -0.394 OA
ATOM     49  H   UNL     1      20.728  34.039  36.497  1.00  0.00     0.210 HD
ENDBRANCH  47  48
ENDBRANCH   4  47
TORSDOF 14
ENDMDL
MODEL 5
REMARK VINA RESULT:    -4.674      2.208      4.041
REMARK INTER + INTRA:          -9.063
REMARK INTER:                  -7.342
REMARK INTRA:                  -1.720
REMARK UNBOUND:                -1.657
REMARK SMILES C[C@H]1O[C@H](O[C@H]2[C@@H](Oc3cc(O)c4c(c3)O[C@H](c3ccc(O)cc3)CC4=O)O[C@H](CO)[C@H](O)[C@@H]2O)[C@H](O)[C@H](O)[C@@H]1O
REMARK SMILES IDX 6 1 34 2 32 3 29 4 28 5 7 6 5 7 4 8 1 9 2 10 40 11 3 12
REMARK SMILES IDX 38 13 36 14 41 15 39 17 37 19 35 21 8 23 9 24 10 25 15 26
REMARK SMILES IDX 11 27 14 28 13 29 16 30 26 31 17 32 27 33 25 34 12 35 18 37
REMARK SMILES IDX 19 38 24 39 20 40 23 41 21 42 22 43 33 45 30 47 31 48
REMARK H PARENT 41 16 39 18 37 20 35 22 12 36 22 44 33 46 31 49
REMARK Flexibility Score: inf
ROOT
ATOM      1  C   UNL     1      22.092  32.357  44.674  1.00  0.00     0.221 C 
ATOM      2  C   UNL     1      23.379  32.675  45.453  1.00  0.00     0.181 C 
ATOM      3  C   UNL     1      24.245  33.671  44.657  1.00  0.00     0.177 C 
ATOM      4  C   UNL     1      24.407  33.252  43.169  1.00  0.00     0.179 C 
ATOM      5  O   UNL     1      23.159  32.947  42.562  1.00  0.00    -0.332 OA
ATOM      6  C   UNL     1      22.455  31.920  43.245  1.00  0.00     0.339 C 
ENDROOT
BRANCH   1   7
ATOM      7  O   UNL     1      21.272  33.518  44.590  1.00  0.00    -0.337 OA
BRANCH   7   8
ATOM      8  C   UNL     1      20.565  33.773  45.796  1.00  0.00     0.282 C 
ATOM      9  C   UNL     1      22.080  36.990  46.753  1.00  0.00     0.041 C 
ATOM     10  C   UNL     1      21.264  36.019  45.897  1.00  0.00     0.150 C 
ATOM     11  C   UNL     1      19.839  36.566  45.644  1.00  0.00     0.174 C 
ATOM     12  O   UNL     1      21.214  34.770  46.574  1.00  0.00    -0.344 OA
ATOM     13  C   UNL     1      19.035  35.551  44.815  1.00  0.00     0.179 C 
ATOM     14  C   UNL     1      19.107  34.167  45.486  1.00  0.00     0.202 C 
BRANCH  11  15
ATOM     15  O   UNL     1      19.895  37.791  44.956  1.00  0.00    -0.388 OA
ATOM     16  H   UNL     1      19.644  37.607  44.012  1.00  0.00     0.211 HD
ENDBRANCH  11  15
BRANCH  13  17
ATOM     17  O   UNL     1      19.536  35.469  43.503  1.00  0.00    -0.387 OA
ATOM     18  H   UNL     1      19.104  36.195  42.983  1.00  0.00     0.211 HD
ENDBRANCH  13  17
BRANCH  14  19
ATOM     19  O   UNL     1      18.517  33.191  44.666  1.00  0.00    -0.385 OA
ATOM     20  H   UNL     1      19.227  32.530  44.453  1.00  0.00     0.211 HD
ENDBRANCH  14  19
ENDBRANCH   7   8
ENDBRANCH   1   7
BRANCH   2  21
ATOM     21  O   UNL     1      24.080  31.484  45.706  1.00  0.00    -0.387 OA
ATOM     22  H   UNL     1      23.819  31.180  46.616  1.00  0.00     0.211 HD
ENDBRANCH   2  21
BRANCH   6  23
ATOM     23  O   UNL     1      21.247  31.645  42.539  1.00  0.00    -0.462 OA
BRANCH  23  24
ATOM     24  C   UNL     1      20.878  32.233  41.318  1.00  0.00     0.130 A 
ATOM     25  C   UNL     1      21.583  32.003  40.124  1.00  0.00     0.093 A 
ATOM     26  C   UNL     1      19.765  33.074  41.300  1.00  0.00     0.094 A 
ATOM     27  C   UNL     1      21.186  32.605  38.925  1.00  0.00     0.133 A 
ATOM     28  C   UNL     1      19.383  33.724  40.126  1.00  0.00     0.138 A 
ATOM     29  C   UNL     1      20.092  33.508  38.925  1.00  0.00     0.102 A 
ATOM     30  O   UNL     1      18.287  34.599  40.157  1.00  0.00    -0.484 OA
ATOM     31  C   UNL     1      19.634  34.265  37.732  1.00  0.00     0.174 C 
ATOM     32  C   UNL     1      18.026  35.533  39.108  1.00  0.00     0.211 C 
ATOM     33  O   UNL     1      20.391  34.479  36.748  1.00  0.00    -0.294 OA
ATOM     34  C   UNL     1      18.256  34.859  37.744  1.00  0.00     0.131 C 
BRANCH  27  35
ATOM     35  O   UNL     1      21.885  32.255  37.768  1.00  0.00    -0.507 OA
ATOM     36  H   UNL     1      22.392  31.391  37.653  1.00  0.00     0.293 HD
ENDBRANCH  27  35
BRANCH  32  37
ATOM     37  C   UNL     1      16.652  36.143  39.310  1.00  0.00    -0.007 A 
ATOM     38  C   UNL     1      15.791  35.536  40.242  1.00  0.00     0.011 A 
ATOM     39  C   UNL     1      16.189  37.273  38.600  1.00  0.00     0.011 A 
ATOM     40  C   UNL     1      14.509  36.042  40.468  1.00  0.00     0.046 A 
ATOM     41  C   UNL     1      14.905  37.775  38.828  1.00  0.00     0.046 A 
ATOM     42  C   UNL     1      14.061  37.159  39.760  1.00  0.00     0.115 A 
BRANCH  42  43
ATOM     43  O   UNL     1      12.778  37.650  39.990  1.00  0.00    -0.508 OA
ATOM     44  H   UNL     1      11.958  37.077  39.832  1.00  0.00     0.293 HD
ENDBRANCH  42  43
ENDBRANCH  32  37
ENDBRANCH  23  24
ENDBRANCH   6  23
BRANCH   3  45
ATOM     45  O   UNL     1      25.493  33.833  45.282  1.00  0.00    -0.387 OA
ATOM     46  H   UNL     1      25.874  32.926  45.402  1.00  0.00     0.211 HD
ENDBRANCH   3  45
BRANCH   4  47
ATOM     47  C   UNL     1      25.460  32.154  42.902  1.00  0.00     0.191 C 
BRANCH  47  48
ATOM     48  O   UNL     1      26.202  32.469  41.758  1.00  0.00    -0.394 OA
ATOM     49  H   UNL     1      26.047  33.434  41.584  1.00  0.00     0.210 HD
ENDBRANCH  47  48
ENDBRANCH   4  47
TORSDOF 14
ENDMDL
MODEL 6
REMARK VINA RESULT:    -4.607      3.488      8.167
REMARK INTER + INTRA:          -8.956
REMARK INTER:                  -7.363
REMARK INTRA:                  -1.593
REMARK UNBOUND:                -1.657
REMARK SMILES C[C@H]1O[C@H](O[C@H]2[C@@H](Oc3cc(O)c4c(c3)O[C@H](c3ccc(O)cc3)CC4=O)O[C@H](CO)[C@H](O)[C@@H]2O)[C@H](O)[C@H](O)[C@@H]1O
REMARK SMILES IDX 6 1 34 2 32 3 29 4 28 5 7 6 5 7 4 8 1 9 2 10 40 11 3 12
REMARK SMILES IDX 38 13 36 14 41 15 39 17 37 19 35 21 8 23 9 24 10 25 15 26
REMARK SMILES IDX 11 27 14 28 13 29 16 30 26 31 17 32 27 33 25 34 12 35 18 37
REMARK SMILES IDX 19 38 24 39 20 40 23 41 21 42 22 43 33 45 30 47 31 48
REMARK H PARENT 41 16 39 18 37 20 35 22 12 36 22 44 33 46 31 49
REMARK Flexibility Score: inf
ROOT
ATOM      1  C   UNL     1      18.940  34.481  44.869  1.00  0.00     0.221 C 
ATOM      2  C   UNL     1      18.717  35.776  45.667  1.00  0.00     0.181 C 
ATOM      3  C   UNL     1      19.703  36.862  45.196  1.00  0.00     0.177 C 
ATOM      4  C   UNL     1      21.162  36.334  45.103  1.00  0.00     0.179 C 
ATOM      5  O   UNL     1      21.243  35.116  44.377  1.00  0.00    -0.332 OA
ATOM      6  C   UNL     1      20.427  34.094  44.931  1.00  0.00     0.339 C 
ENDROOT
BRANCH   1   7
ATOM      7  O   UNL     1      18.588  34.681  43.504  1.00  0.00    -0.337 OA
BRANCH   7   8
ATOM      8  C   UNL     1      17.192  34.876  43.325  1.00  0.00     0.282 C 
ATOM      9  C   UNL     1      17.111  35.617  39.719  1.00  0.00     0.041 C 
ATOM     10  C   UNL     1      17.335  34.776  40.977  1.00  0.00     0.150 C 
ATOM     11  C   UNL     1      16.556  33.442  40.898  1.00  0.00     0.174 C 
ATOM     12  O   UNL     1      16.917  35.541  42.099  1.00  0.00    -0.344 OA
ATOM     13  C   UNL     1      16.772  32.639  42.192  1.00  0.00     0.179 C 
ATOM     14  C   UNL     1      16.449  33.527  43.407  1.00  0.00     0.202 C 
BRANCH  11  15
ATOM     15  O   UNL     1      16.990  32.681  39.798  1.00  0.00    -0.388 OA
ATOM     16  H   UNL     1      17.968  32.545  39.905  1.00  0.00     0.211 HD
ENDBRANCH  11  15
BRANCH  13  17
ATOM     17  O   UNL     1      18.098  32.179  42.277  1.00  0.00    -0.387 OA
ATOM     18  H   UNL     1      18.314  31.757  41.406  1.00  0.00     0.211 HD
ENDBRANCH  13  17
BRANCH  14  19
ATOM     19  O   UNL     1      16.793  32.871  44.600  1.00  0.00    -0.385 OA
ATOM     20  H   UNL     1      16.526  31.920  44.491  1.00  0.00     0.211 HD
ENDBRANCH  14  19
ENDBRANCH   7   8
ENDBRANCH   1   7
BRANCH   2  21
ATOM     21  O   UNL     1      18.869  35.514  47.039  1.00  0.00    -0.387 OA
ATOM     22  H   UNL     1      18.552  34.585  47.195  1.00  0.00     0.211 HD
ENDBRANCH   2  21
BRANCH   6  23
ATOM     23  O   UNL     1      20.612  32.900  44.172  1.00  0.00    -0.462 OA
BRANCH  23  24
ATOM     24  C   UNL     1      21.489  32.767  43.083  1.00  0.00     0.130 A 
ATOM     25  C   UNL     1      22.723  32.101  43.182  1.00  0.00     0.093 A 
ATOM     26  C   UNL     1      21.109  33.319  41.859  1.00  0.00     0.094 A 
ATOM     27  C   UNL     1      23.570  31.987  42.075  1.00  0.00     0.133 A 
ATOM     28  C   UNL     1      21.962  33.260  40.757  1.00  0.00     0.138 A 
ATOM     29  C   UNL     1      23.208  32.603  40.849  1.00  0.00     0.102 A 
ATOM     30  O   UNL     1      21.567  33.867  39.556  1.00  0.00    -0.484 OA
ATOM     31  C   UNL     1      24.064  32.617  39.636  1.00  0.00     0.174 C 
ATOM     32  C   UNL     1      22.486  34.132  38.495  1.00  0.00     0.211 C 
ATOM     33  O   UNL     1      25.310  32.443  39.699  1.00  0.00    -0.294 OA
ATOM     34  C   UNL     1      23.429  32.929  38.313  1.00  0.00     0.131 C 
BRANCH  27  35
ATOM     35  O   UNL     1      24.736  31.234  42.233  1.00  0.00    -0.507 OA
ATOM     36  H   UNL     1      25.289  31.217  43.076  1.00  0.00     0.293 HD
ENDBRANCH  27  35
BRANCH  32  37
ATOM     37  C   UNL     1      21.717  34.550  37.257  1.00  0.00    -0.007 A 
ATOM     38  C   UNL     1      20.324  34.717  37.370  1.00  0.00     0.011 A 
ATOM     39  C   UNL     1      22.322  34.762  35.998  1.00  0.00     0.011 A 
ATOM     40  C   UNL     1      19.556  35.092  36.265  1.00  0.00     0.046 A 
ATOM     41  C   UNL     1      21.549  35.134  34.895  1.00  0.00     0.046 A 
ATOM     42  C   UNL     1      20.164  35.297  35.025  1.00  0.00     0.115 A 
BRANCH  42  43
ATOM     43  O   UNL     1      19.386  35.664  33.930  1.00  0.00    -0.508 OA
ATOM     44  H   UNL     1      18.960  34.968  33.329  1.00  0.00     0.293 HD
ENDBRANCH  42  43
ENDBRANCH  32  37
ENDBRANCH  23  24
ENDBRANCH   6  23
BRANCH   3  45
ATOM     45  O   UNL     1      19.618  37.988  46.032  1.00  0.00    -0.387 OA
ATOM     46  H   UNL     1      19.495  38.776  45.442  1.00  0.00     0.211 HD
ENDBRANCH   3  45
BRANCH   4  47
ATOM     47  C   UNL     1      21.921  36.255  46.446  1.00  0.00     0.191 C 
BRANCH  47  48
ATOM     48  O   UNL     1      22.603  37.454  46.683  1.00  0.00    -0.394 OA
ATOM     49  H   UNL     1      23.560  37.214  46.787  1.00  0.00     0.210 HD
ENDBRANCH  47  48
ENDBRANCH   4  47
TORSDOF 14
ENDMDL
MODEL 7
REMARK VINA RESULT:    -4.600      1.934      2.989
REMARK INTER + INTRA:          -8.945
REMARK INTER:                  -6.957
REMARK INTRA:                  -1.989
REMARK UNBOUND:                -1.657
REMARK SMILES C[C@H]1O[C@H](O[C@H]2[C@@H](Oc3cc(O)c4c(c3)O[C@H](c3ccc(O)cc3)CC4=O)O[C@H](CO)[C@H](O)[C@@H]2O)[C@H](O)[C@H](O)[C@@H]1O
REMARK SMILES IDX 6 1 34 2 32 3 29 4 28 5 7 6 5 7 4 8 1 9 2 10 40 11 3 12
REMARK SMILES IDX 38 13 36 14 41 15 39 17 37 19 35 21 8 23 9 24 10 25 15 26
REMARK SMILES IDX 11 27 14 28 13 29 16 30 26 31 17 32 27 33 25 34 12 35 18 37
REMARK SMILES IDX 19 38 24 39 20 40 23 41 21 42 22 43 33 45 30 47 31 48
REMARK H PARENT 41 16 39 18 37 20 35 22 12 36 22 44 33 46 31 49
REMARK Flexibility Score: inf
ROOT
ATOM      1  C   UNL     1      22.015  31.673  42.475  1.00  0.00     0.221 C 
ATOM      2  C   UNL     1      22.833  30.372  42.518  1.00  0.00     0.181 C 
ATOM      3  C   UNL     1      24.281  30.645  42.068  1.00  0.00     0.177 C 
ATOM      4  C   UNL     1      24.345  31.475  40.755  1.00  0.00     0.179 C 
ATOM      5  O   UNL     1      23.523  32.632  40.815  1.00  0.00    -0.332 OA
ATOM      6  C   UNL     1      22.164  32.324  41.089  1.00  0.00     0.339 C 
ENDROOT
BRANCH   1   7
ATOM      7  O   UNL     1      22.499  32.588  43.451  1.00  0.00    -0.337 OA
BRANCH   7   8
ATOM      8  C   UNL     1      21.809  32.480  44.689  1.00  0.00     0.282 C 
ATOM      9  C   UNL     1      24.403  33.741  46.978  1.00  0.00     0.041 C 
ATOM     10  C   UNL     1      23.378  33.802  45.843  1.00  0.00     0.150 C 
ATOM     11  C   UNL     1      22.374  34.958  46.064  1.00  0.00     0.174 C 
ATOM     12  O   UNL     1      22.706  32.551  45.789  1.00  0.00    -0.344 OA
ATOM     13  C   UNL     1      21.337  34.967  44.929  1.00  0.00     0.179 C 
ATOM     14  C   UNL     1      20.717  33.565  44.788  1.00  0.00     0.202 C 
BRANCH  11  15
ATOM     15  O   UNL     1      23.043  36.194  46.096  1.00  0.00    -0.388 OA
ATOM     16  H   UNL     1      23.867  36.066  46.636  1.00  0.00     0.211 HD
ENDBRANCH  11  15
BRANCH  13  17
ATOM     17  O   UNL     1      21.932  35.348  43.712  1.00  0.00    -0.387 OA
ATOM     18  H   UNL     1      21.552  34.762  43.009  1.00  0.00     0.211 HD
ENDBRANCH  13  17
BRANCH  14  19
ATOM     19  O   UNL     1      19.888  33.505  43.656  1.00  0.00    -0.385 OA
ATOM     20  H   UNL     1      19.211  32.801  43.834  1.00  0.00     0.211 HD
ENDBRANCH  14  19
ENDBRANCH   7   8
ENDBRANCH   1   7
BRANCH   2  21
ATOM     21  O   UNL     1      22.222  29.407  41.700  1.00  0.00    -0.387 OA
ATOM     22  H   UNL     1      22.922  29.062  41.084  1.00  0.00     0.211 HD
ENDBRANCH   2  21
BRANCH   6  23
ATOM     23  O   UNL     1      21.409  33.535  41.078  1.00  0.00    -0.462 OA
BRANCH  23  24
ATOM     24  C   UNL     1      20.580  33.955  40.026  1.00  0.00     0.130 A 
ATOM     25  C   UNL     1      20.931  33.793  38.675  1.00  0.00     0.093 A 
ATOM     26  C   UNL     1      19.360  34.553  40.346  1.00  0.00     0.094 A 
ATOM     27  C   UNL     1      20.079  34.223  37.652  1.00  0.00     0.133 A 
ATOM     28  C   UNL     1      18.519  35.035  39.342  1.00  0.00     0.138 A 
ATOM     29  C   UNL     1      18.869  34.886  37.982  1.00  0.00     0.102 A 
ATOM     30  O   UNL     1      17.323  35.673  39.702  1.00  0.00    -0.484 OA
ATOM     31  C   UNL     1      17.929  35.456  36.983  1.00  0.00     0.174 C 
ATOM     32  C   UNL     1      16.571  36.464  38.780  1.00  0.00     0.211 C 
ATOM     33  O   UNL     1      18.298  35.751  35.816  1.00  0.00    -0.294 OA
ATOM     34  C   UNL     1      16.524  35.761  37.412  1.00  0.00     0.131 C 
BRANCH  27  35
ATOM     35  O   UNL     1      20.460  33.944  36.338  1.00  0.00    -0.507 OA
ATOM     36  H   UNL     1      20.605  34.648  35.630  1.00  0.00     0.293 HD
ENDBRANCH  27  35
BRANCH  32  37
ATOM     37  C   UNL     1      15.224  36.798  39.388  1.00  0.00    -0.007 A 
ATOM     38  C   UNL     1      14.740  35.970  40.418  1.00  0.00     0.011 A 
ATOM     39  C   UNL     1      14.424  37.883  38.964  1.00  0.00     0.011 A 
ATOM     40  C   UNL     1      13.502  36.218  41.014  1.00  0.00     0.046 A 
ATOM     41  C   UNL     1      13.185  38.125  39.562  1.00  0.00     0.046 A 
ATOM     42  C   UNL     1      12.719  37.292  40.586  1.00  0.00     0.115 A 
BRANCH  42  43
ATOM     43  O   UNL     1      11.483  37.523  41.184  1.00  0.00    -0.508 OA
ATOM     44  H   UNL     1      10.855  36.761  41.410  1.00  0.00     0.293 HD
ENDBRANCH  42  43
ENDBRANCH  32  37
ENDBRANCH  23  24
ENDBRANCH   6  23
BRANCH   3  45
ATOM     45  O   UNL     1      24.985  29.436  41.944  1.00  0.00    -0.387 OA
ATOM     46  H   UNL     1      25.799  29.630  41.412  1.00  0.00     0.211 HD
ENDBRANCH   3  45
BRANCH   4  47
ATOM     47  C   UNL     1      24.114  30.673  39.456  1.00  0.00     0.191 C 
BRANCH  47  48
ATOM     48  O   UNL     1      25.244  29.902  39.161  1.00  0.00    -0.394 OA
ATOM     49  H   UNL     1      25.111  29.029  39.614  1.00  0.00     0.210 HD
ENDBRANCH  47  48
ENDBRANCH   4  47
TORSDOF 14
ENDMDL
MODEL 8
REMARK VINA RESULT:    -4.591      2.162      4.717
REMARK INTER + INTRA:          -8.931
REMARK INTER:                  -6.881
REMARK INTRA:                  -2.050
REMARK UNBOUND:                -1.657
REMARK SMILES C[C@H]1O[C@H](O[C@H]2[C@@H](Oc3cc(O)c4c(c3)O[C@H](c3ccc(O)cc3)CC4=O)O[C@H](CO)[C@H](O)[C@@H]2O)[C@H](O)[C@H](O)[C@@H]1O
REMARK SMILES IDX 6 1 34 2 32 3 29 4 28 5 7 6 5 7 4 8 1 9 2 10 40 11 3 12
REMARK SMILES IDX 38 13 36 14 41 15 39 17 37 19 35 21 8 23 9 24 10 25 15 26
REMARK SMILES IDX 11 27 14 28 13 29 16 30 26 31 17 32 27 33 25 34 12 35 18 37
REMARK SMILES IDX 19 38 24 39 20 40 23 41 21 42 22 43 33 45 30 47 31 48
REMARK H PARENT 41 16 39 18 37 20 35 22 12 36 22 44 33 46 31 49
REMARK Flexibility Score: inf
ROOT
ATOM      1  C   UNL     1      21.855  34.778  43.766  1.00  0.00     0.221 C 
ATOM      2  C   UNL     1      21.624  35.551  45.075  1.00  0.00     0.181 C 
ATOM      3  C   UNL     1      20.687  34.752  46.001  1.00  0.00     0.177 C 
ATOM      4  C   UNL     1      19.423  34.235  45.257  1.00  0.00     0.179 C 
ATOM      5  O   UNL     1      19.753  33.571  44.045  1.00  0.00    -0.332 OA
ATOM      6  C   UNL     1      20.496  34.393  43.156  1.00  0.00     0.339 C 
ENDROOT
BRANCH   1   7
ATOM      7  O   UNL     1      22.581  33.582  44.025  1.00  0.00    -0.337 OA
BRANCH   7   8
ATOM      8  C   UNL     1      23.885  33.604  43.460  1.00  0.00     0.282 C 
ATOM      9  C   UNL     1      25.912  33.625  46.533  1.00  0.00     0.041 C 
ATOM     10  C   UNL     1      24.933  33.067  45.498  1.00  0.00     0.150 C 
ATOM     11  C   UNL     1      25.386  31.675  44.999  1.00  0.00     0.174 C 
ATOM     12  O   UNL     1      24.858  33.991  44.420  1.00  0.00    -0.344 OA
ATOM     13  C   UNL     1      24.404  31.161  43.935  1.00  0.00     0.179 C 
ATOM     14  C   UNL     1      24.223  32.232  42.843  1.00  0.00     0.202 C 
BRANCH  11  15
ATOM     15  O   UNL     1      25.438  30.761  46.067  1.00  0.00    -0.388 OA
ATOM     16  H   UNL     1      24.503  30.493  46.267  1.00  0.00     0.211 HD
ENDBRANCH  11  15
BRANCH  13  17
ATOM     17  O   UNL     1      23.158  30.855  44.512  1.00  0.00    -0.387 OA
ATOM     18  H   UNL     1      23.067  29.868  44.496  1.00  0.00     0.211 HD
ENDBRANCH  13  17
BRANCH  14  19
ATOM     19  O   UNL     1      23.210  31.854  41.947  1.00  0.00    -0.385 OA
ATOM     20  H   UNL     1      22.450  31.526  42.496  1.00  0.00     0.211 HD
ENDBRANCH  14  19
ENDBRANCH   7   8
ENDBRANCH   1   7
BRANCH   2  21
ATOM     21  O   UNL     1      21.091  36.818  44.784  1.00  0.00    -0.387 OA
ATOM     22  H   UNL     1      20.102  36.735  44.831  1.00  0.00     0.211 HD
ENDBRANCH   2  21
BRANCH   6  23
ATOM     23  O   UNL     1      20.734  33.665  41.952  1.00  0.00    -0.462 OA
BRANCH  23  24
ATOM     24  C   UNL     1      20.173  33.973  40.702  1.00  0.00     0.130 A 
ATOM     25  C   UNL     1      20.782  33.610  39.489  1.00  0.00     0.093 A 
ATOM     26  C   UNL     1      18.961  34.664  40.675  1.00  0.00     0.094 A 
ATOM     27  C   UNL     1      20.193  33.932  38.262  1.00  0.00     0.133 A 
ATOM     28  C   UNL     1      18.383  35.040  39.462  1.00  0.00     0.138 A 
ATOM     29  C   UNL     1      18.993  34.689  38.239  1.00  0.00     0.102 A 
ATOM     30  O   UNL     1      17.189  35.776  39.475  1.00  0.00    -0.484 OA
ATOM     31  C   UNL     1      18.324  35.157  36.998  1.00  0.00     0.174 C 
ATOM     32  C   UNL     1      16.703  36.465  38.322  1.00  0.00     0.211 C 
ATOM     33  O   UNL     1      18.946  35.271  35.909  1.00  0.00    -0.294 OA
ATOM     34  C   UNL     1      16.888  35.582  37.074  1.00  0.00     0.131 C 
BRANCH  27  35
ATOM     35  O   UNL     1      20.815  33.457  37.105  1.00  0.00    -0.507 OA
ATOM     36  H   UNL     1      21.704  33.791  36.764  1.00  0.00     0.293 HD
ENDBRANCH  27  35
BRANCH  32  37
ATOM     37  C   UNL     1      15.287  36.941  38.580  1.00  0.00    -0.007 A 
ATOM     38  C   UNL     1      14.691  36.602  39.809  1.00  0.00     0.011 A 
ATOM     39  C   UNL     1      14.534  37.689  37.648  1.00  0.00     0.011 A 
ATOM     40  C   UNL     1      13.386  37.001  40.105  1.00  0.00     0.046 A 
ATOM     41  C   UNL     1      13.228  38.084  37.949  1.00  0.00     0.046 A 
ATOM     42  C   UNL     1      12.650  37.739  39.176  1.00  0.00     0.115 A 
BRANCH  42  43
ATOM     43  O   UNL     1      11.347  38.125  39.481  1.00  0.00    -0.508 OA
ATOM     44  H   UNL     1      10.785  38.651  38.823  1.00  0.00     0.293 HD
ENDBRANCH  42  43
ENDBRANCH  32  37
ENDBRANCH  23  24
ENDBRANCH   6  23
BRANCH   3  45
ATOM     45  O   UNL     1      20.340  35.526  47.122  1.00  0.00    -0.387 OA
ATOM     46  H   UNL     1      19.380  35.757  47.025  1.00  0.00     0.211 HD
ENDBRANCH   3  45
BRANCH   4  47
ATOM     47  C   UNL     1      18.303  35.279  45.055  1.00  0.00     0.191 C 
BRANCH  47  48
ATOM     48  O   UNL     1      17.681  35.558  46.277  1.00  0.00    -0.394 OA
ATOM     49  H   UNL     1      16.747  35.817  46.061  1.00  0.00     0.210 HD
ENDBRANCH  47  48
ENDBRANCH   4  47
TORSDOF 14
ENDMDL
MODEL 9
REMARK VINA RESULT:    -4.590      2.563      6.049
REMARK INTER + INTRA:          -8.929
REMARK INTER:                  -6.888
REMARK INTRA:                  -2.042
REMARK UNBOUND:                -1.657
REMARK SMILES C[C@H]1O[C@H](O[C@H]2[C@@H](Oc3cc(O)c4c(c3)O[C@H](c3ccc(O)cc3)CC4=O)O[C@H](CO)[C@H](O)[C@@H]2O)[C@H](O)[C@H](O)[C@@H]1O
REMARK SMILES IDX 6 1 34 2 32 3 29 4 28 5 7 6 5 7 4 8 1 9 2 10 40 11 3 12
REMARK SMILES IDX 38 13 36 14 41 15 39 17 37 19 35 21 8 23 9 24 10 25 15 26
REMARK SMILES IDX 11 27 14 28 13 29 16 30 26 31 17 32 27 33 25 34 12 35 18 37
REMARK SMILES IDX 19 38 24 39 20 40 23 41 21 42 22 43 33 45 30 47 31 48
REMARK H PARENT 41 16 39 18 37 20 35 22 12 36 22 44 33 46 31 49
REMARK Flexibility Score: inf
ROOT
ATOM      1  C   UNL     1      20.315  33.932  43.271  1.00  0.00     0.221 C 
ATOM      2  C   UNL     1      21.646  34.575  43.695  1.00  0.00     0.181 C 
ATOM      3  C   UNL     1      21.650  34.826  45.215  1.00  0.00     0.177 C 
ATOM      4  C   UNL     1      20.347  35.519  45.702  1.00  0.00     0.179 C 
ATOM      5  O   UNL     1      19.182  34.863  45.221  1.00  0.00    -0.332 OA
ATOM      6  C   UNL     1      19.147  34.781  43.804  1.00  0.00     0.339 C 
ENDROOT
BRANCH   1   7
ATOM      7  O   UNL     1      20.205  32.626  43.825  1.00  0.00    -0.337 OA
BRANCH   7   8
ATOM      8  C   UNL     1      20.450  31.606  42.866  1.00  0.00     0.282 C 
ATOM      9  C   UNL     1      23.032  29.671  44.641  1.00  0.00     0.041 C 
ATOM     10  C   UNL     1      21.644  30.264  44.388  1.00  0.00     0.150 C 
ATOM     11  C   UNL     1      20.558  29.163  44.404  1.00  0.00     0.174 C 
ATOM     12  O   UNL     1      21.672  30.930  43.132  1.00  0.00    -0.344 OA
ATOM     13  C   UNL     1      19.184  29.786  44.109  1.00  0.00     0.179 C 
ATOM     14  C   UNL     1      19.265  30.621  42.819  1.00  0.00     0.202 C 
BRANCH  11  15
ATOM     15  O   UNL     1      20.523  28.522  45.655  1.00  0.00    -0.388 OA
ATOM     16  H   UNL     1      21.254  27.850  45.659  1.00  0.00     0.211 HD
ENDBRANCH  11  15
BRANCH  13  17
ATOM     17  O   UNL     1      18.766  30.600  45.177  1.00  0.00    -0.387 OA
ATOM     18  H   UNL     1      19.490  30.582  45.854  1.00  0.00     0.211 HD
ENDBRANCH  13  17
BRANCH  14  19
ATOM     19  O   UNL     1      18.069  31.330  42.616  1.00  0.00    -0.385 OA
ATOM     20  H   UNL     1      17.369  30.865  43.145  1.00  0.00     0.211 HD
ENDBRANCH  14  19
ENDBRANCH   7   8
ENDBRANCH   1   7
BRANCH   2  21
ATOM     21  O   UNL     1      21.836  35.772  42.984  1.00  0.00    -0.387 OA
ATOM     22  H   UNL     1      22.804  35.991  43.036  1.00  0.00     0.211 HD
ENDBRANCH   2  21
BRANCH   6  23
ATOM     23  O   UNL     1      17.925  34.158  43.412  1.00  0.00    -0.462 OA
BRANCH  23  24
ATOM     24  C   UNL     1      16.996  34.706  42.513  1.00  0.00     0.130 A 
ATOM     25  C   UNL     1      15.669  34.994  42.878  1.00  0.00     0.093 A 
ATOM     26  C   UNL     1      17.417  34.976  41.210  1.00  0.00     0.094 A 
ATOM     27  C   UNL     1      14.771  35.542  41.955  1.00  0.00     0.133 A 
ATOM     28  C   UNL     1      16.524  35.474  40.261  1.00  0.00     0.138 A 
ATOM     29  C   UNL     1      15.187  35.756  40.616  1.00  0.00     0.102 A 
ATOM     30  O   UNL     1      16.971  35.688  38.950  1.00  0.00    -0.484 OA
ATOM     31  C   UNL     1      14.298  36.254  39.535  1.00  0.00     0.174 C 
ATOM     32  C   UNL     1      16.071  35.886  37.858  1.00  0.00     0.211 C 
ATOM     33  O   UNL     1      13.045  36.154  39.604  1.00  0.00    -0.294 OA
ATOM     34  C   UNL     1      14.925  36.818  38.294  1.00  0.00     0.131 C 
BRANCH  27  35
ATOM     35  O   UNL     1      13.499  35.882  42.421  1.00  0.00    -0.507 OA
ATOM     36  H   UNL     1      12.739  35.226  42.517  1.00  0.00     0.293 HD
ENDBRANCH  27  35
BRANCH  32  37
ATOM     37  C   UNL     1      16.851  36.339  36.640  1.00  0.00    -0.007 A 
ATOM     38  C   UNL     1      17.966  35.575  36.248  1.00  0.00     0.011 A 
ATOM     39  C   UNL     1      16.529  37.493  35.892  1.00  0.00     0.011 A 
ATOM     40  C   UNL     1      18.733  35.943  35.141  1.00  0.00     0.046 A 
ATOM     41  C   UNL     1      17.300  37.859  34.786  1.00  0.00     0.046 A 
ATOM     42  C   UNL     1      18.406  37.086  34.409  1.00  0.00     0.115 A 
BRANCH  42  43
ATOM     43  O   UNL     1      19.183  37.446  33.311  1.00  0.00    -0.508 OA
ATOM     44  H   UNL     1      18.816  37.401  32.368  1.00  0.00     0.293 HD
ENDBRANCH  42  43
ENDBRANCH  32  37
ENDBRANCH  23  24
ENDBRANCH   6  23
BRANCH   3  45
ATOM     45  O   UNL     1      22.789  35.563  45.580  1.00  0.00    -0.387 OA
ATOM     46  H   UNL     1      22.998  35.323  46.520  1.00  0.00     0.211 HD
ENDBRANCH   3  45
BRANCH   4  47
ATOM     47  C   UNL     1      20.284  37.045  45.471  1.00  0.00     0.191 C 
BRANCH  47  48
ATOM     48  O   UNL     1      21.238  37.690  46.267  1.00  0.00    -0.394 OA
ATOM     49  H   UNL     1      21.331  37.141  47.088  1.00  0.00     0.210 HD
ENDBRANCH  47  48
ENDBRANCH   4  47
TORSDOF 14
ENDMDL
