MODEL 1
REMARK VINA RESULT:    -3.503      0.000      0.000
REMARK INTER + INTRA:          -3.503
REMARK INTER:                  -3.503
REMARK INTRA:                   0.000
REMARK UNBOUND:                 0.000
REMARK SMILES C=C1CCC[C@]2(C)CC(=O)C(=C(C)C)C[C@H]12
REMARK SMILES IDX 13 1 12 2 11 3 15 4 16 5 2 6 1 7 3 8 4 9 5 10 6 11 8 12 9 13
REMARK SMILES IDX 10 14 7 15 14 16
REMARK H PARENT
REMARK Flexibility Score: inf
ROOT
ATOM      1  C   UNL     1       5.158  25.371  21.437  1.00  0.00     0.039 C 
ATOM      2  C   UNL     1       6.426  25.399  20.616  1.00  0.00    -0.070 C 
ATOM      3  C   UNL     1       7.621  25.006  21.144  1.00  0.00    -0.006 C 
ATOM      4  C   UNL     1       7.751  24.524  22.576  1.00  0.00     0.047 C 
ATOM      5  C   UNL     1       8.818  23.415  22.758  1.00  0.00     0.025 C 
ATOM      6  C   UNL     1       9.033  23.184  24.245  1.00  0.00    -0.073 C 
ATOM      7  C   UNL     1       8.415  22.174  24.875  1.00  0.00     0.008 C 
ATOM      8  C   UNL     1       9.825  24.207  25.032  1.00  0.00     0.031 C 
ATOM      9  C   UNL     1      11.124  24.593  24.311  1.00  0.00     0.005 C 
ATOM     10  C   UNL     1      10.908  24.888  22.815  1.00  0.00     0.008 C 
ATOM     11  C   UNL     1      10.183  23.730  22.067  1.00  0.00    -0.018 C 
ATOM     12  C   UNL     1       9.960  24.111  20.581  1.00  0.00     0.088 C 
ATOM     13  C   UNL     1       8.897  25.147  20.406  1.00  0.00     0.159 C 
ATOM     14  O   UNL     1       9.104  26.125  19.637  1.00  0.00    -0.295 OA
ATOM     15  C   UNL     1      11.077  22.460  22.075  1.00  0.00     0.012 C 
ATOM     16  C   UNL     1       6.309  25.843  19.177  1.00  0.00     0.039 C 
ENDROOT
TORSDOF 0
ENDMDL
MODEL 2
REMARK VINA RESULT:    -2.988      2.039      4.923
REMARK INTER + INTRA:          -2.988
REMARK INTER:                  -2.988
REMARK INTRA:                   0.000
REMARK UNBOUND:                 0.000
REMARK SMILES C=C1CCC[C@]2(C)CC(=O)C(=C(C)C)C[C@H]12
REMARK SMILES IDX 13 1 12 2 11 3 15 4 16 5 2 6 1 7 3 8 4 9 5 10 6 11 8 12 9 13
REMARK SMILES IDX 10 14 7 15 14 16
REMARK H PARENT
REMARK Flexibility Score: inf
ROOT
ATOM      1  C   UNL     1      11.125  21.979  25.882  1.00  0.00     0.039 C 
ATOM      2  C   UNL     1      10.234  23.197  25.815  1.00  0.00    -0.070 C 
ATOM      3  C   UNL     1       9.850  23.730  24.619  1.00  0.00    -0.006 C 
ATOM      4  C   UNL     1      10.294  23.140  23.294  1.00  0.00     0.047 C 
ATOM      5  C   UNL     1       9.224  23.259  22.179  1.00  0.00     0.025 C 
ATOM      6  C   UNL     1       9.856  22.864  20.854  1.00  0.00    -0.073 C 
ATOM      7  C   UNL     1       9.693  21.626  20.362  1.00  0.00     0.008 C 
ATOM      8  C   UNL     1      10.802  23.836  20.181  1.00  0.00     0.031 C 
ATOM      9  C   UNL     1      10.222  25.257  20.147  1.00  0.00     0.005 C 
ATOM     10  C   UNL     1       9.633  25.691  21.502  1.00  0.00     0.008 C 
ATOM     11  C   UNL     1       8.588  24.680  22.060  1.00  0.00    -0.018 C 
ATOM     12  C   UNL     1       8.070  25.156  23.442  1.00  0.00     0.088 C 
ATOM     13  C   UNL     1       9.089  24.996  24.524  1.00  0.00     0.159 C 
ATOM     14  O   UNL     1       9.285  25.941  25.336  1.00  0.00    -0.295 OA
ATOM     15  C   UNL     1       7.356  24.623  21.116  1.00  0.00     0.012 C 
ATOM     16  C   UNL     1       9.755  23.777  27.125  1.00  0.00     0.039 C 
ENDROOT
TORSDOF 0
ENDMDL
MODEL 3
REMARK VINA RESULT:    -2.830      1.814      3.040
REMARK INTER + INTRA:          -2.830
REMARK INTER:                  -2.830
REMARK INTRA:                   0.000
REMARK UNBOUND:                 0.000
REMARK SMILES C=C1CCC[C@]2(C)CC(=O)C(=C(C)C)C[C@H]12
REMARK SMILES IDX 13 1 12 2 11 3 15 4 16 5 2 6 1 7 3 8 4 9 5 10 6 11 8 12 9 13
REMARK SMILES IDX 10 14 7 15 14 16
REMARK H PARENT
REMARK Flexibility Score: inf
ROOT
ATOM      1  C   UNL     1       5.134  24.283  20.013  1.00  0.00     0.039 C 
ATOM      2  C   UNL     1       5.613  25.085  21.200  1.00  0.00    -0.070 C 
ATOM      3  C   UNL     1       6.860  24.903  21.721  1.00  0.00    -0.006 C 
ATOM      4  C   UNL     1       7.832  23.888  21.151  1.00  0.00     0.047 C 
ATOM      5  C   UNL     1       9.313  24.340  21.235  1.00  0.00     0.025 C 
ATOM      6  C   UNL     1      10.203  23.164  20.866  1.00  0.00    -0.073 C 
ATOM      7  C   UNL     1      10.699  23.046  19.625  1.00  0.00     0.008 C 
ATOM      8  C   UNL     1      10.387  22.048  21.873  1.00  0.00     0.031 C 
ATOM      9  C   UNL     1      10.699  22.595  23.273  1.00  0.00     0.005 C 
ATOM     10  C   UNL     1       9.764  23.747  23.682  1.00  0.00     0.008 C 
ATOM     11  C   UNL     1       9.726  24.899  22.634  1.00  0.00    -0.018 C 
ATOM     12  C   UNL     1       8.735  26.001  23.088  1.00  0.00     0.088 C 
ATOM     13  C   UNL     1       7.306  25.579  22.960  1.00  0.00     0.159 C 
ATOM     14  O   UNL     1       6.506  25.803  23.909  1.00  0.00    -0.295 OA
ATOM     15  C   UNL     1      11.125  25.566  22.537  1.00  0.00     0.012 C 
ATOM     16  C   UNL     1       4.670  26.125  21.758  1.00  0.00     0.039 C 
ENDROOT
TORSDOF 0
ENDMDL
MODEL 4
REMARK VINA RESULT:    -2.753      2.890      3.850
REMARK INTER + INTRA:          -2.753
REMARK INTER:                  -2.753
REMARK INTRA:                   0.000
REMARK UNBOUND:                 0.000
REMARK SMILES C=C1CCC[C@]2(C)CC(=O)C(=C(C)C)C[C@H]12
REMARK SMILES IDX 13 1 12 2 11 3 15 4 16 5 2 6 1 7 3 8 4 9 5 10 6 11 8 12 9 13
REMARK SMILES IDX 10 14 7 15 14 16
REMARK H PARENT
REMARK Flexibility Score: inf
ROOT
ATOM      1  C   UNL     1      11.115  26.064  21.107  1.00  0.00     0.039 C 
ATOM      2  C   UNL     1      10.845  24.577  21.119  1.00  0.00    -0.070 C 
ATOM      3  C   UNL     1      10.551  23.920  22.278  1.00  0.00    -0.006 C 
ATOM      4  C   UNL     1      10.481  24.633  23.614  1.00  0.00     0.047 C 
ATOM      5  C   UNL     1       9.411  24.046  24.569  1.00  0.00     0.025 C 
ATOM      6  C   UNL     1       9.593  24.666  25.945  1.00  0.00    -0.073 C 
ATOM      7  C   UNL     1       8.832  25.701  26.333  1.00  0.00     0.008 C 
ATOM      8  C   UNL     1      10.750  24.202  26.805  1.00  0.00     0.031 C 
ATOM      9  C   UNL     1      10.849  22.671  26.840  1.00  0.00     0.005 C 
ATOM     10  C   UNL     1      10.727  22.035  25.444  1.00  0.00     0.008 C 
ATOM     11  C   UNL     1       9.447  22.488  24.681  1.00  0.00    -0.018 C 
ATOM     12  C   UNL     1       9.411  21.845  23.271  1.00  0.00     0.088 C 
ATOM     13  C   UNL     1      10.413  22.447  22.338  1.00  0.00     0.159 C 
ATOM     14  O   UNL     1      11.125  21.692  21.622  1.00  0.00    -0.295 OA
ATOM     15  C   UNL     1       8.184  21.989  25.434  1.00  0.00     0.012 C 
ATOM     16  C   UNL     1      10.876  23.858  19.791  1.00  0.00     0.039 C 
ENDROOT
TORSDOF 0
ENDMDL
MODEL 5
REMARK VINA RESULT:    -1.673      2.335      4.494
REMARK INTER + INTRA:          -1.673
REMARK INTER:                  -1.673
REMARK INTRA:                   0.000
REMARK UNBOUND:                 0.000
REMARK SMILES C=C1CCC[C@]2(C)CC(=O)C(=C(C)C)C[C@H]12
REMARK SMILES IDX 13 1 12 2 11 3 15 4 16 5 2 6 1 7 3 8 4 9 5 10 6 11 8 12 9 13
REMARK SMILES IDX 10 14 7 15 14 16
REMARK H PARENT
REMARK Flexibility Score: inf
ROOT
ATOM      1  C   UNL     1       7.095  26.123  26.126  1.00  0.00     0.039 C 
ATOM      2  C   UNL     1       8.556  25.769  25.978  1.00  0.00    -0.070 C 
ATOM      3  C   UNL     1       9.032  25.184  24.842  1.00  0.00    -0.006 C 
ATOM      4  C   UNL     1       8.131  24.851  23.668  1.00  0.00     0.047 C 
ATOM      5  C   UNL     1       8.831  25.002  22.294  1.00  0.00     0.025 C 
ATOM      6  C   UNL     1       7.927  24.418  21.220  1.00  0.00    -0.073 C 
ATOM      7  C   UNL     1       7.136  25.215  20.485  1.00  0.00     0.008 C 
ATOM      8  C   UNL     1       7.815  22.912  21.104  1.00  0.00     0.031 C 
ATOM      9  C   UNL     1       9.194  22.239  21.131  1.00  0.00     0.005 C 
ATOM     10  C   UNL     1      10.097  22.780  22.254  1.00  0.00     0.008 C 
ATOM     11  C   UNL     1      10.240  24.331  22.223  1.00  0.00    -0.018 C 
ATOM     12  C   UNL     1      11.124  24.809  23.403  1.00  0.00     0.088 C 
ATOM     13  C   UNL     1      10.428  24.707  24.722  1.00  0.00     0.159 C 
ATOM     14  O   UNL     1      11.040  24.215  25.709  1.00  0.00    -0.295 OA
ATOM     15  C   UNL     1      10.960  24.766  20.918  1.00  0.00     0.012 C 
ATOM     16  C   UNL     1       9.473  26.125  27.125  1.00  0.00     0.039 C 
ENDROOT
TORSDOF 0
ENDMDL
MODEL 6
REMARK VINA RESULT:    -0.703      2.301      3.641
REMARK INTER + INTRA:          -0.703
REMARK INTER:                  -0.703
REMARK INTRA:                   0.000
REMARK UNBOUND:                 0.000
REMARK SMILES C=C1CCC[C@]2(C)CC(=O)C(=C(C)C)C[C@H]12
REMARK SMILES IDX 13 1 12 2 11 3 15 4 16 5 2 6 1 7 3 8 4 9 5 10 6 11 8 12 9 13
REMARK SMILES IDX 10 14 7 15 14 16
REMARK H PARENT
REMARK Flexibility Score: inf
ROOT
ATOM      1  C   UNL     1       7.945  23.719  20.336  1.00  0.00     0.039 C 
ATOM      2  C   UNL     1       8.820  22.732  21.071  1.00  0.00    -0.070 C 
ATOM      3  C   UNL     1       9.203  22.948  22.362  1.00  0.00    -0.006 C 
ATOM      4  C   UNL     1       8.781  24.185  23.132  1.00  0.00     0.047 C 
ATOM      5  C   UNL     1       8.555  23.922  24.642  1.00  0.00     0.025 C 
ATOM      6  C   UNL     1       8.377  25.256  25.348  1.00  0.00    -0.073 C 
ATOM      7  C   UNL     1       7.150  25.722  25.628  1.00  0.00     0.008 C 
ATOM      8  C   UNL     1       9.596  26.122  25.585  1.00  0.00     0.031 C 
ATOM      9  C   UNL     1      10.762  25.309  26.165  1.00  0.00     0.005 C 
ATOM     10  C   UNL     1      10.991  23.982  25.419  1.00  0.00     0.008 C 
ATOM     11  C   UNL     1       9.703  23.111  25.324  1.00  0.00    -0.018 C 
ATOM     12  C   UNL     1       9.995  21.814  24.525  1.00  0.00     0.088 C 
ATOM     13  C   UNL     1      10.165  22.066  23.061  1.00  0.00     0.159 C 
ATOM     14  O   UNL     1      11.125  21.526  22.446  1.00  0.00    -0.295 OA
ATOM     15  C   UNL     1       9.260  22.672  26.745  1.00  0.00     0.012 C 
ATOM     16  C   UNL     1       9.221  21.478  20.330  1.00  0.00     0.039 C 
ENDROOT
TORSDOF 0
ENDMDL
MODEL 7
REMARK VINA RESULT:    -0.525     18.651     20.697
REMARK INTER + INTRA:          -0.525
REMARK INTER:                  -0.525
REMARK INTRA:                   0.000
REMARK UNBOUND:                 0.000
REMARK SMILES C=C1CCC[C@]2(C)CC(=O)C(=C(C)C)C[C@H]12
REMARK SMILES IDX 13 1 12 2 11 3 15 4 16 5 2 6 1 7 3 8 4 9 5 10 6 11 8 12 9 13
REMARK SMILES IDX 10 14 7 15 14 16
REMARK H PARENT
REMARK Flexibility Score: inf
ROOT
ATOM      1  C   UNL     1      -8.581  23.064  12.718  1.00  0.00     0.039 C 
ATOM      2  C   UNL     1      -7.761  24.268  12.317  1.00  0.00    -0.070 C 
ATOM      3  C   UNL     1      -7.299  24.419  11.043  1.00  0.00    -0.006 C 
ATOM      4  C   UNL     1      -7.573  23.394   9.959  1.00  0.00     0.047 C 
ATOM      5  C   UNL     1      -7.748  24.020   8.552  1.00  0.00     0.025 C 
ATOM      6  C   UNL     1      -7.773  22.902   7.522  1.00  0.00    -0.073 C 
ATOM      7  C   UNL     1      -8.940  22.435   7.050  1.00  0.00     0.008 C 
ATOM      8  C   UNL     1      -6.472  22.217   7.159  1.00  0.00     0.031 C 
ATOM      9  C   UNL     1      -5.356  23.235   6.885  1.00  0.00     0.005 C 
ATOM     10  C   UNL     1      -5.281  24.338   7.956  1.00  0.00     0.008 C 
ATOM     11  C   UNL     1      -6.644  25.059   8.178  1.00  0.00    -0.018 C 
ATOM     12  C   UNL     1      -6.507  26.125   9.296  1.00  0.00     0.088 C 
ATOM     13  C   UNL     1      -6.386  25.518  10.658  1.00  0.00     0.159 C 
ATOM     14  O   UNL     1      -5.508  25.951  11.453  1.00  0.00    -0.295 OA
ATOM     15  C   UNL     1      -7.055  25.816   6.886  1.00  0.00     0.012 C 
ATOM     16  C   UNL     1      -7.509  25.315  13.376  1.00  0.00     0.039 C 
ENDROOT
TORSDOF 0
ENDMDL
