MODEL 1
REMARK VINA RESULT:    19.408      0.000      0.000
REMARK INTER + INTRA:          23.170
REMARK INTER:                  23.379
REMARK INTRA:                  -0.210
REMARK UNBOUND:                -0.210
REMARK SMILES [NH3+][C@H](Cc1c[nH]c2ccccc12)C(=O)[O-]
REMARK SMILES IDX 3 1 2 2 1 3 13 7 14 8 15 9 4 10 12 11 5 12 7 13 11 14 6 15
REMARK SMILES IDX 8 16 10 17 9 19
REMARK H PARENT 1 4 1 5 1 6 6 18
REMARK Flexibility Score: inf
ROOT
ATOM      1  C   UNL     1      13.176  -6.013  10.727  1.00  0.00     0.109 C 
ENDROOT
BRANCH   1   2
ATOM      2  C   UNL     1      13.914  -7.366  10.785  1.00  0.00     0.232 C 
BRANCH   2   3
ATOM      3  N   UNL     1      14.150  -7.761  12.178  1.00  0.00    -0.350 N 
ATOM      4  H   UNL     1      13.914  -6.968  12.818  1.00  0.00     0.345 HD
ATOM      5  H   UNL     1      15.150  -8.034  12.323  1.00  0.00     0.345 HD
ATOM      6  H   UNL     1      13.536  -8.573  12.425  1.00  0.00     0.345 HD
ENDBRANCH   2   3
BRANCH   2   7
ATOM      7  C   UNL     1      13.130  -8.436  10.068  1.00  0.00     0.099 C 
ATOM      8  O   UNL     1      13.373  -8.694   8.859  1.00  0.00    -0.544 OA
ATOM      9  O   UNL     1      12.115  -9.122  10.724  1.00  0.00    -0.544 OA
ENDBRANCH   2   7
ENDBRANCH   1   2
BRANCH   1  10
ATOM     10  C   UNL     1      14.128  -4.858  10.844  1.00  0.00    -0.016 A 
ATOM     11  C   UNL     1      15.061  -4.430   9.918  1.00  0.00     0.003 A 
ATOM     12  C   UNL     1      14.314  -4.053  11.965  1.00  0.00     0.087 A 
ATOM     13  C   UNL     1      15.750  -3.394  10.499  1.00  0.00     0.046 A 
ATOM     14  C   UNL     1      15.357  -4.876   8.630  1.00  0.00     0.010 A 
ATOM     15  N   UNL     1      15.303  -3.156  11.745  1.00  0.00    -0.361 N 
ATOM     16  C   UNL     1      16.780  -2.734   9.832  1.00  0.00     0.026 A 
ATOM     17  C   UNL     1      16.392  -4.227   7.931  1.00  0.00     0.001 A 
ATOM     18  H   UNL     1      15.654  -2.436  12.414  1.00  0.00     0.166 HD
ATOM     19  C   UNL     1      17.099  -3.160   8.530  1.00  0.00     0.002 A 
ENDBRANCH   1  10
TORSDOF 4
ENDMDL
MODEL 2
REMARK VINA RESULT:    22.212     19.021     20.655
REMARK INTER + INTRA:          26.547
REMARK INTER:                  26.756
REMARK INTRA:                  -0.209
REMARK UNBOUND:                -0.210
REMARK SMILES [NH3+][C@H](Cc1c[nH]c2ccccc12)C(=O)[O-]
REMARK SMILES IDX 3 1 2 2 1 3 13 7 14 8 15 9 4 10 12 11 5 12 7 13 11 14 6 15
REMARK SMILES IDX 8 16 10 17 9 19
REMARK H PARENT 1 4 1 5 1 6 6 18
REMARK Flexibility Score: inf
ROOT
ATOM      1  C   UNL     1       3.459   6.985  21.902  1.00  0.00     0.109 C 
ENDROOT
BRANCH   1   2
ATOM      2  C   UNL     1       2.338   8.014  22.149  1.00  0.00     0.232 C 
BRANCH   2   3
ATOM      3  N   UNL     1       1.840   7.910  23.526  1.00  0.00    -0.350 N 
ATOM      4  H   UNL     1       2.391   7.191  24.049  1.00  0.00     0.345 HD
ATOM      5  H   UNL     1       0.829   7.644  23.536  1.00  0.00     0.345 HD
ATOM      6  H   UNL     1       1.957   8.828  24.014  1.00  0.00     0.345 HD
ENDBRANCH   2   3
BRANCH   2   7
ATOM      7  C   UNL     1       2.826   9.415  21.879  1.00  0.00     0.099 C 
ATOM      8  O   UNL     1       3.714   9.927  22.611  1.00  0.00    -0.544 OA
ATOM      9  O   UNL     1       2.280  10.162  20.842  1.00  0.00    -0.544 OA
ENDBRANCH   2   7
ENDBRANCH   1   2
BRANCH   1  10
ATOM     10  C   UNL     1       2.981   5.835  21.063  1.00  0.00    -0.016 A 
ATOM     11  C   UNL     1       2.898   4.502  21.419  1.00  0.00     0.003 A 
ATOM     12  C   UNL     1       2.617   5.889  19.720  1.00  0.00     0.087 A 
ATOM     13  C   UNL     1       2.483   3.819  20.303  1.00  0.00     0.046 A 
ATOM     14  C   UNL     1       3.166   3.848  22.622  1.00  0.00     0.010 A 
ATOM     15  N   UNL     1       2.309   4.654  19.263  1.00  0.00    -0.361 N 
ATOM     16  C   UNL     1       2.305   2.437  20.314  1.00  0.00     0.026 A 
ATOM     17  C   UNL     1       2.993   2.452  22.663  1.00  0.00     0.001 A 
ATOM     18  H   UNL     1       2.008   4.402  18.295  1.00  0.00     0.166 HD
ATOM     19  C   UNL     1       2.564   1.750  21.514  1.00  0.00     0.002 A 
ENDBRANCH   1  10
TORSDOF 4
ENDMDL
MODEL 3
REMARK VINA RESULT:    22.269      3.081      5.130
REMARK INTER + INTRA:          26.615
REMARK INTER:                  23.828
REMARK INTRA:                   2.787
REMARK UNBOUND:                -0.210
REMARK SMILES [NH3+][C@H](Cc1c[nH]c2ccccc12)C(=O)[O-]
REMARK SMILES IDX 3 1 2 2 1 3 13 7 14 8 15 9 4 10 12 11 5 12 7 13 11 14 6 15
REMARK SMILES IDX 8 16 10 17 9 19
REMARK H PARENT 1 4 1 5 1 6 6 18
REMARK Flexibility Score: inf
ROOT
ATOM      1  C   UNL     1      15.524  -4.626   8.078  1.00  0.00     0.109 C 
ENDROOT
BRANCH   1   2
ATOM      2  C   UNL     1      16.907  -3.947   8.146  1.00  0.00     0.232 C 
BRANCH   2   3
ATOM      3  N   UNL     1      17.125  -3.106   6.964  1.00  0.00    -0.350 N 
ATOM      4  H   UNL     1      18.150  -3.002   6.785  1.00  0.00     0.345 HD
ATOM      5  H   UNL     1      16.700  -2.160   7.097  1.00  0.00     0.345 HD
ATOM      6  H   UNL     1      16.693  -3.558   6.124  1.00  0.00     0.345 HD
ENDBRANCH   2   3
BRANCH   2   7
ATOM      7  C   UNL     1      17.038  -3.122   9.401  1.00  0.00     0.099 C 
ATOM      8  O   UNL     1      17.125  -1.868   9.326  1.00  0.00    -0.544 OA
ATOM      9  O   UNL     1      17.095  -3.739  10.645  1.00  0.00    -0.544 OA
ENDBRANCH   2   7
ENDBRANCH   1   2
BRANCH   1  10
ATOM     10  C   UNL     1      14.940  -4.834   9.446  1.00  0.00    -0.016 A 
ATOM     11  C   UNL     1      14.372  -5.984   9.959  1.00  0.00     0.003 A 
ATOM     12  C   UNL     1      14.776  -3.862  10.429  1.00  0.00     0.087 A 
ATOM     13  C   UNL     1      13.909  -5.671  11.213  1.00  0.00     0.046 A 
ATOM     14  C   UNL     1      14.220  -7.262   9.419  1.00  0.00     0.010 A 
ATOM     15  N   UNL     1      14.150  -4.383  11.509  1.00  0.00    -0.361 N 
ATOM     16  C   UNL     1      13.264  -6.614  12.012  1.00  0.00     0.026 A 
ATOM     17  C   UNL     1      13.574  -8.235  10.204  1.00  0.00     0.001 A 
ATOM     18  H   UNL     1      13.896  -3.878  12.388  1.00  0.00     0.166 HD
ATOM     19  C   UNL     1      13.099  -7.912  11.495  1.00  0.00     0.002 A 
ENDBRANCH   1  10
TORSDOF 4
ENDMDL
