MODEL 1
REMARK VINA RESULT:    -3.745      0.000      0.000
REMARK INTER + INTRA:          -4.437
REMARK INTER:                  -4.402
REMARK INTRA:                  -0.035
REMARK UNBOUND:                -0.035
REMARK SMILES O=C([O-])CCC(=O)[O-]
REMARK SMILES IDX 4 1 2 2 1 3 3 4 5 5 6 6 7 7 8 8
REMARK H PARENT
REMARK Flexibility Score: inf
ROOT
ATOM      1  C   UNL     1     116.570 164.896 117.802  1.00  0.00     0.059 C 
ENDROOT
BRANCH   1   2
ATOM      2  C   UNL     1     116.063 165.772 116.700  1.00  0.00     0.042 C 
ATOM      3  O   UNL     1     115.220 166.674 116.944  1.00  0.00    -0.550 OA
ATOM      4  O   UNL     1     116.559 165.625 115.410  1.00  0.00    -0.550 OA
ENDBRANCH   1   2
BRANCH   1   5
ATOM      5  C   UNL     1     115.522 164.770 118.909  1.00  0.00     0.059 C 
BRANCH   5   6
ATOM      6  C   UNL     1     116.112 164.109 120.115  1.00  0.00     0.042 C 
ATOM      7  O   UNL     1     116.682 164.798 121.001  1.00  0.00    -0.550 OA
ATOM      8  O   UNL     1     115.989 162.736 120.284  1.00  0.00    -0.550 OA
ENDBRANCH   5   6
ENDBRANCH   1   5
TORSDOF 3
ENDMDL
MODEL 2
REMARK VINA RESULT:    -3.602     13.322     14.609
REMARK INTER + INTRA:          -4.268
REMARK INTER:                  -4.180
REMARK INTRA:                  -0.089
REMARK UNBOUND:                -0.035
REMARK SMILES O=C([O-])CCC(=O)[O-]
REMARK SMILES IDX 4 1 2 2 1 3 3 4 5 5 6 6 7 7 8 8
REMARK H PARENT
REMARK Flexibility Score: inf
ROOT
ATOM      1  C   UNL     1     123.157 176.312 117.453  1.00  0.00     0.059 C 
ENDROOT
BRANCH   1   2
ATOM      2  C   UNL     1     122.810 176.287 118.909  1.00  0.00     0.042 C 
ATOM      3  O   UNL     1     121.683 176.687 119.298  1.00  0.00    -0.550 OA
ATOM      4  O   UNL     1     123.716 175.776 119.831  1.00  0.00    -0.550 OA
ENDBRANCH   1   2
BRANCH   1   5
ATOM      5  C   UNL     1     122.074 177.044 116.659  1.00  0.00     0.059 C 
BRANCH   5   6
ATOM      6  C   UNL     1     122.616 178.317 116.087  1.00  0.00     0.042 C 
ATOM      7  O   UNL     1     123.822 178.629 116.265  1.00  0.00    -0.550 OA
ATOM      8  O   UNL     1     121.800 179.135 115.316  1.00  0.00    -0.550 OA
ENDBRANCH   5   6
ENDBRANCH   1   5
TORSDOF 3
ENDMDL
MODEL 3
REMARK VINA RESULT:    -3.587      2.837      4.656
REMARK INTER + INTRA:          -4.251
REMARK INTER:                  -4.140
REMARK INTRA:                  -0.111
REMARK UNBOUND:                -0.035
REMARK SMILES O=C([O-])CCC(=O)[O-]
REMARK SMILES IDX 4 1 2 2 1 3 3 4 5 5 6 6 7 7 8 8
REMARK H PARENT
REMARK Flexibility Score: inf
ROOT
ATOM      1  C   UNL     1     114.560 164.759 122.333  1.00  0.00     0.059 C 
ENDROOT
BRANCH   1   2
ATOM      2  C   UNL     1     113.849 166.070 122.457  1.00  0.00     0.042 C 
ATOM      3  O   UNL     1     113.804 166.664 123.566  1.00  0.00    -0.550 OA
ATOM      4  O   UNL     1     113.276 166.660 121.336  1.00  0.00    -0.550 OA
ENDBRANCH   1   2
BRANCH   1   5
ATOM      5  C   UNL     1     115.828 164.917 121.491  1.00  0.00     0.059 C 
BRANCH   5   6
ATOM      6  C   UNL     1     115.707 164.146 120.215  1.00  0.00     0.042 C 
ATOM      7  O   UNL     1     115.976 162.916 120.189  1.00  0.00    -0.550 OA
ATOM      8  O   UNL     1     115.249 164.774 119.063  1.00  0.00    -0.550 OA
ENDBRANCH   5   6
ENDBRANCH   1   5
TORSDOF 3
ENDMDL
MODEL 4
REMARK VINA RESULT:    -3.587      2.832      4.175
REMARK INTER + INTRA:          -4.251
REMARK INTER:                  -4.133
REMARK INTRA:                  -0.118
REMARK UNBOUND:                -0.035
REMARK SMILES O=C([O-])CCC(=O)[O-]
REMARK SMILES IDX 4 1 2 2 1 3 3 4 5 5 6 6 7 7 8 8
REMARK H PARENT
REMARK Flexibility Score: inf
ROOT
ATOM      1  C   UNL     1     115.804 164.917 121.429  1.00  0.00     0.059 C 
ENDROOT
BRANCH   1   2
ATOM      2  C   UNL     1     115.689 164.173 120.136  1.00  0.00     0.042 C 
ATOM      3  O   UNL     1     115.267 164.757 119.104  1.00  0.00    -0.550 OA
ATOM      4  O   UNL     1     116.094 162.846 120.059  1.00  0.00    -0.550 OA
ENDBRANCH   1   2
BRANCH   1   5
ATOM      5  C   UNL     1     114.513 164.785 122.239  1.00  0.00     0.059 C 
BRANCH   5   6
ATOM      6  C   UNL     1     113.821 166.108 122.338  1.00  0.00     0.042 C 
ATOM      7  O   UNL     1     113.278 166.618 121.323  1.00  0.00    -0.550 OA
ATOM      8  O   UNL     1     113.731 166.755 123.564  1.00  0.00    -0.550 OA
ENDBRANCH   5   6
ENDBRANCH   1   5
TORSDOF 3
ENDMDL
MODEL 5
REMARK VINA RESULT:    -3.570     13.357     14.168
REMARK INTER + INTRA:          -4.230
REMARK INTER:                  -4.147
REMARK INTRA:                  -0.083
REMARK UNBOUND:                -0.035
REMARK SMILES O=C([O-])CCC(=O)[O-]
REMARK SMILES IDX 4 1 2 2 1 3 3 4 5 5 6 6 7 7 8 8
REMARK H PARENT
REMARK Flexibility Score: inf
ROOT
ATOM      1  C   UNL     1     122.037 177.097 116.699  1.00  0.00     0.059 C 
ENDROOT
BRANCH   1   2
ATOM      2  C   UNL     1     122.675 178.315 116.109  1.00  0.00     0.042 C 
ATOM      3  O   UNL     1     123.882 178.577 116.350  1.00  0.00    -0.550 OA
ATOM      4  O   UNL     1     121.950 179.134 115.252  1.00  0.00    -0.550 OA
ENDBRANCH   1   2
BRANCH   1   5
ATOM      5  C   UNL     1     123.091 176.208 117.361  1.00  0.00     0.059 C 
BRANCH   5   6
ATOM      6  C   UNL     1     122.973 176.276 118.850  1.00  0.00     0.042 C 
ATOM      7  O   UNL     1     121.877 176.587 119.386  1.00  0.00    -0.550 OA
ATOM      8  O   UNL     1     124.060 175.948 119.650  1.00  0.00    -0.550 OA
ENDBRANCH   5   6
ENDBRANCH   1   5
TORSDOF 3
ENDMDL
MODEL 6
REMARK VINA RESULT:    -3.559      4.093      5.254
REMARK INTER + INTRA:          -4.218
REMARK INTER:                  -4.138
REMARK INTRA:                  -0.080
REMARK UNBOUND:                -0.035
REMARK SMILES O=C([O-])CCC(=O)[O-]
REMARK SMILES IDX 4 1 2 2 1 3 3 4 5 5 6 6 7 7 8 8
REMARK H PARENT
REMARK Flexibility Score: inf
ROOT
ATOM      1  C   UNL     1     114.101 165.180 122.732  1.00  0.00     0.059 C 
ENDROOT
BRANCH   1   2
ATOM      2  C   UNL     1     113.728 165.899 121.473  1.00  0.00     0.042 C 
ATOM      3  O   UNL     1     113.119 166.999 121.529  1.00  0.00    -0.550 OA
ATOM      4  O   UNL     1     114.096 165.377 120.239  1.00  0.00    -0.550 OA
ENDBRANCH   1   2
BRANCH   1   5
ATOM      5  C   UNL     1     114.179 166.160 123.904  1.00  0.00     0.059 C 
BRANCH   5   6
ATOM      6  C   UNL     1     115.582 166.249 124.418  1.00  0.00     0.042 C 
ATOM      7  O   UNL     1     116.488 165.535 123.915  1.00  0.00    -0.550 OA
ATOM      8  O   UNL     1     115.898 167.159 125.420  1.00  0.00    -0.550 OA
ENDBRANCH   5   6
ENDBRANCH   1   5
TORSDOF 3
ENDMDL
MODEL 7
REMARK VINA RESULT:    -3.488      3.990      5.634
REMARK INTER + INTRA:          -4.134
REMARK INTER:                  -3.999
REMARK INTRA:                  -0.135
REMARK UNBOUND:                -0.035
REMARK SMILES O=C([O-])CCC(=O)[O-]
REMARK SMILES IDX 4 1 2 2 1 3 3 4 5 5 6 6 7 7 8 8
REMARK H PARENT
REMARK Flexibility Score: inf
ROOT
ATOM      1  C   UNL     1     116.005 165.839 124.146  1.00  0.00     0.059 C 
ENDROOT
BRANCH   1   2
ATOM      2  C   UNL     1     114.544 165.754 123.835  1.00  0.00     0.042 C 
ATOM      3  O   UNL     1     113.789 165.028 124.533  1.00  0.00    -0.550 OA
ATOM      4  O   UNL     1     114.007 166.516 122.805  1.00  0.00    -0.550 OA
ENDBRANCH   1   2
BRANCH   1   5
ATOM      5  C   UNL     1     116.792 166.268 122.906  1.00  0.00     0.059 C 
BRANCH   5   6
ATOM      6  C   UNL     1     117.189 165.073 122.099  1.00  0.00     0.042 C 
ATOM      7  O   UNL     1     118.181 164.377 122.443  1.00  0.00    -0.550 OA
ATOM      8  O   UNL     1     116.435 164.697 120.995  1.00  0.00    -0.550 OA
ENDBRANCH   5   6
ENDBRANCH   1   5
TORSDOF 3
ENDMDL
MODEL 8
REMARK VINA RESULT:    -3.486      4.019      5.364
REMARK INTER + INTRA:          -4.132
REMARK INTER:                  -4.000
REMARK INTRA:                  -0.132
REMARK UNBOUND:                -0.035
REMARK SMILES O=C([O-])CCC(=O)[O-]
REMARK SMILES IDX 4 1 2 2 1 3 3 4 5 5 6 6 7 7 8 8
REMARK H PARENT
REMARK Flexibility Score: inf
ROOT
ATOM      1  C   UNL     1     116.808 166.265 122.927  1.00  0.00     0.059 C 
ENDROOT
BRANCH   1   2
ATOM      2  C   UNL     1     117.249 165.083 122.122  1.00  0.00     0.042 C 
ATOM      3  O   UNL     1     118.262 164.422 122.470  1.00  0.00    -0.550 OA
ATOM      4  O   UNL     1     116.513 164.682 121.013  1.00  0.00    -0.550 OA
ENDBRANCH   1   2
BRANCH   1   5
ATOM      5  C   UNL     1     116.025 165.810 124.159  1.00  0.00     0.059 C 
BRANCH   5   6
ATOM      6  C   UNL     1     114.562 165.741 123.854  1.00  0.00     0.042 C 
ATOM      7  O   UNL     1     113.805 165.005 124.540  1.00  0.00    -0.550 OA
ATOM      8  O   UNL     1     114.025 166.528 122.843  1.00  0.00    -0.550 OA
ENDBRANCH   5   6
ENDBRANCH   1   5
TORSDOF 3
ENDMDL
MODEL 9
REMARK VINA RESULT:    -3.404     13.971     14.746
REMARK INTER + INTRA:          -4.035
REMARK INTER:                  -3.933
REMARK INTRA:                  -0.103
REMARK UNBOUND:                -0.035
REMARK SMILES O=C([O-])CCC(=O)[O-]
REMARK SMILES IDX 4 1 2 2 1 3 3 4 5 5 6 6 7 7 8 8
REMARK H PARENT
REMARK Flexibility Score: inf
ROOT
ATOM      1  C   UNL     1     124.118 178.253 116.894  1.00  0.00     0.059 C 
ENDROOT
BRANCH   1   2
ATOM      2  C   UNL     1     122.868 178.526 116.119  1.00  0.00     0.042 C 
ATOM      3  O   UNL     1     121.937 177.680 116.101  1.00  0.00    -0.550 OA
ATOM      4  O   UNL     1     122.711 179.737 115.455  1.00  0.00    -0.550 OA
ENDBRANCH   1   2
BRANCH   1   5
ATOM      5  C   UNL     1     123.805 178.119 118.385  1.00  0.00     0.059 C 
BRANCH   5   6
ATOM      6  C   UNL     1     123.872 176.686 118.807  1.00  0.00     0.042 C 
ATOM      7  O   UNL     1     124.983 176.151 119.062  1.00  0.00    -0.550 OA
ATOM      8  O   UNL     1     122.703 175.952 118.966  1.00  0.00    -0.550 OA
ENDBRANCH   5   6
ENDBRANCH   1   5
TORSDOF 3
ENDMDL
