MODEL 1
REMARK VINA RESULT:    -4.787      0.000      0.000
REMARK INTER + INTRA:          -5.412
REMARK INTER:                  -5.207
REMARK INTRA:                  -0.205
REMARK UNBOUND:                -0.205
REMARK SMILES CC(C)(C)[C@@H]1C=C[C@H](O)CC1
REMARK SMILES IDX 5 1 11 2 10 3 8 4 7 5 6 6 2 7 1 8 3 9 4 10 9 11
REMARK H PARENT 9 12
REMARK Flexibility Score: inf
ROOT
ATOM      1  C   UNL     1      -1.301  17.782  47.447  1.00  0.00     0.017 C 
ATOM      2  C   UNL     1       0.176  17.280  47.476  1.00  0.00     0.011 C 
ATOM      3  C   UNL     1       0.652  16.586  46.171  1.00  0.00     0.037 C 
ATOM      4  C   UNL     1      -0.367  16.681  45.018  1.00  0.00     0.137 C 
ATOM      5  C   UNL     1      -1.737  16.300  45.517  1.00  0.00     0.000 C 
ATOM      6  C   UNL     1      -2.171  16.798  46.680  1.00  0.00    -0.025 C 
ENDROOT
BRANCH   1   7
ATOM      7  C   UNL     1      -1.882  18.174  48.858  1.00  0.00    -0.032 C 
ATOM      8  C   UNL     1      -1.138  17.390  49.965  1.00  0.00     0.011 C 
ATOM      9  C   UNL     1      -3.378  17.791  48.946  1.00  0.00     0.011 C 
ATOM     10  C   UNL     1      -1.747  19.689  49.150  1.00  0.00     0.011 C 
ENDBRANCH   1   7
BRANCH   4  11
ATOM     11  O   UNL     1       0.018  15.876  43.933  1.00  0.00    -0.389 OA
ATOM     12  H   UNL     1       0.963  15.609  44.076  1.00  0.00     0.211 HD
ENDBRANCH   4  11
TORSDOF 2
ENDMDL
MODEL 2
REMARK VINA RESULT:    -4.666      9.452     10.556
REMARK INTER + INTRA:          -5.280
REMARK INTER:                  -5.079
REMARK INTRA:                  -0.201
REMARK UNBOUND:                -0.205
REMARK SMILES CC(C)(C)[C@@H]1C=C[C@H](O)CC1
REMARK SMILES IDX 5 1 11 2 10 3 8 4 7 5 6 6 2 7 1 8 3 9 4 10 9 11
REMARK H PARENT 9 12
REMARK Flexibility Score: inf
ROOT
ATOM      1  C   UNL     1       6.352  19.946  41.362  1.00  0.00     0.017 C 
ATOM      2  C   UNL     1       5.204  20.940  41.720  1.00  0.00     0.011 C 
ATOM      3  C   UNL     1       4.562  21.656  40.500  1.00  0.00     0.037 C 
ATOM      4  C   UNL     1       5.056  21.117  39.142  1.00  0.00     0.137 C 
ATOM      5  C   UNL     1       6.560  21.025  39.148  1.00  0.00     0.000 C 
ATOM      6  C   UNL     1       7.178  20.496  40.210  1.00  0.00    -0.025 C 
ENDROOT
BRANCH   1   7
ATOM      7  C   UNL     1       7.217  19.483  42.595  1.00  0.00    -0.032 C 
ATOM      8  C   UNL     1       8.705  19.386  42.183  1.00  0.00     0.011 C 
ATOM      9  C   UNL     1       6.775  18.075  43.060  1.00  0.00     0.011 C 
ATOM     10  C   UNL     1       7.100  20.454  43.796  1.00  0.00     0.011 C 
ENDBRANCH   1   7
BRANCH   4  11
ATOM     11  O   UNL     1       4.603  21.921  38.082  1.00  0.00    -0.389 OA
ATOM     12  H   UNL     1       4.752  21.420  37.238  1.00  0.00     0.211 HD
ENDBRANCH   4  11
TORSDOF 2
ENDMDL
MODEL 3
REMARK VINA RESULT:    -4.546      2.481      4.561
REMARK INTER + INTRA:          -5.149
REMARK INTER:                  -4.944
REMARK INTRA:                  -0.205
REMARK UNBOUND:                -0.205
REMARK SMILES CC(C)(C)[C@@H]1C=C[C@H](O)CC1
REMARK SMILES IDX 5 1 11 2 10 3 8 4 7 5 6 6 2 7 1 8 3 9 4 10 9 11
REMARK H PARENT 9 12
REMARK Flexibility Score: inf
ROOT
ATOM      1  C   UNL     1       1.789  16.651  46.438  1.00  0.00     0.017 C 
ATOM      2  C   UNL     1       0.939  17.928  46.718  1.00  0.00     0.011 C 
ATOM      3  C   UNL     1      -0.538  17.842  46.242  1.00  0.00     0.037 C 
ATOM      4  C   UNL     1      -0.941  16.441  45.743  1.00  0.00     0.137 C 
ATOM      5  C   UNL     1       0.101  15.923  44.785  1.00  0.00     0.000 C 
ATOM      6  C   UNL     1       1.396  16.046  45.099  1.00  0.00    -0.025 C 
ENDROOT
BRANCH   1   7
ATOM      7  C   UNL     1       3.343  16.855  46.607  1.00  0.00    -0.032 C 
ATOM      8  C   UNL     1       3.723  18.306  46.229  1.00  0.00     0.011 C 
ATOM      9  C   UNL     1       4.114  15.911  45.654  1.00  0.00     0.011 C 
ATOM     10  C   UNL     1       3.817  16.582  48.056  1.00  0.00     0.011 C 
ENDBRANCH   1   7
BRANCH   4  11
ATOM     11  O   UNL     1      -2.212  16.463  45.143  1.00  0.00    -0.389 OA
ATOM     12  H   UNL     1      -2.200  15.818  44.388  1.00  0.00     0.211 HD
ENDBRANCH   4  11
TORSDOF 2
ENDMDL
MODEL 4
REMARK VINA RESULT:    -4.483      0.833      2.140
REMARK INTER + INTRA:          -5.081
REMARK INTER:                  -4.882
REMARK INTRA:                  -0.199
REMARK UNBOUND:                -0.205
REMARK SMILES CC(C)(C)[C@@H]1C=C[C@H](O)CC1
REMARK SMILES IDX 5 1 11 2 10 3 8 4 7 5 6 6 2 7 1 8 3 9 4 10 9 11
REMARK H PARENT 9 12
REMARK Flexibility Score: inf
ROOT
ATOM      1  C   UNL     1      -0.829  16.936  47.983  1.00  0.00     0.017 C 
ATOM      2  C   UNL     1      -1.643  16.858  46.655  1.00  0.00     0.011 C 
ATOM      3  C   UNL     1      -0.805  16.482  45.402  1.00  0.00     0.037 C 
ATOM      4  C   UNL     1       0.646  16.076  45.732  1.00  0.00     0.137 C 
ATOM      5  C   UNL     1       1.257  17.089  46.666  1.00  0.00     0.000 C 
ATOM      6  C   UNL     1       0.550  17.518  47.718  1.00  0.00    -0.025 C 
ENDROOT
BRANCH   1   7
ATOM      7  C   UNL     1      -1.592  17.634  49.173  1.00  0.00    -0.032 C 
ATOM      8  C   UNL     1      -1.160  19.116  49.271  1.00  0.00     0.011 C 
ATOM      9  C   UNL     1      -1.225  16.956  50.514  1.00  0.00     0.011 C 
ATOM     10  C   UNL     1      -3.129  17.578  48.999  1.00  0.00     0.011 C 
ENDBRANCH   1   7
BRANCH   4  11
ATOM     11  O   UNL     1       1.412  15.940  44.562  1.00  0.00    -0.389 OA
ATOM     12  H   UNL     1       1.939  16.774  44.447  1.00  0.00     0.211 HD
ENDBRANCH   4  11
TORSDOF 2
ENDMDL
MODEL 5
REMARK VINA RESULT:    -4.418      3.249      4.969
REMARK INTER + INTRA:          -5.010
REMARK INTER:                  -4.809
REMARK INTRA:                  -0.201
REMARK UNBOUND:                -0.205
REMARK SMILES CC(C)(C)[C@@H]1C=C[C@H](O)CC1
REMARK SMILES IDX 5 1 11 2 10 3 8 4 7 5 6 6 2 7 1 8 3 9 4 10 9 11
REMARK H PARENT 9 12
REMARK Flexibility Score: inf
ROOT
ATOM      1  C   UNL     1      -1.484  19.080  49.107  1.00  0.00     0.017 C 
ATOM      2  C   UNL     1      -0.171  19.730  48.571  1.00  0.00     0.011 C 
ATOM      3  C   UNL     1       0.098  21.170  49.089  1.00  0.00     0.037 C 
ATOM      4  C   UNL     1      -0.891  21.624  50.182  1.00  0.00     0.137 C 
ATOM      5  C   UNL     1      -2.302  21.322  49.748  1.00  0.00     0.000 C 
ATOM      6  C   UNL     1      -2.580  20.128  49.213  1.00  0.00    -0.025 C 
ENDROOT
BRANCH   1   7
ATOM      7  C   UNL     1      -1.925  17.778  48.336  1.00  0.00    -0.032 C 
ATOM      8  C   UNL     1      -3.450  17.817  48.077  1.00  0.00     0.011 C 
ATOM      9  C   UNL     1      -1.634  16.523  49.193  1.00  0.00     0.011 C 
ATOM     10  C   UNL     1      -1.198  17.624  46.978  1.00  0.00     0.011 C 
ENDBRANCH   1   7
BRANCH   4  11
ATOM     11  O   UNL     1      -0.732  22.990  50.473  1.00  0.00    -0.389 OA
ATOM     12  H   UNL     1      -0.186  23.392  49.747  1.00  0.00     0.211 HD
ENDBRANCH   4  11
TORSDOF 2
ENDMDL
MODEL 6
REMARK VINA RESULT:    -4.304      2.205      3.876
REMARK INTER + INTRA:          -4.886
REMARK INTER:                  -4.686
REMARK INTRA:                  -0.200
REMARK UNBOUND:                -0.205
REMARK SMILES CC(C)(C)[C@@H]1C=C[C@H](O)CC1
REMARK SMILES IDX 5 1 11 2 10 3 8 4 7 5 6 6 2 7 1 8 3 9 4 10 9 11
REMARK H PARENT 9 12
REMARK Flexibility Score: inf
ROOT
ATOM      1  C   UNL     1      -1.335  19.765  49.328  1.00  0.00     0.017 C 
ATOM      2  C   UNL     1      -2.763  19.332  48.873  1.00  0.00     0.011 C 
ATOM      3  C   UNL     1      -2.852  17.892  48.298  1.00  0.00     0.037 C 
ATOM      4  C   UNL     1      -1.545  17.088  48.450  1.00  0.00     0.137 C 
ATOM      5  C   UNL     1      -0.378  17.922  47.987  1.00  0.00     0.000 C 
ATOM      6  C   UNL     1      -0.291  19.198  48.379  1.00  0.00    -0.025 C 
ENDROOT
BRANCH   1   7
ATOM      7  C   UNL     1      -1.178  21.311  49.591  1.00  0.00    -0.032 C 
ATOM      8  C   UNL     1      -1.054  22.060  48.242  1.00  0.00     0.011 C 
ATOM      9  C   UNL     1       0.115  21.589  50.394  1.00  0.00     0.011 C 
ATOM     10  C   UNL     1      -2.377  21.900  50.374  1.00  0.00     0.011 C 
ENDBRANCH   1   7
BRANCH   4  11
ATOM     11  O   UNL     1      -1.611  15.875  47.745  1.00  0.00    -0.389 OA
ATOM     12  H   UNL     1      -1.567  16.087  46.775  1.00  0.00     0.211 HD
ENDBRANCH   4  11
TORSDOF 2
ENDMDL
MODEL 7
REMARK VINA RESULT:    -4.303      2.313      3.984
REMARK INTER + INTRA:          -4.885
REMARK INTER:                  -4.686
REMARK INTRA:                  -0.200
REMARK UNBOUND:                -0.205
REMARK SMILES CC(C)(C)[C@@H]1C=C[C@H](O)CC1
REMARK SMILES IDX 5 1 11 2 10 3 8 4 7 5 6 6 2 7 1 8 3 9 4 10 9 11
REMARK H PARENT 9 12
REMARK Flexibility Score: inf
ROOT
ATOM      1  C   UNL     1      -1.409  19.987  49.423  1.00  0.00     0.017 C 
ATOM      2  C   UNL     1      -2.819  19.567  48.904  1.00  0.00     0.011 C 
ATOM      3  C   UNL     1      -2.898  18.123  48.336  1.00  0.00     0.037 C 
ATOM      4  C   UNL     1      -1.610  17.305  48.556  1.00  0.00     0.137 C 
ATOM      5  C   UNL     1      -0.412  18.122  48.142  1.00  0.00     0.000 C 
ATOM      6  C   UNL     1      -0.328  19.400  48.528  1.00  0.00    -0.025 C 
ENDROOT
BRANCH   1   7
ATOM      7  C   UNL     1      -1.246  21.532  49.681  1.00  0.00    -0.032 C 
ATOM      8  C   UNL     1      -2.496  22.074  50.415  1.00  0.00     0.011 C 
ATOM      9  C   UNL     1      -1.135  22.291  48.337  1.00  0.00     0.011 C 
ATOM     10  C   UNL     1       0.005  21.858  50.533  1.00  0.00     0.011 C 
ENDBRANCH   1   7
BRANCH   4  11
ATOM     11  O   UNL     1      -1.657  16.087  47.857  1.00  0.00    -0.389 OA
ATOM     12  H   UNL     1      -1.564  16.291  46.889  1.00  0.00     0.211 HD
ENDBRANCH   4  11
TORSDOF 2
ENDMDL
MODEL 8
REMARK VINA RESULT:    -4.259      2.788      4.606
REMARK INTER + INTRA:          -4.837
REMARK INTER:                  -4.633
REMARK INTRA:                  -0.204
REMARK UNBOUND:                -0.205
REMARK SMILES CC(C)(C)[C@@H]1C=C[C@H](O)CC1
REMARK SMILES IDX 5 1 11 2 10 3 8 4 7 5 6 6 2 7 1 8 3 9 4 10 9 11
REMARK H PARENT 9 12
REMARK Flexibility Score: inf
ROOT
ATOM      1  C   UNL     1      -1.341  18.337  47.361  1.00  0.00     0.017 C 
ATOM      2  C   UNL     1      -2.271  18.367  48.613  1.00  0.00     0.011 C 
ATOM      3  C   UNL     1      -2.501  19.780  49.216  1.00  0.00     0.037 C 
ATOM      4  C   UNL     1      -1.913  20.918  48.357  1.00  0.00     0.137 C 
ATOM      5  C   UNL     1      -0.497  20.580  47.967  1.00  0.00     0.000 C 
ATOM      6  C   UNL     1      -0.218  19.350  47.520  1.00  0.00    -0.025 C 
ENDROOT
BRANCH   1   7
ATOM      7  C   UNL     1      -0.842  16.898  46.957  1.00  0.00    -0.032 C 
ATOM      8  C   UNL     1      -1.263  15.876  48.041  1.00  0.00     0.011 C 
ATOM      9  C   UNL     1       0.703  16.872  46.873  1.00  0.00     0.011 C 
ATOM     10  C   UNL     1      -1.414  16.436  45.595  1.00  0.00     0.011 C 
ENDBRANCH   1   7
BRANCH   4  11
ATOM     11  O   UNL     1      -1.971  22.147  49.036  1.00  0.00    -0.389 OA
ATOM     12  H   UNL     1      -2.892  22.505  48.934  1.00  0.00     0.211 HD
ENDBRANCH   4  11
TORSDOF 2
ENDMDL
