MODEL 1
REMARK VINA RESULT:    -3.230      0.000      0.000
REMARK INTER + INTRA:          -3.230
REMARK INTER:                  -3.230
REMARK INTRA:                   0.000
REMARK UNBOUND:                 0.000
REMARK SMILES CC1(C)O[C@]2(C)CC[C@H]1CC2
REMARK SMILES IDX 1 1 2 2 9 3 8 4 7 5 5 6 4 7 11 8 10 9 6 10 3 11
REMARK H PARENT
REMARK Flexibility Score: inf
ROOT
ATOM      1  C   UNL     1       8.022  -2.706  -2.515  1.00  0.00     0.042 C 
ATOM      2  C   UNL     1       8.752  -3.734  -3.407  1.00  0.00     0.066 C 
ATOM      3  C   UNL     1       8.778  -5.152  -2.718  1.00  0.00     0.021 C 
ATOM      4  C   UNL     1       9.591  -5.043  -1.405  1.00  0.00     0.009 C 
ATOM      5  C   UNL     1      10.959  -4.387  -1.706  1.00  0.00     0.035 C 
ATOM      6  C   UNL     1      11.100  -4.141  -3.237  1.00  0.00     0.066 C 
ATOM      7  O   UNL     1      10.076  -3.241  -3.662  1.00  0.00    -0.369 OA
ATOM      8  C   UNL     1      10.933  -5.495  -3.984  1.00  0.00     0.035 C 
ATOM      9  C   UNL     1       9.564  -6.125  -3.629  1.00  0.00     0.009 C 
ATOM     10  C   UNL     1      12.466  -3.523  -3.554  1.00  0.00     0.042 C 
ATOM     11  C   UNL     1       7.995  -3.795  -4.752  1.00  0.00     0.042 C 
ENDROOT
TORSDOF 0
ENDMDL
MODEL 2
REMARK VINA RESULT:    -3.161      9.004     10.458
REMARK INTER + INTRA:          -3.161
REMARK INTER:                  -3.161
REMARK INTRA:                   0.000
REMARK UNBOUND:                 0.000
REMARK SMILES CC1(C)O[C@]2(C)CC[C@H]1CC2
REMARK SMILES IDX 1 1 2 2 9 3 8 4 7 5 5 6 4 7 11 8 10 9 6 10 3 11
REMARK H PARENT
REMARK Flexibility Score: inf
ROOT
ATOM      1  C   UNL     1       7.038   6.340  -8.071  1.00  0.00     0.042 C 
ATOM      2  C   UNL     1       7.593   4.958  -7.663  1.00  0.00     0.066 C 
ATOM      3  C   UNL     1       9.167   4.988  -7.588  1.00  0.00     0.021 C 
ATOM      4  C   UNL     1       9.719   5.290  -9.002  1.00  0.00     0.009 C 
ATOM      5  C   UNL     1       9.086   4.307 -10.016  1.00  0.00     0.035 C 
ATOM      6  C   UNL     1       8.181   3.287  -9.266  1.00  0.00     0.066 C 
ATOM      7  O   UNL     1       7.122   3.991  -8.614  1.00  0.00    -0.369 OA
ATOM      8  C   UNL     1       9.034   2.544  -8.199  1.00  0.00     0.035 C 
ATOM      9  C   UNL     1       9.668   3.569  -7.228  1.00  0.00     0.009 C 
ATOM     10  C   UNL     1       7.573   2.286 -10.254  1.00  0.00     0.042 C 
ATOM     11  C   UNL     1       6.987   4.609  -6.285  1.00  0.00     0.042 C 
ENDROOT
TORSDOF 0
ENDMDL
MODEL 3
REMARK VINA RESULT:    -3.065     10.171     11.536
REMARK INTER + INTRA:          -3.065
REMARK INTER:                  -3.065
REMARK INTRA:                   0.000
REMARK UNBOUND:                 0.000
REMARK SMILES CC1(C)O[C@]2(C)CC[C@H]1CC2
REMARK SMILES IDX 1 1 2 2 9 3 8 4 7 5 5 6 4 7 11 8 10 9 6 10 3 11
REMARK H PARENT
REMARK Flexibility Score: inf
ROOT
ATOM      1  C   UNL     1       9.706   3.323  -7.488  1.00  0.00     0.042 C 
ATOM      2  C   UNL     1       8.745   4.517  -7.672  1.00  0.00     0.066 C 
ATOM      3  C   UNL     1       8.193   4.568  -9.148  1.00  0.00     0.021 C 
ATOM      4  C   UNL     1       9.384   4.802 -10.108  1.00  0.00     0.009 C 
ATOM      5  C   UNL     1      10.196   6.027  -9.623  1.00  0.00     0.035 C 
ATOM      6  C   UNL     1       9.495   6.669  -8.391  1.00  0.00     0.066 C 
ATOM      7  O   UNL     1       9.454   5.717  -7.327  1.00  0.00    -0.369 OA
ATOM      8  C   UNL     1       8.041   7.059  -8.783  1.00  0.00     0.035 C 
ATOM      9  C   UNL     1       7.280   5.809  -9.288  1.00  0.00     0.009 C 
ATOM     10  C   UNL     1      10.270   7.904  -7.921  1.00  0.00     0.042 C 
ATOM     11  C   UNL     1       7.590   4.337  -6.663  1.00  0.00     0.042 C 
ENDROOT
TORSDOF 0
ENDMDL
MODEL 4
REMARK VINA RESULT:    -2.984      9.244     10.829
REMARK INTER + INTRA:          -2.984
REMARK INTER:                  -2.984
REMARK INTRA:                   0.000
REMARK UNBOUND:                 0.000
REMARK SMILES CC1(C)O[C@]2(C)CC[C@H]1CC2
REMARK SMILES IDX 1 1 2 2 9 3 8 4 7 5 5 6 4 7 11 8 10 9 6 10 3 11
REMARK H PARENT
REMARK Flexibility Score: inf
ROOT
ATOM      1  C   UNL     1      10.085   2.974  -7.388  1.00  0.00     0.042 C 
ATOM      2  C   UNL     1       8.798   3.371  -8.145  1.00  0.00     0.066 C 
ATOM      3  C   UNL     1       9.147   4.184  -9.450  1.00  0.00     0.021 C 
ATOM      4  C   UNL     1       9.844   5.502  -9.034  1.00  0.00     0.009 C 
ATOM      5  C   UNL     1       8.980   6.222  -7.972  1.00  0.00     0.035 C 
ATOM      6  C   UNL     1       7.658   5.432  -7.745  1.00  0.00     0.066 C 
ATOM      7  O   UNL     1       7.971   4.129  -7.250  1.00  0.00    -0.369 OA
ATOM      8  C   UNL     1       6.910   5.297  -9.102  1.00  0.00     0.035 C 
ATOM      9  C   UNL     1       7.824   4.598 -10.137  1.00  0.00     0.009 C 
ATOM     10  C   UNL     1       6.776   6.152  -6.719  1.00  0.00     0.042 C 
ATOM     11  C   UNL     1       8.052   2.066  -8.498  1.00  0.00     0.042 C 
ENDROOT
TORSDOF 0
ENDMDL
MODEL 5
REMARK VINA RESULT:    -2.983     10.465     12.267
REMARK INTER + INTRA:          -2.983
REMARK INTER:                  -2.983
REMARK INTRA:                   0.000
REMARK UNBOUND:                 0.000
REMARK SMILES CC1(C)O[C@]2(C)CC[C@H]1CC2
REMARK SMILES IDX 1 1 2 2 9 3 8 4 7 5 5 6 4 7 11 8 10 9 6 10 3 11
REMARK H PARENT
REMARK Flexibility Score: inf
ROOT
ATOM      1  C   UNL     1      17.278  -1.532   5.389  1.00  0.00     0.042 C 
ATOM      2  C   UNL     1      16.224  -1.546   6.518  1.00  0.00     0.066 C 
ATOM      3  C   UNL     1      16.822  -2.180   7.832  1.00  0.00     0.021 C 
ATOM      4  C   UNL     1      17.186  -3.656   7.542  1.00  0.00     0.009 C 
ATOM      5  C   UNL     1      15.963  -4.368   6.917  1.00  0.00     0.035 C 
ATOM      6  C   UNL     1      14.751  -3.393   6.874  1.00  0.00     0.066 C 
ATOM      7  O   UNL     1      15.079  -2.274   6.049  1.00  0.00    -0.369 OA
ATOM      8  C   UNL     1      14.452  -2.894   8.317  1.00  0.00     0.035 C 
ATOM      9  C   UNL     1      15.711  -2.216   8.908  1.00  0.00     0.009 C 
ATOM     10  C   UNL     1      13.521  -4.096   6.288  1.00  0.00     0.042 C 
ATOM     11  C   UNL     1      15.794  -0.083   6.764  1.00  0.00     0.042 C 
ENDROOT
TORSDOF 0
ENDMDL
MODEL 6
REMARK VINA RESULT:    -2.975      8.957     10.490
REMARK INTER + INTRA:          -2.975
REMARK INTER:                  -2.975
REMARK INTRA:                   0.000
REMARK UNBOUND:                 0.000
REMARK SMILES CC1(C)O[C@]2(C)CC[C@H]1CC2
REMARK SMILES IDX 1 1 2 2 9 3 8 4 7 5 5 6 4 7 11 8 10 9 6 10 3 11
REMARK H PARENT
REMARK Flexibility Score: inf
ROOT
ATOM      1  C   UNL     1       8.802   3.955 -10.860  1.00  0.00     0.042 C 
ATOM      2  C   UNL     1       8.858   4.423  -9.390  1.00  0.00     0.066 C 
ATOM      3  C   UNL     1       9.344   3.253  -8.451  1.00  0.00     0.021 C 
ATOM      4  C   UNL     1       8.305   2.108  -8.516  1.00  0.00     0.009 C 
ATOM      5  C   UNL     1       6.895   2.684  -8.242  1.00  0.00     0.035 C 
ATOM      6  C   UNL     1       7.002   4.199  -7.902  1.00  0.00     0.066 C 
ATOM      7  O   UNL     1       7.552   4.893  -9.022  1.00  0.00    -0.369 OA
ATOM      8  C   UNL     1       7.945   4.376  -6.677  1.00  0.00     0.035 C 
ATOM      9  C   UNL     1       9.331   3.760  -6.989  1.00  0.00     0.009 C 
ATOM     10  C   UNL     1       5.616   4.776  -7.595  1.00  0.00     0.042 C 
ATOM     11  C   UNL     1       9.834   5.617  -9.324  1.00  0.00     0.042 C 
ENDROOT
TORSDOF 0
ENDMDL
MODEL 7
REMARK VINA RESULT:    -2.957      9.096     10.363
REMARK INTER + INTRA:          -2.957
REMARK INTER:                  -2.957
REMARK INTRA:                   0.000
REMARK UNBOUND:                 0.000
REMARK SMILES CC1(C)O[C@]2(C)CC[C@H]1CC2
REMARK SMILES IDX 1 1 2 2 9 3 8 4 7 5 5 6 4 7 11 8 10 9 6 10 3 11
REMARK H PARENT
REMARK Flexibility Score: inf
ROOT
ATOM      1  C   UNL     1       6.283   3.232  -7.342  1.00  0.00     0.042 C 
ATOM      2  C   UNL     1       7.041   3.916  -8.501  1.00  0.00     0.066 C 
ATOM      3  C   UNL     1       8.158   2.964  -9.075  1.00  0.00     0.021 C 
ATOM      4  C   UNL     1       9.196   2.697  -7.959  1.00  0.00     0.009 C 
ATOM      5  C   UNL     1       9.666   4.047  -7.367  1.00  0.00     0.035 C 
ATOM      6  C   UNL     1       9.011   5.221  -8.150  1.00  0.00     0.066 C 
ATOM      7  O   UNL     1       7.592   5.147  -8.007  1.00  0.00    -0.369 OA
ATOM      8  C   UNL     1       9.380   5.094  -9.656  1.00  0.00     0.035 C 
ATOM      9  C   UNL     1       8.917   3.718 -10.194  1.00  0.00     0.009 C 
ATOM     10  C   UNL     1       9.494   6.566  -7.596  1.00  0.00     0.042 C 
ATOM     11  C   UNL     1       6.002   4.259  -9.590  1.00  0.00     0.042 C 
ENDROOT
TORSDOF 0
ENDMDL
MODEL 8
REMARK VINA RESULT:    -2.904      8.768     10.249
REMARK INTER + INTRA:          -2.904
REMARK INTER:                  -2.904
REMARK INTRA:                   0.000
REMARK UNBOUND:                 0.000
REMARK SMILES CC1(C)O[C@]2(C)CC[C@H]1CC2
REMARK SMILES IDX 1 1 2 2 9 3 8 4 7 5 5 6 4 7 11 8 10 9 6 10 3 11
REMARK H PARENT
REMARK Flexibility Score: inf
ROOT
ATOM      1  C   UNL     1       9.838   5.483  -9.528  1.00  0.00     0.042 C 
ATOM      2  C   UNL     1       8.515   5.065  -8.850  1.00  0.00     0.066 C 
ATOM      3  C   UNL     1       8.735   4.809  -7.310  1.00  0.00     0.021 C 
ATOM      4  C   UNL     1       9.716   3.624  -7.145  1.00  0.00     0.009 C 
ATOM      5  C   UNL     1       9.213   2.427  -7.987  1.00  0.00     0.035 C 
ATOM      6  C   UNL     1       7.847   2.781  -8.643  1.00  0.00     0.066 C 
ATOM      7  O   UNL     1       8.022   3.894  -9.520  1.00  0.00    -0.369 OA
ATOM      8  C   UNL     1       6.835   3.164  -7.526  1.00  0.00     0.035 C 
ATOM      9  C   UNL     1       7.394   4.344  -6.694  1.00  0.00     0.009 C 
ATOM     10  C   UNL     1       7.321   1.591  -9.453  1.00  0.00     0.042 C 
ATOM     11  C   UNL     1       7.502   6.208  -9.075  1.00  0.00     0.042 C 
ENDROOT
TORSDOF 0
ENDMDL
MODEL 9
REMARK VINA RESULT:    -2.748      9.894     11.169
REMARK INTER + INTRA:          -2.748
REMARK INTER:                  -2.748
REMARK INTRA:                   0.000
REMARK UNBOUND:                 0.000
REMARK SMILES CC1(C)O[C@]2(C)CC[C@H]1CC2
REMARK SMILES IDX 1 1 2 2 9 3 8 4 7 5 5 6 4 7 11 8 10 9 6 10 3 11
REMARK H PARENT
REMARK Flexibility Score: inf
ROOT
ATOM      1  C   UNL     1       8.329   7.675  -8.058  1.00  0.00     0.042 C 
ATOM      2  C   UNL     1       8.838   6.405  -8.775  1.00  0.00     0.066 C 
ATOM      3  C   UNL     1       7.636   5.597  -9.399  1.00  0.00     0.021 C 
ATOM      4  C   UNL     1       6.716   5.121  -8.249  1.00  0.00     0.009 C 
ATOM      5  C   UNL     1       7.569   4.394  -7.183  1.00  0.00     0.035 C 
ATOM      6  C   UNL     1       9.046   4.301  -7.663  1.00  0.00     0.066 C 
ATOM      7  O   UNL     1       9.571   5.620  -7.822  1.00  0.00    -0.369 OA
ATOM      8  C   UNL     1       9.087   3.566  -9.034  1.00  0.00     0.035 C 
ATOM      9  C   UNL     1       8.198   4.314 -10.057  1.00  0.00     0.009 C 
ATOM     10  C   UNL     1       9.897   3.552  -6.631  1.00  0.00     0.042 C 
ATOM     11  C   UNL     1       9.820   6.862  -9.876  1.00  0.00     0.042 C 
ENDROOT
TORSDOF 0
ENDMDL
