MODEL 1
REMARK VINA RESULT:    -5.322      0.000      0.000
REMARK INTER + INTRA:         -11.247
REMARK INTER:                  -9.211
REMARK INTRA:                  -2.036
REMARK UNBOUND:                -2.036
REMARK SMILES OC[C@@H]1O[C@@H](O[C@H]2[C@@H](O)[C@@H](O)[C@H](O)O[C@@H]2CO)[C@@H](O)[C@@H](O)[C@@H]1O[C@H]1O[C@H](CO)[C@H](O)[C@@H](O)[C@H]1O
REMARK SMILES IDX 22 1 3 2 4 3 5 4 18 5 20 6 23 7 24 8 26 9 29 10 25 11 31 12
REMARK SMILES IDX 33 13 27 14 28 15 30 17 32 19 34 21 2 23 1 24 21 26 19 28
REMARK SMILES IDX 6 30 7 31 15 32 8 33 14 34 10 35 12 36 16 37 17 38 9 40
REMARK SMILES IDX 11 42 13 44
REMARK H PARENT 28 16 30 18 32 20 34 22 1 25 21 27 19 29 17 39 9 41 11 43
REMARK H PARENT 13 45
REMARK Flexibility Score: inf
ROOT
ATOM      1  C   UNL     1      16.612  47.812  25.557  1.00  0.00     0.184 C 
ATOM      2  C   UNL     1      15.239  47.702  24.853  1.00  0.00     0.178 C 
ATOM      3  O   UNL     1      14.876  48.941  24.269  1.00  0.00    -0.341 OA
ATOM      4  C   UNL     1      14.643  49.939  25.254  1.00  0.00     0.282 C 
ATOM      5  C   UNL     1      15.905  50.207  26.104  1.00  0.00     0.202 C 
ATOM      6  C   UNL     1      16.544  48.911  26.646  1.00  0.00     0.180 C 
ENDROOT
BRANCH   1   7
ATOM      7  O   UNL     1      17.606  48.140  24.598  1.00  0.00    -0.341 OA
BRANCH   7   8
ATOM      8  C   UNL     1      18.775  47.344  24.754  1.00  0.00     0.282 C 
ATOM      9  C   UNL     1      18.803  46.666  22.497  1.00  0.00     0.178 C 
ATOM     10  C   UNL     1      20.097  47.462  22.180  1.00  0.00     0.177 C 
ATOM     11  O   UNL     1      18.776  46.247  23.852  1.00  0.00    -0.341 OA
ATOM     12  C   UNL     1      20.232  48.665  23.136  1.00  0.00     0.179 C 
ATOM     13  C   UNL     1      20.041  48.217  24.594  1.00  0.00     0.202 C 
BRANCH   9  14
ATOM     14  C   UNL     1      18.666  45.424  21.604  1.00  0.00     0.191 C 
BRANCH  14  15
ATOM     15  O   UNL     1      17.453  45.444  20.898  1.00  0.00    -0.394 OA
ATOM     16  H   UNL     1      17.317  46.378  20.589  1.00  0.00     0.210 HD
ENDBRANCH  14  15
ENDBRANCH   9  14
BRANCH  10  17
ATOM     17  O   UNL     1      21.249  46.651  22.229  1.00  0.00    -0.387 OA
ATOM     18  H   UNL     1      21.310  46.253  23.135  1.00  0.00     0.211 HD
ENDBRANCH  10  17
BRANCH  12  19
ATOM     19  O   UNL     1      19.276  49.643  22.814  1.00  0.00    -0.387 OA
ATOM     20  H   UNL     1      19.770  50.412  22.428  1.00  0.00     0.211 HD
ENDBRANCH  12  19
BRANCH  13  21
ATOM     21  O   UNL     1      19.965  49.346  25.427  1.00  0.00    -0.385 OA
ATOM     22  H   UNL     1      19.288  49.952  25.023  1.00  0.00     0.211 HD
ENDBRANCH  13  21
ENDBRANCH   7   8
ENDBRANCH   1   7
BRANCH   2  23
ATOM     23  C   UNL     1      15.263  46.631  23.753  1.00  0.00     0.191 C 
BRANCH  23  24
ATOM     24  O   UNL     1      15.431  47.232  22.498  1.00  0.00    -0.394 OA
ATOM     25  H   UNL     1      16.260  46.853  22.106  1.00  0.00     0.210 HD
ENDBRANCH  23  24
ENDBRANCH   2  23
BRANCH   6  26
ATOM     26  O   UNL     1      15.908  48.446  27.811  1.00  0.00    -0.387 OA
ATOM     27  H   UNL     1      15.482  47.576  27.613  1.00  0.00     0.211 HD
ENDBRANCH   6  26
BRANCH   5  28
ATOM     28  O   UNL     1      15.607  51.066  27.173  1.00  0.00    -0.385 OA
ATOM     29  H   UNL     1      16.463  51.478  27.462  1.00  0.00     0.211 HD
ENDBRANCH   5  28
BRANCH   4  30
ATOM     30  O   UNL     1      13.544  49.600  26.087  1.00  0.00    -0.341 OA
BRANCH  30  31
ATOM     31  C   UNL     1      12.360  50.275  25.695  1.00  0.00     0.184 C 
ATOM     32  C   UNL     1      12.582  51.831  25.740  1.00  0.00     0.178 C 
ATOM     33  C   UNL     1      11.227  49.884  26.660  1.00  0.00     0.180 C 
ATOM     34  O   UNL     1      12.066  52.443  26.919  1.00  0.00    -0.342 OA
ATOM     35  C   UNL     1      11.491  50.416  28.094  1.00  0.00     0.201 C 
ATOM     36  C   UNL     1      12.378  51.680  28.067  1.00  0.00     0.279 C 
BRANCH  32  37
ATOM     37  C   UNL     1      11.926  52.499  24.520  1.00  0.00     0.191 C 
BRANCH  37  38
ATOM     38  O   UNL     1      11.913  51.633  23.418  1.00  0.00    -0.394 OA
ATOM     39  H   UNL     1      12.174  52.174  22.628  1.00  0.00     0.210 HD
ENDBRANCH  37  38
ENDBRANCH  32  37
BRANCH  33  40
ATOM     40  O   UNL     1      11.065  48.487  26.676  1.00  0.00    -0.387 OA
ATOM     41  H   UNL     1      10.624  48.225  25.825  1.00  0.00     0.211 HD
ENDBRANCH  33  40
BRANCH  35  42
ATOM     42  O   UNL     1      12.050  49.435  28.934  1.00  0.00    -0.385 OA
ATOM     43  H   UNL     1      12.457  49.897  29.710  1.00  0.00     0.211 HD
ENDBRANCH  35  42
BRANCH  36  44
ATOM     44  O   UNL     1      12.125  52.446  29.212  1.00  0.00    -0.366 OA
ATOM     45  H   UNL     1      11.508  53.174  28.933  1.00  0.00     0.213 HD
ENDBRANCH  36  44
ENDBRANCH  30  31
ENDBRANCH   4  30
TORSDOF 18
ENDMDL
MODEL 2
REMARK VINA RESULT:    -5.287     11.890     15.232
REMARK INTER + INTRA:         -11.186
REMARK INTER:                  -9.057
REMARK INTRA:                  -2.129
REMARK UNBOUND:                -2.036
REMARK SMILES OC[C@@H]1O[C@@H](O[C@H]2[C@@H](O)[C@@H](O)[C@H](O)O[C@@H]2CO)[C@@H](O)[C@@H](O)[C@@H]1O[C@H]1O[C@H](CO)[C@H](O)[C@@H](O)[C@H]1O
REMARK SMILES IDX 22 1 3 2 4 3 5 4 18 5 20 6 23 7 24 8 26 9 29 10 25 11 31 12
REMARK SMILES IDX 33 13 27 14 28 15 30 17 32 19 34 21 2 23 1 24 21 26 19 28
REMARK SMILES IDX 6 30 7 31 15 32 8 33 14 34 10 35 12 36 16 37 17 38 9 40
REMARK SMILES IDX 11 42 13 44
REMARK H PARENT 28 16 30 18 32 20 34 22 1 25 21 27 19 29 17 39 9 41 11 43
REMARK H PARENT 13 45
REMARK Flexibility Score: inf
ROOT
ATOM      1  C   UNL     1      17.987  45.761  36.532  1.00  0.00     0.184 C 
ATOM      2  C   UNL     1      17.364  44.346  36.545  1.00  0.00     0.178 C 
ATOM      3  O   UNL     1      17.905  43.570  37.601  1.00  0.00    -0.341 OA
ATOM      4  C   UNL     1      19.286  43.302  37.403  1.00  0.00     0.282 C 
ATOM      5  C   UNL     1      20.118  44.602  37.343  1.00  0.00     0.202 C 
ATOM      6  C   UNL     1      19.523  45.645  36.371  1.00  0.00     0.180 C 
ENDROOT
BRANCH   1   7
ATOM      7  O   UNL     1      17.676  46.421  37.750  1.00  0.00    -0.341 OA
BRANCH   7   8
ATOM      8  C   UNL     1      18.354  47.667  37.865  1.00  0.00     0.282 C 
ATOM      9  C   UNL     1      16.361  48.909  38.066  1.00  0.00     0.178 C 
ATOM     10  C   UNL     1      16.640  49.288  39.544  1.00  0.00     0.177 C 
ATOM     11  O   UNL     1      17.569  48.731  37.344  1.00  0.00    -0.341 OA
ATOM     12  C   UNL     1      17.531  48.220  40.210  1.00  0.00     0.179 C 
ATOM     13  C   UNL     1      18.759  47.922  39.334  1.00  0.00     0.202 C 
BRANCH   9  14
ATOM     14  C   UNL     1      15.526  49.982  37.350  1.00  0.00     0.191 C 
BRANCH  14  15
ATOM     15  O   UNL     1      14.574  50.539  38.218  1.00  0.00    -0.394 OA
ATOM     16  H   UNL     1      15.070  50.876  39.010  1.00  0.00     0.210 HD
ENDBRANCH  14  15
ENDBRANCH   9  14
BRANCH  10  17
ATOM     17  O   UNL     1      17.214  50.569  39.668  1.00  0.00    -0.387 OA
ATOM     18  H   UNL     1      17.953  50.516  40.327  1.00  0.00     0.211 HD
ENDBRANCH  10  17
BRANCH  12  19
ATOM     19  O   UNL     1      16.796  47.039  40.410  1.00  0.00    -0.387 OA
ATOM     20  H   UNL     1      16.064  47.260  41.042  1.00  0.00     0.211 HD
ENDBRANCH  12  19
BRANCH  13  21
ATOM     21  O   UNL     1      19.447  46.812  39.852  1.00  0.00    -0.385 OA
ATOM     22  H   UNL     1      18.758  46.195  40.217  1.00  0.00     0.211 HD
ENDBRANCH  13  21
ENDBRANCH   7   8
ENDBRANCH   1   7
BRANCH   2  23
ATOM     23  C   UNL     1      15.840  44.411  36.717  1.00  0.00     0.191 C 
BRANCH  23  24
ATOM     24  O   UNL     1      15.514  44.599  38.068  1.00  0.00    -0.394 OA
ATOM     25  H   UNL     1      15.660  45.560  38.268  1.00  0.00     0.210 HD
ENDBRANCH  23  24
ENDBRANCH   2  23
BRANCH   6  26
ATOM     26  O   UNL     1      19.885  45.399  35.034  1.00  0.00    -0.387 OA
ATOM     27  H   UNL     1      20.262  44.488  34.971  1.00  0.00     0.211 HD
ENDBRANCH   6  26
BRANCH   5  28
ATOM     28  O   UNL     1      21.444  44.324  36.979  1.00  0.00    -0.385 OA
ATOM     29  H   UNL     1      21.736  43.544  37.520  1.00  0.00     0.211 HD
ENDBRANCH   5  28
BRANCH   4  30
ATOM     30  O   UNL     1      19.501  42.519  36.238  1.00  0.00    -0.341 OA
BRANCH  30  31
ATOM     31  C   UNL     1      19.602  41.138  36.545  1.00  0.00     0.184 C 
ATOM     32  C   UNL     1      21.046  40.613  36.213  1.00  0.00     0.178 C 
ATOM     33  C   UNL     1      18.565  40.369  35.705  1.00  0.00     0.180 C 
ATOM     34  O   UNL     1      21.131  39.936  34.963  1.00  0.00    -0.342 OA
ATOM     35  C   UNL     1      18.899  40.432  34.191  1.00  0.00     0.201 C 
ATOM     36  C   UNL     1      20.414  40.627  33.960  1.00  0.00     0.279 C 
BRANCH  32  37
ATOM     37  C   UNL     1      21.533  39.658  37.316  1.00  0.00     0.191 C 
BRANCH  37  38
ATOM     38  O   UNL     1      20.911  39.942  38.539  1.00  0.00    -0.394 OA
ATOM     39  H   UNL     1      21.389  39.416  39.231  1.00  0.00     0.210 HD
ENDBRANCH  37  38
ENDBRANCH  32  37
BRANCH  33  40
ATOM     40  O   UNL     1      17.276  40.876  35.946  1.00  0.00    -0.387 OA
ATOM     41  H   UNL     1      16.645  40.108  35.948  1.00  0.00     0.211 HD
ENDBRANCH  33  40
BRANCH  35  42
ATOM     42  O   UNL     1      18.162  41.427  33.522  1.00  0.00    -0.385 OA
ATOM     43  H   UNL     1      17.263  41.468  33.936  1.00  0.00     0.211 HD
ENDBRANCH  35  42
BRANCH  36  44
ATOM     44  O   UNL     1      20.760  40.108  32.706  1.00  0.00    -0.366 OA
ATOM     45  H   UNL     1      20.196  40.582  32.039  1.00  0.00     0.213 HD
ENDBRANCH  36  44
ENDBRANCH  30  31
ENDBRANCH   4  30
TORSDOF 18
ENDMDL
MODEL 3
REMARK VINA RESULT:    -5.250      1.592      2.140
REMARK INTER + INTRA:         -11.122
REMARK INTER:                  -9.142
REMARK INTRA:                  -1.980
REMARK UNBOUND:                -2.036
REMARK SMILES OC[C@@H]1O[C@@H](O[C@H]2[C@@H](O)[C@@H](O)[C@H](O)O[C@@H]2CO)[C@@H](O)[C@@H](O)[C@@H]1O[C@H]1O[C@H](CO)[C@H](O)[C@@H](O)[C@H]1O
REMARK SMILES IDX 22 1 3 2 4 3 5 4 18 5 20 6 23 7 24 8 26 9 29 10 25 11 31 12
REMARK SMILES IDX 33 13 27 14 28 15 30 17 32 19 34 21 2 23 1 24 21 26 19 28
REMARK SMILES IDX 6 30 7 31 15 32 8 33 14 34 10 35 12 36 16 37 17 38 9 40
REMARK SMILES IDX 11 42 13 44
REMARK H PARENT 28 16 30 18 32 20 34 22 1 25 21 27 19 29 17 39 9 41 11 43
REMARK H PARENT 13 45
REMARK Flexibility Score: inf
ROOT
ATOM      1  C   UNL     1      16.455  46.925  25.647  1.00  0.00     0.184 C 
ATOM      2  C   UNL     1      14.910  46.862  25.646  1.00  0.00     0.178 C 
ATOM      3  O   UNL     1      14.376  47.663  24.605  1.00  0.00    -0.341 OA
ATOM      4  C   UNL     1      14.632  49.044  24.820  1.00  0.00     0.282 C 
ATOM      5  C   UNL     1      16.147  49.343  24.872  1.00  0.00     0.202 C 
ATOM      6  C   UNL     1      16.909  48.395  25.824  1.00  0.00     0.180 C 
ENDROOT
BRANCH   1   7
ATOM      7  O   UNL     1      16.945  46.411  24.417  1.00  0.00    -0.341 OA
BRANCH   7   8
ATOM      8  C   UNL     1      18.309  46.761  24.204  1.00  0.00     0.282 C 
ATOM      9  C   UNL     1      19.006  44.523  23.961  1.00  0.00     0.178 C 
ATOM     10  C   UNL     1      19.335  44.695  22.454  1.00  0.00     0.177 C 
ATOM     11  O   UNL     1      19.181  45.741  24.667  1.00  0.00    -0.341 OA
ATOM     12  C   UNL     1      18.474  45.819  21.844  1.00  0.00     0.179 C 
ATOM     13  C   UNL     1      18.549  47.086  22.712  1.00  0.00     0.202 C 
BRANCH   9  14
ATOM     14  C   UNL     1      19.889  43.452  24.619  1.00  0.00     0.191 C 
BRANCH  14  15
ATOM     15  O   UNL     1      20.131  42.389  23.736  1.00  0.00    -0.394 OA
ATOM     16  H   UNL     1      19.386  42.385  23.080  1.00  0.00     0.210 HD
ENDBRANCH  14  15
ENDBRANCH   9  14
BRANCH  10  17
ATOM     17  O   UNL     1      20.706  44.935  22.231  1.00  0.00    -0.387 OA
ATOM     18  H   UNL     1      21.117  44.100  21.891  1.00  0.00     0.211 HD
ENDBRANCH  10  17
BRANCH  12  19
ATOM     19  O   UNL     1      17.137  45.397  21.741  1.00  0.00    -0.387 OA
ATOM     20  H   UNL     1      17.062  44.887  20.893  1.00  0.00     0.211 HD
ENDBRANCH  12  19
BRANCH  13  21
ATOM     21  O   UNL     1      17.608  48.024  22.257  1.00  0.00    -0.385 OA
ATOM     22  H   UNL     1      17.166  47.622  21.462  1.00  0.00     0.211 HD
ENDBRANCH  13  21
ENDBRANCH   7   8
ENDBRANCH   1   7
BRANCH   2  23
ATOM     23  C   UNL     1      14.413  45.421  25.459  1.00  0.00     0.191 C 
BRANCH  23  24
ATOM     24  O   UNL     1      14.531  45.041  24.115  1.00  0.00    -0.394 OA
ATOM     25  H   UNL     1      13.608  44.967  23.755  1.00  0.00     0.210 HD
ENDBRANCH  23  24
ENDBRANCH   2  23
BRANCH   6  26
ATOM     26  O   UNL     1      16.824  48.804  27.167  1.00  0.00    -0.387 OA
ATOM     27  H   UNL     1      17.617  48.467  27.651  1.00  0.00     0.211 HD
ENDBRANCH   6  26
BRANCH   5  28
ATOM     28  O   UNL     1      16.376  50.674  25.252  1.00  0.00    -0.385 OA
ATOM     29  H   UNL     1      15.788  50.858  26.031  1.00  0.00     0.211 HD
ENDBRANCH   5  28
BRANCH   4  30
ATOM     30  O   UNL     1      13.992  49.514  25.997  1.00  0.00    -0.341 OA
BRANCH  30  31
ATOM     31  C   UNL     1      12.729  50.092  25.712  1.00  0.00     0.184 C 
ATOM     32  C   UNL     1      12.775  51.644  25.959  1.00  0.00     0.178 C 
ATOM     33  C   UNL     1      11.675  49.452  26.634  1.00  0.00     0.180 C 
ATOM     34  O   UNL     1      12.228  52.036  27.214  1.00  0.00    -0.342 OA
ATOM     35  C   UNL     1      11.918  49.822  28.121  1.00  0.00     0.201 C 
ATOM     36  C   UNL     1      12.657  51.173  28.248  1.00  0.00     0.279 C 
BRANCH  32  37
ATOM     37  C   UNL     1      12.013  52.384  24.845  1.00  0.00     0.191 C 
BRANCH  37  38
ATOM     38  O   UNL     1      11.990  51.629  23.665  1.00  0.00    -0.394 OA
ATOM     39  H   UNL     1      11.237  51.976  23.120  1.00  0.00     0.210 HD
ENDBRANCH  37  38
ENDBRANCH  32  37
BRANCH  33  40
ATOM     40  O   UNL     1      11.672  48.056  26.470  1.00  0.00    -0.387 OA
ATOM     41  H   UNL     1      10.952  47.685  27.047  1.00  0.00     0.211 HD
ENDBRANCH  33  40
BRANCH  35  42
ATOM     42  O   UNL     1      12.608  48.812  28.818  1.00  0.00    -0.385 OA
ATOM     43  H   UNL     1      13.352  49.240  29.313  1.00  0.00     0.211 HD
ENDBRANCH  35  42
BRANCH  36  44
ATOM     44  O   UNL     1      12.351  51.751  29.486  1.00  0.00    -0.366 OA
ATOM     45  H   UNL     1      11.875  52.601  29.291  1.00  0.00     0.213 HD
ENDBRANCH  36  44
ENDBRANCH  30  31
ENDBRANCH   4  30
TORSDOF 18
ENDMDL
MODEL 4
REMARK VINA RESULT:    -5.215     13.575     16.807
REMARK INTER + INTRA:         -11.062
REMARK INTER:                  -9.113
REMARK INTRA:                  -1.948
REMARK UNBOUND:                -2.036
REMARK SMILES OC[C@@H]1O[C@@H](O[C@H]2[C@@H](O)[C@@H](O)[C@H](O)O[C@@H]2CO)[C@@H](O)[C@@H](O)[C@@H]1O[C@H]1O[C@H](CO)[C@H](O)[C@@H](O)[C@H]1O
REMARK SMILES IDX 22 1 3 2 4 3 5 4 18 5 20 6 23 7 24 8 26 9 29 10 25 11 31 12
REMARK SMILES IDX 33 13 27 14 28 15 30 17 32 19 34 21 2 23 1 24 21 26 19 28
REMARK SMILES IDX 6 30 7 31 15 32 8 33 14 34 10 35 12 36 16 37 17 38 9 40
REMARK SMILES IDX 11 42 13 44
REMARK H PARENT 28 16 30 18 32 20 34 22 1 25 21 27 19 29 17 39 9 41 11 43
REMARK H PARENT 13 45
REMARK Flexibility Score: inf
ROOT
ATOM      1  C   UNL     1       8.511  41.168  36.770  1.00  0.00     0.184 C 
ATOM      2  C   UNL     1       9.025  42.625  36.835  1.00  0.00     0.178 C 
ATOM      3  O   UNL     1       8.417  43.323  37.909  1.00  0.00    -0.341 OA
ATOM      4  C   UNL     1       7.021  43.492  37.704  1.00  0.00     0.282 C 
ATOM      5  C   UNL     1       6.292  42.135  37.593  1.00  0.00     0.202 C 
ATOM      6  C   UNL     1       6.973  41.173  36.596  1.00  0.00     0.180 C 
ENDROOT
BRANCH   1   7
ATOM      7  O   UNL     1       8.861  40.494  37.970  1.00  0.00    -0.341 OA
BRANCH   7   8
ATOM      8  C   UNL     1       8.189  39.245  38.090  1.00  0.00     0.282 C 
ATOM      9  C   UNL     1      10.184  37.991  38.037  1.00  0.00     0.178 C 
ATOM     10  C   UNL     1      10.048  37.542  39.516  1.00  0.00     0.177 C 
ATOM     11  O   UNL     1       8.913  38.207  37.445  1.00  0.00    -0.341 OA
ATOM     12  C   UNL     1       9.232  38.579  40.316  1.00  0.00     0.179 C 
ATOM     13  C   UNL     1       7.927  38.921  39.578  1.00  0.00     0.202 C 
BRANCH   9  14
ATOM     14  C   UNL     1      10.939  36.953  37.193  1.00  0.00     0.191 C 
BRANCH  14  15
ATOM     15  O   UNL     1      11.702  36.102  38.008  1.00  0.00    -0.394 OA
ATOM     16  H   UNL     1      12.626  36.108  37.643  1.00  0.00     0.210 HD
ENDBRANCH  14  15
ENDBRANCH   9  14
BRANCH  10  17
ATOM     17  O   UNL     1       9.480  36.258  39.634  1.00  0.00    -0.387 OA
ATOM     18  H   UNL     1       9.823  35.697  38.892  1.00  0.00     0.211 HD
ENDBRANCH  10  17
BRANCH  12  19
ATOM     19  O   UNL     1       9.990  39.748  40.499  1.00  0.00    -0.387 OA
ATOM     20  H   UNL     1       9.347  40.484  40.667  1.00  0.00     0.211 HD
ENDBRANCH  12  19
BRANCH  13  21
ATOM     21  O   UNL     1       7.299  40.006  40.213  1.00  0.00    -0.385 OA
ATOM     22  H   UNL     1       6.700  39.622  40.907  1.00  0.00     0.211 HD
ENDBRANCH  13  21
ENDBRANCH   7   8
ENDBRANCH   1   7
BRANCH   2  23
ATOM     23  C   UNL     1      10.548  42.670  37.022  1.00  0.00     0.191 C 
BRANCH  23  24
ATOM     24  O   UNL     1      10.888  42.249  38.315  1.00  0.00    -0.394 OA
ATOM     25  H   UNL     1      10.139  42.514  38.910  1.00  0.00     0.210 HD
ENDBRANCH  23  24
ENDBRANCH   2  23
BRANCH   6  26
ATOM     26  O   UNL     1       6.605  41.434  35.263  1.00  0.00    -0.387 OA
ATOM     27  H   UNL     1       5.693  41.816  35.256  1.00  0.00     0.211 HD
ENDBRANCH   6  26
BRANCH   5  28
ATOM     28  O   UNL     1       4.951  42.324  37.223  1.00  0.00    -0.385 OA
ATOM     29  H   UNL     1       4.955  42.760  36.331  1.00  0.00     0.211 HD
ENDBRANCH   5  28
BRANCH   4  30
ATOM     30  O   UNL     1       6.758  44.294  36.563  1.00  0.00    -0.341 OA
BRANCH  30  31
ATOM     31  C   UNL     1       6.497  45.643  36.917  1.00  0.00     0.184 C 
ATOM     32  C   UNL     1       4.951  45.924  36.880  1.00  0.00     0.178 C 
ATOM     33  C   UNL     1       7.216  46.563  35.913  1.00  0.00     0.180 C 
ATOM     34  O   UNL     1       4.519  46.570  35.686  1.00  0.00    -0.342 OA
ATOM     35  C   UNL     1       6.611  46.437  34.490  1.00  0.00     0.201 C 
ATOM     36  C   UNL     1       5.132  45.997  34.548  1.00  0.00     0.279 C 
BRANCH  32  37
ATOM     37  C   UNL     1       4.539  46.795  38.079  1.00  0.00     0.191 C 
BRANCH  37  38
ATOM     38  O   UNL     1       5.224  46.411  39.239  1.00  0.00    -0.394 OA
ATOM     39  H   UNL     1       4.535  46.140  39.900  1.00  0.00     0.210 HD
ENDBRANCH  37  38
ENDBRANCH  32  37
BRANCH  33  40
ATOM     40  O   UNL     1       8.591  46.274  35.890  1.00  0.00    -0.387 OA
ATOM     41  H   UNL     1       8.914  46.413  34.960  1.00  0.00     0.211 HD
ENDBRANCH  33  40
BRANCH  35  42
ATOM     42  O   UNL     1       7.355  45.570  33.668  1.00  0.00    -0.385 OA
ATOM     43  H   UNL     1       7.180  45.822  32.725  1.00  0.00     0.211 HD
ENDBRANCH  35  42
BRANCH  36  44
ATOM     44  O   UNL     1       4.472  46.445  33.396  1.00  0.00    -0.366 OA
ATOM     45  H   UNL     1       4.498  45.694  32.746  1.00  0.00     0.213 HD
ENDBRANCH  36  44
ENDBRANCH  30  31
ENDBRANCH   4  30
TORSDOF 18
ENDMDL
MODEL 5
REMARK VINA RESULT:    -5.201      4.502      7.878
REMARK INTER + INTRA:         -11.037
REMARK INTER:                  -8.916
REMARK INTRA:                  -2.121
REMARK UNBOUND:                -2.036
REMARK SMILES OC[C@@H]1O[C@@H](O[C@H]2[C@@H](O)[C@@H](O)[C@H](O)O[C@@H]2CO)[C@@H](O)[C@@H](O)[C@@H]1O[C@H]1O[C@H](CO)[C@H](O)[C@@H](O)[C@H]1O
REMARK SMILES IDX 22 1 3 2 4 3 5 4 18 5 20 6 23 7 24 8 26 9 29 10 25 11 31 12
REMARK SMILES IDX 33 13 27 14 28 15 30 17 32 19 34 21 2 23 1 24 21 26 19 28
REMARK SMILES IDX 6 30 7 31 15 32 8 33 14 34 10 35 12 36 16 37 17 38 9 40
REMARK SMILES IDX 11 42 13 44
REMARK H PARENT 28 16 30 18 32 20 34 22 1 25 21 27 19 29 17 39 9 41 11 43
REMARK H PARENT 13 45
REMARK Flexibility Score: inf
ROOT
ATOM      1  C   UNL     1      11.474  48.627  28.910  1.00  0.00     0.184 C 
ATOM      2  C   UNL     1      10.296  47.742  28.441  1.00  0.00     0.178 C 
ATOM      3  O   UNL     1       9.057  48.382  28.693  1.00  0.00    -0.341 OA
ATOM      4  C   UNL     1       8.810  48.520  30.086  1.00  0.00     0.282 C 
ATOM      5  C   UNL     1       9.895  49.375  30.777  1.00  0.00     0.202 C 
ATOM      6  C   UNL     1      11.327  48.918  30.424  1.00  0.00     0.180 C 
ENDROOT
BRANCH   1   7
ATOM      7  O   UNL     1      11.465  49.844  28.179  1.00  0.00    -0.341 OA
BRANCH   7   8
ATOM      8  C   UNL     1      12.745  50.467  28.173  1.00  0.00     0.282 C 
ATOM      9  C   UNL     1      13.396  49.464  26.142  1.00  0.00     0.178 C 
ATOM     10  C   UNL     1      13.386  50.810  25.370  1.00  0.00     0.177 C 
ATOM     11  O   UNL     1      13.708  49.659  27.512  1.00  0.00    -0.341 OA
ATOM     12  C   UNL     1      12.401  51.797  26.029  1.00  0.00     0.179 C 
ATOM     13  C   UNL     1      12.651  51.876  27.544  1.00  0.00     0.202 C 
BRANCH   9  14
ATOM     14  C   UNL     1      14.412  48.476  25.551  1.00  0.00     0.191 C 
BRANCH  14  15
ATOM     15  O   UNL     1      14.661  48.758  24.200  1.00  0.00    -0.394 OA
ATOM     16  H   UNL     1      13.830  48.536  23.702  1.00  0.00     0.210 HD
ENDBRANCH  14  15
ENDBRANCH   9  14
BRANCH  10  17
ATOM     17  O   UNL     1      14.672  51.378  25.270  1.00  0.00    -0.387 OA
ATOM     18  H   UNL     1      15.339  50.645  25.304  1.00  0.00     0.211 HD
ENDBRANCH  10  17
BRANCH  12  19
ATOM     19  O   UNL     1      11.079  51.386  25.791  1.00  0.00    -0.387 OA
ATOM     20  H   UNL     1      10.631  52.126  25.304  1.00  0.00     0.211 HD
ENDBRANCH  12  19
BRANCH  13  21
ATOM     21  O   UNL     1      11.624  52.616  28.152  1.00  0.00    -0.385 OA
ATOM     22  H   UNL     1      10.767  52.184  27.889  1.00  0.00     0.211 HD
ENDBRANCH  13  21
ENDBRANCH   7   8
ENDBRANCH   1   7
BRANCH   2  23
ATOM     23  C   UNL     1      10.393  47.438  26.939  1.00  0.00     0.191 C 
BRANCH  23  24
ATOM     24  O   UNL     1      10.029  48.568  26.194  1.00  0.00    -0.394 OA
ATOM     25  H   UNL     1       9.201  48.332  25.700  1.00  0.00     0.210 HD
ENDBRANCH  23  24
ENDBRANCH   2  23
BRANCH   6  26
ATOM     26  O   UNL     1      11.749  47.826  31.203  1.00  0.00    -0.387 OA
ATOM     27  H   UNL     1      12.559  47.437  30.791  1.00  0.00     0.211 HD
ENDBRANCH   6  26
BRANCH   5  28
ATOM     28  O   UNL     1       9.726  49.356  32.170  1.00  0.00    -0.385 OA
ATOM     29  H   UNL     1       9.047  50.046  32.389  1.00  0.00     0.211 HD
ENDBRANCH   5  28
BRANCH   4  30
ATOM     30  O   UNL     1       8.694  47.255  30.720  1.00  0.00    -0.341 OA
BRANCH  30  31
ATOM     31  C   UNL     1       7.420  46.671  30.500  1.00  0.00     0.184 C 
ATOM     32  C   UNL     1       6.403  47.163  31.592  1.00  0.00     0.178 C 
ATOM     33  C   UNL     1       7.560  45.139  30.574  1.00  0.00     0.180 C 
ATOM     34  O   UNL     1       6.208  46.229  32.649  1.00  0.00    -0.342 OA
ATOM     35  C   UNL     1       7.933  44.670  32.005  1.00  0.00     0.201 C 
ATOM     36  C   UNL     1       7.437  45.673  33.070  1.00  0.00     0.279 C 
BRANCH  32  37
ATOM     37  C   UNL     1       5.036  47.463  30.952  1.00  0.00     0.191 C 
BRANCH  37  38
ATOM     38  O   UNL     1       5.126  47.465  29.553  1.00  0.00    -0.394 OA
ATOM     39  H   UNL     1       5.992  47.039  29.323  1.00  0.00     0.210 HD
ENDBRANCH  37  38
ENDBRANCH  32  37
BRANCH  33  40
ATOM     40  O   UNL     1       8.518  44.695  29.646  1.00  0.00    -0.387 OA
ATOM     41  H   UNL     1       8.918  43.857  30.002  1.00  0.00     0.211 HD
ENDBRANCH  33  40
BRANCH  35  42
ATOM     42  O   UNL     1       9.314  44.436  32.148  1.00  0.00    -0.385 OA
ATOM     43  H   UNL     1       9.755  44.701  31.301  1.00  0.00     0.211 HD
ENDBRANCH  35  42
BRANCH  36  44
ATOM     44  O   UNL     1       7.247  45.000  34.284  1.00  0.00    -0.366 OA
ATOM     45  H   UNL     1       6.329  45.224  34.589  1.00  0.00     0.213 HD
ENDBRANCH  36  44
ENDBRANCH  30  31
ENDBRANCH   4  30
TORSDOF 18
ENDMDL
MODEL 6
REMARK VINA RESULT:    -5.187     11.434     14.855
REMARK INTER + INTRA:         -11.014
REMARK INTER:                  -8.803
REMARK INTRA:                  -2.211
REMARK UNBOUND:                -2.036
REMARK SMILES OC[C@@H]1O[C@@H](O[C@H]2[C@@H](O)[C@@H](O)[C@H](O)O[C@@H]2CO)[C@@H](O)[C@@H](O)[C@@H]1O[C@H]1O[C@H](CO)[C@H](O)[C@@H](O)[C@H]1O
REMARK SMILES IDX 22 1 3 2 4 3 5 4 18 5 20 6 23 7 24 8 26 9 29 10 25 11 31 12
REMARK SMILES IDX 33 13 27 14 28 15 30 17 32 19 34 21 2 23 1 24 21 26 19 28
REMARK SMILES IDX 6 30 7 31 15 32 8 33 14 34 10 35 12 36 16 37 17 38 9 40
REMARK SMILES IDX 11 42 13 44
REMARK H PARENT 28 16 30 18 32 20 34 22 1 25 21 27 19 29 17 39 9 41 11 43
REMARK H PARENT 13 45
REMARK Flexibility Score: inf
ROOT
ATOM      1  C   UNL     1       8.772  38.930  26.045  1.00  0.00     0.184 C 
ATOM      2  C   UNL     1      10.185  39.083  25.436  1.00  0.00     0.178 C 
ATOM      3  O   UNL     1      10.517  37.949  24.652  1.00  0.00    -0.341 OA
ATOM      4  C   UNL     1      10.643  36.778  25.447  1.00  0.00     0.282 C 
ATOM      5  C   UNL     1       9.324  36.437  26.175  1.00  0.00     0.202 C 
ATOM      6  C   UNL     1       8.722  37.651  26.916  1.00  0.00     0.180 C 
ENDROOT
BRANCH   1   7
ATOM      7  O   UNL     1       7.818  38.841  24.997  1.00  0.00    -0.341 OA
BRANCH   7   8
ATOM      8  C   UNL     1       6.602  39.503  25.331  1.00  0.00     0.282 C 
ATOM      9  C   UNL     1       6.501  40.678  23.291  1.00  0.00     0.178 C 
ATOM     10  C   UNL     1       5.256  39.895  22.797  1.00  0.00     0.177 C 
ATOM     11  O   UNL     1       6.520  40.775  24.706  1.00  0.00    -0.341 OA
ATOM     12  C   UNL     1       5.211  38.498  23.450  1.00  0.00     0.179 C 
ATOM     13  C   UNL     1       5.393  38.610  24.972  1.00  0.00     0.202 C 
BRANCH   9  14
ATOM     14  C   UNL     1       6.548  42.099  22.709  1.00  0.00     0.191 C 
BRANCH  14  15
ATOM     15  O   UNL     1       5.986  42.135  21.424  1.00  0.00    -0.394 OA
ATOM     16  H   UNL     1       6.106  41.230  21.033  1.00  0.00     0.210 HD
ENDBRANCH  14  15
ENDBRANCH   9  14
BRANCH  10  17
ATOM     17  O   UNL     1       4.057  40.596  23.030  1.00  0.00    -0.387 OA
ATOM     18  H   UNL     1       4.020  41.366  22.406  1.00  0.00     0.211 HD
ENDBRANCH  10  17
BRANCH  12  19
ATOM     19  O   UNL     1       6.222  37.684  22.912  1.00  0.00    -0.387 OA
ATOM     20  H   UNL     1       7.005  38.271  22.747  1.00  0.00     0.211 HD
ENDBRANCH  12  19
BRANCH  13  21
ATOM     21  O   UNL     1       5.551  37.327  25.522  1.00  0.00    -0.385 OA
ATOM     22  H   UNL     1       6.426  37.325  25.994  1.00  0.00     0.211 HD
ENDBRANCH  13  21
ENDBRANCH   7   8
ENDBRANCH   1   7
BRANCH   2  23
ATOM     23  C   UNL     1      10.278  40.333  24.551  1.00  0.00     0.191 C 
BRANCH  23  24
ATOM     24  O   UNL     1       9.491  41.362  25.086  1.00  0.00    -0.394 OA
ATOM     25  H   UNL     1       8.591  41.278  24.677  1.00  0.00     0.210 HD
ENDBRANCH  23  24
ENDBRANCH   2  23
BRANCH   6  26
ATOM     26  O   UNL     1       9.316  37.859  28.174  1.00  0.00    -0.387 OA
ATOM     27  H   UNL     1       8.875  37.269  28.833  1.00  0.00     0.211 HD
ENDBRANCH   6  26
BRANCH   5  28
ATOM     28  O   UNL     1       9.518  35.383  27.081  1.00  0.00    -0.385 OA
ATOM     29  H   UNL     1       9.095  34.577  26.683  1.00  0.00     0.211 HD
ENDBRANCH   5  28
BRANCH   4  30
ATOM     30  O   UNL     1      11.710  36.894  26.377  1.00  0.00    -0.341 OA
BRANCH  30  31
ATOM     31  C   UNL     1      12.860  36.184  25.948  1.00  0.00     0.184 C 
ATOM     32  C   UNL     1      12.556  34.643  25.888  1.00  0.00     0.178 C 
ATOM     33  C   UNL     1      14.003  36.448  26.945  1.00  0.00     0.180 C 
ATOM     34  O   UNL     1      13.026  33.927  27.026  1.00  0.00    -0.342 OA
ATOM     35  C   UNL     1      13.696  35.837  28.338  1.00  0.00     0.201 C 
ATOM     36  C   UNL     1      12.743  34.628  28.221  1.00  0.00     0.279 C 
BRANCH  32  37
ATOM     37  C   UNL     1      13.188  34.023  24.630  1.00  0.00     0.191 C 
BRANCH  37  38
ATOM     38  O   UNL     1      13.363  34.987  23.628  1.00  0.00    -0.394 OA
ATOM     39  H   UNL     1      13.312  34.508  22.761  1.00  0.00     0.210 HD
ENDBRANCH  37  38
ENDBRANCH  32  37
BRANCH  33  40
ATOM     40  O   UNL     1      14.239  37.830  27.056  1.00  0.00    -0.387 OA
ATOM     41  H   UNL     1      13.369  38.296  26.935  1.00  0.00     0.211 HD
ENDBRANCH  33  40
BRANCH  35  42
ATOM     42  O   UNL     1      13.182  36.789  29.238  1.00  0.00    -0.385 OA
ATOM     43  H   UNL     1      12.805  37.536  28.707  1.00  0.00     0.211 HD
ENDBRANCH  35  42
BRANCH  36  44
ATOM     44  O   UNL     1      12.944  33.774  29.313  1.00  0.00    -0.366 OA
ATOM     45  H   UNL     1      13.482  34.284  29.974  1.00  0.00     0.213 HD
ENDBRANCH  36  44
ENDBRANCH  30  31
ENDBRANCH   4  30
TORSDOF 18
ENDMDL
MODEL 7
REMARK VINA RESULT:    -5.179     13.150     16.292
REMARK INTER + INTRA:         -11.000
REMARK INTER:                  -8.920
REMARK INTRA:                  -2.080
REMARK UNBOUND:                -2.036
REMARK SMILES OC[C@@H]1O[C@@H](O[C@H]2[C@@H](O)[C@@H](O)[C@H](O)O[C@@H]2CO)[C@@H](O)[C@@H](O)[C@@H]1O[C@H]1O[C@H](CO)[C@H](O)[C@@H](O)[C@H]1O
REMARK SMILES IDX 22 1 3 2 4 3 5 4 18 5 20 6 23 7 24 8 26 9 29 10 25 11 31 12
REMARK SMILES IDX 33 13 27 14 28 15 30 17 32 19 34 21 2 23 1 24 21 26 19 28
REMARK SMILES IDX 6 30 7 31 15 32 8 33 14 34 10 35 12 36 16 37 17 38 9 40
REMARK SMILES IDX 11 42 13 44
REMARK H PARENT 28 16 30 18 32 20 34 22 1 25 21 27 19 29 17 39 9 41 11 43
REMARK H PARENT 13 45
REMARK Flexibility Score: inf
ROOT
ATOM      1  C   UNL     1       7.404  40.831  36.893  1.00  0.00     0.184 C 
ATOM      2  C   UNL     1       8.097  41.426  35.646  1.00  0.00     0.178 C 
ATOM      3  O   UNL     1       8.941  42.505  36.009  1.00  0.00    -0.341 OA
ATOM      4  C   UNL     1       8.199  43.608  36.510  1.00  0.00     0.282 C 
ATOM      5  C   UNL     1       7.399  43.230  37.777  1.00  0.00     0.202 C 
ATOM      6  C   UNL     1       6.578  41.935  37.598  1.00  0.00     0.180 C 
ENDROOT
BRANCH   1   7
ATOM      7  O   UNL     1       8.390  40.323  37.780  1.00  0.00    -0.341 OA
BRANCH   7   8
ATOM      8  C   UNL     1       7.971  39.111  38.398  1.00  0.00     0.282 C 
ATOM      9  C   UNL     1       9.996  37.996  37.941  1.00  0.00     0.178 C 
ATOM     10  C   UNL     1      10.404  37.934  39.437  1.00  0.00     0.177 C 
ATOM     11  O   UNL     1       8.586  37.984  37.791  1.00  0.00    -0.341 OA
ATOM     12  C   UNL     1       9.753  39.094  40.217  1.00  0.00     0.179 C 
ATOM     13  C   UNL     1       8.247  39.164  39.918  1.00  0.00     0.202 C 
BRANCH   9  14
ATOM     14  C   UNL     1      10.578  36.820  37.142  1.00  0.00     0.191 C 
BRANCH  14  15
ATOM     15  O   UNL     1      11.673  36.251  37.810  1.00  0.00    -0.394 OA
ATOM     16  H   UNL     1      11.507  35.273  37.853  1.00  0.00     0.210 HD
ENDBRANCH  14  15
ENDBRANCH   9  14
BRANCH  10  17
ATOM     17  O   UNL     1      10.087  36.693  40.025  1.00  0.00    -0.387 OA
ATOM     18  H   UNL     1       9.955  36.030  39.300  1.00  0.00     0.211 HD
ENDBRANCH  10  17
BRANCH  12  19
ATOM     19  O   UNL     1      10.361  40.310  39.864  1.00  0.00    -0.387 OA
ATOM     20  H   UNL     1       9.690  40.828  39.347  1.00  0.00     0.211 HD
ENDBRANCH  12  19
BRANCH  13  21
ATOM     21  O   UNL     1       7.712  40.339  40.472  1.00  0.00    -0.385 OA
ATOM     22  H   UNL     1       7.852  40.280  41.455  1.00  0.00     0.211 HD
ENDBRANCH  13  21
ENDBRANCH   7   8
ENDBRANCH   1   7
BRANCH   2  23
ATOM     23  C   UNL     1       8.941  40.368  34.921  1.00  0.00     0.191 C 
BRANCH  23  24
ATOM     24  O   UNL     1       8.310  39.118  34.988  1.00  0.00    -0.394 OA
ATOM     25  H   UNL     1       8.430  38.688  34.102  1.00  0.00     0.210 HD
ENDBRANCH  23  24
ENDBRANCH   2  23
BRANCH   6  26
ATOM     26  O   UNL     1       5.354  42.162  36.942  1.00  0.00    -0.387 OA
ATOM     27  H   UNL     1       4.654  41.622  37.384  1.00  0.00     0.211 HD
ENDBRANCH   6  26
BRANCH   5  28
ATOM     28  O   UNL     1       6.546  44.279  38.154  1.00  0.00    -0.385 OA
ATOM     29  H   UNL     1       7.099  44.938  38.651  1.00  0.00     0.211 HD
ENDBRANCH   5  28
BRANCH   4  30
ATOM     30  O   UNL     1       7.336  44.147  35.520  1.00  0.00    -0.341 OA
BRANCH  30  31
ATOM     31  C   UNL     1       7.845  45.357  34.982  1.00  0.00     0.184 C 
ATOM     32  C   UNL     1       7.781  46.498  36.061  1.00  0.00     0.178 C 
ATOM     33  C   UNL     1       6.994  45.750  33.760  1.00  0.00     0.180 C 
ATOM     34  O   UNL     1       6.661  47.364  35.906  1.00  0.00    -0.342 OA
ATOM     35  C   UNL     1       5.543  46.115  34.171  1.00  0.00     0.201 C 
ATOM     36  C   UNL     1       5.486  46.630  35.626  1.00  0.00     0.279 C 
BRANCH  32  37
ATOM     37  C   UNL     1       9.062  47.350  36.013  1.00  0.00     0.191 C 
BRANCH  37  38
ATOM     38  O   UNL     1       8.757  48.717  36.019  1.00  0.00    -0.394 OA
ATOM     39  H   UNL     1       7.809  48.796  36.300  1.00  0.00     0.210 HD
ENDBRANCH  37  38
ENDBRANCH  32  37
BRANCH  33  40
ATOM     40  O   UNL     1       6.990  44.707  32.817  1.00  0.00    -0.387 OA
ATOM     41  H   UNL     1       6.692  43.880  33.283  1.00  0.00     0.211 HD
ENDBRANCH  33  40
BRANCH  35  42
ATOM     42  O   UNL     1       4.649  45.043  33.989  1.00  0.00    -0.385 OA
ATOM     43  H   UNL     1       3.738  45.420  33.892  1.00  0.00     0.211 HD
ENDBRANCH  35  42
BRANCH  36  44
ATOM     44  O   UNL     1       4.373  47.468  35.775  1.00  0.00    -0.366 OA
ATOM     45  H   UNL     1       4.542  48.265  35.206  1.00  0.00     0.213 HD
ENDBRANCH  36  44
ENDBRANCH  30  31
ENDBRANCH   4  30
TORSDOF 18
ENDMDL
MODEL 8
REMARK VINA RESULT:    -5.128     11.569     13.525
REMARK INTER + INTRA:         -10.910
REMARK INTER:                  -9.107
REMARK INTRA:                  -1.804
REMARK UNBOUND:                -2.036
REMARK SMILES OC[C@@H]1O[C@@H](O[C@H]2[C@@H](O)[C@@H](O)[C@H](O)O[C@@H]2CO)[C@@H](O)[C@@H](O)[C@@H]1O[C@H]1O[C@H](CO)[C@H](O)[C@@H](O)[C@H]1O
REMARK SMILES IDX 22 1 3 2 4 3 5 4 18 5 20 6 23 7 24 8 26 9 29 10 25 11 31 12
REMARK SMILES IDX 33 13 27 14 28 15 30 17 32 19 34 21 2 23 1 24 21 26 19 28
REMARK SMILES IDX 6 30 7 31 15 32 8 33 14 34 10 35 12 36 16 37 17 38 9 40
REMARK SMILES IDX 11 42 13 44
REMARK H PARENT 28 16 30 18 32 20 34 22 1 25 21 27 19 29 17 39 9 41 11 43
REMARK H PARENT 13 45
REMARK Flexibility Score: inf
ROOT
ATOM      1  C   UNL     1      19.369  43.586  36.090  1.00  0.00     0.184 C 
ATOM      2  C   UNL     1      20.129  44.907  36.356  1.00  0.00     0.178 C 
ATOM      3  O   UNL     1      20.091  45.236  37.734  1.00  0.00    -0.341 OA
ATOM      4  C   UNL     1      18.773  45.541  38.167  1.00  0.00     0.282 C 
ATOM      5  C   UNL     1      17.817  44.342  37.976  1.00  0.00     0.202 C 
ATOM      6  C   UNL     1      17.901  43.733  36.560  1.00  0.00     0.180 C 
ENDROOT
BRANCH   1   7
ATOM      7  O   UNL     1      20.002  42.531  36.799  1.00  0.00    -0.341 OA
BRANCH   7   8
ATOM      8  C   UNL     1      19.696  41.259  36.238  1.00  0.00     0.282 C 
ATOM      9  C   UNL     1      21.106  41.568  34.375  1.00  0.00     0.178 C 
ATOM     10  C   UNL     1      22.104  40.473  34.835  1.00  0.00     0.177 C 
ATOM     11  O   UNL     1      19.789  41.285  34.821  1.00  0.00    -0.341 OA
ATOM     12  C   UNL     1      22.059  40.319  36.369  1.00  0.00     0.179 C 
ATOM     13  C   UNL     1      20.606  40.171  36.852  1.00  0.00     0.202 C 
BRANCH   9  14
ATOM     14  C   UNL     1      21.078  41.709  32.846  1.00  0.00     0.191 C 
BRANCH  14  15
ATOM     15  O   UNL     1      20.300  40.698  32.262  1.00  0.00    -0.394 OA
ATOM     16  H   UNL     1      19.393  40.766  32.661  1.00  0.00     0.210 HD
ENDBRANCH  14  15
ENDBRANCH   9  14
BRANCH  10  17
ATOM     17  O   UNL     1      21.870  39.237  34.199  1.00  0.00    -0.387 OA
ATOM     18  H   UNL     1      21.129  39.356  33.551  1.00  0.00     0.211 HD
ENDBRANCH  10  17
BRANCH  12  19
ATOM     19  O   UNL     1      22.648  41.438  36.981  1.00  0.00    -0.387 OA
ATOM     20  H   UNL     1      22.030  42.202  36.838  1.00  0.00     0.211 HD
ENDBRANCH  12  19
BRANCH  13  21
ATOM     21  O   UNL     1      20.569  40.236  38.255  1.00  0.00    -0.385 OA
ATOM     22  H   UNL     1      19.616  40.131  38.519  1.00  0.00     0.211 HD
ENDBRANCH  13  21
ENDBRANCH   7   8
ENDBRANCH   1   7
BRANCH   2  23
ATOM     23  C   UNL     1      21.596  44.802  35.917  1.00  0.00     0.191 C 
BRANCH  23  24
ATOM     24  O   UNL     1      22.368  44.244  36.945  1.00  0.00    -0.394 OA
ATOM     25  H   UNL     1      22.049  43.312  37.071  1.00  0.00     0.210 HD
ENDBRANCH  23  24
ENDBRANCH   2  23
BRANCH   6  26
ATOM     26  O   UNL     1      17.128  44.446  35.624  1.00  0.00    -0.387 OA
ATOM     27  H   UNL     1      17.712  44.718  34.874  1.00  0.00     0.211 HD
ENDBRANCH   6  26
BRANCH   5  28
ATOM     28  O   UNL     1      16.493  44.717  38.249  1.00  0.00    -0.385 OA
ATOM     29  H   UNL     1      16.052  44.880  37.374  1.00  0.00     0.211 HD
ENDBRANCH   5  28
BRANCH   4  30
ATOM     30  O   UNL     1      18.263  46.692  37.510  1.00  0.00    -0.341 OA
BRANCH  30  31
ATOM     31  C   UNL     1      18.265  47.826  38.362  1.00  0.00     0.184 C 
ATOM     32  C   UNL     1      17.026  47.780  39.329  1.00  0.00     0.178 C 
ATOM     33  C   UNL     1      18.197  49.096  37.493  1.00  0.00     0.180 C 
ATOM     34  O   UNL     1      15.940  48.597  38.900  1.00  0.00    -0.342 OA
ATOM     35  C   UNL     1      16.841  49.203  36.745  1.00  0.00     0.201 C 
ATOM     36  C   UNL     1      15.721  48.464  37.510  1.00  0.00     0.279 C 
BRANCH  32  37
ATOM     37  C   UNL     1      17.437  48.222  40.744  1.00  0.00     0.191 C 
BRANCH  37  38
ATOM     38  O   UNL     1      16.755  49.385  41.125  1.00  0.00    -0.394 OA
ATOM     39  H   UNL     1      17.171  50.135  40.627  1.00  0.00     0.210 HD
ENDBRANCH  37  38
ENDBRANCH  32  37
BRANCH  33  40
ATOM     40  O   UNL     1      19.265  49.114  36.578  1.00  0.00    -0.387 OA
ATOM     41  H   UNL     1      19.039  48.489  35.838  1.00  0.00     0.211 HD
ENDBRANCH  33  40
BRANCH  35  42
ATOM     42  O   UNL     1      16.924  48.741  35.419  1.00  0.00    -0.385 OA
ATOM     43  H   UNL     1      17.869  48.501  35.240  1.00  0.00     0.211 HD
ENDBRANCH  35  42
BRANCH  36  44
ATOM     44  O   UNL     1      14.485  49.035  37.183  1.00  0.00    -0.366 OA
ATOM     45  H   UNL     1      13.839  48.723  37.870  1.00  0.00     0.213 HD
ENDBRANCH  36  44
ENDBRANCH  30  31
ENDBRANCH   4  30
TORSDOF 18
ENDMDL
MODEL 9
REMARK VINA RESULT:    -5.109      7.519     12.967
REMARK INTER + INTRA:         -10.879
REMARK INTER:                  -8.805
REMARK INTRA:                  -2.074
REMARK UNBOUND:                -2.036
REMARK SMILES OC[C@@H]1O[C@@H](O[C@H]2[C@@H](O)[C@@H](O)[C@H](O)O[C@@H]2CO)[C@@H](O)[C@@H](O)[C@@H]1O[C@H]1O[C@H](CO)[C@H](O)[C@@H](O)[C@H]1O
REMARK SMILES IDX 22 1 3 2 4 3 5 4 18 5 20 6 23 7 24 8 26 9 29 10 25 11 31 12
REMARK SMILES IDX 33 13 27 14 28 15 30 17 32 19 34 21 2 23 1 24 21 26 19 28
REMARK SMILES IDX 6 30 7 31 15 32 8 33 14 34 10 35 12 36 16 37 17 38 9 40
REMARK SMILES IDX 11 42 13 44
REMARK H PARENT 28 16 30 18 32 20 34 22 1 25 21 27 19 29 17 39 9 41 11 43
REMARK H PARENT 13 45
REMARK Flexibility Score: inf
ROOT
ATOM      1  C   UNL     1       7.136  45.700  32.767  1.00  0.00     0.184 C 
ATOM      2  C   UNL     1       8.532  46.307  32.496  1.00  0.00     0.178 C 
ATOM      3  O   UNL     1       8.424  47.680  32.160  1.00  0.00    -0.341 OA
ATOM      4  C   UNL     1       7.755  47.868  30.920  1.00  0.00     0.282 C 
ATOM      5  C   UNL     1       6.315  47.310  30.959  1.00  0.00     0.202 C 
ATOM      6  C   UNL     1       6.248  45.869  31.510  1.00  0.00     0.180 C 
ENDROOT
BRANCH   1   7
ATOM      7  O   UNL     1       6.543  46.365  33.873  1.00  0.00    -0.341 OA
BRANCH   7   8
ATOM      8  C   UNL     1       5.680  45.503  34.607  1.00  0.00     0.282 C 
ATOM      9  C   UNL     1       7.364  44.855  36.123  1.00  0.00     0.178 C 
ATOM     10  C   UNL     1       6.695  45.582  37.319  1.00  0.00     0.177 C 
ATOM     11  O   UNL     1       6.399  44.420  35.179  1.00  0.00    -0.341 OA
ATOM     12  C   UNL     1       5.840  46.763  36.815  1.00  0.00     0.179 C 
ATOM     13  C   UNL     1       4.909  46.307  35.679  1.00  0.00     0.202 C 
BRANCH   9  14
ATOM     14  C   UNL     1       8.176  43.634  36.581  1.00  0.00     0.191 C 
BRANCH  14  15
ATOM     15  O   UNL     1       7.335  42.548  36.865  1.00  0.00    -0.394 OA
ATOM     16  H   UNL     1       6.548  42.629  36.264  1.00  0.00     0.210 HD
ENDBRANCH  14  15
ENDBRANCH   9  14
BRANCH  10  17
ATOM     17  O   UNL     1       5.924  44.708  38.112  1.00  0.00    -0.387 OA
ATOM     18  H   UNL     1       5.269  45.248  38.623  1.00  0.00     0.211 HD
ENDBRANCH  10  17
BRANCH  12  19
ATOM     19  O   UNL     1       6.673  47.796  36.355  1.00  0.00    -0.387 OA
ATOM     20  H   UNL     1       7.140  48.164  37.150  1.00  0.00     0.211 HD
ENDBRANCH  12  19
BRANCH  13  21
ATOM     21  O   UNL     1       4.290  47.428  35.100  1.00  0.00    -0.385 OA
ATOM     22  H   UNL     1       4.267  48.133  35.800  1.00  0.00     0.211 HD
ENDBRANCH  13  21
ENDBRANCH   7   8
ENDBRANCH   1   7
BRANCH   2  23
ATOM     23  C   UNL     1       9.444  46.174  33.723  1.00  0.00     0.191 C 
BRANCH  23  24
ATOM     24  O   UNL     1       9.229  47.244  34.603  1.00  0.00    -0.394 OA
ATOM     25  H   UNL     1      10.055  47.340  35.145  1.00  0.00     0.210 HD
ENDBRANCH  23  24
ENDBRANCH   2  23
BRANCH   6  26
ATOM     26  O   UNL     1       6.551  44.907  30.530  1.00  0.00    -0.387 OA
ATOM     27  H   UNL     1       7.318  45.229  29.996  1.00  0.00     0.211 HD
ENDBRANCH   6  26
BRANCH   5  28
ATOM     28  O   UNL     1       5.734  47.352  29.682  1.00  0.00    -0.385 OA
ATOM     29  H   UNL     1       4.761  47.190  29.800  1.00  0.00     0.211 HD
ENDBRANCH   5  28
BRANCH   4  30
ATOM     30  O   UNL     1       8.482  47.293  29.845  1.00  0.00    -0.341 OA
BRANCH  30  31
ATOM     31  C   UNL     1       9.365  48.229  29.248  1.00  0.00     0.184 C 
ATOM     32  C   UNL     1       9.065  48.353  27.711  1.00  0.00     0.178 C 
ATOM     33  C   UNL     1      10.812  47.744  29.457  1.00  0.00     0.180 C 
ATOM     34  O   UNL     1       9.953  47.595  26.895  1.00  0.00    -0.342 OA
ATOM     35  C   UNL     1      11.091  46.432  28.677  1.00  0.00     0.201 C 
ATOM     36  C   UNL     1      10.173  46.310  27.441  1.00  0.00     0.279 C 
BRANCH  32  37
ATOM     37  C   UNL     1       9.140  49.825  27.270  1.00  0.00     0.191 C 
BRANCH  37  38
ATOM     38  O   UNL     1       8.032  50.173  26.486  1.00  0.00    -0.394 OA
ATOM     39  H   UNL     1       7.685  51.029  26.847  1.00  0.00     0.210 HD
ENDBRANCH  37  38
ENDBRANCH  32  37
BRANCH  33  40
ATOM     40  O   UNL     1      11.070  47.566  30.827  1.00  0.00    -0.387 OA
ATOM     41  H   UNL     1      11.064  48.463  31.255  1.00  0.00     0.211 HD
ENDBRANCH  33  40
BRANCH  35  42
ATOM     42  O   UNL     1      10.979  45.291  29.493  1.00  0.00    -0.385 OA
ATOM     43  H   UNL     1      11.280  44.509  28.964  1.00  0.00     0.211 HD
ENDBRANCH  35  42
BRANCH  36  44
ATOM     44  O   UNL     1      10.796  45.502  26.481  1.00  0.00    -0.366 OA
ATOM     45  H   UNL     1      11.772  45.670  26.562  1.00  0.00     0.213 HD
ENDBRANCH  36  44
ENDBRANCH  30  31
ENDBRANCH   4  30
TORSDOF 18
ENDMDL
