MODEL 1
REMARK VINA RESULT:    -4.588      0.000      0.000
REMARK INTER + INTRA:          -7.693
REMARK INTER:                  -7.003
REMARK INTRA:                  -0.690
REMARK UNBOUND:                -0.690
REMARK SMILES CCCCCCCCCCC(=O)[O-]
REMARK SMILES IDX 7 1 8 2 9 3 10 4 11 5 12 6 13 7 6 8 5 9 4 10 3 11 2 12 1 13
REMARK H PARENT
REMARK Flexibility Score: inf
ROOT
ATOM      1  C   UNL     1    -143.422 102.260  32.861  1.00  0.00     0.000 C 
ENDROOT
BRANCH   1   2
ATOM      2  C   UNL     1    -143.265 103.659  32.231  1.00  0.00     0.000 C 
BRANCH   2   3
ATOM      3  C   UNL     1    -142.936 104.792  33.226  1.00  0.00     0.006 C 
BRANCH   3   4
ATOM      4  C   UNL     1    -142.478 104.306  34.610  1.00  0.00     0.053 C 
BRANCH   4   5
ATOM      5  C   UNL     1    -142.106 105.446  35.508  1.00  0.00     0.041 C 
ATOM      6  O   UNL     1    -141.423 106.406  35.063  1.00  0.00    -0.550 OA
ATOM      7  O   UNL     1    -142.542 105.464  36.827  1.00  0.00    -0.550 OA
ENDBRANCH   4   5
ENDBRANCH   3   4
ENDBRANCH   2   3
ENDBRANCH   1   2
BRANCH   1   8
ATOM      8  C   UNL     1    -143.259 101.083  31.883  1.00  0.00     0.000 C 
BRANCH   8   9
ATOM      9  C   UNL     1    -142.840  99.780  32.582  1.00  0.00    -0.000 C 
BRANCH   9  10
ATOM     10  C   UNL     1    -142.261 100.066  33.973  1.00  0.00    -0.000 C 
BRANCH  10  11
ATOM     11  C   UNL     1    -142.477  98.875  34.915  1.00  0.00    -0.000 C 
BRANCH  11  12
ATOM     12  C   UNL     1    -143.287  99.290  36.148  1.00  0.00    -0.003 C 
ATOM     13  C   UNL     1    -143.689 100.759  36.074  1.00  0.00     0.004 C 
ENDBRANCH  11  12
ENDBRANCH  10  11
ENDBRANCH   9  10
ENDBRANCH   8   9
ENDBRANCH   1   8
TORSDOF 9
ENDMDL
MODEL 2
REMARK VINA RESULT:    -4.468     14.169     16.209
REMARK INTER + INTRA:          -7.509
REMARK INTER:                  -6.803
REMARK INTRA:                  -0.705
REMARK UNBOUND:                -0.690
REMARK SMILES CCCCCCCCCCC(=O)[O-]
REMARK SMILES IDX 7 1 8 2 9 3 10 4 11 5 12 6 13 7 6 8 5 9 4 10 3 11 2 12 1 13
REMARK H PARENT
REMARK Flexibility Score: inf
ROOT
ATOM      1  C   UNL     1    -129.238 106.511  41.342  1.00  0.00     0.000 C 
ENDROOT
BRANCH   1   2
ATOM      2  C   UNL     1    -129.224 105.969  39.898  1.00  0.00     0.000 C 
BRANCH   2   3
ATOM      3  C   UNL     1    -129.992 106.825  38.870  1.00  0.00     0.006 C 
BRANCH   3   4
ATOM      4  C   UNL     1    -129.890 108.340  39.104  1.00  0.00     0.053 C 
BRANCH   4   5
ATOM      5  C   UNL     1    -131.235 108.998  39.106  1.00  0.00     0.041 C 
ATOM      6  O   UNL     1    -131.405 110.089  39.712  1.00  0.00    -0.550 OA
ATOM      7  O   UNL     1    -132.292 108.425  38.411  1.00  0.00    -0.550 OA
ENDBRANCH   4   5
ENDBRANCH   3   4
ENDBRANCH   2   3
ENDBRANCH   1   2
BRANCH   1   8
ATOM      8  C   UNL     1    -127.886 107.042  41.852  1.00  0.00     0.000 C 
BRANCH   8   9
ATOM      9  C   UNL     1    -128.013 108.385  42.588  1.00  0.00    -0.000 C 
BRANCH   9  10
ATOM     10  C   UNL     1    -129.467 108.873  42.594  1.00  0.00    -0.000 C 
BRANCH  10  11
ATOM     11  C   UNL     1    -129.861 109.414  43.974  1.00  0.00    -0.000 C 
BRANCH  11  12
ATOM     12  C   UNL     1    -130.949 108.544  44.615  1.00  0.00    -0.003 C 
ATOM     13  C   UNL     1    -130.976 108.726  46.129  1.00  0.00     0.004 C 
ENDBRANCH  11  12
ENDBRANCH  10  11
ENDBRANCH   9  10
ENDBRANCH   8   9
ENDBRANCH   1   8
TORSDOF 9
ENDMDL
MODEL 3
REMARK VINA RESULT:    -4.467      3.205      5.629
REMARK INTER + INTRA:          -7.507
REMARK INTER:                  -6.775
REMARK INTRA:                  -0.732
REMARK UNBOUND:                -0.690
REMARK SMILES CCCCCCCCCCC(=O)[O-]
REMARK SMILES IDX 7 1 8 2 9 3 10 4 11 5 12 6 13 7 6 8 5 9 4 10 3 11 2 12 1 13
REMARK H PARENT
REMARK Flexibility Score: inf
ROOT
ATOM      1  C   UNL     1    -143.507 102.274  35.115  1.00  0.00     0.000 C 
ENDROOT
BRANCH   1   2
ATOM      2  C   UNL     1    -144.010 100.818  35.057  1.00  0.00     0.000 C 
BRANCH   2   3
ATOM      3  C   UNL     1    -142.921  99.758  34.792  1.00  0.00     0.006 C 
BRANCH   3   4
ATOM      4  C   UNL     1    -143.180  98.878  33.559  1.00  0.00     0.053 C 
BRANCH   4   5
ATOM      5  C   UNL     1    -142.370  99.316  32.378  1.00  0.00     0.041 C 
ATOM      6  O   UNL     1    -142.865 100.102  31.527  1.00  0.00    -0.550 OA
ATOM      7  O   UNL     1    -141.058  98.884  32.234  1.00  0.00    -0.550 OA
ENDBRANCH   4   5
ENDBRANCH   3   4
ENDBRANCH   2   3
ENDBRANCH   1   2
BRANCH   1   8
ATOM      8  C   UNL     1    -142.534 102.673  33.992  1.00  0.00     0.000 C 
BRANCH   8   9
ATOM      9  C   UNL     1    -143.147 103.672  32.998  1.00  0.00    -0.000 C 
BRANCH   9  10
ATOM     10  C   UNL     1    -142.868 105.117  33.429  1.00  0.00    -0.000 C 
BRANCH  10  11
ATOM     11  C   UNL     1    -141.700 105.180  34.421  1.00  0.00    -0.000 C 
BRANCH  11  12
ATOM     12  C   UNL     1    -141.991 106.176  35.550  1.00  0.00    -0.003 C 
ATOM     13  C   UNL     1    -142.646 105.483  36.740  1.00  0.00     0.004 C 
ENDBRANCH  11  12
ENDBRANCH  10  11
ENDBRANCH   9  10
ENDBRANCH   8   9
ENDBRANCH   1   8
TORSDOF 9
ENDMDL
MODEL 4
REMARK VINA RESULT:    -4.457      2.874      5.210
REMARK INTER + INTRA:          -7.492
REMARK INTER:                  -6.962
REMARK INTRA:                  -0.530
REMARK UNBOUND:                -0.690
REMARK SMILES CCCCCCCCCCC(=O)[O-]
REMARK SMILES IDX 7 1 8 2 9 3 10 4 11 5 12 6 13 7 6 8 5 9 4 10 3 11 2 12 1 13
REMARK H PARENT
REMARK Flexibility Score: inf
ROOT
ATOM      1  C   UNL     1    -143.947 101.668  32.251  1.00  0.00     0.000 C 
ENDROOT
BRANCH   1   2
ATOM      2  C   UNL     1    -143.018 100.617  31.610  1.00  0.00     0.000 C 
BRANCH   2   3
ATOM      3  C   UNL     1    -142.683  99.405  32.505  1.00  0.00     0.006 C 
BRANCH   3   4
ATOM      4  C   UNL     1    -143.556  99.287  33.764  1.00  0.00     0.053 C 
BRANCH   4   5
ATOM      5  C   UNL     1    -142.731  99.147  35.006  1.00  0.00     0.041 C 
ATOM      6  O   UNL     1    -141.504  98.876  34.924  1.00  0.00    -0.550 OA
ATOM      7  O   UNL     1    -143.310  99.348  36.253  1.00  0.00    -0.550 OA
ENDBRANCH   4   5
ENDBRANCH   3   4
ENDBRANCH   2   3
ENDBRANCH   1   2
BRANCH   1   8
ATOM      8  C   UNL     1    -143.237 102.914  32.808  1.00  0.00     0.000 C 
BRANCH   8   9
ATOM      9  C   UNL     1    -142.572 102.662  34.170  1.00  0.00    -0.000 C 
BRANCH   9  10
ATOM     10  C   UNL     1    -142.687 103.896  35.074  1.00  0.00    -0.000 C 
BRANCH  10  11
ATOM     11  C   UNL     1    -141.947 105.094  34.467  1.00  0.00    -0.000 C 
BRANCH  11  12
ATOM     12  C   UNL     1    -141.993 106.303  35.409  1.00  0.00    -0.003 C 
ATOM     13  C   UNL     1    -142.669 105.946  36.729  1.00  0.00     0.004 C 
ENDBRANCH  11  12
ENDBRANCH  10  11
ENDBRANCH   9  10
ENDBRANCH   8   9
ENDBRANCH   1   8
TORSDOF 9
ENDMDL
MODEL 5
REMARK VINA RESULT:    -4.358      1.011      2.697
REMARK INTER + INTRA:          -7.341
REMARK INTER:                  -6.466
REMARK INTRA:                  -0.874
REMARK UNBOUND:                -0.690
REMARK SMILES CCCCCCCCCCC(=O)[O-]
REMARK SMILES IDX 7 1 8 2 9 3 10 4 11 5 12 6 13 7 6 8 5 9 4 10 3 11 2 12 1 13
REMARK H PARENT
REMARK Flexibility Score: inf
ROOT
ATOM      1  C   UNL     1    -143.573 101.222  35.766  1.00  0.00     0.000 C 
ENDROOT
BRANCH   1   2
ATOM      2  C   UNL     1    -143.678 102.466  34.860  1.00  0.00     0.000 C 
BRANCH   2   3
ATOM      3  C   UNL     1    -142.334 103.138  34.512  1.00  0.00     0.006 C 
BRANCH   3   4
ATOM      4  C   UNL     1    -142.449 104.621  34.123  1.00  0.00     0.053 C 
BRANCH   4   5
ATOM      5  C   UNL     1    -142.115 105.527  35.268  1.00  0.00     0.041 C 
ATOM      6  O   UNL     1    -141.588 106.651  35.053  1.00  0.00    -0.550 OA
ATOM      7  O   UNL     1    -142.415 105.146  36.569  1.00  0.00    -0.550 OA
ENDBRANCH   4   5
ENDBRANCH   3   4
ENDBRANCH   2   3
ENDBRANCH   1   2
BRANCH   1   8
ATOM      8  C   UNL     1    -143.533  99.875  35.023  1.00  0.00     0.000 C 
BRANCH   8   9
ATOM      9  C   UNL     1    -142.109  99.317  34.876  1.00  0.00    -0.000 C 
BRANCH   9  10
ATOM     10  C   UNL     1    -141.725  99.174  33.398  1.00  0.00    -0.000 C 
BRANCH  10  11
ATOM     11  C   UNL     1    -142.963  99.249  32.497  1.00  0.00    -0.000 C 
BRANCH  11  12
ATOM     12  C   UNL     1    -142.714 100.170  31.297  1.00  0.00    -0.003 C 
ATOM     13  C   UNL     1    -143.301 101.557  31.536  1.00  0.00     0.004 C 
ENDBRANCH  11  12
ENDBRANCH  10  11
ENDBRANCH   9  10
ENDBRANCH   8   9
ENDBRANCH   1   8
TORSDOF 9
ENDMDL
MODEL 6
REMARK VINA RESULT:    -4.343     14.120     16.318
REMARK INTER + INTRA:          -7.318
REMARK INTER:                  -6.562
REMARK INTRA:                  -0.756
REMARK UNBOUND:                -0.690
REMARK SMILES CCCCCCCCCCC(=O)[O-]
REMARK SMILES IDX 7 1 8 2 9 3 10 4 11 5 12 6 13 7 6 8 5 9 4 10 3 11 2 12 1 13
REMARK H PARENT
REMARK Flexibility Score: inf
ROOT
ATOM      1  C   UNL     1    -127.936 106.821  41.726  1.00  0.00     0.000 C 
ENDROOT
BRANCH   1   2
ATOM      2  C   UNL     1    -128.054 108.123  42.544  1.00  0.00     0.000 C 
BRANCH   2   3
ATOM      3  C   UNL     1    -129.489 108.660  42.720  1.00  0.00     0.006 C 
BRANCH   3   4
ATOM      4  C   UNL     1    -129.733 109.393  44.048  1.00  0.00     0.053 C 
BRANCH   4   5
ATOM      5  C   UNL     1    -130.793 108.726  44.869  1.00  0.00     0.041 C 
ATOM      6  O   UNL     1    -130.796 108.852  46.123  1.00  0.00    -0.550 OA
ATOM      7  O   UNL     1    -131.797 107.992  44.250  1.00  0.00    -0.550 OA
ENDBRANCH   4   5
ENDBRANCH   3   4
ENDBRANCH   2   3
ENDBRANCH   1   2
BRANCH   1   8
ATOM      8  C   UNL     1    -129.253 106.319  41.106  1.00  0.00     0.000 C 
BRANCH   8   9
ATOM      9  C   UNL     1    -129.174 106.172  39.579  1.00  0.00    -0.000 C 
BRANCH   9  10
ATOM     10  C   UNL     1    -130.159 107.121  38.884  1.00  0.00    -0.000 C 
BRANCH  10  11
ATOM     11  C   UNL     1    -129.767 108.585  39.115  1.00  0.00    -0.000 C 
BRANCH  11  12
ATOM     12  C   UNL     1    -130.957 109.396  39.641  1.00  0.00    -0.003 C 
ATOM     13  C   UNL     1    -132.179 109.226  38.743  1.00  0.00     0.004 C 
ENDBRANCH  11  12
ENDBRANCH  10  11
ENDBRANCH   9  10
ENDBRANCH   8   9
ENDBRANCH   1   8
TORSDOF 9
ENDMDL
MODEL 7
REMARK VINA RESULT:    -4.276     14.429     16.244
REMARK INTER + INTRA:          -7.217
REMARK INTER:                  -6.652
REMARK INTRA:                  -0.565
REMARK UNBOUND:                -0.690
REMARK SMILES CCCCCCCCCCC(=O)[O-]
REMARK SMILES IDX 7 1 8 2 9 3 10 4 11 5 12 6 13 7 6 8 5 9 4 10 3 11 2 12 1 13
REMARK H PARENT
REMARK Flexibility Score: inf
ROOT
ATOM      1  C   UNL     1    -130.560 109.278  39.888  1.00  0.00     0.000 C 
ENDROOT
BRANCH   1   2
ATOM      2  C   UNL     1    -129.666 108.279  39.125  1.00  0.00     0.000 C 
BRANCH   2   3
ATOM      3  C   UNL     1    -130.194 106.831  39.076  1.00  0.00     0.006 C 
BRANCH   3   4
ATOM      4  C   UNL     1    -129.350 105.821  39.869  1.00  0.00     0.053 C 
BRANCH   4   5
ATOM      5  C   UNL     1    -129.366 104.462  39.240  1.00  0.00     0.041 C 
ATOM      6  O   UNL     1    -129.030 103.450  39.910  1.00  0.00    -0.550 OA
ATOM      7  O   UNL     1    -129.782 104.308  37.924  1.00  0.00    -0.550 OA
ENDBRANCH   4   5
ENDBRANCH   3   4
ENDBRANCH   2   3
ENDBRANCH   1   2
BRANCH   1   8
ATOM      8  C   UNL     1    -129.939 109.864  41.168  1.00  0.00     0.000 C 
BRANCH   8   9
ATOM      9  C   UNL     1    -129.249 108.801  42.037  1.00  0.00    -0.000 C 
BRANCH   9  10
ATOM     10  C   UNL     1    -130.229 108.203  43.054  1.00  0.00    -0.000 C 
BRANCH  10  11
ATOM     11  C   UNL     1    -130.236 109.015  44.355  1.00  0.00    -0.000 C 
BRANCH  11  12
ATOM     12  C   UNL     1    -131.355 108.543  45.291  1.00  0.00    -0.003 C 
ATOM     13  C   UNL     1    -130.886 108.523  46.742  1.00  0.00     0.004 C 
ENDBRANCH  11  12
ENDBRANCH  10  11
ENDBRANCH   9  10
ENDBRANCH   8   9
ENDBRANCH   1   8
TORSDOF 9
ENDMDL
MODEL 8
REMARK VINA RESULT:    -4.177     14.477     16.969
REMARK INTER + INTRA:          -7.064
REMARK INTER:                  -6.489
REMARK INTRA:                  -0.575
REMARK UNBOUND:                -0.690
REMARK SMILES CCCCCCCCCCC(=O)[O-]
REMARK SMILES IDX 7 1 8 2 9 3 10 4 11 5 12 6 13 7 6 8 5 9 4 10 3 11 2 12 1 13
REMARK H PARENT
REMARK Flexibility Score: inf
ROOT
ATOM      1  C   UNL     1    -129.812 108.492  41.610  1.00  0.00     0.000 C 
ENDROOT
BRANCH   1   2
ATOM      2  C   UNL     1    -128.639 107.491  41.627  1.00  0.00     0.000 C 
BRANCH   2   3
ATOM      3  C   UNL     1    -128.928 106.133  40.955  1.00  0.00     0.006 C 
BRANCH   3   4
ATOM      4  C   UNL     1    -129.470 106.238  39.521  1.00  0.00     0.053 C 
BRANCH   4   5
ATOM      5  C   UNL     1    -129.506 104.906  38.836  1.00  0.00     0.041 C 
ATOM      6  O   UNL     1    -129.844 104.826  37.625  1.00  0.00    -0.550 OA
ATOM      7  O   UNL     1    -129.136 103.759  39.525  1.00  0.00    -0.550 OA
ENDBRANCH   4   5
ENDBRANCH   3   4
ENDBRANCH   2   3
ENDBRANCH   1   2
BRANCH   1   8
ATOM      8  C   UNL     1    -129.403 109.976  41.623  1.00  0.00     0.000 C 
BRANCH   8   9
ATOM      9  C   UNL     1    -129.751 110.701  40.314  1.00  0.00    -0.000 C 
BRANCH   9  10
ATOM     10  C   UNL     1    -129.138 109.980  39.107  1.00  0.00    -0.000 C 
BRANCH  10  11
ATOM     11  C   UNL     1    -128.096 110.862  38.409  1.00  0.00    -0.000 C 
BRANCH  11  12
ATOM     12  C   UNL     1    -128.553 112.325  38.370  1.00  0.00    -0.003 C 
ATOM     13  C   UNL     1    -127.958 113.055  37.169  1.00  0.00     0.004 C 
ENDBRANCH  11  12
ENDBRANCH  10  11
ENDBRANCH   9  10
ENDBRANCH   8   9
ENDBRANCH   1   8
TORSDOF 9
ENDMDL
MODEL 9
REMARK VINA RESULT:    -4.150     16.870     20.071
REMARK INTER + INTRA:          -7.024
REMARK INTER:                  -6.681
REMARK INTRA:                  -0.343
REMARK UNBOUND:                -0.690
REMARK SMILES CCCCCCCCCCC(=O)[O-]
REMARK SMILES IDX 7 1 8 2 9 3 10 4 11 5 12 6 13 7 6 8 5 9 4 10 3 11 2 12 1 13
REMARK H PARENT
REMARK Flexibility Score: inf
ROOT
ATOM      1  C   UNL     1    -128.982 112.960  43.892  1.00  0.00     0.000 C 
ENDROOT
BRANCH   1   2
ATOM      2  C   UNL     1    -129.350 111.470  44.048  1.00  0.00     0.000 C 
BRANCH   2   3
ATOM      3  C   UNL     1    -129.387 110.663  42.733  1.00  0.00     0.006 C 
BRANCH   3   4
ATOM      4  C   UNL     1    -129.296 109.141  42.922  1.00  0.00     0.053 C 
BRANCH   4   5
ATOM      5  C   UNL     1    -129.325 108.412  41.614  1.00  0.00     0.041 C 
ATOM      6  O   UNL     1    -129.358 107.153  41.591  1.00  0.00    -0.550 OA
ATOM      7  O   UNL     1    -129.348 109.122  40.421  1.00  0.00    -0.550 OA
ENDBRANCH   4   5
ENDBRANCH   3   4
ENDBRANCH   2   3
ENDBRANCH   1   2
BRANCH   1   8
ATOM      8  C   UNL     1    -129.854 113.746  42.896  1.00  0.00     0.000 C 
BRANCH   8   9
ATOM      9  C   UNL     1    -129.769 115.267  43.101  1.00  0.00    -0.000 C 
BRANCH   9  10
ATOM     10  C   UNL     1    -129.705 115.617  44.593  1.00  0.00    -0.000 C 
BRANCH  10  11
ATOM     11  C   UNL     1    -129.494 117.122  44.797  1.00  0.00    -0.000 C 
BRANCH  11  12
ATOM     12  C   UNL     1    -130.497 117.685  45.811  1.00  0.00    -0.003 C 
ATOM     13  C   UNL     1    -130.819 116.660  46.894  1.00  0.00     0.004 C 
ENDBRANCH  11  12
ENDBRANCH  10  11
ENDBRANCH   9  10
ENDBRANCH   8   9
ENDBRANCH   1   8
TORSDOF 9
ENDMDL
