MODEL 1
REMARK VINA RESULT:    -3.239      0.000      0.000
REMARK INTER + INTRA:          -5.073
REMARK INTER:                  -4.564
REMARK INTRA:                  -0.509
REMARK UNBOUND:                -0.509
REMARK SMILES CCCCCCCCC(=O)[O-]
REMARK SMILES IDX 6 1 7 2 8 3 9 4 10 5 11 6 5 7 4 8 3 9 2 10 1 11
REMARK H PARENT
REMARK Flexibility Score: inf
ROOT
ATOM      1  C   UNL     1     -13.784  13.586   7.883  1.00  0.00     0.000 C 
ENDROOT
BRANCH   1   2
ATOM      2  C   UNL     1     -14.202  13.380   9.346  1.00  0.00     0.006 C 
BRANCH   2   3
ATOM      3  C   UNL     1     -13.812  14.568  10.235  1.00  0.00     0.053 C 
BRANCH   3   4
ATOM      4  C   UNL     1     -13.960  14.244  11.690  1.00  0.00     0.041 C 
ATOM      5  O   UNL     1     -13.017  13.692  12.317  1.00  0.00    -0.550 OA
ATOM      6  O   UNL     1     -15.127  14.582  12.363  1.00  0.00    -0.550 OA
ENDBRANCH   3   4
ENDBRANCH   2   3
ENDBRANCH   1   2
BRANCH   1   7
ATOM      7  C   UNL     1     -14.762  12.885   6.928  1.00  0.00     0.000 C 
BRANCH   7   8
ATOM      8  C   UNL     1     -16.201  12.864   7.465  1.00  0.00    -0.000 C 
BRANCH   8   9
ATOM      9  C   UNL     1     -16.796  11.449   7.512  1.00  0.00    -0.000 C 
BRANCH   9  10
ATOM     10  C   UNL     1     -15.750  10.401   7.114  1.00  0.00    -0.003 C 
ATOM     11  C   UNL     1     -15.434   9.468   8.279  1.00  0.00     0.004 C 
ENDBRANCH   9  10
ENDBRANCH   8   9
ENDBRANCH   7   8
ENDBRANCH   1   7
TORSDOF 7
ENDMDL
MODEL 2
REMARK VINA RESULT:    -3.179      2.525      4.793
REMARK INTER + INTRA:          -4.989
REMARK INTER:                  -4.622
REMARK INTRA:                  -0.367
REMARK UNBOUND:                -0.509
REMARK SMILES CCCCCCCCC(=O)[O-]
REMARK SMILES IDX 6 1 7 2 8 3 9 4 10 5 11 6 5 7 4 8 3 9 2 10 1 11
REMARK H PARENT
REMARK Flexibility Score: inf
ROOT
ATOM      1  C   UNL     1     -14.676  12.988   6.888  1.00  0.00     0.000 C 
ENDROOT
BRANCH   1   2
ATOM      2  C   UNL     1     -15.967  12.442   7.516  1.00  0.00     0.006 C 
BRANCH   2   3
ATOM      3  C   UNL     1     -16.163  10.946   7.235  1.00  0.00     0.053 C 
BRANCH   3   4
ATOM      4  C   UNL     1     -15.851  10.111   8.439  1.00  0.00     0.041 C 
ATOM      5  O   UNL     1     -15.104   9.102   8.337  1.00  0.00    -0.550 OA
ATOM      6  O   UNL     1     -16.358  10.466   9.683  1.00  0.00    -0.550 OA
ENDBRANCH   3   4
ENDBRANCH   2   3
ENDBRANCH   1   2
BRANCH   1   7
ATOM      7  C   UNL     1     -13.753  13.582   7.962  1.00  0.00     0.000 C 
BRANCH   7   8
ATOM      8  C   UNL     1     -14.298  13.389   9.385  1.00  0.00    -0.000 C 
BRANCH   8   9
ATOM      9  C   UNL     1     -13.859  14.505  10.345  1.00  0.00    -0.000 C 
BRANCH   9  10
ATOM     10  C   UNL     1     -14.445  14.287  11.745  1.00  0.00    -0.003 C 
ATOM     11  C   UNL     1     -13.371  13.830  12.727  1.00  0.00     0.004 C 
ENDBRANCH   9  10
ENDBRANCH   8   9
ENDBRANCH   7   8
ENDBRANCH   1   7
TORSDOF 7
ENDMDL
MODEL 3
REMARK VINA RESULT:    -3.055      0.791      1.436
REMARK INTER + INTRA:          -4.813
REMARK INTER:                  -4.182
REMARK INTRA:                  -0.631
REMARK UNBOUND:                -0.509
REMARK SMILES CCCCCCCCC(=O)[O-]
REMARK SMILES IDX 6 1 7 2 8 3 9 4 10 5 11 6 5 7 4 8 3 9 2 10 1 11
REMARK H PARENT
REMARK Flexibility Score: inf
ROOT
ATOM      1  C   UNL     1     -14.625  12.905   7.029  1.00  0.00     0.000 C 
ENDROOT
BRANCH   1   2
ATOM      2  C   UNL     1     -13.931  13.539   8.243  1.00  0.00     0.006 C 
BRANCH   2   3
ATOM      3  C   UNL     1     -14.479  13.002   9.573  1.00  0.00     0.053 C 
BRANCH   3   4
ATOM      4  C   UNL     1     -14.340  14.006  10.676  1.00  0.00     0.041 C 
ATOM      5  O   UNL     1     -13.242  14.137  11.279  1.00  0.00    -0.550 OA
ATOM      6  O   UNL     1     -15.412  14.821  11.015  1.00  0.00    -0.550 OA
ENDBRANCH   3   4
ENDBRANCH   2   3
ENDBRANCH   1   2
BRANCH   1   7
ATOM      7  C   UNL     1     -16.147  12.864   7.226  1.00  0.00     0.000 C 
BRANCH   7   8
ATOM      8  C   UNL     1     -16.695  11.431   7.312  1.00  0.00    -0.000 C 
BRANCH   8   9
ATOM      9  C   UNL     1     -15.622  10.368   7.035  1.00  0.00    -0.000 C 
BRANCH   9  10
ATOM     10  C   UNL     1     -15.381   9.496   8.273  1.00  0.00    -0.003 C 
ATOM     11  C   UNL     1     -16.432   9.760   9.347  1.00  0.00     0.004 C 
ENDBRANCH   9  10
ENDBRANCH   8   9
ENDBRANCH   7   8
ENDBRANCH   1   7
TORSDOF 7
ENDMDL
MODEL 4
REMARK VINA RESULT:    -2.933     10.960     13.036
REMARK INTER + INTRA:          -4.642
REMARK INTER:                  -4.266
REMARK INTRA:                  -0.375
REMARK UNBOUND:                -0.509
REMARK SMILES CCCCCCCCC(=O)[O-]
REMARK SMILES IDX 6 1 7 2 8 3 9 4 10 5 11 6 5 7 4 8 3 9 2 10 1 11
REMARK H PARENT
REMARK Flexibility Score: inf
ROOT
ATOM      1  C   UNL     1     -17.025   6.270  -0.354  1.00  0.00     0.000 C 
ENDROOT
BRANCH   1   2
ATOM      2  C   UNL     1     -16.457   4.856  -0.164  1.00  0.00     0.006 C 
BRANCH   2   3
ATOM      3  C   UNL     1     -16.539   4.019  -1.448  1.00  0.00     0.053 C 
BRANCH   3   4
ATOM      4  C   UNL     1     -15.300   4.156  -2.279  1.00  0.00     0.041 C 
ATOM      5  O   UNL     1     -15.325   3.879  -3.508  1.00  0.00    -0.550 OA
ATOM      6  O   UNL     1     -14.124   4.621  -1.704  1.00  0.00    -0.550 OA
ENDBRANCH   3   4
ENDBRANCH   2   3
ENDBRANCH   1   2
BRANCH   1   7
ATOM      7  C   UNL     1     -16.293   7.281   0.542  1.00  0.00     0.000 C 
BRANCH   7   8
ATOM      8  C   UNL     1     -14.766   7.207   0.394  1.00  0.00    -0.000 C 
BRANCH   8   9
ATOM      9  C   UNL     1     -14.044   8.358   1.109  1.00  0.00    -0.000 C 
BRANCH   9  10
ATOM     10  C   UNL     1     -12.739   8.719   0.390  1.00  0.00    -0.003 C 
ATOM     11  C   UNL     1     -12.310   7.609  -0.564  1.00  0.00     0.004 C 
ENDBRANCH   9  10
ENDBRANCH   8   9
ENDBRANCH   7   8
ENDBRANCH   1   7
TORSDOF 7
ENDMDL
MODEL 5
REMARK VINA RESULT:    -2.899      1.761      2.971
REMARK INTER + INTRA:          -4.594
REMARK INTER:                  -3.987
REMARK INTRA:                  -0.608
REMARK UNBOUND:                -0.509
REMARK SMILES CCCCCCCCC(=O)[O-]
REMARK SMILES IDX 6 1 7 2 8 3 9 4 10 5 11 6 5 7 4 8 3 9 2 10 1 11
REMARK H PARENT
REMARK Flexibility Score: inf
ROOT
ATOM      1  C   UNL     1     -16.989  13.869  10.444  1.00  0.00     0.000 C 
ENDROOT
BRANCH   1   2
ATOM      2  C   UNL     1     -16.196  14.298  11.687  1.00  0.00     0.006 C 
BRANCH   2   3
ATOM      3  C   UNL     1     -15.040  13.338  12.000  1.00  0.00     0.053 C 
BRANCH   3   4
ATOM      4  C   UNL     1     -13.711  13.946  11.674  1.00  0.00     0.041 C 
ATOM      5  O   UNL     1     -13.568  14.637  10.630  1.00  0.00    -0.550 OA
ATOM      6  O   UNL     1     -12.638  13.779  12.540  1.00  0.00    -0.550 OA
ENDBRANCH   3   4
ENDBRANCH   2   3
ENDBRANCH   1   2
BRANCH   1   7
ATOM      7  C   UNL     1     -16.857  12.358  10.203  1.00  0.00     0.000 C 
BRANCH   7   8
ATOM      8  C   UNL     1     -16.535  12.016   8.741  1.00  0.00    -0.000 C 
BRANCH   8   9
ATOM      9  C   UNL     1     -15.038  12.136   8.420  1.00  0.00    -0.000 C 
BRANCH   9  10
ATOM     10  C   UNL     1     -14.810  13.020   7.188  1.00  0.00    -0.003 C 
ATOM     11  C   UNL     1     -13.423  13.654   7.213  1.00  0.00     0.004 C 
ENDBRANCH   9  10
ENDBRANCH   8   9
ENDBRANCH   7   8
ENDBRANCH   1   7
TORSDOF 7
ENDMDL
MODEL 6
REMARK VINA RESULT:    -2.807      2.628      4.125
REMARK INTER + INTRA:          -4.464
REMARK INTER:                  -4.059
REMARK INTRA:                  -0.405
REMARK UNBOUND:                -0.509
REMARK SMILES CCCCCCCCC(=O)[O-]
REMARK SMILES IDX 6 1 7 2 8 3 9 4 10 5 11 6 5 7 4 8 3 9 2 10 1 11
REMARK H PARENT
REMARK Flexibility Score: inf
ROOT
ATOM      1  C   UNL     1     -15.909  10.357   7.169  1.00  0.00     0.000 C 
ENDROOT
BRANCH   1   2
ATOM      2  C   UNL     1     -16.408  11.714   7.687  1.00  0.00     0.006 C 
BRANCH   2   3
ATOM      3  C   UNL     1     -15.619  12.889   7.093  1.00  0.00     0.053 C 
BRANCH   3   4
ATOM      4  C   UNL     1     -14.358  13.153   7.856  1.00  0.00     0.041 C 
ATOM      5  O   UNL     1     -14.305  12.925   9.094  1.00  0.00    -0.550 OA
ATOM      6  O   UNL     1     -13.228  13.617   7.194  1.00  0.00    -0.550 OA
ENDBRANCH   3   4
ENDBRANCH   2   3
ENDBRANCH   1   2
BRANCH   1   7
ATOM      7  C   UNL     1     -15.530   9.430   8.333  1.00  0.00     0.000 C 
BRANCH   7   8
ATOM      8  C   UNL     1     -16.531   9.499   9.496  1.00  0.00    -0.000 C 
BRANCH   8   9
ATOM      9  C   UNL     1     -16.162   8.559  10.653  1.00  0.00    -0.000 C 
BRANCH   9  10
ATOM     10  C   UNL     1     -15.441   7.308  10.136  1.00  0.00    -0.003 C 
ATOM     11  C   UNL     1     -14.777   6.543  11.277  1.00  0.00     0.004 C 
ENDBRANCH   9  10
ENDBRANCH   8   9
ENDBRANCH   7   8
ENDBRANCH   1   7
TORSDOF 7
ENDMDL
MODEL 7
REMARK VINA RESULT:    -2.806      3.100      5.045
REMARK INTER + INTRA:          -4.463
REMARK INTER:                  -3.780
REMARK INTRA:                  -0.683
REMARK UNBOUND:                -0.509
REMARK SMILES CCCCCCCCC(=O)[O-]
REMARK SMILES IDX 6 1 7 2 8 3 9 4 10 5 11 6 5 7 4 8 3 9 2 10 1 11
REMARK H PARENT
REMARK Flexibility Score: inf
ROOT
ATOM      1  C   UNL     1     -16.180  11.455  10.218  1.00  0.00     0.000 C 
ENDROOT
BRANCH   1   2
ATOM      2  C   UNL     1     -15.328  11.385   8.942  1.00  0.00     0.006 C 
BRANCH   2   3
ATOM      3  C   UNL     1     -14.660  12.727   8.613  1.00  0.00     0.053 C 
BRANCH   3   4
ATOM      4  C   UNL     1     -14.838  13.097   7.173  1.00  0.00     0.041 C 
ATOM      5  O   UNL     1     -15.994  13.233   6.690  1.00  0.00    -0.550 OA
ATOM      6  O   UNL     1     -13.728  13.325   6.370  1.00  0.00    -0.550 OA
ENDBRANCH   3   4
ENDBRANCH   2   3
ENDBRANCH   1   2
BRANCH   1   7
ATOM      7  C   UNL     1     -16.836  12.836  10.364  1.00  0.00     0.000 C 
BRANCH   7   8
ATOM      8  C   UNL     1     -16.688  13.415  11.780  1.00  0.00    -0.000 C 
BRANCH   8   9
ATOM      9  C   UNL     1     -15.764  14.641  11.826  1.00  0.00    -0.000 C 
BRANCH   9  10
ATOM     10  C   UNL     1     -14.543  14.375  12.713  1.00  0.00    -0.003 C 
ATOM     11  C   UNL     1     -13.401  13.759  11.910  1.00  0.00     0.004 C 
ENDBRANCH   9  10
ENDBRANCH   8   9
ENDBRANCH   7   8
ENDBRANCH   1   7
TORSDOF 7
ENDMDL
MODEL 8
REMARK VINA RESULT:    -2.745      3.074      5.064
REMARK INTER + INTRA:          -4.377
REMARK INTER:                  -3.693
REMARK INTRA:                  -0.684
REMARK UNBOUND:                -0.509
REMARK SMILES CCCCCCCCC(=O)[O-]
REMARK SMILES IDX 6 1 7 2 8 3 9 4 10 5 11 6 5 7 4 8 3 9 2 10 1 11
REMARK H PARENT
REMARK Flexibility Score: inf
ROOT
ATOM      1  C   UNL     1     -14.158  13.348   9.381  1.00  0.00     0.000 C 
ENDROOT
BRANCH   1   2
ATOM      2  C   UNL     1     -15.628  12.917   9.267  1.00  0.00     0.006 C 
BRANCH   2   3
ATOM      3  C   UNL     1     -15.804  11.402   9.440  1.00  0.00     0.053 C 
BRANCH   3   4
ATOM      4  C   UNL     1     -15.545  10.664   8.163  1.00  0.00     0.041 C 
ATOM      5  O   UNL     1     -15.668  11.250   7.054  1.00  0.00    -0.550 OA
ATOM      6  O   UNL     1     -15.133   9.338   8.196  1.00  0.00    -0.550 OA
ENDBRANCH   3   4
ENDBRANCH   2   3
ENDBRANCH   1   2
BRANCH   1   7
ATOM      7  C   UNL     1     -13.989  14.446  10.442  1.00  0.00     0.000 C 
BRANCH   7   8
ATOM      8  C   UNL     1     -15.239  14.621  11.318  1.00  0.00    -0.000 C 
BRANCH   8   9
ATOM      9  C   UNL     1     -14.951  14.406  12.811  1.00  0.00    -0.000 C 
BRANCH   9  10
ATOM     10  C   UNL     1     -14.093  13.155  13.030  1.00  0.00    -0.003 C 
ATOM     11  C   UNL     1     -14.958  11.902  13.125  1.00  0.00     0.004 C 
ENDBRANCH   9  10
ENDBRANCH   8   9
ENDBRANCH   7   8
ENDBRANCH   1   7
TORSDOF 7
ENDMDL
MODEL 9
REMARK VINA RESULT:    -2.163      3.057      5.347
REMARK INTER + INTRA:          -3.556
REMARK INTER:                  -3.044
REMARK INTRA:                  -0.512
REMARK UNBOUND:                -0.509
REMARK SMILES CCCCCCCCC(=O)[O-]
REMARK SMILES IDX 6 1 7 2 8 3 9 4 10 5 11 6 5 7 4 8 3 9 2 10 1 11
REMARK H PARENT
REMARK Flexibility Score: inf
ROOT
ATOM      1  C   UNL     1     -13.626  13.771  11.110  1.00  0.00     0.000 C 
ENDROOT
BRANCH   1   2
ATOM      2  C   UNL     1     -14.649  13.811   9.965  1.00  0.00     0.006 C 
BRANCH   2   3
ATOM      3  C   UNL     1     -14.565  12.570   9.066  1.00  0.00     0.053 C 
BRANCH   3   4
ATOM      4  C   UNL     1     -14.499  12.939   7.616  1.00  0.00     0.041 C 
ATOM      5  O   UNL     1     -15.417  12.586   6.829  1.00  0.00    -0.550 OA
ATOM      6  O   UNL     1     -13.442  13.703   7.140  1.00  0.00    -0.550 OA
ENDBRANCH   3   4
ENDBRANCH   2   3
ENDBRANCH   1   2
BRANCH   1   7
ATOM      7  C   UNL     1     -14.306  14.025  12.463  1.00  0.00     0.000 C 
BRANCH   7   8
ATOM      8  C   UNL     1     -15.563  13.166  12.666  1.00  0.00    -0.000 C 
BRANCH   8   9
ATOM      9  C   UNL     1     -16.856  13.995  12.663  1.00  0.00    -0.000 C 
BRANCH   9  10
ATOM     10  C   UNL     1     -16.547  15.494  12.752  1.00  0.00    -0.003 C 
ATOM     11  C   UNL     1     -17.125  16.248  11.559  1.00  0.00     0.004 C 
ENDBRANCH   9  10
ENDBRANCH   8   9
ENDBRANCH   7   8
ENDBRANCH   1   7
TORSDOF 7
ENDMDL
