MODEL 1
REMARK VINA RESULT:    -6.776      0.000      0.000
REMARK INTER + INTRA:         -11.744
REMARK INTER:                 -10.539
REMARK INTRA:                  -1.205
REMARK UNBOUND:                -1.205
REMARK SMILES C[C@@]12C[C@@]3(O)O[C@@H](O1)[C@]1(COC(=O)c4ccccc4)[C@H]3C[C@@]12O[C@@H]1O[C@H](CO)[C@@H](O)[C@@H](O)[C@@H]1O
REMARK SMILES IDX 1 1 2 2 3 3 4 4 20 5 21 6 22 7 9 8 7 9 8 10 6 11 23 12 24 13
REMARK SMILES IDX 33 14 25 15 31 16 26 17 29 18 34 19 32 21 27 23 28 24 30 26
REMARK SMILES IDX 5 28 10 30 11 31 12 32 13 33 14 34 15 35 19 36 16 37 18 38
REMARK SMILES IDX 17 39
REMARK H PARENT 34 20 32 22 28 25 30 27 5 29
REMARK Flexibility Score: inf
ROOT
ATOM      1  C   UNL     1     106.891 101.154 111.596  1.00  0.00     0.046 C 
ATOM      2  C   UNL     1     108.300 100.827 112.091  1.00  0.00     0.104 C 
ATOM      3  C   UNL     1     109.301 100.716 110.879  1.00  0.00     0.104 C 
ATOM      4  C   UNL     1     110.654 100.306 111.552  1.00  0.00     0.175 C 
ATOM      5  C   UNL     1     110.433  99.111 112.531  1.00  0.00     0.070 C 
ATOM      6  C   UNL     1     109.105  98.381 112.287  1.00  0.00     0.050 C 
ATOM      7  C   UNL     1     108.419  99.546 113.013  1.00  0.00     0.115 C 
ATOM      8  C   UNL     1     109.774  99.873 113.682  1.00  0.00     0.096 C 
ATOM      9  C   UNL     1     110.028 101.348 113.406  1.00  0.00     0.267 C 
ATOM     10  O   UNL     1     108.811 101.875 112.893  1.00  0.00    -0.342 OA
ATOM     11  O   UNL     1     111.014 101.385 112.388  1.00  0.00    -0.320 OA
ENDROOT
BRANCH   7  12
ATOM     12  O   UNL     1     107.252  99.116 113.727  1.00  0.00    -0.339 OA
BRANCH  12  13
ATOM     13  C   UNL     1     106.576  97.997 113.178  1.00  0.00     0.282 C 
ATOM     14  C   UNL     1     106.384  96.863 114.220  1.00  0.00     0.202 C 
ATOM     15  O   UNL     1     105.328  98.390 112.617  1.00  0.00    -0.341 OA
ATOM     16  C   UNL     1     105.355  97.229 115.300  1.00  0.00     0.179 C 
ATOM     17  C   UNL     1     104.318  98.773 113.550  1.00  0.00     0.178 C 
ATOM     18  C   UNL     1     104.051  97.721 114.654  1.00  0.00     0.177 C 
BRANCH  14  19
ATOM     19  O   UNL     1     107.600  96.483 114.807  1.00  0.00    -0.385 OA
ATOM     20  H   UNL     1     108.311  97.074 114.444  1.00  0.00     0.211 HD
ENDBRANCH  14  19
BRANCH  16  21
ATOM     21  O   UNL     1     105.106  96.106 116.107  1.00  0.00    -0.387 OA
ATOM     22  H   UNL     1     105.420  96.335 117.020  1.00  0.00     0.211 HD
ENDBRANCH  16  21
BRANCH  17  23
ATOM     23  C   UNL     1     104.454 100.226 114.068  1.00  0.00     0.191 C 
BRANCH  23  24
ATOM     24  O   UNL     1     103.401 101.054 113.650  1.00  0.00    -0.394 OA
ATOM     25  H   UNL     1     103.809 101.852 113.222  1.00  0.00     0.210 HD
ENDBRANCH  23  24
ENDBRANCH  17  23
BRANCH  18  26
ATOM     26  O   UNL     1     103.298  96.642 114.152  1.00  0.00    -0.387 OA
ATOM     27  H   UNL     1     103.133  96.801 113.186  1.00  0.00     0.211 HD
ENDBRANCH  18  26
ENDBRANCH  12  13
ENDBRANCH   7  12
BRANCH   4  28
ATOM     28  O   UNL     1     111.663 100.051 110.613  1.00  0.00    -0.365 OA
ATOM     29  H   UNL     1     111.254 100.168 109.717  1.00  0.00     0.214 HD
ENDBRANCH   4  28
BRANCH   8  30
ATOM     30  C   UNL     1     110.188  99.345 115.071  1.00  0.00     0.249 C 
BRANCH  30  31
ATOM     31  O   UNL     1     111.148 100.213 115.674  1.00  0.00    -0.461 OA
BRANCH  31  32
ATOM     32  C   UNL     1     112.491  99.879 115.890  1.00  0.00     0.338 C 
ATOM     33  O   UNL     1     113.003 100.007 117.037  1.00  0.00    -0.246 OA
BRANCH  32  34
ATOM     34  C   UNL     1     113.302  99.359 114.768  1.00  0.00     0.060 A 
ATOM     35  C   UNL     1     113.478  97.974 114.604  1.00  0.00     0.015 A 
ATOM     36  C   UNL     1     113.901 100.238 113.846  1.00  0.00     0.015 A 
ATOM     37  C   UNL     1     114.241  97.479 113.541  1.00  0.00     0.001 A 
ATOM     38  C   UNL     1     114.663  99.737 112.786  1.00  0.00     0.001 A 
ATOM     39  C   UNL     1     114.833  98.359 112.634  1.00  0.00     0.000 A 
ENDBRANCH  32  34
ENDBRANCH  31  32
ENDBRANCH  30  31
ENDBRANCH   8  30
TORSDOF 12
ENDMDL
MODEL 2
REMARK VINA RESULT:    -6.776     13.204     15.744
REMARK INTER + INTRA:         -11.744
REMARK INTER:                 -10.458
REMARK INTRA:                  -1.286
REMARK UNBOUND:                -1.205
REMARK SMILES C[C@@]12C[C@@]3(O)O[C@@H](O1)[C@]1(COC(=O)c4ccccc4)[C@H]3C[C@@]12O[C@@H]1O[C@H](CO)[C@@H](O)[C@@H](O)[C@@H]1O
REMARK SMILES IDX 1 1 2 2 3 3 4 4 20 5 21 6 22 7 9 8 7 9 8 10 6 11 23 12 24 13
REMARK SMILES IDX 33 14 25 15 31 16 26 17 29 18 34 19 32 21 27 23 28 24 30 26
REMARK SMILES IDX 5 28 10 30 11 31 12 32 13 33 14 34 15 35 19 36 16 37 18 38
REMARK SMILES IDX 17 39
REMARK H PARENT 34 20 32 22 28 25 30 27 5 29
REMARK Flexibility Score: inf
ROOT
ATOM      1  C   UNL     1     108.820 111.354 106.345  1.00  0.00     0.046 C 
ATOM      2  C   UNL     1     108.959 112.779 106.882  1.00  0.00     0.104 C 
ATOM      3  C   UNL     1     107.839 113.709 106.281  1.00  0.00     0.104 C 
ATOM      4  C   UNL     1     108.176 115.121 106.867  1.00  0.00     0.175 C 
ATOM      5  C   UNL     1     109.689 115.444 106.667  1.00  0.00     0.070 C 
ATOM      6  C   UNL     1     110.355 114.545 105.617  1.00  0.00     0.050 C 
ATOM      7  C   UNL     1     110.381 113.446 106.687  1.00  0.00     0.115 C 
ATOM      8  C   UNL     1     110.265 114.548 107.764  1.00  0.00     0.096 C 
ATOM      9  C   UNL     1     109.086 114.149 108.641  1.00  0.00     0.267 C 
ATOM     10  O   UNL     1     108.754 112.814 108.281  1.00  0.00    -0.342 OA
ATOM     11  O   UNL     1     108.021 115.007 108.266  1.00  0.00    -0.320 OA
ENDROOT
BRANCH   7  12
ATOM     12  O   UNL     1     111.518 112.583 106.537  1.00  0.00    -0.339 OA
BRANCH  12  13
ATOM     13  C   UNL     1     111.586 111.498 107.448  1.00  0.00     0.282 C 
ATOM     14  C   UNL     1     112.142 110.210 106.781  1.00  0.00     0.202 C 
ATOM     15  O   UNL     1     112.354 111.851 108.593  1.00  0.00    -0.341 OA
ATOM     16  C   UNL     1     113.641 110.319 106.461  1.00  0.00     0.179 C 
ATOM     17  C   UNL     1     113.757 111.999 108.381  1.00  0.00     0.178 C 
ATOM     18  C   UNL     1     114.423 110.778 107.701  1.00  0.00     0.177 C 
BRANCH  14  19
ATOM     19  O   UNL     1     111.417 109.864 105.631  1.00  0.00    -0.385 OA
ATOM     20  H   UNL     1     111.217 108.893 105.679  1.00  0.00     0.211 HD
ENDBRANCH  14  19
BRANCH  16  21
ATOM     21  O   UNL     1     114.115 109.073 106.018  1.00  0.00    -0.387 OA
ATOM     22  H   UNL     1     115.017 108.954 106.414  1.00  0.00     0.211 HD
ENDBRANCH  16  21
BRANCH  17  23
ATOM     23  C   UNL     1     114.165 113.368 107.782  1.00  0.00     0.191 C 
BRANCH  23  24
ATOM     24  O   UNL     1     115.011 114.102 108.627  1.00  0.00    -0.394 OA
ATOM     25  H   UNL     1     115.452 113.452 109.235  1.00  0.00     0.210 HD
ENDBRANCH  23  24
ENDBRANCH  17  23
BRANCH  18  26
ATOM     26  O   UNL     1     114.586 109.718 108.614  1.00  0.00    -0.387 OA
ATOM     27  H   UNL     1     114.463 108.863 108.124  1.00  0.00     0.211 HD
ENDBRANCH  18  26
ENDBRANCH  12  13
ENDBRANCH   7  12
BRANCH   4  28
ATOM     28  O   UNL     1     107.341 116.125 106.358  1.00  0.00    -0.365 OA
ATOM     29  H   UNL     1     106.416 115.891 106.631  1.00  0.00     0.214 HD
ENDBRANCH   4  28
BRANCH   8  30
ATOM     30  C   UNL     1     111.481 115.172 108.478  1.00  0.00     0.249 C 
BRANCH  30  31
ATOM     31  O   UNL     1     111.376 115.003 109.893  1.00  0.00    -0.461 OA
BRANCH  31  32
ATOM     32  C   UNL     1     112.459 114.740 110.741  1.00  0.00     0.338 C 
ATOM     33  O   UNL     1     113.413 115.562 110.828  1.00  0.00    -0.246 OA
BRANCH  32  34
ATOM     34  C   UNL     1     112.472 113.499 111.544  1.00  0.00     0.060 A 
ATOM     35  C   UNL     1     113.691 112.872 111.859  1.00  0.00     0.015 A 
ATOM     36  C   UNL     1     111.271 112.931 112.011  1.00  0.00     0.015 A 
ATOM     37  C   UNL     1     113.708 111.700 112.623  1.00  0.00     0.001 A 
ATOM     38  C   UNL     1     111.294 111.760 112.774  1.00  0.00     0.001 A 
ATOM     39  C   UNL     1     112.511 111.144 113.079  1.00  0.00     0.000 A 
ENDBRANCH  32  34
ENDBRANCH  31  32
ENDBRANCH  30  31
ENDBRANCH   8  30
TORSDOF 12
ENDMDL
MODEL 3
REMARK VINA RESULT:    -6.673     12.351     15.242
REMARK INTER + INTRA:         -11.584
REMARK INTER:                 -10.446
REMARK INTRA:                  -1.138
REMARK UNBOUND:                -1.205
REMARK SMILES C[C@@]12C[C@@]3(O)O[C@@H](O1)[C@]1(COC(=O)c4ccccc4)[C@H]3C[C@@]12O[C@@H]1O[C@H](CO)[C@@H](O)[C@@H](O)[C@@H]1O
REMARK SMILES IDX 1 1 2 2 3 3 4 4 20 5 21 6 22 7 9 8 7 9 8 10 6 11 23 12 24 13
REMARK SMILES IDX 33 14 25 15 31 16 26 17 29 18 34 19 32 21 27 23 28 24 30 26
REMARK SMILES IDX 5 28 10 30 11 31 12 32 13 33 14 34 15 35 19 36 16 37 18 38
REMARK SMILES IDX 17 39
REMARK H PARENT 34 20 32 22 28 25 30 27 5 29
REMARK Flexibility Score: inf
ROOT
ATOM      1  C   UNL     1     115.535 111.640 108.593  1.00  0.00     0.046 C 
ATOM      2  C   UNL     1     115.211 112.844 109.477  1.00  0.00     0.104 C 
ATOM      3  C   UNL     1     116.534 113.528 109.988  1.00  0.00     0.104 C 
ATOM      4  C   UNL     1     116.021 114.673 110.925  1.00  0.00     0.175 C 
ATOM      5  C   UNL     1     114.956 114.122 111.923  1.00  0.00     0.070 C 
ATOM      6  C   UNL     1     114.984 112.592 112.036  1.00  0.00     0.050 C 
ATOM      7  C   UNL     1     114.242 112.556 110.694  1.00  0.00     0.115 C 
ATOM      8  C   UNL     1     113.774 114.004 110.961  1.00  0.00     0.096 C 
ATOM      9  C   UNL     1     114.162 114.800 109.722  1.00  0.00     0.267 C 
ATOM     10  O   UNL     1     114.542 113.848 108.737  1.00  0.00    -0.342 OA
ATOM     11  O   UNL     1     115.300 115.560 110.094  1.00  0.00    -0.320 OA
ENDROOT
BRANCH   7  12
ATOM     12  O   UNL     1     113.359 111.428 110.603  1.00  0.00    -0.339 OA
BRANCH  12  13
ATOM     13  C   UNL     1     113.692 110.323 111.426  1.00  0.00     0.282 C 
ATOM     14  C   UNL     1     112.576 110.009 112.460  1.00  0.00     0.202 C 
ATOM     15  O   UNL     1     113.989 109.178 110.634  1.00  0.00    -0.341 OA
ATOM     16  C   UNL     1     111.320 109.419 111.802  1.00  0.00     0.179 C 
ATOM     17  C   UNL     1     112.881 108.579 109.964  1.00  0.00     0.178 C 
ATOM     18  C   UNL     1     111.693 108.236 110.895  1.00  0.00     0.177 C 
BRANCH  14  19
ATOM     19  O   UNL     1     112.247 111.134 113.230  1.00  0.00    -0.385 OA
ATOM     20  H   UNL     1     111.257 111.203 113.260  1.00  0.00     0.211 HD
ENDBRANCH  14  19
BRANCH  16  21
ATOM     21  O   UNL     1     110.422 109.004 112.800  1.00  0.00    -0.387 OA
ATOM     22  H   UNL     1     110.842 109.225 113.672  1.00  0.00     0.211 HD
ENDBRANCH  16  21
BRANCH  17  23
ATOM     23  C   UNL     1     112.479 109.289 108.647  1.00  0.00     0.191 C 
BRANCH  23  24
ATOM     24  O   UNL     1     111.455 110.230 108.826  1.00  0.00    -0.394 OA
ATOM     25  H   UNL     1     111.396 110.761 107.989  1.00  0.00     0.210 HD
ENDBRANCH  23  24
ENDBRANCH  17  23
BRANCH  18  26
ATOM     26  O   UNL     1     111.965 107.083 111.658  1.00  0.00    -0.387 OA
ATOM     27  H   UNL     1     111.740 106.287 111.109  1.00  0.00     0.211 HD
ENDBRANCH  18  26
ENDBRANCH  12  13
ENDBRANCH   7  12
BRANCH   4  28
ATOM     28  O   UNL     1     117.067 115.345 111.571  1.00  0.00    -0.365 OA
ATOM     29  H   UNL     1     117.880 114.790 111.450  1.00  0.00     0.214 HD
ENDBRANCH   4  28
BRANCH   8  30
ATOM     30  C   UNL     1     112.423 114.356 111.617  1.00  0.00     0.249 C 
BRANCH  30  31
ATOM     31  O   UNL     1     111.500 114.841 110.641  1.00  0.00    -0.461 OA
BRANCH  31  32
ATOM     32  C   UNL     1     110.776 114.024 109.763  1.00  0.00     0.338 C 
ATOM     33  O   UNL     1     110.430 112.862 110.114  1.00  0.00    -0.246 OA
BRANCH  32  34
ATOM     34  C   UNL     1     110.406 114.538 108.427  1.00  0.00     0.060 A 
ATOM     35  C   UNL     1     109.275 115.358 108.271  1.00  0.00     0.015 A 
ATOM     36  C   UNL     1     111.182 114.222 107.295  1.00  0.00     0.015 A 
ATOM     37  C   UNL     1     108.924 115.849 107.010  1.00  0.00     0.001 A 
ATOM     38  C   UNL     1     110.826 114.716 106.036  1.00  0.00     0.001 A 
ATOM     39  C   UNL     1     109.699 115.528 105.893  1.00  0.00     0.000 A 
ENDBRANCH  32  34
ENDBRANCH  31  32
ENDBRANCH  30  31
ENDBRANCH   8  30
TORSDOF 12
ENDMDL
MODEL 4
REMARK VINA RESULT:    -6.656      3.540      7.248
REMARK INTER + INTRA:         -11.558
REMARK INTER:                 -10.969
REMARK INTRA:                  -0.589
REMARK UNBOUND:                -1.205
REMARK SMILES C[C@@]12C[C@@]3(O)O[C@@H](O1)[C@]1(COC(=O)c4ccccc4)[C@H]3C[C@@]12O[C@@H]1O[C@H](CO)[C@@H](O)[C@@H](O)[C@@H]1O
REMARK SMILES IDX 1 1 2 2 3 3 4 4 20 5 21 6 22 7 9 8 7 9 8 10 6 11 23 12 24 13
REMARK SMILES IDX 33 14 25 15 31 16 26 17 29 18 34 19 32 21 27 23 28 24 30 26
REMARK SMILES IDX 5 28 10 30 11 31 12 32 13 33 14 34 15 35 19 36 16 37 18 38
REMARK SMILES IDX 17 39
REMARK H PARENT 34 20 32 22 28 25 30 27 5 29
REMARK Flexibility Score: inf
ROOT
ATOM      1  C   UNL     1     109.112 100.495 113.345  1.00  0.00     0.046 C 
ATOM      2  C   UNL     1     108.189 101.695 113.561  1.00  0.00     0.104 C 
ATOM      3  C   UNL     1     108.895 102.782 114.456  1.00  0.00     0.104 C 
ATOM      4  C   UNL     1     107.797 103.883 114.635  1.00  0.00     0.175 C 
ATOM      5  C   UNL     1     106.444 103.236 115.064  1.00  0.00     0.070 C 
ATOM      6  C   UNL     1     106.612 101.809 115.602  1.00  0.00     0.050 C 
ATOM      7  C   UNL     1     106.757 101.358 114.142  1.00  0.00     0.115 C 
ATOM      8  C   UNL     1     106.028 102.652 113.714  1.00  0.00     0.096 C 
ATOM      9  C   UNL     1     106.927 103.311 112.677  1.00  0.00     0.267 C 
ATOM     10  O   UNL     1     107.917 102.349 112.336  1.00  0.00    -0.342 OA
ATOM     11  O   UNL     1     107.549 104.398 113.343  1.00  0.00    -0.320 OA
ENDROOT
BRANCH   7  12
ATOM     12  O   UNL     1     106.238 100.036 113.938  1.00  0.00    -0.339 OA
BRANCH  12  13
ATOM     13  C   UNL     1     105.069  99.717 114.676  1.00  0.00     0.282 C 
ATOM     14  C   UNL     1     104.090  98.830 113.861  1.00  0.00     0.202 C 
ATOM     15  O   UNL     1     105.410  99.098 115.912  1.00  0.00    -0.341 OA
ATOM     16  C   UNL     1     104.620  97.401 113.666  1.00  0.00     0.179 C 
ATOM     17  C   UNL     1     105.936  97.774 115.822  1.00  0.00     0.178 C 
ATOM     18  C   UNL     1     105.048  96.798 115.012  1.00  0.00     0.177 C 
BRANCH  14  19
ATOM     19  O   UNL     1     103.767  99.409 112.625  1.00  0.00    -0.385 OA
ATOM     20  H   UNL     1     104.605  99.490 112.099  1.00  0.00     0.211 HD
ENDBRANCH  14  19
BRANCH  16  21
ATOM     21  O   UNL     1     103.621  96.610 113.073  1.00  0.00    -0.387 OA
ATOM     22  H   UNL     1     102.778  97.131 113.122  1.00  0.00     0.211 HD
ENDBRANCH  16  21
BRANCH  17  23
ATOM     23  C   UNL     1     107.443  97.716 115.468  1.00  0.00     0.191 C 
BRANCH  23  24
ATOM     24  O   UNL     1     107.768  96.623 114.651  1.00  0.00    -0.394 OA
ATOM     25  H   UNL     1     108.339  96.968 113.915  1.00  0.00     0.210 HD
ENDBRANCH  23  24
ENDBRANCH  17  23
BRANCH  18  26
ATOM     26  O   UNL     1     103.927  96.394 115.763  1.00  0.00    -0.387 OA
ATOM     27  H   UNL     1     103.989  96.810 116.662  1.00  0.00     0.211 HD
ENDBRANCH  18  26
ENDBRANCH  12  13
ENDBRANCH   7  12
BRANCH   4  28
ATOM     28  O   UNL     1     108.202 104.906 115.503  1.00  0.00    -0.365 OA
ATOM     29  H   UNL     1     108.584 104.465 116.306  1.00  0.00     0.214 HD
ENDBRANCH   4  28
BRANCH   8  30
ATOM     30  C   UNL     1     104.508 102.731 113.464  1.00  0.00     0.249 C 
BRANCH  30  31
ATOM     31  O   UNL     1     104.205 103.756 112.516  1.00  0.00    -0.461 OA
BRANCH  31  32
ATOM     32  C   UNL     1     103.472 104.912 112.810  1.00  0.00     0.338 C 
ATOM     33  O   UNL     1     102.535 105.282 112.048  1.00  0.00    -0.246 OA
BRANCH  32  34
ATOM     34  C   UNL     1     103.791 105.690 114.026  1.00  0.00     0.060 A 
ATOM     35  C   UNL     1     104.940 106.500 114.067  1.00  0.00     0.015 A 
ATOM     36  C   UNL     1     102.950 105.639 115.154  1.00  0.00     0.015 A 
ATOM     37  C   UNL     1     105.243 107.240 115.214  1.00  0.00     0.001 A 
ATOM     38  C   UNL     1     103.258 106.382 116.298  1.00  0.00     0.001 A 
ATOM     39  C   UNL     1     104.404 107.181 116.328  1.00  0.00     0.000 A 
ENDBRANCH  32  34
ENDBRANCH  31  32
ENDBRANCH  30  31
ENDBRANCH   8  30
TORSDOF 12
ENDMDL
MODEL 5
REMARK VINA RESULT:    -6.647      4.224      7.810
REMARK INTER + INTRA:         -11.544
REMARK INTER:                 -10.361
REMARK INTRA:                  -1.182
REMARK UNBOUND:                -1.205
REMARK SMILES C[C@@]12C[C@@]3(O)O[C@@H](O1)[C@]1(COC(=O)c4ccccc4)[C@H]3C[C@@]12O[C@@H]1O[C@H](CO)[C@@H](O)[C@@H](O)[C@@H]1O
REMARK SMILES IDX 1 1 2 2 3 3 4 4 20 5 21 6 22 7 9 8 7 9 8 10 6 11 23 12 24 13
REMARK SMILES IDX 33 14 25 15 31 16 26 17 29 18 34 19 32 21 27 23 28 24 30 26
REMARK SMILES IDX 5 28 10 30 11 31 12 32 13 33 14 34 15 35 19 36 16 37 18 38
REMARK SMILES IDX 17 39
REMARK H PARENT 34 20 32 22 28 25 30 27 5 29
REMARK Flexibility Score: inf
ROOT
ATOM      1  C   UNL     1     109.917 102.562 114.223  1.00  0.00     0.046 C 
ATOM      2  C   UNL     1     108.652 103.404 114.383  1.00  0.00     0.104 C 
ATOM      3  C   UNL     1     108.864 104.520 115.475  1.00  0.00     0.104 C 
ATOM      4  C   UNL     1     107.467 105.223 115.561  1.00  0.00     0.175 C 
ATOM      5  C   UNL     1     106.333 104.162 115.698  1.00  0.00     0.070 C 
ATOM      6  C   UNL     1     106.855 102.785 116.131  1.00  0.00     0.050 C 
ATOM      7  C   UNL     1     107.326 102.594 114.683  1.00  0.00     0.115 C 
ATOM      8  C   UNL     1     106.301 103.667 114.251  1.00  0.00     0.096 C 
ATOM      9  C   UNL     1     107.087 104.690 113.442  1.00  0.00     0.267 C 
ATOM     10  O   UNL     1     108.360 104.109 113.191  1.00  0.00    -0.342 OA
ATOM     11  O   UNL     1     107.250 105.811 114.295  1.00  0.00    -0.320 OA
ENDROOT
BRANCH   7  12
ATOM     12  O   UNL     1     107.269 101.218 114.281  1.00  0.00    -0.339 OA
BRANCH  12  13
ATOM     13  C   UNL     1     107.272 100.271 115.337  1.00  0.00     0.282 C 
ATOM     14  C   UNL     1     106.029  99.342 115.291  1.00  0.00     0.202 C 
ATOM     15  O   UNL     1     108.476  99.512 115.327  1.00  0.00    -0.341 OA
ATOM     16  C   UNL     1     106.081  98.355 114.115  1.00  0.00     0.179 C 
ATOM     17  C   UNL     1     108.620  98.585 114.251  1.00  0.00     0.178 C 
ATOM     18  C   UNL     1     107.426  97.613 114.094  1.00  0.00     0.177 C 
BRANCH  14  19
ATOM     19  O   UNL     1     104.832 100.073 115.268  1.00  0.00    -0.385 OA
ATOM     20  H   UNL     1     105.065 101.038 115.288  1.00  0.00     0.211 HD
ENDBRANCH  14  19
BRANCH  16  21
ATOM     21  O   UNL     1     105.021  97.440 114.227  1.00  0.00    -0.387 OA
ATOM     22  H   UNL     1     104.518  97.479 113.372  1.00  0.00     0.211 HD
ENDBRANCH  16  21
BRANCH  17  23
ATOM     23  C   UNL     1     109.105  99.225 112.927  1.00  0.00     0.191 C 
BRANCH  23  24
ATOM     24  O   UNL     1     110.146  98.505 112.323  1.00  0.00    -0.394 OA
ATOM     25  H   UNL     1     110.407  97.784 112.953  1.00  0.00     0.210 HD
ENDBRANCH  23  24
ENDBRANCH  17  23
BRANCH  18  26
ATOM     26  O   UNL     1     107.461  96.607 115.080  1.00  0.00    -0.387 OA
ATOM     27  H   UNL     1     106.575  96.161 115.100  1.00  0.00     0.211 HD
ENDBRANCH  18  26
ENDBRANCH  12  13
ENDBRANCH   7  12
BRANCH   4  28
ATOM     28  O   UNL     1     107.419 106.194 116.570  1.00  0.00    -0.365 OA
ATOM     29  H   UNL     1     108.181 106.810 116.410  1.00  0.00     0.214 HD
ENDBRANCH   4  28
BRANCH   8  30
ATOM     30  C   UNL     1     104.878 103.336 113.757  1.00  0.00     0.249 C 
BRANCH  30  31
ATOM     31  O   UNL     1     104.437 104.307 112.806  1.00  0.00    -0.461 OA
BRANCH  31  32
ATOM     32  C   UNL     1     103.455 105.272 113.060  1.00  0.00     0.338 C 
ATOM     33  O   UNL     1     102.437 105.357 112.317  1.00  0.00    -0.246 OA
BRANCH  32  34
ATOM     34  C   UNL     1     103.609 106.183 114.214  1.00  0.00     0.060 A 
ATOM     35  C   UNL     1     103.106 105.820 115.476  1.00  0.00     0.015 A 
ATOM     36  C   UNL     1     104.267 107.420 114.072  1.00  0.00     0.015 A 
ATOM     37  C   UNL     1     103.254 106.677 116.571  1.00  0.00     0.001 A 
ATOM     38  C   UNL     1     104.413 108.273 115.170  1.00  0.00     0.001 A 
ATOM     39  C   UNL     1     103.906 107.902 116.419  1.00  0.00     0.000 A 
ENDBRANCH  32  34
ENDBRANCH  31  32
ENDBRANCH  30  31
ENDBRANCH   8  30
TORSDOF 12
ENDMDL
MODEL 6
REMARK VINA RESULT:    -6.610     13.815     16.034
REMARK INTER + INTRA:         -11.486
REMARK INTER:                 -10.863
REMARK INTRA:                  -0.623
REMARK UNBOUND:                -1.205
REMARK SMILES C[C@@]12C[C@@]3(O)O[C@@H](O1)[C@]1(COC(=O)c4ccccc4)[C@H]3C[C@@]12O[C@@H]1O[C@H](CO)[C@@H](O)[C@@H](O)[C@@H]1O
REMARK SMILES IDX 1 1 2 2 3 3 4 4 20 5 21 6 22 7 9 8 7 9 8 10 6 11 23 12 24 13
REMARK SMILES IDX 33 14 25 15 31 16 26 17 29 18 34 19 32 21 27 23 28 24 30 26
REMARK SMILES IDX 5 28 10 30 11 31 12 32 13 33 14 34 15 35 19 36 16 37 18 38
REMARK SMILES IDX 17 39
REMARK H PARENT 34 20 32 22 28 25 30 27 5 29
REMARK Flexibility Score: inf
ROOT
ATOM      1  C   UNL     1     110.346 116.124 106.845  1.00  0.00     0.046 C 
ATOM      2  C   UNL     1     109.811 114.837 106.218  1.00  0.00     0.104 C 
ATOM      3  C   UNL     1     108.349 115.052 105.673  1.00  0.00     0.104 C 
ATOM      4  C   UNL     1     107.939 113.635 105.146  1.00  0.00     0.175 C 
ATOM      5  C   UNL     1     108.250 112.546 106.219  1.00  0.00     0.070 C 
ATOM      6  C   UNL     1     108.465 113.136 107.619  1.00  0.00     0.050 C 
ATOM      7  C   UNL     1     109.863 113.555 107.145  1.00  0.00     0.115 C 
ATOM      8  C   UNL     1     109.767 112.475 106.044  1.00  0.00     0.096 C 
ATOM      9  C   UNL     1     110.071 113.189 104.734  1.00  0.00     0.267 C 
ATOM     10  O   UNL     1     110.576 114.471 105.085  1.00  0.00    -0.342 OA
ATOM     11  O   UNL     1     108.822 113.346 104.083  1.00  0.00    -0.320 OA
ENDROOT
BRANCH   7  12
ATOM     12  O   UNL     1     110.818 113.532 108.215  1.00  0.00    -0.339 OA
BRANCH  12  13
ATOM     13  C   UNL     1     111.825 112.538 108.114  1.00  0.00     0.282 C 
ATOM     14  C   UNL     1     113.221 113.151 107.815  1.00  0.00     0.202 C 
ATOM     15  O   UNL     1     111.861 111.739 109.291  1.00  0.00    -0.341 OA
ATOM     16  C   UNL     1     113.792 113.917 109.018  1.00  0.00     0.179 C 
ATOM     17  C   UNL     1     112.355 112.380 110.466  1.00  0.00     0.178 C 
ATOM     18  C   UNL     1     113.741 113.047 110.283  1.00  0.00     0.177 C 
BRANCH  14  19
ATOM     19  O   UNL     1     113.198 113.968 106.676  1.00  0.00    -0.385 OA
ATOM     20  H   UNL     1     112.839 114.854 106.944  1.00  0.00     0.211 HD
ENDBRANCH  14  19
BRANCH  16  21
ATOM     21  O   UNL     1     115.116 114.299 108.742  1.00  0.00    -0.387 OA
ATOM     22  H   UNL     1     115.210 115.240 109.043  1.00  0.00     0.211 HD
ENDBRANCH  16  21
BRANCH  17  23
ATOM     23  C   UNL     1     111.309 113.262 111.192  1.00  0.00     0.191 C 
BRANCH  23  24
ATOM     24  O   UNL     1     111.481 114.631 110.938  1.00  0.00    -0.394 OA
ATOM     25  H   UNL     1     111.040 115.123 111.680  1.00  0.00     0.210 HD
ENDBRANCH  23  24
ENDBRANCH  17  23
BRANCH  18  26
ATOM     26  O   UNL     1     114.767 112.083 110.274  1.00  0.00    -0.387 OA
ATOM     27  H   UNL     1     115.121 112.015 109.349  1.00  0.00     0.211 HD
ENDBRANCH  18  26
ENDBRANCH  12  13
ENDBRANCH   7  12
BRANCH   4  28
ATOM     28  O   UNL     1     106.608 113.593 104.708  1.00  0.00    -0.365 OA
ATOM     29  H   UNL     1     106.454 114.422 104.185  1.00  0.00     0.214 HD
ENDBRANCH   4  28
BRANCH   8  30
ATOM     30  C   UNL     1     110.327 111.046 106.201  1.00  0.00     0.249 C 
BRANCH  30  31
ATOM     31  O   UNL     1     111.294 110.769 105.186  1.00  0.00    -0.461 OA
BRANCH  31  32
ATOM     32  C   UNL     1     111.830 109.500 104.931  1.00  0.00     0.338 C 
ATOM     33  O   UNL     1     111.161 108.462 105.191  1.00  0.00    -0.246 OA
BRANCH  32  34
ATOM     34  C   UNL     1     113.180 109.385 104.340  1.00  0.00     0.060 A 
ATOM     35  C   UNL     1     113.333 109.116 102.968  1.00  0.00     0.015 A 
ATOM     36  C   UNL     1     114.330 109.551 105.135  1.00  0.00     0.015 A 
ATOM     37  C   UNL     1     114.608 109.010 102.405  1.00  0.00     0.001 A 
ATOM     38  C   UNL     1     115.603 109.444 104.566  1.00  0.00     0.001 A 
ATOM     39  C   UNL     1     115.742 109.174 103.202  1.00  0.00     0.000 A 
ENDBRANCH  32  34
ENDBRANCH  31  32
ENDBRANCH  30  31
ENDBRANCH   8  30
TORSDOF 12
ENDMDL
MODEL 7
REMARK VINA RESULT:    -6.608     12.014     14.830
REMARK INTER + INTRA:         -11.483
REMARK INTER:                 -10.930
REMARK INTRA:                  -0.553
REMARK UNBOUND:                -1.205
REMARK SMILES C[C@@]12C[C@@]3(O)O[C@@H](O1)[C@]1(COC(=O)c4ccccc4)[C@H]3C[C@@]12O[C@@H]1O[C@H](CO)[C@@H](O)[C@@H](O)[C@@H]1O
REMARK SMILES IDX 1 1 2 2 3 3 4 4 20 5 21 6 22 7 9 8 7 9 8 10 6 11 23 12 24 13
REMARK SMILES IDX 33 14 25 15 31 16 26 17 29 18 34 19 32 21 27 23 28 24 30 26
REMARK SMILES IDX 5 28 10 30 11 31 12 32 13 33 14 34 15 35 19 36 16 37 18 38
REMARK SMILES IDX 17 39
REMARK H PARENT 34 20 32 22 28 25 30 27 5 29
REMARK Flexibility Score: inf
ROOT
ATOM      1  C   UNL     1     110.011 111.390 111.628  1.00  0.00     0.046 C 
ATOM      2  C   UNL     1     111.512 111.105 111.559  1.00  0.00     0.104 C 
ATOM      3  C   UNL     1     112.162 111.217 112.990  1.00  0.00     0.104 C 
ATOM      4  C   UNL     1     113.686 110.976 112.723  1.00  0.00     0.175 C 
ATOM      5  C   UNL     1     114.177 111.865 111.539  1.00  0.00     0.070 C 
ATOM      6  C   UNL     1     113.214 113.016 111.221  1.00  0.00     0.050 C 
ATOM      7  C   UNL     1     112.326 111.979 110.522  1.00  0.00     0.115 C 
ATOM      8  C   UNL     1     113.568 111.070 110.384  1.00  0.00     0.096 C 
ATOM      9  C   UNL     1     113.164 109.723 110.969  1.00  0.00     0.267 C 
ATOM     10  O   UNL     1     111.754 109.772 111.150  1.00  0.00    -0.342 OA
ATOM     11  O   UNL     1     113.791 109.653 112.239  1.00  0.00    -0.320 OA
ENDROOT
BRANCH   7  12
ATOM     12  O   UNL     1     111.616 112.546 109.412  1.00  0.00    -0.339 OA
BRANCH  12  13
ATOM     13  C   UNL     1     111.643 113.961 109.327  1.00  0.00     0.282 C 
ATOM     14  C   UNL     1     112.182 114.453 107.956  1.00  0.00     0.202 C 
ATOM     15  O   UNL     1     110.354 114.505 109.593  1.00  0.00    -0.341 OA
ATOM     16  C   UNL     1     111.194 114.186 106.810  1.00  0.00     0.179 C 
ATOM     17  C   UNL     1     109.364 114.281 108.589  1.00  0.00     0.178 C 
ATOM     18  C   UNL     1     109.798 114.718 107.169  1.00  0.00     0.177 C 
BRANCH  14  19
ATOM     19  O   UNL     1     113.438 113.903 107.662  1.00  0.00    -0.385 OA
ATOM     20  H   UNL     1     113.446 112.968 107.995  1.00  0.00     0.211 HD
ENDBRANCH  14  19
BRANCH  16  21
ATOM     21  O   UNL     1     111.663 114.800 105.637  1.00  0.00    -0.387 OA
ATOM     22  H   UNL     1     111.273 115.713 105.617  1.00  0.00     0.211 HD
ENDBRANCH  16  21
BRANCH  17  23
ATOM     23  C   UNL     1     108.702 112.883 108.656  1.00  0.00     0.191 C 
BRANCH  23  24
ATOM     24  O   UNL     1     107.300 112.943 108.646  1.00  0.00    -0.394 OA
ATOM     25  H   UNL     1     106.967 112.028 108.840  1.00  0.00     0.210 HD
ENDBRANCH  23  24
ENDBRANCH  17  23
BRANCH  18  26
ATOM     26  O   UNL     1     109.743 116.119 107.033  1.00  0.00    -0.387 OA
ATOM     27  H   UNL     1     110.370 116.387 106.312  1.00  0.00     0.211 HD
ENDBRANCH  18  26
ENDBRANCH  12  13
ENDBRANCH   7  12
BRANCH   4  28
ATOM     28  O   UNL     1     114.464 111.141 113.877  1.00  0.00    -0.365 OA
ATOM     29  H   UNL     1     114.582 110.239 114.274  1.00  0.00     0.214 HD
ENDBRANCH   4  28
BRANCH   8  30
ATOM     30  C   UNL     1     114.467 111.039 109.131  1.00  0.00     0.249 C 
BRANCH  30  31
ATOM     31  O   UNL     1     113.928 110.157 108.145  1.00  0.00    -0.461 OA
BRANCH  31  32
ATOM     32  C   UNL     1     114.690 109.258 107.388  1.00  0.00     0.338 C 
ATOM     33  O   UNL     1     115.293 108.303 107.951  1.00  0.00    -0.246 OA
BRANCH  32  34
ATOM     34  C   UNL     1     114.771 109.426 105.921  1.00  0.00     0.060 A 
ATOM     35  C   UNL     1     113.784 108.868 105.088  1.00  0.00     0.015 A 
ATOM     36  C   UNL     1     115.828 110.150 105.337  1.00  0.00     0.015 A 
ATOM     37  C   UNL     1     113.856 109.028 103.701  1.00  0.00     0.001 A 
ATOM     38  C   UNL     1     115.894 110.307 103.949  1.00  0.00     0.001 A 
ATOM     39  C   UNL     1     114.909 109.746 103.132  1.00  0.00     0.000 A 
ENDBRANCH  32  34
ENDBRANCH  31  32
ENDBRANCH  30  31
ENDBRANCH   8  30
TORSDOF 12
ENDMDL
MODEL 8
REMARK VINA RESULT:    -6.589     12.596     14.795
REMARK INTER + INTRA:         -11.454
REMARK INTER:                 -10.355
REMARK INTRA:                  -1.099
REMARK UNBOUND:                -1.205
REMARK SMILES C[C@@]12C[C@@]3(O)O[C@@H](O1)[C@]1(COC(=O)c4ccccc4)[C@H]3C[C@@]12O[C@@H]1O[C@H](CO)[C@@H](O)[C@@H](O)[C@@H]1O
REMARK SMILES IDX 1 1 2 2 3 3 4 4 20 5 21 6 22 7 9 8 7 9 8 10 6 11 23 12 24 13
REMARK SMILES IDX 33 14 25 15 31 16 26 17 29 18 34 19 32 21 27 23 28 24 30 26
REMARK SMILES IDX 5 28 10 30 11 31 12 32 13 33 14 34 15 35 19 36 16 37 18 38
REMARK SMILES IDX 17 39
REMARK H PARENT 34 20 32 22 28 25 30 27 5 29
REMARK Flexibility Score: inf
ROOT
ATOM      1  C   UNL     1     112.177 109.425 105.267  1.00  0.00     0.046 C 
ATOM      2  C   UNL     1     112.529 110.140 106.572  1.00  0.00     0.104 C 
ATOM      3  C   UNL     1     113.333 109.181 107.529  1.00  0.00     0.104 C 
ATOM      4  C   UNL     1     113.537 110.038 108.824  1.00  0.00     0.175 C 
ATOM      5  C   UNL     1     112.187 110.679 109.269  1.00  0.00     0.070 C 
ATOM      6  C   UNL     1     110.968 110.005 108.624  1.00  0.00     0.050 C 
ATOM      7  C   UNL     1     111.310 110.784 107.347  1.00  0.00     0.115 C 
ATOM      8  C   UNL     1     112.098 111.787 108.219  1.00  0.00     0.096 C 
ATOM      9  C   UNL     1     113.483 111.882 107.593  1.00  0.00     0.267 C 
ATOM     10  O   UNL     1     113.397 111.231 106.331  1.00  0.00    -0.342 OA
ATOM     11  O   UNL     1     114.340 111.135 108.441  1.00  0.00    -0.320 OA
ENDROOT
BRANCH   7  12
ATOM     12  O   UNL     1     110.134 111.121 106.597  1.00  0.00    -0.339 OA
BRANCH  12  13
ATOM     13  C   UNL     1     110.292 112.161 105.646  1.00  0.00     0.282 C 
ATOM     14  C   UNL     1     109.466 111.904 104.357  1.00  0.00     0.202 C 
ATOM     15  O   UNL     1     109.960 113.421 106.220  1.00  0.00    -0.341 OA
ATOM     16  C   UNL     1     107.955 112.052 104.592  1.00  0.00     0.179 C 
ATOM     17  C   UNL     1     108.576 113.635 106.497  1.00  0.00     0.178 C 
ATOM     18  C   UNL     1     107.647 113.389 105.283  1.00  0.00     0.177 C 
BRANCH  14  19
ATOM     19  O   UNL     1     109.755 110.652 103.793  1.00  0.00    -0.385 OA
ATOM     20  H   UNL     1     109.098 109.999 104.148  1.00  0.00     0.211 HD
ENDBRANCH  14  19
BRANCH  16  21
ATOM     21  O   UNL     1     107.281 111.973 103.361  1.00  0.00    -0.387 OA
ATOM     22  H   UNL     1     107.866 111.456 102.748  1.00  0.00     0.211 HD
ENDBRANCH  16  21
BRANCH  17  23
ATOM     23  C   UNL     1     108.089 112.992 107.819  1.00  0.00     0.191 C 
BRANCH  23  24
ATOM     24  O   UNL     1     107.305 113.862 108.591  1.00  0.00    -0.394 OA
ATOM     25  H   UNL     1     107.874 114.644 108.819  1.00  0.00     0.210 HD
ENDBRANCH  23  24
ENDBRANCH  17  23
BRANCH  18  26
ATOM     26  O   UNL     1     107.718 114.457 104.368  1.00  0.00    -0.387 OA
ATOM     27  H   UNL     1     108.477 114.288 103.751  1.00  0.00     0.211 HD
ENDBRANCH  18  26
ENDBRANCH  12  13
ENDBRANCH   7  12
BRANCH   4  28
ATOM     28  O   UNL     1     114.153 109.312 109.853  1.00  0.00    -0.365 OA
ATOM     29  H   UNL     1     113.714 108.423 109.877  1.00  0.00     0.214 HD
ENDBRANCH   4  28
BRANCH   8  30
ATOM     30  C   UNL     1     111.496 113.095 108.770  1.00  0.00     0.249 C 
BRANCH  30  31
ATOM     31  O   UNL     1     112.525 114.048 109.044  1.00  0.00    -0.461 OA
BRANCH  31  32
ATOM     32  C   UNL     1     112.981 114.372 110.328  1.00  0.00     0.338 C 
ATOM     33  O   UNL     1     113.335 115.553 110.599  1.00  0.00    -0.246 OA
BRANCH  32  34
ATOM     34  C   UNL     1     113.031 113.324 111.370  1.00  0.00     0.060 A 
ATOM     35  C   UNL     1     114.219 112.605 111.595  1.00  0.00     0.015 A 
ATOM     36  C   UNL     1     111.899 113.036 112.156  1.00  0.00     0.015 A 
ATOM     37  C   UNL     1     114.271 111.616 112.582  1.00  0.00     0.001 A 
ATOM     38  C   UNL     1     111.957 112.046 113.142  1.00  0.00     0.001 A 
ATOM     39  C   UNL     1     113.142 111.337 113.355  1.00  0.00     0.000 A 
ENDBRANCH  32  34
ENDBRANCH  31  32
ENDBRANCH  30  31
ENDBRANCH   8  30
TORSDOF 12
ENDMDL
MODEL 9
REMARK VINA RESULT:    -6.575     12.574     15.558
REMARK INTER + INTRA:         -11.433
REMARK INTER:                 -10.396
REMARK INTRA:                  -1.037
REMARK UNBOUND:                -1.205
REMARK SMILES C[C@@]12C[C@@]3(O)O[C@@H](O1)[C@]1(COC(=O)c4ccccc4)[C@H]3C[C@@]12O[C@@H]1O[C@H](CO)[C@@H](O)[C@@H](O)[C@@H]1O
REMARK SMILES IDX 1 1 2 2 3 3 4 4 20 5 21 6 22 7 9 8 7 9 8 10 6 11 23 12 24 13
REMARK SMILES IDX 33 14 25 15 31 16 26 17 29 18 34 19 32 21 27 23 28 24 30 26
REMARK SMILES IDX 5 28 10 30 11 31 12 32 13 33 14 34 15 35 19 36 16 37 18 38
REMARK SMILES IDX 17 39
REMARK H PARENT 34 20 32 22 28 25 30 27 5 29
REMARK Flexibility Score: inf
ROOT
ATOM      1  C   UNL     1     116.165 111.814 108.724  1.00  0.00     0.046 C 
ATOM      2  C   UNL     1     115.531 112.990 109.467  1.00  0.00     0.104 C 
ATOM      3  C   UNL     1     116.630 114.040 109.881  1.00  0.00     0.104 C 
ATOM      4  C   UNL     1     115.827 115.118 110.685  1.00  0.00     0.175 C 
ATOM      5  C   UNL     1     114.918 114.433 111.752  1.00  0.00     0.070 C 
ATOM      6  C   UNL     1     115.329 112.983 112.041  1.00  0.00     0.050 C 
ATOM      7  C   UNL     1     114.645 112.607 110.720  1.00  0.00     0.115 C 
ATOM      8  C   UNL     1     113.822 113.911 110.823  1.00  0.00     0.096 C 
ATOM      9  C   UNL     1     114.018 114.632 109.497  1.00  0.00     0.267 C 
ATOM     10  O   UNL     1     114.644 113.700 108.624  1.00  0.00    -0.342 OA
ATOM     11  O   UNL     1     114.921 115.692 109.766  1.00  0.00    -0.320 OA
ENDROOT
BRANCH   7  12
ATOM     12  O   UNL     1     114.077 111.290 110.770  1.00  0.00    -0.339 OA
BRANCH  12  13
ATOM     13  C   UNL     1     112.674 111.221 110.572  1.00  0.00     0.282 C 
ATOM     14  C   UNL     1     112.307 110.501 109.246  1.00  0.00     0.202 C 
ATOM     15  O   UNL     1     112.041 110.597 111.683  1.00  0.00    -0.341 OA
ATOM     16  C   UNL     1     112.593 108.992 109.303  1.00  0.00     0.179 C 
ATOM     17  C   UNL     1     112.274 109.197 111.828  1.00  0.00     0.178 C 
ATOM     18  C   UNL     1     111.958 108.372 110.557  1.00  0.00     0.177 C 
BRANCH  14  19
ATOM     19  O   UNL     1     112.948 111.082 108.142  1.00  0.00    -0.385 OA
ATOM     20  H   UNL     1     113.881 110.745 108.120  1.00  0.00     0.211 HD
ENDBRANCH  14  19
BRANCH  16  21
ATOM     21  O   UNL     1     112.086 108.378 108.145  1.00  0.00    -0.387 OA
ATOM     22  H   UNL     1     111.528 109.056 107.684  1.00  0.00     0.211 HD
ENDBRANCH  16  21
BRANCH  17  23
ATOM     23  C   UNL     1     113.624 108.847 112.502  1.00  0.00     0.191 C 
BRANCH  23  24
ATOM     24  O   UNL     1     113.986 109.759 113.503  1.00  0.00    -0.394 OA
ATOM     25  H   UNL     1     114.252 110.601 113.049  1.00  0.00     0.210 HD
ENDBRANCH  23  24
ENDBRANCH  17  23
BRANCH  18  26
ATOM     26  O   UNL     1     110.569 108.211 110.391  1.00  0.00    -0.387 OA
ATOM     27  H   UNL     1     110.369 108.209 109.419  1.00  0.00     0.211 HD
ENDBRANCH  18  26
ENDBRANCH  12  13
ENDBRANCH   7  12
BRANCH   4  28
ATOM     28  O   UNL     1     116.658 116.101 111.238  1.00  0.00    -0.365 OA
ATOM     29  H   UNL     1     116.178 116.965 111.146  1.00  0.00     0.214 HD
ENDBRANCH   4  28
BRANCH   8  30
ATOM     30  C   UNL     1     112.414 113.983 111.450  1.00  0.00     0.249 C 
BRANCH  30  31
ATOM     31  O   UNL     1     111.519 114.699 110.597  1.00  0.00    -0.461 OA
BRANCH  31  32
ATOM     32  C   UNL     1     110.558 114.097 109.776  1.00  0.00     0.338 C 
ATOM     33  O   UNL     1     109.958 113.053 110.157  1.00  0.00    -0.246 OA
BRANCH  32  34
ATOM     34  C   UNL     1     110.239 114.699 108.464  1.00  0.00     0.060 A 
ATOM     35  C   UNL     1     111.100 114.508 107.369  1.00  0.00     0.015 A 
ATOM     36  C   UNL     1     109.069 115.462 108.288  1.00  0.00     0.015 A 
ATOM     37  C   UNL     1     110.799 115.072 106.125  1.00  0.00     0.001 A 
ATOM     38  C   UNL     1     108.774 116.024 107.042  1.00  0.00     0.001 A 
ATOM     39  C   UNL     1     109.638 115.830 105.962  1.00  0.00     0.000 A 
ENDBRANCH  32  34
ENDBRANCH  31  32
ENDBRANCH  30  31
ENDBRANCH   8  30
TORSDOF 12
ENDMDL
