MODEL 1
REMARK VINA RESULT:    -7.706      0.000      0.000
REMARK INTER + INTRA:          -9.360
REMARK INTER:                  -9.057
REMARK INTRA:                  -0.303
REMARK UNBOUND:                -0.303
REMARK SMILES O=c1cc(-c2ccc(O)c(O)c2)oc2cc(O)cc(O)c12
REMARK SMILES IDX 4 1 3 2 2 3 1 4 21 5 19 6 18 7 16 8 15 9 14 10 13 11 5 12
REMARK SMILES IDX 6 13 7 14 8 15 12 16 10 17 9 18 11 20 20 22 17 24
REMARK H PARENT 9 19 11 21 20 23 17 25
REMARK Flexibility Score: inf
ROOT
ATOM      1  C   UNL     1      28.322 -40.775   3.393  1.00  0.00     0.138 A 
ATOM      2  C   UNL     1      29.643 -41.182   3.162  1.00  0.00     0.100 A 
ATOM      3  C   UNL     1      30.509 -41.361   4.242  1.00  0.00     0.197 A 
ATOM      4  O   UNL     1      31.672 -41.779   4.007  1.00  0.00    -0.289 OA
ATOM      5  C   UNL     1      30.057 -41.096   5.558  1.00  0.00     0.107 A 
ATOM      6  C   UNL     1      30.860 -41.212   6.733  1.00  0.00     0.134 A 
ATOM      7  C   UNL     1      30.274 -41.018   7.990  1.00  0.00     0.093 A 
ATOM      8  C   UNL     1      28.930 -40.658   8.112  1.00  0.00     0.123 A 
ATOM      9  C   UNL     1      28.151 -40.495   6.969  1.00  0.00     0.094 A 
ATOM     10  C   UNL     1      28.697 -40.714   5.702  1.00  0.00     0.146 A 
ATOM     11  O   UNL     1      27.913 -40.564   4.640  1.00  0.00    -0.456 OA
ENDROOT
BRANCH   1  12
ATOM     12  C   UNL     1      27.360 -40.567   2.282  1.00  0.00     0.021 A 
ATOM     13  C   UNL     1      27.458 -41.361   1.125  1.00  0.00     0.016 A 
ATOM     14  C   UNL     1      26.570 -41.183   0.062  1.00  0.00     0.051 A 
ATOM     15  C   UNL     1      25.575 -40.200   0.131  1.00  0.00     0.157 A 
ATOM     16  C   UNL     1      26.365 -39.571   2.338  1.00  0.00     0.062 A 
ATOM     17  C   UNL     1      25.475 -39.391   1.269  1.00  0.00     0.158 A 
BRANCH  15  18
ATOM     18  O   UNL     1      24.687 -40.019  -0.927  1.00  0.00    -0.504 OA
ATOM     19  H   UNL     1      24.466 -40.771  -1.570  1.00  0.00     0.293 HD
ENDBRANCH  15  18
BRANCH  17  20
ATOM     20  O   UNL     1      24.490 -38.406   1.330  1.00  0.00    -0.504 OA
ATOM     21  H   UNL     1      24.592 -37.589   1.920  1.00  0.00     0.293 HD
ENDBRANCH  17  20
ENDBRANCH   1  12
BRANCH   6  22
ATOM     22  O   UNL     1      32.230 -41.488   6.722  1.00  0.00    -0.507 OA
ATOM     23  H   UNL     1      32.636 -42.407   6.640  1.00  0.00     0.293 HD
ENDBRANCH   6  22
BRANCH   8  24
ATOM     24  O   UNL     1      28.361 -40.453   9.366  1.00  0.00    -0.508 OA
ATOM     25  H   UNL     1      27.357 -40.396   9.491  1.00  0.00     0.293 HD
ENDBRANCH   8  24
TORSDOF 5
ENDMDL
MODEL 2
REMARK VINA RESULT:    -7.672      0.893      1.612
REMARK INTER + INTRA:          -9.321
REMARK INTER:                  -9.042
REMARK INTRA:                  -0.279
REMARK UNBOUND:                -0.303
REMARK SMILES O=c1cc(-c2ccc(O)c(O)c2)oc2cc(O)cc(O)c12
REMARK SMILES IDX 4 1 3 2 2 3 1 4 21 5 19 6 18 7 16 8 15 9 14 10 13 11 5 12
REMARK SMILES IDX 6 13 7 14 8 15 12 16 10 17 9 18 11 20 20 22 17 24
REMARK H PARENT 9 19 11 21 20 23 17 25
REMARK Flexibility Score: inf
ROOT
ATOM      1  C   UNL     1      28.786 -41.016   3.424  1.00  0.00     0.138 A 
ATOM      2  C   UNL     1      30.079 -41.419   3.063  1.00  0.00     0.100 A 
ATOM      3  C   UNL     1      31.018 -41.697   4.057  1.00  0.00     0.197 A 
ATOM      4  O   UNL     1      32.153 -42.110   3.702  1.00  0.00    -0.289 OA
ATOM      5  C   UNL     1      30.670 -41.537   5.420  1.00  0.00     0.107 A 
ATOM      6  C   UNL     1      31.555 -41.759   6.518  1.00  0.00     0.134 A 
ATOM      7  C   UNL     1      31.066 -41.663   7.827  1.00  0.00     0.093 A 
ATOM      8  C   UNL     1      29.742 -41.297   8.078  1.00  0.00     0.123 A 
ATOM      9  C   UNL     1      28.884 -41.030   7.014  1.00  0.00     0.094 A 
ATOM     10  C   UNL     1      29.331 -41.151   5.695  1.00  0.00     0.146 A 
ATOM     11  O   UNL     1      28.474 -40.904   4.711  1.00  0.00    -0.456 OA
ENDROOT
BRANCH   1  12
ATOM     12  C   UNL     1      27.749 -40.705   2.408  1.00  0.00     0.021 A 
ATOM     13  C   UNL     1      26.934 -39.572   2.578  1.00  0.00     0.016 A 
ATOM     14  C   UNL     1      25.947 -39.258   1.642  1.00  0.00     0.051 A 
ATOM     15  C   UNL     1      25.748 -40.079   0.524  1.00  0.00     0.157 A 
ATOM     16  C   UNL     1      27.533 -41.533   1.289  1.00  0.00     0.062 A 
ATOM     17  C   UNL     1      26.540 -41.219   0.350  1.00  0.00     0.158 A 
BRANCH  15  18
ATOM     18  O   UNL     1      24.764 -39.770  -0.413  1.00  0.00    -0.504 OA
ATOM     19  H   UNL     1      24.472 -40.439  -1.116  1.00  0.00     0.293 HD
ENDBRANCH  15  18
BRANCH  17  20
ATOM     20  O   UNL     1      26.332 -42.040  -0.758  1.00  0.00    -0.504 OA
ATOM     21  H   UNL     1      25.724 -42.849  -0.712  1.00  0.00     0.293 HD
ENDBRANCH  17  20
ENDBRANCH   1  12
BRANCH   6  22
ATOM     22  O   UNL     1      32.915 -42.051   6.381  1.00  0.00    -0.507 OA
ATOM     23  H   UNL     1      33.323 -42.570   5.620  1.00  0.00     0.293 HD
ENDBRANCH   6  22
BRANCH   8  24
ATOM     24  O   UNL     1      29.270 -41.189   9.384  1.00  0.00    -0.508 OA
ATOM     25  H   UNL     1      29.902 -41.161  10.175  1.00  0.00     0.293 HD
ENDBRANCH   8  24
TORSDOF 5
ENDMDL
MODEL 3
REMARK VINA RESULT:    -7.387      1.901      7.736
REMARK INTER + INTRA:          -8.985
REMARK INTER:                  -8.690
REMARK INTRA:                  -0.296
REMARK UNBOUND:                -0.303
REMARK SMILES O=c1cc(-c2ccc(O)c(O)c2)oc2cc(O)cc(O)c12
REMARK SMILES IDX 4 1 3 2 2 3 1 4 21 5 19 6 18 7 16 8 15 9 14 10 13 11 5 12
REMARK SMILES IDX 6 13 7 14 8 15 12 16 10 17 9 18 11 20 20 22 17 24
REMARK H PARENT 9 19 11 21 20 23 17 25
REMARK Flexibility Score: inf
ROOT
ATOM      1  C   UNL     1      27.440 -40.435   1.837  1.00  0.00     0.138 A 
ATOM      2  C   UNL     1      26.507 -39.516   2.337  1.00  0.00     0.100 A 
ATOM      3  C   UNL     1      25.412 -39.149   1.555  1.00  0.00     0.197 A 
ATOM      4  O   UNL     1      24.563 -38.365   2.053  1.00  0.00    -0.289 OA
ATOM      5  C   UNL     1      25.269 -39.679   0.249  1.00  0.00     0.107 A 
ATOM      6  C   UNL     1      24.211 -39.351  -0.651  1.00  0.00     0.134 A 
ATOM      7  C   UNL     1      24.122 -40.016  -1.881  1.00  0.00     0.093 A 
ATOM      8  C   UNL     1      25.084 -40.952  -2.266  1.00  0.00     0.123 A 
ATOM      9  C   UNL     1      26.147 -41.243  -1.415  1.00  0.00     0.094 A 
ATOM     10  C   UNL     1      26.246 -40.622  -0.166  1.00  0.00     0.146 A 
ATOM     11  O   UNL     1      27.266 -40.942   0.621  1.00  0.00    -0.456 OA
ENDROOT
BRANCH   1  12
ATOM     12  C   UNL     1      28.624 -40.858   2.625  1.00  0.00     0.021 A 
ATOM     13  C   UNL     1      29.624 -41.631   2.008  1.00  0.00     0.016 A 
ATOM     14  C   UNL     1      30.746 -42.049   2.727  1.00  0.00     0.051 A 
ATOM     15  C   UNL     1      30.884 -41.711   4.079  1.00  0.00     0.157 A 
ATOM     16  C   UNL     1      28.764 -40.534   3.989  1.00  0.00     0.062 A 
ATOM     17  C   UNL     1      29.890 -40.955   4.711  1.00  0.00     0.158 A 
BRANCH  15  18
ATOM     18  O   UNL     1      32.002 -42.125   4.801  1.00  0.00    -0.504 OA
ATOM     19  H   UNL     1      32.943 -41.919   4.485  1.00  0.00     0.293 HD
ENDBRANCH  15  18
BRANCH  17  20
ATOM     20  O   UNL     1      30.025 -40.630   6.061  1.00  0.00    -0.504 OA
ATOM     21  H   UNL     1      29.877 -41.318   6.790  1.00  0.00     0.293 HD
ENDBRANCH  17  20
ENDBRANCH   1  12
BRANCH   6  22
ATOM     22  O   UNL     1      23.244 -38.374  -0.402  1.00  0.00    -0.507 OA
ATOM     23  H   UNL     1      22.590 -38.017  -1.081  1.00  0.00     0.293 HD
ENDBRANCH   6  22
BRANCH   8  24
ATOM     24  O   UNL     1      24.995 -41.596  -3.498  1.00  0.00    -0.508 OA
ATOM     25  H   UNL     1      25.061 -42.604  -3.576  1.00  0.00     0.293 HD
ENDBRANCH   8  24
TORSDOF 5
ENDMDL
MODEL 4
REMARK VINA RESULT:    -7.302      1.485      3.265
REMARK INTER + INTRA:          -8.886
REMARK INTER:                  -8.587
REMARK INTRA:                  -0.300
REMARK UNBOUND:                -0.303
REMARK SMILES O=c1cc(-c2ccc(O)c(O)c2)oc2cc(O)cc(O)c12
REMARK SMILES IDX 4 1 3 2 2 3 1 4 21 5 19 6 18 7 16 8 15 9 14 10 13 11 5 12
REMARK SMILES IDX 6 13 7 14 8 15 12 16 10 17 9 18 11 20 20 22 17 24
REMARK H PARENT 9 19 11 21 20 23 17 25
REMARK Flexibility Score: inf
ROOT
ATOM      1  C   UNL     1      27.979 -40.726   3.048  1.00  0.00     0.138 A 
ATOM      2  C   UNL     1      27.587 -40.635   4.391  1.00  0.00     0.100 A 
ATOM      3  C   UNL     1      28.519 -40.882   5.400  1.00  0.00     0.197 A 
ATOM      4  O   UNL     1      28.151 -40.739   6.595  1.00  0.00    -0.289 OA
ATOM      5  C   UNL     1      29.842 -41.256   5.061  1.00  0.00     0.107 A 
ATOM      6  C   UNL     1      30.868 -41.564   6.005  1.00  0.00     0.134 A 
ATOM      7  C   UNL     1      32.166 -41.826   5.551  1.00  0.00     0.093 A 
ATOM      8  C   UNL     1      32.462 -41.847   4.185  1.00  0.00     0.123 A 
ATOM      9  C   UNL     1      31.457 -41.596   3.255  1.00  0.00     0.094 A 
ATOM     10  C   UNL     1      30.159 -41.298   3.677  1.00  0.00     0.146 A 
ATOM     11  O   UNL     1      29.235 -41.048   2.756  1.00  0.00    -0.456 OA
ENDROOT
BRANCH   1  12
ATOM     12  C   UNL     1      27.029 -40.477   1.935  1.00  0.00     0.021 A 
ATOM     13  C   UNL     1      26.047 -39.480   2.074  1.00  0.00     0.016 A 
ATOM     14  C   UNL     1      25.137 -39.228   1.046  1.00  0.00     0.051 A 
ATOM     15  C   UNL     1      25.184 -39.977  -0.137  1.00  0.00     0.157 A 
ATOM     16  C   UNL     1      27.061 -41.235   0.748  1.00  0.00     0.062 A 
ATOM     17  C   UNL     1      26.146 -40.983  -0.284  1.00  0.00     0.158 A 
BRANCH  15  18
ATOM     18  O   UNL     1      24.278 -39.729  -1.166  1.00  0.00    -0.504 OA
ATOM     19  H   UNL     1      24.458 -40.035  -2.116  1.00  0.00     0.293 HD
ENDBRANCH  15  18
BRANCH  17  20
ATOM     20  O   UNL     1      26.183 -41.734  -1.459  1.00  0.00    -0.504 OA
ATOM     21  H   UNL     1      26.870 -41.556  -2.181  1.00  0.00     0.293 HD
ENDBRANCH  17  20
ENDBRANCH   1  12
BRANCH   6  22
ATOM     22  O   UNL     1      30.663 -41.650   7.385  1.00  0.00    -0.507 OA
ATOM     23  H   UNL     1      31.337 -41.391   8.088  1.00  0.00     0.293 HD
ENDBRANCH   6  22
BRANCH   8  24
ATOM     24  O   UNL     1      33.754 -42.124   3.743  1.00  0.00    -0.508 OA
ATOM     25  H   UNL     1      34.012 -43.041   3.399  1.00  0.00     0.293 HD
ENDBRANCH   8  24
TORSDOF 5
ENDMDL
MODEL 5
REMARK VINA RESULT:    -6.619      1.616      7.241
REMARK INTER + INTRA:          -8.084
REMARK INTER:                  -7.792
REMARK INTRA:                  -0.291
REMARK UNBOUND:                -0.303
REMARK SMILES O=c1cc(-c2ccc(O)c(O)c2)oc2cc(O)cc(O)c12
REMARK SMILES IDX 4 1 3 2 2 3 1 4 21 5 19 6 18 7 16 8 15 9 14 10 13 11 5 12
REMARK SMILES IDX 6 13 7 14 8 15 12 16 10 17 9 18 11 20 20 22 17 24
REMARK H PARENT 9 19 11 21 20 23 17 25
REMARK Flexibility Score: inf
ROOT
ATOM      1  C   UNL     1      27.473 -40.636   2.209  1.00  0.00     0.138 A 
ATOM      2  C   UNL     1      27.509 -41.285   0.967  1.00  0.00     0.100 A 
ATOM      3  C   UNL     1      26.534 -40.999   0.011  1.00  0.00     0.197 A 
ATOM      4  O   UNL     1      26.625 -41.557  -1.114  1.00  0.00    -0.289 OA
ATOM      5  C   UNL     1      25.497 -40.083   0.313  1.00  0.00     0.107 A 
ATOM      6  C   UNL     1      24.431 -39.740  -0.571  1.00  0.00     0.134 A 
ATOM      7  C   UNL     1      23.518 -38.746  -0.197  1.00  0.00     0.093 A 
ATOM      8  C   UNL     1      23.599 -38.126   1.053  1.00  0.00     0.123 A 
ATOM      9  C   UNL     1      24.607 -38.490   1.942  1.00  0.00     0.094 A 
ATOM     10  C   UNL     1      25.553 -39.453   1.585  1.00  0.00     0.146 A 
ATOM     11  O   UNL     1      26.508 -39.757   2.457  1.00  0.00    -0.456 OA
ENDROOT
BRANCH   1  12
ATOM     12  C   UNL     1      28.483 -40.904   3.263  1.00  0.00     0.021 A 
ATOM     13  C   UNL     1      28.169 -40.632   4.606  1.00  0.00     0.016 A 
ATOM     14  C   UNL     1      29.101 -40.869   5.618  1.00  0.00     0.051 A 
ATOM     15  C   UNL     1      30.370 -41.371   5.305  1.00  0.00     0.157 A 
ATOM     16  C   UNL     1      29.766 -41.397   2.955  1.00  0.00     0.062 A 
ATOM     17  C   UNL     1      30.704 -41.633   3.971  1.00  0.00     0.158 A 
BRANCH  15  18
ATOM     18  O   UNL     1      31.304 -41.609   6.311  1.00  0.00    -0.504 OA
ATOM     19  H   UNL     1      31.866 -42.453   6.324  1.00  0.00     0.293 HD
ENDBRANCH  15  18
BRANCH  17  20
ATOM     20  O   UNL     1      31.972 -42.123   3.661  1.00  0.00    -0.504 OA
ATOM     21  H   UNL     1      32.492 -41.783   2.861  1.00  0.00     0.293 HD
ENDBRANCH  17  20
ENDBRANCH   1  12
BRANCH   6  22
ATOM     22  O   UNL     1      24.209 -40.353  -1.807  1.00  0.00    -0.507 OA
ATOM     23  H   UNL     1      23.303 -40.551  -2.203  1.00  0.00     0.293 HD
ENDBRANCH   6  22
BRANCH   8  24
ATOM     24  O   UNL     1      22.676 -37.149   1.422  1.00  0.00    -0.508 OA
ATOM     25  H   UNL     1      21.801 -37.390   1.872  1.00  0.00     0.293 HD
ENDBRANCH   8  24
TORSDOF 5
ENDMDL
MODEL 6
REMARK VINA RESULT:    -6.516      2.834      5.713
REMARK INTER + INTRA:          -7.962
REMARK INTER:                  -7.655
REMARK INTRA:                  -0.307
REMARK UNBOUND:                -0.303
REMARK SMILES O=c1cc(-c2ccc(O)c(O)c2)oc2cc(O)cc(O)c12
REMARK SMILES IDX 4 1 3 2 2 3 1 4 21 5 19 6 18 7 16 8 15 9 14 10 13 11 5 12
REMARK SMILES IDX 6 13 7 14 8 15 12 16 10 17 9 18 11 20 20 22 17 24
REMARK H PARENT 9 19 11 21 20 23 17 25
REMARK Flexibility Score: inf
ROOT
ATOM      1  C   UNL     1      25.862 -40.761  -0.708  1.00  0.00     0.138 A 
ATOM      2  C   UNL     1      25.131 -40.119   0.301  1.00  0.00     0.100 A 
ATOM      3  C   UNL     1      25.684 -39.983   1.575  1.00  0.00     0.197 A 
ATOM      4  O   UNL     1      25.026 -39.353   2.444  1.00  0.00    -0.289 OA
ATOM      5  C   UNL     1      26.963 -40.524   1.849  1.00  0.00     0.107 A 
ATOM      6  C   UNL     1      27.613 -40.476   3.119  1.00  0.00     0.134 A 
ATOM      7  C   UNL     1      28.921 -40.960   3.243  1.00  0.00     0.093 A 
ATOM      8  C   UNL     1      29.580 -41.543   2.158  1.00  0.00     0.123 A 
ATOM      9  C   UNL     1      28.936 -41.640   0.927  1.00  0.00     0.094 A 
ATOM     10  C   UNL     1      27.644 -41.135   0.762  1.00  0.00     0.146 A 
ATOM     11  O   UNL     1      27.074 -41.233  -0.434  1.00  0.00    -0.456 OA
ENDROOT
BRANCH   1  12
ATOM     12  C   UNL     1      25.321 -40.935  -2.079  1.00  0.00     0.021 A 
ATOM     13  C   UNL     1      23.932 -41.042  -2.265  1.00  0.00     0.016 A 
ATOM     14  C   UNL     1      23.395 -41.213  -3.543  1.00  0.00     0.051 A 
ATOM     15  C   UNL     1      24.240 -41.292  -4.658  1.00  0.00     0.157 A 
ATOM     16  C   UNL     1      26.165 -41.029  -3.203  1.00  0.00     0.062 A 
ATOM     17  C   UNL     1      25.627 -41.202  -4.487  1.00  0.00     0.158 A 
BRANCH  15  18
ATOM     18  O   UNL     1      23.710 -41.462  -5.935  1.00  0.00    -0.504 OA
ATOM     19  H   UNL     1      24.106 -42.127  -6.589  1.00  0.00     0.293 HD
ENDBRANCH  15  18
BRANCH  17  20
ATOM     20  O   UNL     1      26.465 -41.292  -5.597  1.00  0.00    -0.504 OA
ATOM     21  H   UNL     1      26.484 -42.119  -6.183  1.00  0.00     0.293 HD
ENDBRANCH  17  20
ENDBRANCH   1  12
BRANCH   6  22
ATOM     22  O   UNL     1      27.018 -39.989   4.286  1.00  0.00    -0.507 OA
ATOM     23  H   UNL     1      27.326 -39.179   4.800  1.00  0.00     0.293 HD
ENDBRANCH   6  22
BRANCH   8  24
ATOM     24  O   UNL     1      30.876 -42.036   2.296  1.00  0.00    -0.508 OA
ATOM     25  H   UNL     1      31.060 -42.930   2.735  1.00  0.00     0.293 HD
ENDBRANCH   8  24
TORSDOF 5
ENDMDL
MODEL 7
REMARK VINA RESULT:    -6.193      2.669      4.856
REMARK INTER + INTRA:          -7.582
REMARK INTER:                  -7.278
REMARK INTRA:                  -0.304
REMARK UNBOUND:                -0.303
REMARK SMILES O=c1cc(-c2ccc(O)c(O)c2)oc2cc(O)cc(O)c12
REMARK SMILES IDX 4 1 3 2 2 3 1 4 21 5 19 6 18 7 16 8 15 9 14 10 13 11 5 12
REMARK SMILES IDX 6 13 7 14 8 15 12 16 10 17 9 18 11 20 20 22 17 24
REMARK H PARENT 9 19 11 21 20 23 17 25
REMARK Flexibility Score: inf
ROOT
ATOM      1  C   UNL     1      25.362 -39.264   1.627  1.00  0.00     0.138 A 
ATOM      2  C   UNL     1      25.657 -40.038   0.497  1.00  0.00     0.100 A 
ATOM      3  C   UNL     1      26.841 -40.777   0.456  1.00  0.00     0.197 A 
ATOM      4  O   UNL     1      27.051 -41.505  -0.549  1.00  0.00    -0.289 OA
ATOM      5  C   UNL     1      27.750 -40.712   1.540  1.00  0.00     0.107 A 
ATOM      6  C   UNL     1      29.002 -41.395   1.595  1.00  0.00     0.134 A 
ATOM      7  C   UNL     1      29.771 -41.331   2.763  1.00  0.00     0.093 A 
ATOM      8  C   UNL     1      29.361 -40.563   3.856  1.00  0.00     0.123 A 
ATOM      9  C   UNL     1      28.165 -39.853   3.793  1.00  0.00     0.094 A 
ATOM     10  C   UNL     1      27.358 -39.923   2.654  1.00  0.00     0.146 A 
ATOM     11  O   UNL     1      26.216 -39.245   2.645  1.00  0.00    -0.456 OA
ENDROOT
BRANCH   1  12
ATOM     12  C   UNL     1      24.119 -38.457   1.722  1.00  0.00     0.021 A 
ATOM     13  C   UNL     1      23.571 -37.893   0.557  1.00  0.00     0.016 A 
ATOM     14  C   UNL     1      22.406 -37.124   0.618  1.00  0.00     0.051 A 
ATOM     15  C   UNL     1      21.775 -36.897   1.848  1.00  0.00     0.157 A 
ATOM     16  C   UNL     1      23.486 -38.212   2.957  1.00  0.00     0.062 A 
ATOM     17  C   UNL     1      22.318 -37.439   3.019  1.00  0.00     0.158 A 
BRANCH  15  18
ATOM     18  O   UNL     1      20.613 -36.131   1.914  1.00  0.00    -0.504 OA
ATOM     19  H   UNL     1      19.700 -36.560   2.013  1.00  0.00     0.293 HD
ENDBRANCH  15  18
BRANCH  17  20
ATOM     20  O   UNL     1      21.693 -37.201   4.242  1.00  0.00    -0.504 OA
ATOM     21  H   UNL     1      21.482 -36.261   4.557  1.00  0.00     0.293 HD
ENDBRANCH  17  20
ENDBRANCH   1  12
BRANCH   6  22
ATOM     22  O   UNL     1      29.544 -42.123   0.532  1.00  0.00    -0.507 OA
ATOM     23  H   UNL     1      30.175 -42.904   0.627  1.00  0.00     0.293 HD
ENDBRANCH   6  22
BRANCH   8  24
ATOM     24  O   UNL     1      30.142 -40.494   5.007  1.00  0.00    -0.508 OA
ATOM     25  H   UNL     1      30.811 -41.218   5.239  1.00  0.00     0.293 HD
ENDBRANCH   8  24
TORSDOF 5
ENDMDL
MODEL 8
REMARK VINA RESULT:    -5.322      1.124      2.659
REMARK INTER + INTRA:          -6.558
REMARK INTER:                  -6.265
REMARK INTRA:                  -0.293
REMARK UNBOUND:                -0.303
REMARK SMILES O=c1cc(-c2ccc(O)c(O)c2)oc2cc(O)cc(O)c12
REMARK SMILES IDX 4 1 3 2 2 3 1 4 21 5 19 6 18 7 16 8 15 9 14 10 13 11 5 12
REMARK SMILES IDX 6 13 7 14 8 15 12 16 10 17 9 18 11 20 20 22 17 24
REMARK H PARENT 9 19 11 21 20 23 17 25
REMARK Flexibility Score: inf
ROOT
ATOM      1  C   UNL     1      27.997 -40.618   4.200  1.00  0.00     0.138 A 
ATOM      2  C   UNL     1      27.302 -40.322   5.380  1.00  0.00     0.100 A 
ATOM      3  C   UNL     1      27.944 -40.454   6.611  1.00  0.00     0.197 A 
ATOM      4  O   UNL     1      27.311 -40.127   7.649  1.00  0.00    -0.289 OA
ATOM      5  C   UNL     1      29.281 -40.918   6.663  1.00  0.00     0.107 A 
ATOM      6  C   UNL     1      30.026 -41.123   7.863  1.00  0.00     0.134 A 
ATOM      7  C   UNL     1      31.374 -41.493   7.782  1.00  0.00     0.093 A 
ATOM      8  C   UNL     1      31.987 -41.720   6.548  1.00  0.00     0.123 A 
ATOM      9  C   UNL     1      31.255 -41.570   5.373  1.00  0.00     0.094 A 
ATOM     10  C   UNL     1      29.917 -41.169   5.418  1.00  0.00     0.146 A 
ATOM     11  O   UNL     1      29.261 -41.022   4.273  1.00  0.00    -0.456 OA
ENDROOT
BRANCH   1  12
ATOM     12  C   UNL     1      27.362 -40.498   2.863  1.00  0.00     0.021 A 
ATOM     13  C   UNL     1      27.935 -41.161   1.764  1.00  0.00     0.016 A 
ATOM     14  C   UNL     1      27.362 -41.061   0.494  1.00  0.00     0.051 A 
ATOM     15  C   UNL     1      26.212 -40.286   0.298  1.00  0.00     0.157 A 
ATOM     16  C   UNL     1      26.214 -39.709   2.655  1.00  0.00     0.062 A 
ATOM     17  C   UNL     1      25.640 -39.607   1.380  1.00  0.00     0.158 A 
BRANCH  15  18
ATOM     18  O   UNL     1      25.637 -40.183  -0.967  1.00  0.00    -0.504 OA
ATOM     19  H   UNL     1      24.684 -39.863  -1.091  1.00  0.00     0.293 HD
ENDBRANCH  15  18
BRANCH  17  20
ATOM     20  O   UNL     1      24.501 -38.827   1.179  1.00  0.00    -0.504 OA
ATOM     21  H   UNL     1      24.565 -37.864   0.870  1.00  0.00     0.293 HD
ENDBRANCH  17  20
ENDBRANCH   1  12
BRANCH   6  22
ATOM     22  O   UNL     1      29.490 -41.003   9.148  1.00  0.00    -0.507 OA
ATOM     23  H   UNL     1      29.995 -41.168  10.005  1.00  0.00     0.293 HD
ENDBRANCH   6  22
BRANCH   8  24
ATOM     24  O   UNL     1      33.325 -42.102   6.480  1.00  0.00    -0.508 OA
ATOM     25  H   UNL     1      34.057 -41.553   6.915  1.00  0.00     0.293 HD
ENDBRANCH   8  24
TORSDOF 5
ENDMDL
