MODEL 1
REMARK VINA RESULT:    -4.350      0.000      0.000
REMARK INTER + INTRA:         -10.086
REMARK INTER:                  -8.165
REMARK INTRA:                  -1.921
REMARK UNBOUND:                -1.921
REMARK SMILES O=C([O-])CCCCCCCCCCCCCCC(=O)[O-]
REMARK SMILES IDX 10 1 9 2 8 3 7 4 6 5 5 6 4 7 2 8 1 9 3 10 11 11 12 12 13 13
REMARK SMILES IDX 14 14 15 15 16 16 17 17 18 18 19 19 20 20
REMARK H PARENT
REMARK Flexibility Score: inf
ROOT
ATOM      1  C   UNL     1      -2.392   8.829 -58.871  1.00  0.00     0.000 C 
ENDROOT
BRANCH   1   2
ATOM      2  C   UNL     1      -3.718   8.973 -58.106  1.00  0.00     0.000 C 
BRANCH   2   3
ATOM      3  C   UNL     1      -3.665   8.334 -56.707  1.00  0.00     0.000 C 
BRANCH   3   4
ATOM      4  C   UNL     1      -4.750   7.263 -56.505  1.00  0.00     0.000 C 
BRANCH   4   5
ATOM      5  C   UNL     1      -4.392   5.922 -57.165  1.00  0.00     0.000 C 
BRANCH   5   6
ATOM      6  C   UNL     1      -5.584   5.366 -57.958  1.00  0.00     0.006 C 
BRANCH   6   7
ATOM      7  C   UNL     1      -6.828   5.174 -57.081  1.00  0.00     0.053 C 
BRANCH   7   8
ATOM      8  C   UNL     1      -8.019   5.882 -57.646  1.00  0.00     0.041 C 
ATOM      9  O   UNL     1      -7.975   7.121 -57.870  1.00  0.00    -0.550 OA
ATOM     10  O   UNL     1      -9.193   5.180 -57.896  1.00  0.00    -0.550 OA
ENDBRANCH   7   8
ENDBRANCH   6   7
ENDBRANCH   5   6
ENDBRANCH   4   5
ENDBRANCH   3   4
ENDBRANCH   2   3
ENDBRANCH   1   2
BRANCH   1  11
ATOM     11  C   UNL     1      -2.149   7.392 -59.367  1.00  0.00     0.000 C 
BRANCH  11  12
ATOM     12  C   UNL     1      -0.852   6.785 -58.807  1.00  0.00     0.000 C 
BRANCH  12  13
ATOM     13  C   UNL     1      -1.010   5.309 -58.413  1.00  0.00     0.000 C 
BRANCH  13  14
ATOM     14  C   UNL     1      -0.106   4.957 -57.222  1.00  0.00     0.000 C 
BRANCH  14  15
ATOM     15  C   UNL     1      -0.162   6.023 -56.107  1.00  0.00     0.000 C 
BRANCH  15  16
ATOM     16  C   UNL     1      -1.369   5.865 -55.164  1.00  0.00     0.006 C 
BRANCH  16  17
ATOM     17  C   UNL     1      -1.520   7.000 -54.142  1.00  0.00     0.053 C 
BRANCH  17  18
ATOM     18  C   UNL     1      -0.296   7.150 -53.291  1.00  0.00     0.041 C 
ATOM     19  O   UNL     1      -0.070   6.340 -52.353  1.00  0.00    -0.550 OA
ATOM     20  O   UNL     1       0.587   8.197 -53.523  1.00  0.00    -0.550 OA
ENDBRANCH  17  18
ENDBRANCH  16  17
ENDBRANCH  15  16
ENDBRANCH  14  15
ENDBRANCH  13  14
ENDBRANCH  12  13
ENDBRANCH  11  12
ENDBRANCH   1  11
TORSDOF 15
ENDMDL
MODEL 2
REMARK VINA RESULT:    -4.176      0.582      6.563
REMARK INTER + INTRA:          -9.760
REMARK INTER:                  -8.041
REMARK INTRA:                  -1.719
REMARK UNBOUND:                -1.921
REMARK SMILES O=C([O-])CCCCCCCCCCCCCCC(=O)[O-]
REMARK SMILES IDX 10 1 9 2 8 3 7 4 6 5 5 6 4 7 2 8 1 9 3 10 11 11 12 12 13 13
REMARK SMILES IDX 14 14 15 15 16 16 17 17 18 18 19 19 20 20
REMARK H PARENT
REMARK Flexibility Score: inf
ROOT
ATOM      1  C   UNL     1      -2.273   9.078 -59.116  1.00  0.00     0.000 C 
ENDROOT
BRANCH   1   2
ATOM      2  C   UNL     1      -2.160   7.545 -59.130  1.00  0.00     0.000 C 
BRANCH   2   3
ATOM      3  C   UNL     1      -0.865   7.042 -58.469  1.00  0.00     0.000 C 
BRANCH   3   4
ATOM      4  C   UNL     1      -0.959   5.572 -58.028  1.00  0.00     0.000 C 
BRANCH   4   5
ATOM      5  C   UNL     1      -0.161   5.283 -56.748  1.00  0.00     0.000 C 
BRANCH   5   6
ATOM      6  C   UNL     1      -1.073   5.318 -55.513  1.00  0.00     0.006 C 
BRANCH   6   7
ATOM      7  C   UNL     1      -1.319   6.749 -55.013  1.00  0.00     0.053 C 
BRANCH   7   8
ATOM      8  C   UNL     1      -0.450   7.082 -53.840  1.00  0.00     0.041 C 
ATOM      9  O   UNL     1      -0.416   6.321 -52.837  1.00  0.00    -0.550 OA
ATOM     10  O   UNL     1       0.299   8.253 -53.841  1.00  0.00    -0.550 OA
ENDBRANCH   7   8
ENDBRANCH   6   7
ENDBRANCH   5   6
ENDBRANCH   4   5
ENDBRANCH   3   4
ENDBRANCH   2   3
ENDBRANCH   1   2
BRANCH   1  11
ATOM     11  C   UNL     1      -3.488   9.574 -58.312  1.00  0.00     0.000 C 
BRANCH  11  12
ATOM     12  C   UNL     1      -3.725   8.755 -57.033  1.00  0.00     0.000 C 
BRANCH  12  13
ATOM     13  C   UNL     1      -4.977   7.869 -57.118  1.00  0.00     0.000 C 
BRANCH  13  14
ATOM     14  C   UNL     1      -4.716   6.486 -56.502  1.00  0.00     0.000 C 
BRANCH  14  15
ATOM     15  C   UNL     1      -4.593   5.380 -57.572  1.00  0.00     0.000 C 
BRANCH  15  16
ATOM     16  C   UNL     1      -5.951   4.877 -58.097  1.00  0.00     0.006 C 
BRANCH  16  17
ATOM     17  C   UNL     1      -7.090   4.964 -57.071  1.00  0.00     0.053 C 
BRANCH  17  18
ATOM     18  C   UNL     1      -8.293   5.660 -57.632  1.00  0.00     0.041 C 
ATOM     19  O   UNL     1      -9.330   5.005 -57.919  1.00  0.00    -0.550 OA
ATOM     20  O   UNL     1      -8.261   7.030 -57.856  1.00  0.00    -0.550 OA
ENDBRANCH  17  18
ENDBRANCH  16  17
ENDBRANCH  15  16
ENDBRANCH  14  15
ENDBRANCH  13  14
ENDBRANCH  12  13
ENDBRANCH  11  12
ENDBRANCH   1  11
TORSDOF 15
ENDMDL
MODEL 3
REMARK VINA RESULT:    -3.851     11.924     14.230
REMARK INTER + INTRA:          -9.149
REMARK INTER:                  -7.706
REMARK INTRA:                  -1.442
REMARK UNBOUND:                -1.921
REMARK SMILES O=C([O-])CCCCCCCCCCCCCCC(=O)[O-]
REMARK SMILES IDX 10 1 9 2 8 3 7 4 6 5 5 6 4 7 2 8 1 9 3 10 11 11 12 12 13 13
REMARK SMILES IDX 14 14 15 15 16 16 17 17 18 18 19 19 20 20
REMARK H PARENT
REMARK Flexibility Score: inf
ROOT
ATOM      1  C   UNL     1      -6.492  20.890 -61.042  1.00  0.00     0.000 C 
ENDROOT
BRANCH   1   2
ATOM      2  C   UNL     1      -5.371  20.528 -60.054  1.00  0.00     0.000 C 
BRANCH   2   3
ATOM      3  C   UNL     1      -4.676  19.202 -60.409  1.00  0.00     0.000 C 
BRANCH   3   4
ATOM      4  C   UNL     1      -5.394  17.981 -59.813  1.00  0.00     0.000 C 
BRANCH   4   5
ATOM      5  C   UNL     1      -5.648  16.876 -60.850  1.00  0.00     0.000 C 
BRANCH   5   6
ATOM      6  C   UNL     1      -6.871  17.209 -61.718  1.00  0.00     0.006 C 
BRANCH   6   7
ATOM      7  C   UNL     1      -8.111  16.403 -61.309  1.00  0.00     0.053 C 
BRANCH   7   8
ATOM      8  C   UNL     1      -8.984  16.095 -62.486  1.00  0.00     0.041 C 
ATOM      9  O   UNL     1      -9.220  16.979 -63.351  1.00  0.00    -0.550 OA
ATOM     10  O   UNL     1      -9.566  14.839 -62.610  1.00  0.00    -0.550 OA
ENDBRANCH   7   8
ENDBRANCH   6   7
ENDBRANCH   5   6
ENDBRANCH   4   5
ENDBRANCH   3   4
ENDBRANCH   2   3
ENDBRANCH   1   2
BRANCH   1  11
ATOM     11  C   UNL     1      -5.952  21.341 -62.410  1.00  0.00     0.000 C 
BRANCH  11  12
ATOM     12  C   UNL     1      -6.808  20.831 -63.581  1.00  0.00     0.000 C 
BRANCH  12  13
ATOM     13  C   UNL     1      -6.194  19.607 -64.277  1.00  0.00     0.000 C 
BRANCH  13  14
ATOM     14  C   UNL     1      -4.957  20.003 -65.098  1.00  0.00     0.000 C 
BRANCH  14  15
ATOM     15  C   UNL     1      -3.733  19.117 -64.780  1.00  0.00     0.000 C 
BRANCH  15  16
ATOM     16  C   UNL     1      -2.393  19.875 -64.838  1.00  0.00     0.006 C 
BRANCH  16  17
ATOM     17  C   UNL     1      -1.388  19.455 -63.756  1.00  0.00     0.053 C 
BRANCH  17  18
ATOM     18  C   UNL     1      -0.029  19.193 -64.331  1.00  0.00     0.041 C 
ATOM     19  O   UNL     1       0.606  20.114 -64.910  1.00  0.00    -0.550 OA
ATOM     20  O   UNL     1       0.529  17.925 -64.243  1.00  0.00    -0.550 OA
ENDBRANCH  17  18
ENDBRANCH  16  17
ENDBRANCH  15  16
ENDBRANCH  14  15
ENDBRANCH  13  14
ENDBRANCH  12  13
ENDBRANCH  11  12
ENDBRANCH   1  11
TORSDOF 15
ENDMDL
MODEL 4
REMARK VINA RESULT:    -3.709      2.678      5.842
REMARK INTER + INTRA:          -8.882
REMARK INTER:                  -6.828
REMARK INTRA:                  -2.054
REMARK UNBOUND:                -1.921
REMARK SMILES O=C([O-])CCCCCCCCCCCCCCC(=O)[O-]
REMARK SMILES IDX 10 1 9 2 8 3 7 4 6 5 5 6 4 7 2 8 1 9 3 10 11 11 12 12 13 13
REMARK SMILES IDX 14 14 15 15 16 16 17 17 18 18 19 19 20 20
REMARK H PARENT
REMARK Flexibility Score: inf
ROOT
ATOM      1  C   UNL     1      -6.889   7.649 -58.504  1.00  0.00     0.000 C 
ENDROOT
BRANCH   1   2
ATOM      2  C   UNL     1      -6.168   8.608 -57.542  1.00  0.00     0.000 C 
BRANCH   2   3
ATOM      3  C   UNL     1      -4.854   9.155 -58.128  1.00  0.00     0.000 C 
BRANCH   3   4
ATOM      4  C   UNL     1      -3.744   9.281 -57.072  1.00  0.00     0.000 C 
BRANCH   4   5
ATOM      5  C   UNL     1      -3.666   8.060 -56.142  1.00  0.00     0.000 C 
BRANCH   5   6
ATOM      6  C   UNL     1      -2.215   7.579 -55.990  1.00  0.00     0.006 C 
BRANCH   6   7
ATOM      7  C   UNL     1      -2.007   6.760 -54.708  1.00  0.00     0.053 C 
BRANCH   7   8
ATOM      8  C   UNL     1      -0.555   6.510 -54.441  1.00  0.00     0.041 C 
ATOM      9  O   UNL     1       0.232   6.262 -55.393  1.00  0.00    -0.550 OA
ATOM     10  O   UNL     1      -0.076   6.518 -53.137  1.00  0.00    -0.550 OA
ENDBRANCH   7   8
ENDBRANCH   6   7
ENDBRANCH   5   6
ENDBRANCH   4   5
ENDBRANCH   3   4
ENDBRANCH   2   3
ENDBRANCH   1   2
BRANCH   1  11
ATOM     11  C   UNL     1      -7.906   6.746 -57.786  1.00  0.00     0.000 C 
BRANCH  11  12
ATOM     12  C   UNL     1      -7.235   5.613 -56.992  1.00  0.00     0.000 C 
BRANCH  12  13
ATOM     13  C   UNL     1      -6.160   4.875 -57.806  1.00  0.00     0.000 C 
BRANCH  13  14
ATOM     14  C   UNL     1      -4.782   5.004 -57.142  1.00  0.00     0.000 C 
BRANCH  14  15
ATOM     15  C   UNL     1      -3.626   4.884 -58.158  1.00  0.00     0.000 C 
BRANCH  15  16
ATOM     16  C   UNL     1      -3.839   5.719 -59.435  1.00  0.00     0.006 C 
BRANCH  16  17
ATOM     17  C   UNL     1      -2.553   5.995 -60.226  1.00  0.00     0.053 C 
BRANCH  17  18
ATOM     18  C   UNL     1      -1.591   6.840 -59.448  1.00  0.00     0.041 C 
ATOM     19  O   UNL     1      -1.814   8.069 -59.282  1.00  0.00    -0.550 OA
ATOM     20  O   UNL     1      -0.437   6.274 -58.922  1.00  0.00    -0.550 OA
ENDBRANCH  17  18
ENDBRANCH  16  17
ENDBRANCH  15  16
ENDBRANCH  14  15
ENDBRANCH  13  14
ENDBRANCH  12  13
ENDBRANCH  11  12
ENDBRANCH   1  11
TORSDOF 15
ENDMDL
MODEL 5
REMARK VINA RESULT:    -3.704      2.692      3.787
REMARK INTER + INTRA:          -8.873
REMARK INTER:                  -7.557
REMARK INTRA:                  -1.316
REMARK UNBOUND:                -1.921
REMARK SMILES O=C([O-])CCCCCCCCCCCCCCC(=O)[O-]
REMARK SMILES IDX 10 1 9 2 8 3 7 4 6 5 5 6 4 7 2 8 1 9 3 10 11 11 12 12 13 13
REMARK SMILES IDX 14 14 15 15 16 16 17 17 18 18 19 19 20 20
REMARK H PARENT
REMARK Flexibility Score: inf
ROOT
ATOM      1  C   UNL     1      -2.060   6.654 -59.432  1.00  0.00     0.000 C 
ENDROOT
BRANCH   1   2
ATOM      2  C   UNL     1      -2.671   5.246 -59.529  1.00  0.00     0.000 C 
BRANCH   2   3
ATOM      3  C   UNL     1      -4.176   5.232 -59.208  1.00  0.00     0.000 C 
BRANCH   3   4
ATOM      4  C   UNL     1      -4.480   5.714 -57.780  1.00  0.00     0.000 C 
BRANCH   4   5
ATOM      5  C   UNL     1      -5.624   6.739 -57.729  1.00  0.00     0.000 C 
BRANCH   5   6
ATOM      6  C   UNL     1      -5.390   7.872 -58.739  1.00  0.00     0.006 C 
BRANCH   6   7
ATOM      7  C   UNL     1      -5.057   9.203 -58.052  1.00  0.00     0.053 C 
BRANCH   7   8
ATOM      8  C   UNL     1      -3.590   9.336 -57.783  1.00  0.00     0.041 C 
ATOM      9  O   UNL     1      -3.119   9.017 -56.659  1.00  0.00    -0.550 OA
ATOM     10  O   UNL     1      -2.746   9.844 -58.763  1.00  0.00    -0.550 OA
ENDBRANCH   7   8
ENDBRANCH   6   7
ENDBRANCH   5   6
ENDBRANCH   4   5
ENDBRANCH   3   4
ENDBRANCH   2   3
ENDBRANCH   1   2
BRANCH   1  11
ATOM     11  C   UNL     1      -0.678   6.653 -58.757  1.00  0.00     0.000 C 
BRANCH  11  12
ATOM     12  C   UNL     1      -0.563   5.597 -57.645  1.00  0.00     0.000 C 
BRANCH  12  13
ATOM     13  C   UNL     1      -1.096   6.098 -56.294  1.00  0.00     0.000 C 
BRANCH  13  14
ATOM     14  C   UNL     1      -0.703   5.142 -55.158  1.00  0.00     0.000 C 
BRANCH  14  15
ATOM     15  C   UNL     1      -1.474   5.432 -53.852  1.00  0.00     0.000 C 
BRANCH  15  16
ATOM     16  C   UNL     1      -0.600   6.059 -52.748  1.00  0.00     0.006 C 
BRANCH  16  17
ATOM     17  C   UNL     1      -0.228   5.089 -51.617  1.00  0.00     0.053 C 
BRANCH  17  18
ATOM     18  C   UNL     1      -1.046   5.330 -50.386  1.00  0.00     0.041 C 
ATOM     19  O   UNL     1      -0.483   5.517 -49.274  1.00  0.00    -0.550 OA
ATOM     20  O   UNL     1      -2.432   5.330 -50.462  1.00  0.00    -0.550 OA
ENDBRANCH  17  18
ENDBRANCH  16  17
ENDBRANCH  15  16
ENDBRANCH  14  15
ENDBRANCH  13  14
ENDBRANCH  12  13
ENDBRANCH  11  12
ENDBRANCH   1  11
TORSDOF 15
ENDMDL
MODEL 6
REMARK VINA RESULT:    -3.646      2.818      7.177
REMARK INTER + INTRA:          -8.764
REMARK INTER:                  -7.508
REMARK INTRA:                  -1.255
REMARK UNBOUND:                -1.921
REMARK SMILES O=C([O-])CCCCCCCCCCCCCCC(=O)[O-]
REMARK SMILES IDX 10 1 9 2 8 3 7 4 6 5 5 6 4 7 2 8 1 9 3 10 11 11 12 12 13 13
REMARK SMILES IDX 14 14 15 15 16 16 17 17 18 18 19 19 20 20
REMARK H PARENT
REMARK Flexibility Score: inf
ROOT
ATOM      1  C   UNL     1      -1.385   6.080 -55.983  1.00  0.00     0.000 C 
ENDROOT
BRANCH   1   2
ATOM      2  C   UNL     1      -0.082   6.541 -55.309  1.00  0.00     0.000 C 
BRANCH   2   3
ATOM      3  C   UNL     1      -0.014   6.144 -53.824  1.00  0.00     0.000 C 
BRANCH   3   4
ATOM      4  C   UNL     1      -1.384   5.738 -53.257  1.00  0.00     0.000 C 
BRANCH   4   5
ATOM      5  C   UNL     1      -1.291   5.158 -51.837  1.00  0.00     0.000 C 
BRANCH   5   6
ATOM      6  C   UNL     1      -0.132   5.798 -51.057  1.00  0.00     0.006 C 
BRANCH   6   7
ATOM      7  C   UNL     1       0.171   5.053 -49.750  1.00  0.00     0.053 C 
BRANCH   7   8
ATOM      8  C   UNL     1      -0.076   5.915 -48.551  1.00  0.00     0.041 C 
ATOM      9  O   UNL     1      -1.254   6.191 -48.199  1.00  0.00    -0.550 OA
ATOM     10  O   UNL     1       0.996   6.442 -47.841  1.00  0.00    -0.550 OA
ENDBRANCH   7   8
ENDBRANCH   6   7
ENDBRANCH   5   6
ENDBRANCH   4   5
ENDBRANCH   3   4
ENDBRANCH   2   3
ENDBRANCH   1   2
BRANCH   1  11
ATOM     11  C   UNL     1      -1.150   5.508 -57.393  1.00  0.00     0.000 C 
BRANCH  11  12
ATOM     12  C   UNL     1      -0.839   6.600 -58.429  1.00  0.00     0.000 C 
BRANCH  12  13
ATOM     13  C   UNL     1      -1.882   6.664 -59.556  1.00  0.00     0.000 C 
BRANCH  13  14
ATOM     14  C   UNL     1      -2.913   5.534 -59.417  1.00  0.00     0.000 C 
BRANCH  14  15
ATOM     15  C   UNL     1      -4.329   6.066 -59.107  1.00  0.00     0.000 C 
BRANCH  15  16
ATOM     16  C   UNL     1      -4.557   7.517 -59.572  1.00  0.00     0.006 C 
BRANCH  16  17
ATOM     17  C   UNL     1      -5.075   8.454 -58.471  1.00  0.00     0.053 C 
BRANCH  17  18
ATOM     18  C   UNL     1      -4.260   8.347 -57.219  1.00  0.00     0.041 C 
ATOM     19  O   UNL     1      -3.187   8.996 -57.101  1.00  0.00    -0.550 OA
ATOM     20  O   UNL     1      -4.676   7.514 -56.188  1.00  0.00    -0.550 OA
ENDBRANCH  17  18
ENDBRANCH  16  17
ENDBRANCH  15  16
ENDBRANCH  14  15
ENDBRANCH  13  14
ENDBRANCH  12  13
ENDBRANCH  11  12
ENDBRANCH   1  11
TORSDOF 15
ENDMDL
MODEL 7
REMARK VINA RESULT:    -3.545      4.194      6.268
REMARK INTER + INTRA:          -8.574
REMARK INTER:                  -7.585
REMARK INTRA:                  -0.989
REMARK UNBOUND:                -1.921
REMARK SMILES O=C([O-])CCCCCCCCCCCCCCC(=O)[O-]
REMARK SMILES IDX 10 1 9 2 8 3 7 4 6 5 5 6 4 7 2 8 1 9 3 10 11 11 12 12 13 13
REMARK SMILES IDX 14 14 15 15 16 16 17 17 18 18 19 19 20 20
REMARK H PARENT
REMARK Flexibility Score: inf
ROOT
ATOM      1  C   UNL     1      -1.120   6.783 -54.519  1.00  0.00     0.000 C 
ENDROOT
BRANCH   1   2
ATOM      2  C   UNL     1      -0.109   6.326 -55.583  1.00  0.00     0.000 C 
BRANCH   2   3
ATOM      3  C   UNL     1      -0.426   4.927 -56.138  1.00  0.00     0.000 C 
BRANCH   3   4
ATOM      4  C   UNL     1      -0.733   4.944 -57.644  1.00  0.00     0.000 C 
BRANCH   4   5
ATOM      5  C   UNL     1      -0.636   6.351 -58.255  1.00  0.00     0.000 C 
BRANCH   5   6
ATOM      6  C   UNL     1      -1.983   6.783 -58.854  1.00  0.00     0.006 C 
BRANCH   6   7
ATOM      7  C   UNL     1      -2.780   7.684 -57.901  1.00  0.00     0.053 C 
BRANCH   7   8
ATOM      8  C   UNL     1      -3.217   8.950 -58.572  1.00  0.00     0.041 C 
ATOM      9  O   UNL     1      -4.442   9.219 -58.687  1.00  0.00    -0.550 OA
ATOM     10  O   UNL     1      -2.270   9.820 -59.100  1.00  0.00    -0.550 OA
ENDBRANCH   7   8
ENDBRANCH   6   7
ENDBRANCH   5   6
ENDBRANCH   4   5
ENDBRANCH   3   4
ENDBRANCH   2   3
ENDBRANCH   1   2
BRANCH   1  11
ATOM     11  C   UNL     1      -0.570   6.657 -53.087  1.00  0.00     0.000 C 
BRANCH  11  12
ATOM     12  C   UNL     1      -1.239   5.524 -52.293  1.00  0.00     0.000 C 
BRANCH  12  13
ATOM     13  C   UNL     1      -0.650   5.358 -50.884  1.00  0.00     0.000 C 
BRANCH  13  14
ATOM     14  C   UNL     1      -1.752   5.051 -49.859  1.00  0.00     0.000 C 
BRANCH  14  15
ATOM     15  C   UNL     1      -3.168   5.194 -50.457  1.00  0.00     0.000 C 
BRANCH  15  16
ATOM     16  C   UNL     1      -4.250   5.509 -49.408  1.00  0.00     0.006 C 
BRANCH  16  17
ATOM     17  C   UNL     1      -3.700   6.065 -48.086  1.00  0.00     0.053 C 
BRANCH  17  18
ATOM     18  C   UNL     1      -4.644   7.044 -47.458  1.00  0.00     0.041 C 
ATOM     19  O   UNL     1      -4.380   8.275 -47.462  1.00  0.00    -0.550 OA
ATOM     20  O   UNL     1      -5.808   6.593 -46.849  1.00  0.00    -0.550 OA
ENDBRANCH  17  18
ENDBRANCH  16  17
ENDBRANCH  15  16
ENDBRANCH  14  15
ENDBRANCH  13  14
ENDBRANCH  12  13
ENDBRANCH  11  12
ENDBRANCH   1  11
TORSDOF 15
ENDMDL
MODEL 8
REMARK VINA RESULT:    -3.463      4.286      7.072
REMARK INTER + INTRA:          -8.421
REMARK INTER:                  -7.539
REMARK INTRA:                  -0.882
REMARK UNBOUND:                -1.921
REMARK SMILES O=C([O-])CCCCCCCCCCCCCCC(=O)[O-]
REMARK SMILES IDX 10 1 9 2 8 3 7 4 6 5 5 6 4 7 2 8 1 9 3 10 11 11 12 12 13 13
REMARK SMILES IDX 14 14 15 15 16 16 17 17 18 18 19 19 20 20
REMARK H PARENT
REMARK Flexibility Score: inf
ROOT
ATOM      1  C   UNL     1      -0.508   5.991 -52.847  1.00  0.00     0.000 C 
ENDROOT
BRANCH   1   2
ATOM      2  C   UNL     1      -1.457   5.234 -51.903  1.00  0.00     0.000 C 
BRANCH   2   3
ATOM      3  C   UNL     1      -0.991   5.278 -50.437  1.00  0.00     0.000 C 
BRANCH   3   4
ATOM      4  C   UNL     1      -2.163   5.267 -49.443  1.00  0.00     0.000 C 
BRANCH   4   5
ATOM      5  C   UNL     1      -3.533   5.307 -50.139  1.00  0.00     0.000 C 
BRANCH   5   6
ATOM      6  C   UNL     1      -4.640   5.698 -49.148  1.00  0.00     0.006 C 
BRANCH   6   7
ATOM      7  C   UNL     1      -4.101   6.520 -47.969  1.00  0.00     0.053 C 
BRANCH   7   8
ATOM      8  C   UNL     1      -4.933   7.739 -47.718  1.00  0.00     0.041 C 
ATOM      9  O   UNL     1      -6.042   7.882 -48.297  1.00  0.00    -0.550 OA
ATOM     10  O   UNL     1      -4.468   8.735 -46.867  1.00  0.00    -0.550 OA
ENDBRANCH   7   8
ENDBRANCH   6   7
ENDBRANCH   5   6
ENDBRANCH   4   5
ENDBRANCH   3   4
ENDBRANCH   2   3
ENDBRANCH   1   2
BRANCH   1  11
ATOM     11  C   UNL     1      -1.184   6.387 -54.172  1.00  0.00     0.000 C 
BRANCH  11  12
ATOM     12  C   UNL     1      -0.211   6.367 -55.361  1.00  0.00     0.000 C 
BRANCH  12  13
ATOM     13  C   UNL     1      -0.216   5.026 -56.111  1.00  0.00     0.000 C 
BRANCH  13  14
ATOM     14  C   UNL     1      -0.145   5.244 -57.629  1.00  0.00     0.000 C 
BRANCH  14  15
ATOM     15  C   UNL     1      -1.544   5.371 -58.271  1.00  0.00     0.000 C 
BRANCH  15  16
ATOM     16  C   UNL     1      -1.787   6.732 -58.951  1.00  0.00     0.006 C 
BRANCH  16  17
ATOM     17  C   UNL     1      -3.175   7.329 -58.680  1.00  0.00     0.053 C 
BRANCH  17  18
ATOM     18  C   UNL     1      -3.101   8.527 -57.783  1.00  0.00     0.041 C 
ATOM     19  O   UNL     1      -3.083   8.385 -56.532  1.00  0.00    -0.550 OA
ATOM     20  O   UNL     1      -3.069   9.803 -58.330  1.00  0.00    -0.550 OA
ENDBRANCH  17  18
ENDBRANCH  16  17
ENDBRANCH  15  16
ENDBRANCH  14  15
ENDBRANCH  13  14
ENDBRANCH  12  13
ENDBRANCH  11  12
ENDBRANCH   1  11
TORSDOF 15
ENDMDL
