MODEL 1
REMARK VINA RESULT:    -3.609      0.000      0.000
REMARK INTER + INTRA:          -5.444
REMARK INTER:                  -5.086
REMARK INTRA:                  -0.358
REMARK UNBOUND:                -0.358
REMARK SMILES C=CCCCCCCC(=O)[O-]
REMARK SMILES IDX 6 1 7 2 8 3 9 4 10 5 11 6 5 7 4 8 3 9 2 10 1 11
REMARK H PARENT
REMARK Flexibility Score: inf
ROOT
ATOM      1  C   UNL     1      62.023  32.848  60.178  1.00  0.00     0.000 C 
ENDROOT
BRANCH   1   2
ATOM      2  C   UNL     1      60.899  31.862  60.525  1.00  0.00     0.006 C 
BRANCH   2   3
ATOM      3  C   UNL     1      61.246  30.986  61.736  1.00  0.00     0.053 C 
BRANCH   3   4
ATOM      4  C   UNL     1      61.920  29.713  61.324  1.00  0.00     0.041 C 
ATOM      5  O   UNL     1      63.169  29.594  61.421  1.00  0.00    -0.550 OA
ATOM      6  O   UNL     1      61.161  28.644  60.862  1.00  0.00    -0.550 OA
ENDBRANCH   3   4
ENDBRANCH   2   3
ENDBRANCH   1   2
BRANCH   1   7
ATOM      7  C   UNL     1      61.497  34.287  60.133  1.00  0.00     0.000 C 
BRANCH   7   8
ATOM      8  C   UNL     1      62.520  35.266  60.730  1.00  0.00     0.004 C 
BRANCH   8   9
ATOM      9  C   UNL     1      63.866  34.591  61.020  1.00  0.00     0.027 C 
BRANCH   9  10
ATOM     10  C   UNL     1      64.832  35.542  61.675  1.00  0.00    -0.035 C 
ATOM     11  C   UNL     1      64.510  36.814  61.923  1.00  0.00     0.004 C 
ENDBRANCH   9  10
ENDBRANCH   8   9
ENDBRANCH   7   8
ENDBRANCH   1   7
TORSDOF 7
ENDMDL
MODEL 2
REMARK VINA RESULT:    -3.520     12.129     13.945
REMARK INTER + INTRA:          -5.318
REMARK INTER:                  -5.043
REMARK INTRA:                  -0.275
REMARK UNBOUND:                -0.358
REMARK SMILES C=CCCCCCCC(=O)[O-]
REMARK SMILES IDX 6 1 7 2 8 3 9 4 10 5 11 6 5 7 4 8 3 9 2 10 1 11
REMARK H PARENT
REMARK Flexibility Score: inf
ROOT
ATOM      1  C   UNL     1      57.837  29.237  50.600  1.00  0.00     0.000 C 
ENDROOT
BRANCH   1   2
ATOM      2  C   UNL     1      58.808  29.278  49.411  1.00  0.00     0.006 C 
BRANCH   2   3
ATOM      3  C   UNL     1      59.682  28.020  49.330  1.00  0.00     0.053 C 
BRANCH   3   4
ATOM      4  C   UNL     1      61.055  28.263  49.876  1.00  0.00     0.041 C 
ATOM      5  O   UNL     1      62.059  27.732  49.333  1.00  0.00    -0.550 OA
ATOM      6  O   UNL     1      61.229  29.104  50.969  1.00  0.00    -0.550 OA
ENDBRANCH   3   4
ENDBRANCH   2   3
ENDBRANCH   1   2
BRANCH   1   7
ATOM      7  C   UNL     1      56.733  28.199  50.372  1.00  0.00     0.000 C 
BRANCH   7   8
ATOM      8  C   UNL     1      55.346  28.799  50.648  1.00  0.00     0.004 C 
BRANCH   8   9
ATOM      9  C   UNL     1      54.216  27.927  50.086  1.00  0.00     0.027 C 
BRANCH   9  10
ATOM     10  C   UNL     1      54.707  26.548  49.732  1.00  0.00    -0.035 C 
ATOM     11  C   UNL     1      53.958  25.691  49.033  1.00  0.00     0.004 C 
ENDBRANCH   9  10
ENDBRANCH   8   9
ENDBRANCH   7   8
ENDBRANCH   1   7
TORSDOF 7
ENDMDL
MODEL 3
REMARK VINA RESULT:    -3.471     12.550     13.761
REMARK INTER + INTRA:          -5.249
REMARK INTER:                  -4.735
REMARK INTRA:                  -0.514
REMARK UNBOUND:                -0.358
REMARK SMILES C=CCCCCCCC(=O)[O-]
REMARK SMILES IDX 6 1 7 2 8 3 9 4 10 5 11 6 5 7 4 8 3 9 2 10 1 11
REMARK H PARENT
REMARK Flexibility Score: inf
ROOT
ATOM      1  C   UNL     1      58.469  29.106  49.692  1.00  0.00     0.000 C 
ENDROOT
BRANCH   1   2
ATOM      2  C   UNL     1      59.606  28.145  49.317  1.00  0.00     0.006 C 
BRANCH   2   3
ATOM      3  C   UNL     1      59.257  26.683  49.626  1.00  0.00     0.053 C 
BRANCH   3   4
ATOM      4  C   UNL     1      60.468  25.898  50.030  1.00  0.00     0.041 C 
ATOM      5  O   UNL     1      61.498  26.488  50.448  1.00  0.00    -0.550 OA
ATOM      6  O   UNL     1      60.445  24.510  49.974  1.00  0.00    -0.550 OA
ENDBRANCH   3   4
ENDBRANCH   2   3
ENDBRANCH   1   2
BRANCH   1   7
ATOM      7  C   UNL     1      57.519  28.463  50.709  1.00  0.00     0.000 C 
BRANCH   7   8
ATOM      8  C   UNL     1      56.140  29.140  50.681  1.00  0.00     0.004 C 
BRANCH   8   9
ATOM      9  C   UNL     1      55.006  28.134  50.449  1.00  0.00     0.027 C 
BRANCH   9  10
ATOM     10  C   UNL     1      55.526  26.834  49.895  1.00  0.00    -0.035 C 
ATOM     11  C   UNL     1      54.710  25.911  49.380  1.00  0.00     0.004 C 
ENDBRANCH   9  10
ENDBRANCH   8   9
ENDBRANCH   7   8
ENDBRANCH   1   7
TORSDOF 7
ENDMDL
MODEL 4
REMARK VINA RESULT:    -3.462     12.251     14.241
REMARK INTER + INTRA:          -5.237
REMARK INTER:                  -4.730
REMARK INTRA:                  -0.507
REMARK UNBOUND:                -0.358
REMARK SMILES C=CCCCCCCC(=O)[O-]
REMARK SMILES IDX 6 1 7 2 8 3 9 4 10 5 11 6 5 7 4 8 3 9 2 10 1 11
REMARK H PARENT
REMARK Flexibility Score: inf
ROOT
ATOM      1  C   UNL     1      56.626  28.388  51.661  1.00  0.00     0.000 C 
ENDROOT
BRANCH   1   2
ATOM      2  C   UNL     1      58.029  28.932  51.356  1.00  0.00     0.006 C 
BRANCH   2   3
ATOM      3  C   UNL     1      58.366  28.864  49.861  1.00  0.00     0.053 C 
BRANCH   3   4
ATOM      4  C   UNL     1      59.283  27.721  49.551  1.00  0.00     0.041 C 
ATOM      5  O   UNL     1      60.490  27.934  49.263  1.00  0.00    -0.550 OA
ATOM      6  O   UNL     1      58.811  26.416  49.613  1.00  0.00    -0.550 OA
ENDBRANCH   3   4
ENDBRANCH   2   3
ENDBRANCH   1   2
BRANCH   1   7
ATOM      7  C   UNL     1      55.568  29.078  50.792  1.00  0.00     0.000 C 
BRANCH   7   8
ATOM      8  C   UNL     1      54.582  28.055  50.206  1.00  0.00     0.004 C 
BRANCH   8   9
ATOM      9  C   UNL     1      55.238  26.688  49.975  1.00  0.00     0.027 C 
BRANCH   9  10
ATOM     10  C   UNL     1      54.344  25.774  49.181  1.00  0.00    -0.035 C 
ATOM     11  C   UNL     1      53.058  26.061  48.961  1.00  0.00     0.004 C 
ENDBRANCH   9  10
ENDBRANCH   8   9
ENDBRANCH   7   8
ENDBRANCH   1   7
TORSDOF 7
ENDMDL
MODEL 5
REMARK VINA RESULT:    -3.384      1.550      2.126
REMARK INTER + INTRA:          -5.128
REMARK INTER:                  -4.685
REMARK INTRA:                  -0.443
REMARK UNBOUND:                -0.358
REMARK SMILES C=CCCCCCCC(=O)[O-]
REMARK SMILES IDX 6 1 7 2 8 3 9 4 10 5 11 6 5 7 4 8 3 9 2 10 1 11
REMARK H PARENT
REMARK Flexibility Score: inf
ROOT
ATOM      1  C   UNL     1      63.618  31.413  60.158  1.00  0.00     0.000 C 
ENDROOT
BRANCH   1   2
ATOM      2  C   UNL     1      63.538  30.432  61.337  1.00  0.00     0.006 C 
BRANCH   2   3
ATOM      3  C   UNL     1      62.280  29.557  61.280  1.00  0.00     0.053 C 
BRANCH   3   4
ATOM      4  C   UNL     1      61.049  30.371  61.019  1.00  0.00     0.041 C 
ATOM      5  O   UNL     1      60.424  30.249  59.933  1.00  0.00    -0.550 OA
ATOM      6  O   UNL     1      60.575  31.243  61.992  1.00  0.00    -0.550 OA
ENDBRANCH   3   4
ENDBRANCH   2   3
ENDBRANCH   1   2
BRANCH   1   7
ATOM      7  C   UNL     1      63.907  32.837  60.647  1.00  0.00     0.000 C 
BRANCH   7   8
ATOM      8  C   UNL     1      62.675  33.739  60.477  1.00  0.00     0.004 C 
BRANCH   8   9
ATOM      9  C   UNL     1      62.962  35.191  60.880  1.00  0.00     0.027 C 
BRANCH   9  10
ATOM     10  C   UNL     1      64.342  35.340  61.462  1.00  0.00    -0.035 C 
ATOM     11  C   UNL     1      64.796  36.514  61.911  1.00  0.00     0.004 C 
ENDBRANCH   9  10
ENDBRANCH   8   9
ENDBRANCH   7   8
ENDBRANCH   1   7
TORSDOF 7
ENDMDL
MODEL 6
REMARK VINA RESULT:    -3.355      3.149      5.184
REMARK INTER + INTRA:          -5.087
REMARK INTER:                  -4.523
REMARK INTRA:                  -0.563
REMARK UNBOUND:                -0.358
REMARK SMILES C=CCCCCCCC(=O)[O-]
REMARK SMILES IDX 6 1 7 2 8 3 9 4 10 5 11 6 5 7 4 8 3 9 2 10 1 11
REMARK H PARENT
REMARK Flexibility Score: inf
ROOT
ATOM      1  C   UNL     1      61.288  33.028  59.232  1.00  0.00     0.000 C 
ENDROOT
BRANCH   1   2
ATOM      2  C   UNL     1      61.743  33.836  60.456  1.00  0.00     0.006 C 
BRANCH   2   3
ATOM      3  C   UNL     1      63.264  34.039  60.485  1.00  0.00     0.053 C 
BRANCH   3   4
ATOM      4  C   UNL     1      63.639  35.322  61.159  1.00  0.00     0.041 C 
ATOM      5  O   UNL     1      62.794  36.247  61.281  1.00  0.00    -0.550 OA
ATOM      6  O   UNL     1      64.916  35.484  61.682  1.00  0.00    -0.550 OA
ENDBRANCH   3   4
ENDBRANCH   2   3
ENDBRANCH   1   2
BRANCH   1   7
ATOM      7  C   UNL     1      60.985  31.575  59.615  1.00  0.00     0.000 C 
BRANCH   7   8
ATOM      8  C   UNL     1      60.863  31.419  61.138  1.00  0.00     0.004 C 
BRANCH   8   9
ATOM      9  C   UNL     1      61.728  30.271  61.673  1.00  0.00     0.027 C 
BRANCH   9  10
ATOM     10  C   UNL     1      63.175  30.449  61.298  1.00  0.00    -0.035 C 
ATOM     11  C   UNL     1      63.937  29.419  60.918  1.00  0.00     0.004 C 
ENDBRANCH   9  10
ENDBRANCH   8   9
ENDBRANCH   7   8
ENDBRANCH   1   7
TORSDOF 7
ENDMDL
MODEL 7
REMARK VINA RESULT:    -3.340      1.036      1.494
REMARK INTER + INTRA:          -5.066
REMARK INTER:                  -4.522
REMARK INTRA:                  -0.543
REMARK UNBOUND:                -0.358
REMARK SMILES C=CCCCCCCC(=O)[O-]
REMARK SMILES IDX 6 1 7 2 8 3 9 4 10 5 11 6 5 7 4 8 3 9 2 10 1 11
REMARK H PARENT
REMARK Flexibility Score: inf
ROOT
ATOM      1  C   UNL     1      61.328  31.829  59.604  1.00  0.00     0.000 C 
ENDROOT
BRANCH   1   2
ATOM      2  C   UNL     1      61.090  31.702  61.115  1.00  0.00     0.006 C 
BRANCH   2   3
ATOM      3  C   UNL     1      61.633  30.383  61.680  1.00  0.00     0.053 C 
BRANCH   3   4
ATOM      4  C   UNL     1      63.016  30.094  61.180  1.00  0.00     0.041 C 
ATOM      5  O   UNL     1      63.961  30.886  61.431  1.00  0.00    -0.550 OA
ATOM      6  O   UNL     1      63.265  28.930  60.463  1.00  0.00    -0.550 OA
ENDBRANCH   3   4
ENDBRANCH   2   3
ENDBRANCH   1   2
BRANCH   1   7
ATOM      7  C   UNL     1      61.964  33.181  59.260  1.00  0.00     0.000 C 
BRANCH   7   8
ATOM      8  C   UNL     1      61.333  34.313  60.083  1.00  0.00     0.004 C 
BRANCH   8   9
ATOM      9  C   UNL     1      62.385  35.285  60.631  1.00  0.00     0.027 C 
BRANCH   9  10
ATOM     10  C   UNL     1      63.643  34.566  61.037  1.00  0.00    -0.035 C 
ATOM     11  C   UNL     1      64.762  35.224  61.355  1.00  0.00     0.004 C 
ENDBRANCH   9  10
ENDBRANCH   8   9
ENDBRANCH   7   8
ENDBRANCH   1   7
TORSDOF 7
ENDMDL
MODEL 8
REMARK VINA RESULT:    -3.334      3.199      5.449
REMARK INTER + INTRA:          -5.056
REMARK INTER:                  -4.343
REMARK INTRA:                  -0.713
REMARK UNBOUND:                -0.358
REMARK SMILES C=CCCCCCCC(=O)[O-]
REMARK SMILES IDX 6 1 7 2 8 3 9 4 10 5 11 6 5 7 4 8 3 9 2 10 1 11
REMARK H PARENT
REMARK Flexibility Score: inf
ROOT
ATOM      1  C   UNL     1      64.303  32.149  59.493  1.00  0.00     0.000 C 
ENDROOT
BRANCH   1   2
ATOM      2  C   UNL     1      64.142  33.004  60.758  1.00  0.00     0.006 C 
BRANCH   2   3
ATOM      3  C   UNL     1      63.225  34.213  60.530  1.00  0.00     0.053 C 
BRANCH   3   4
ATOM      4  C   UNL     1      63.719  35.428  61.255  1.00  0.00     0.041 C 
ATOM      5  O   UNL     1      64.879  35.450  61.741  1.00  0.00    -0.550 OA
ATOM      6  O   UNL     1      62.905  36.549  61.365  1.00  0.00    -0.550 OA
ENDBRANCH   3   4
ENDBRANCH   2   3
ENDBRANCH   1   2
BRANCH   1   7
ATOM      7  C   UNL     1      64.382  30.659  59.844  1.00  0.00     0.000 C 
BRANCH   7   8
ATOM      8  C   UNL     1      63.881  30.401  61.273  1.00  0.00     0.004 C 
BRANCH   8   9
ATOM      9  C   UNL     1      62.515  29.702  61.288  1.00  0.00     0.027 C 
BRANCH   9  10
ATOM     10  C   UNL     1      61.420  30.639  61.723  1.00  0.00    -0.035 C 
ATOM     11  C   UNL     1      60.737  31.380  60.847  1.00  0.00     0.004 C 
ENDBRANCH   9  10
ENDBRANCH   8   9
ENDBRANCH   7   8
ENDBRANCH   1   7
TORSDOF 7
ENDMDL
MODEL 9
REMARK VINA RESULT:    -3.317     12.832     13.768
REMARK INTER + INTRA:          -5.033
REMARK INTER:                  -4.606
REMARK INTRA:                  -0.426
REMARK UNBOUND:                -0.358
REMARK SMILES C=CCCCCCCC(=O)[O-]
REMARK SMILES IDX 6 1 7 2 8 3 9 4 10 5 11 6 5 7 4 8 3 9 2 10 1 11
REMARK H PARENT
REMARK Flexibility Score: inf
ROOT
ATOM      1  C   UNL     1      57.687  28.742  50.875  1.00  0.00     0.000 C 
ENDROOT
BRANCH   1   2
ATOM      2  C   UNL     1      56.181  28.985  50.706  1.00  0.00     0.006 C 
BRANCH   2   3
ATOM      3  C   UNL     1      55.418  27.696  50.374  1.00  0.00     0.053 C 
BRANCH   3   4
ATOM      4  C   UNL     1      54.013  27.981  49.937  1.00  0.00     0.041 C 
ATOM      5  O   UNL     1      53.326  27.084  49.382  1.00  0.00    -0.550 OA
ATOM      6  O   UNL     1      53.452  29.230  50.174  1.00  0.00    -0.550 OA
ENDBRANCH   3   4
ENDBRANCH   2   3
ENDBRANCH   1   2
BRANCH   1   7
ATOM      7  C   UNL     1      58.465  29.247  49.654  1.00  0.00     0.000 C 
BRANCH   7   8
ATOM      8  C   UNL     1      59.544  28.239  49.232  1.00  0.00     0.004 C 
BRANCH   8   9
ATOM      9  C   UNL     1      59.187  26.804  49.641  1.00  0.00     0.027 C 
BRANCH   9  10
ATOM     10  C   UNL     1      60.416  26.005  49.982  1.00  0.00    -0.035 C 
ATOM     11  C   UNL     1      61.600  26.586  50.189  1.00  0.00     0.004 C 
ENDBRANCH   9  10
ENDBRANCH   8   9
ENDBRANCH   7   8
ENDBRANCH   1   7
TORSDOF 7
ENDMDL
