MODEL 1
REMARK VINA RESULT:    -3.806      0.000      0.000
REMARK INTER + INTRA:          -6.203
REMARK INTER:                  -5.252
REMARK INTRA:                  -0.951
REMARK UNBOUND:                -0.951
REMARK SMILES OC[C@@H](O)[C@H](O)[C@@H](O)CO
REMARK SMILES IDX 5 1 7 2 9 3 10 4 8 6 3 8 2 9 1 10 4 12 6 14
REMARK H PARENT 10 5 8 7 1 11 4 13 6 15
REMARK Flexibility Score: inf
ROOT
ATOM      1  C   UNL     1      14.059 264.602  40.140  1.00  0.00     0.176 C 
ENDROOT
BRANCH   1   2
ATOM      2  C   UNL     1      15.014 265.469  39.278  1.00  0.00     0.171 C 
BRANCH   2   3
ATOM      3  C   UNL     1      15.757 264.671  38.194  1.00  0.00     0.190 C 
BRANCH   3   4
ATOM      4  O   UNL     1      16.729 263.846  38.779  1.00  0.00    -0.394 OA
ATOM      5  H   UNL     1      16.243 263.116  39.245  1.00  0.00     0.210 HD
ENDBRANCH   3   4
ENDBRANCH   2   3
BRANCH   2   6
ATOM      6  O   UNL     1      15.952 266.123  40.095  1.00  0.00    -0.388 OA
ATOM      7  H   UNL     1      16.846 265.764  39.853  1.00  0.00     0.211 HD
ENDBRANCH   2   6
ENDBRANCH   1   2
BRANCH   1   8
ATOM      8  C   UNL     1      13.060 265.435  40.993  1.00  0.00     0.171 C 
BRANCH   8   9
ATOM      9  C   UNL     1      13.324 265.270  42.502  1.00  0.00     0.190 C 
BRANCH   9  10
ATOM     10  O   UNL     1      14.593 265.766  42.834  1.00  0.00    -0.394 OA
ATOM     11  H   UNL     1      15.236 265.024  42.691  1.00  0.00     0.210 HD
ENDBRANCH   9  10
ENDBRANCH   8   9
BRANCH   8  12
ATOM     12  O   UNL     1      13.081 266.795  40.634  1.00  0.00    -0.388 OA
ATOM     13  H   UNL     1      13.857 267.219  41.086  1.00  0.00     0.211 HD
ENDBRANCH   8  12
ENDBRANCH   1   8
BRANCH   1  14
ATOM     14  O   UNL     1      14.817 263.741  40.954  1.00  0.00    -0.388 OA
ATOM     15  H   UNL     1      15.745 263.747  40.603  1.00  0.00     0.211 HD
ENDBRANCH   1  14
TORSDOF 9
ENDMDL
MODEL 2
REMARK VINA RESULT:    -3.784     14.130     15.698
REMARK INTER + INTRA:          -6.173
REMARK INTER:                  -5.684
REMARK INTRA:                  -0.489
REMARK UNBOUND:                -0.951
REMARK SMILES OC[C@@H](O)[C@H](O)[C@@H](O)CO
REMARK SMILES IDX 5 1 7 2 9 3 10 4 8 6 3 8 2 9 1 10 4 12 6 14
REMARK H PARENT 10 5 8 7 1 11 4 13 6 15
REMARK Flexibility Score: inf
ROOT
ATOM      1  C   UNL     1      24.352 257.406  31.916  1.00  0.00     0.176 C 
ENDROOT
BRANCH   1   2
ATOM      2  C   UNL     1      24.643 258.928  31.831  1.00  0.00     0.171 C 
BRANCH   2   3
ATOM      3  C   UNL     1      23.389 259.778  31.564  1.00  0.00     0.190 C 
BRANCH   3   4
ATOM      4  O   UNL     1      23.282 260.069  30.197  1.00  0.00    -0.394 OA
ATOM      5  H   UNL     1      24.203 260.238  29.866  1.00  0.00     0.210 HD
ENDBRANCH   3   4
ENDBRANCH   2   3
BRANCH   2   6
ATOM      6  O   UNL     1      25.598 259.188  30.833  1.00  0.00    -0.388 OA
ATOM      7  H   UNL     1      26.376 258.600  31.018  1.00  0.00     0.211 HD
ENDBRANCH   2   6
ENDBRANCH   1   2
BRANCH   1   8
ATOM      8  C   UNL     1      25.597 256.517  31.635  1.00  0.00     0.171 C 
BRANCH   8   9
ATOM      9  C   UNL     1      25.626 255.275  32.546  1.00  0.00     0.190 C 
BRANCH   9  10
ATOM     10  O   UNL     1      25.106 255.583  33.812  1.00  0.00    -0.394 OA
ATOM     11  H   UNL     1      25.803 255.338  34.474  1.00  0.00     0.210 HD
ENDBRANCH   9  10
ENDBRANCH   8   9
BRANCH   8  12
ATOM     12  O   UNL     1      25.671 256.140  30.282  1.00  0.00    -0.388 OA
ATOM     13  H   UNL     1      26.580 256.363  29.951  1.00  0.00     0.211 HD
ENDBRANCH   8  12
ENDBRANCH   1   8
BRANCH   1  14
ATOM     14  O   UNL     1      23.298 257.083  31.042  1.00  0.00    -0.388 OA
ATOM     15  H   UNL     1      23.451 256.152  30.731  1.00  0.00     0.211 HD
ENDBRANCH   1  14
TORSDOF 9
ENDMDL
MODEL 3
REMARK VINA RESULT:    -3.754      8.828     10.161
REMARK INTER + INTRA:          -6.132
REMARK INTER:                  -5.416
REMARK INTRA:                  -0.716
REMARK UNBOUND:                -0.951
REMARK SMILES OC[C@@H](O)[C@H](O)[C@@H](O)CO
REMARK SMILES IDX 5 1 7 2 9 3 10 4 8 6 3 8 2 9 1 10 4 12 6 14
REMARK H PARENT 10 5 8 7 1 11 4 13 6 15
REMARK Flexibility Score: inf
ROOT
ATOM      1  C   UNL     1      13.759 261.834  31.901  1.00  0.00     0.176 C 
ENDROOT
BRANCH   1   2
ATOM      2  C   UNL     1      14.434 263.176  32.288  1.00  0.00     0.171 C 
BRANCH   2   3
ATOM      3  C   UNL     1      13.433 264.317  32.532  1.00  0.00     0.190 C 
BRANCH   3   4
ATOM      4  O   UNL     1      13.152 264.982  31.329  1.00  0.00    -0.394 OA
ATOM      5  H   UNL     1      13.700 265.810  31.325  1.00  0.00     0.210 HD
ENDBRANCH   3   4
ENDBRANCH   2   3
BRANCH   2   6
ATOM      6  O   UNL     1      15.348 263.567  31.296  1.00  0.00    -0.388 OA
ATOM      7  H   UNL     1      14.907 263.416  30.419  1.00  0.00     0.211 HD
ENDBRANCH   2   6
ENDBRANCH   1   2
BRANCH   1   8
ATOM      8  C   UNL     1      14.647 260.927  31.001  1.00  0.00     0.171 C 
BRANCH   8   9
ATOM      9  C   UNL     1      14.363 259.432  31.243  1.00  0.00     0.190 C 
BRANCH   9  10
ATOM     10  O   UNL     1      13.020 259.241  31.602  1.00  0.00    -0.394 OA
ATOM     11  H   UNL     1      12.897 259.672  32.488  1.00  0.00     0.210 HD
ENDBRANCH   9  10
ENDBRANCH   8   9
BRANCH   8  12
ATOM     12  O   UNL     1      14.498 261.244  29.638  1.00  0.00    -0.388 OA
ATOM     13  H   UNL     1      15.300 260.909  29.157  1.00  0.00     0.211 HD
ENDBRANCH   8  12
ENDBRANCH   1   8
BRANCH   1  14
ATOM     14  O   UNL     1      12.522 262.094  31.284  1.00  0.00    -0.388 OA
ATOM     15  H   UNL     1      12.125 261.217  31.042  1.00  0.00     0.211 HD
ENDBRANCH   1  14
TORSDOF 9
ENDMDL
MODEL 4
REMARK VINA RESULT:    -3.675     13.672     14.671
REMARK INTER + INTRA:          -6.022
REMARK INTER:                  -5.345
REMARK INTRA:                  -0.677
REMARK UNBOUND:                -0.951
REMARK SMILES OC[C@@H](O)[C@H](O)[C@@H](O)CO
REMARK SMILES IDX 5 1 7 2 9 3 10 4 8 6 3 8 2 9 1 10 4 12 6 14
REMARK H PARENT 10 5 8 7 1 11 4 13 6 15
REMARK Flexibility Score: inf
ROOT
ATOM      1  C   UNL     1      23.348 258.522  31.858  1.00  0.00     0.176 C 
ENDROOT
BRANCH   1   2
ATOM      2  C   UNL     1      24.600 259.431  31.976  1.00  0.00     0.171 C 
BRANCH   2   3
ATOM      3  C   UNL     1      24.262 260.925  32.110  1.00  0.00     0.190 C 
BRANCH   3   4
ATOM      4  O   UNL     1      23.586 261.374  30.966  1.00  0.00    -0.394 OA
ATOM      5  H   UNL     1      22.833 260.745  30.813  1.00  0.00     0.210 HD
ENDBRANCH   3   4
ENDBRANCH   2   3
BRANCH   2   6
ATOM      6  O   UNL     1      25.445 259.245  30.869  1.00  0.00    -0.388 OA
ATOM      7  H   UNL     1      26.248 258.760  31.196  1.00  0.00     0.211 HD
ENDBRANCH   2   6
ENDBRANCH   1   2
BRANCH   1   8
ATOM      8  C   UNL     1      23.657 257.009  32.044  1.00  0.00     0.171 C 
BRANCH   8   9
ATOM      9  C   UNL     1      22.397 256.215  32.440  1.00  0.00     0.190 C 
BRANCH   9  10
ATOM     10  O   UNL     1      21.467 256.218  31.390  1.00  0.00    -0.394 OA
ATOM     11  H   UNL     1      21.975 256.411  30.559  1.00  0.00     0.210 HD
ENDBRANCH   9  10
ENDBRANCH   8   9
BRANCH   8  12
ATOM     12  O   UNL     1      24.249 256.456  30.893  1.00  0.00    -0.388 OA
ATOM     13  H   UNL     1      24.341 255.477  31.037  1.00  0.00     0.211 HD
ENDBRANCH   8  12
ENDBRANCH   1   8
BRANCH   1  14
ATOM     14  O   UNL     1      22.716 258.757  30.624  1.00  0.00    -0.388 OA
ATOM     15  H   UNL     1      21.789 259.054  30.821  1.00  0.00     0.211 HD
ENDBRANCH   1  14
TORSDOF 9
ENDMDL
MODEL 5
REMARK VINA RESULT:    -3.672     13.331     14.627
REMARK INTER + INTRA:          -6.019
REMARK INTER:                  -5.335
REMARK INTRA:                  -0.684
REMARK UNBOUND:                -0.951
REMARK SMILES OC[C@@H](O)[C@H](O)[C@@H](O)CO
REMARK SMILES IDX 5 1 7 2 9 3 10 4 8 6 3 8 2 9 1 10 4 12 6 14
REMARK H PARENT 10 5 8 7 1 11 4 13 6 15
REMARK Flexibility Score: inf
ROOT
ATOM      1  C   UNL     1      24.163 259.310  31.768  1.00  0.00     0.176 C 
ENDROOT
BRANCH   1   2
ATOM      2  C   UNL     1      23.643 257.855  31.914  1.00  0.00     0.171 C 
BRANCH   2   3
ATOM      3  C   UNL     1      24.758 256.798  31.863  1.00  0.00     0.190 C 
BRANCH   3   4
ATOM      4  O   UNL     1      24.868 256.270  30.569  1.00  0.00    -0.394 OA
ATOM      5  H   UNL     1      24.387 256.893  29.963  1.00  0.00     0.210 HD
ENDBRANCH   3   4
ENDBRANCH   2   3
BRANCH   2   6
ATOM      6  O   UNL     1      22.693 257.574  30.918  1.00  0.00    -0.388 OA
ATOM      7  H   UNL     1      22.253 256.720  31.171  1.00  0.00     0.211 HD
ENDBRANCH   2   6
ENDBRANCH   1   2
BRANCH   1   8
ATOM      8  C   UNL     1      23.091 260.304  31.237  1.00  0.00     0.171 C 
BRANCH   8   9
ATOM      9  C   UNL     1      23.295 261.720  31.810  1.00  0.00     0.190 C 
BRANCH   9  10
ATOM     10  O   UNL     1      24.621 262.137  31.624  1.00  0.00    -0.394 OA
ATOM     11  H   UNL     1      25.178 261.316  31.603  1.00  0.00     0.210 HD
ENDBRANCH   9  10
ENDBRANCH   8   9
BRANCH   8  12
ATOM     12  O   UNL     1      23.067 260.339  29.831  1.00  0.00    -0.388 OA
ATOM     13  H   UNL     1      23.798 259.754  29.499  1.00  0.00     0.211 HD
ENDBRANCH   8  12
ENDBRANCH   1   8
BRANCH   1  14
ATOM     14  O   UNL     1      25.304 259.317  30.945  1.00  0.00    -0.388 OA
ATOM     15  H   UNL     1      26.066 259.004  31.499  1.00  0.00     0.211 HD
ENDBRANCH   1  14
TORSDOF 9
ENDMDL
MODEL 6
REMARK VINA RESULT:    -3.669      1.301      3.879
REMARK INTER + INTRA:          -6.014
REMARK INTER:                  -5.103
REMARK INTRA:                  -0.911
REMARK UNBOUND:                -0.951
REMARK SMILES OC[C@@H](O)[C@H](O)[C@@H](O)CO
REMARK SMILES IDX 5 1 7 2 9 3 10 4 8 6 3 8 2 9 1 10 4 12 6 14
REMARK H PARENT 10 5 8 7 1 11 4 13 6 15
REMARK Flexibility Score: inf
ROOT
ATOM      1  C   UNL     1      13.625 265.811  39.818  1.00  0.00     0.176 C 
ENDROOT
BRANCH   1   2
ATOM      2  C   UNL     1      13.512 264.730  40.926  1.00  0.00     0.171 C 
BRANCH   2   3
ATOM      3  C   UNL     1      13.264 265.312  42.327  1.00  0.00     0.190 C 
BRANCH   3   4
ATOM      4  O   UNL     1      14.468 265.765  42.885  1.00  0.00    -0.394 OA
ATOM      5  H   UNL     1      15.045 264.967  43.008  1.00  0.00     0.210 HD
ENDBRANCH   3   4
ENDBRANCH   2   3
BRANCH   2   6
ATOM      6  O   UNL     1      14.672 263.937  40.954  1.00  0.00    -0.388 OA
ATOM      7  H   UNL     1      14.724 263.532  41.859  1.00  0.00     0.211 HD
ENDBRANCH   2   6
ENDBRANCH   1   2
BRANCH   1   8
ATOM      8  C   UNL     1      15.054 265.939  39.216  1.00  0.00     0.171 C 
BRANCH   8   9
ATOM      9  C   UNL     1      15.097 266.960  38.063  1.00  0.00     0.190 C 
BRANCH   9  10
ATOM     10  O   UNL     1      13.810 267.167  37.545  1.00  0.00    -0.394 OA
ATOM     11  H   UNL     1      13.924 267.450  36.600  1.00  0.00     0.210 HD
ENDBRANCH   9  10
ENDBRANCH   8   9
BRANCH   8  12
ATOM     12  O   UNL     1      16.004 266.267  40.201  1.00  0.00    -0.388 OA
ATOM     13  H   UNL     1      16.568 265.465  40.361  1.00  0.00     0.211 HD
ENDBRANCH   8  12
ENDBRANCH   1   8
BRANCH   1  14
ATOM     14  O   UNL     1      13.183 267.046  40.325  1.00  0.00    -0.388 OA
ATOM     15  H   UNL     1      13.495 267.749  39.697  1.00  0.00     0.211 HD
ENDBRANCH   1  14
TORSDOF 9
ENDMDL
MODEL 7
REMARK VINA RESULT:    -3.632      8.434     10.127
REMARK INTER + INTRA:          -5.963
REMARK INTER:                  -5.375
REMARK INTRA:                  -0.587
REMARK UNBOUND:                -0.951
REMARK SMILES OC[C@@H](O)[C@H](O)[C@@H](O)CO
REMARK SMILES IDX 5 1 7 2 9 3 10 4 8 6 3 8 2 9 1 10 4 12 6 14
REMARK H PARENT 10 5 8 7 1 11 4 13 6 15
REMARK Flexibility Score: inf
ROOT
ATOM      1  C   UNL     1      20.765 266.719  33.440  1.00  0.00     0.176 C 
ENDROOT
BRANCH   1   2
ATOM      2  C   UNL     1      19.402 265.994  33.601  1.00  0.00     0.171 C 
BRANCH   2   3
ATOM      3  C   UNL     1      19.113 264.979  32.482  1.00  0.00     0.190 C 
BRANCH   3   4
ATOM      4  O   UNL     1      18.650 265.640  31.335  1.00  0.00    -0.394 OA
ATOM      5  H   UNL     1      17.766 265.244  31.113  1.00  0.00     0.210 HD
ENDBRANCH   3   4
ENDBRANCH   2   3
BRANCH   2   6
ATOM      6  O   UNL     1      18.355 266.930  33.658  1.00  0.00    -0.388 OA
ATOM      7  H   UNL     1      18.311 267.370  32.769  1.00  0.00     0.211 HD
ENDBRANCH   2   6
ENDBRANCH   1   2
BRANCH   1   8
ATOM      8  C   UNL     1      20.640 268.267  33.352  1.00  0.00     0.171 C 
BRANCH   8   9
ATOM      9  C   UNL     1      22.008 268.958  33.514  1.00  0.00     0.190 C 
BRANCH   9  10
ATOM     10  O   UNL     1      22.261 269.803  32.423  1.00  0.00    -0.394 OA
ATOM     11  H   UNL     1      21.412 269.876  31.914  1.00  0.00     0.210 HD
ENDBRANCH   9  10
ENDBRANCH   8   9
BRANCH   8  12
ATOM     12  O   UNL     1      20.022 268.669  32.153  1.00  0.00    -0.388 OA
ATOM     13  H   UNL     1      19.041 268.571  32.268  1.00  0.00     0.211 HD
ENDBRANCH   8  12
ENDBRANCH   1   8
BRANCH   1  14
ATOM     14  O   UNL     1      21.438 266.205  32.317  1.00  0.00    -0.388 OA
ATOM     15  H   UNL     1      22.331 266.636  32.289  1.00  0.00     0.211 HD
ENDBRANCH   1  14
TORSDOF 9
ENDMDL
MODEL 8
REMARK VINA RESULT:    -3.627      7.687      8.735
REMARK INTER + INTRA:          -5.957
REMARK INTER:                  -5.010
REMARK INTRA:                  -0.946
REMARK UNBOUND:                -0.951
REMARK SMILES OC[C@@H](O)[C@H](O)[C@@H](O)CO
REMARK SMILES IDX 5 1 7 2 9 3 10 4 8 6 3 8 2 9 1 10 4 12 6 14
REMARK H PARENT 10 5 8 7 1 11 4 13 6 15
REMARK Flexibility Score: inf
ROOT
ATOM      1  C   UNL     1      12.514 257.708  37.592  1.00  0.00     0.176 C 
ENDROOT
BRANCH   1   2
ATOM      2  C   UNL     1      13.825 258.014  38.363  1.00  0.00     0.171 C 
BRANCH   2   3
ATOM      3  C   UNL     1      14.508 256.760  38.931  1.00  0.00     0.190 C 
BRANCH   3   4
ATOM      4  O   UNL     1      13.713 256.183  39.931  1.00  0.00    -0.394 OA
ATOM      5  H   UNL     1      12.905 255.820  39.482  1.00  0.00     0.210 HD
ENDBRANCH   3   4
ENDBRANCH   2   3
BRANCH   2   6
ATOM      6  O   UNL     1      13.576 258.918  39.410  1.00  0.00    -0.388 OA
ATOM      7  H   UNL     1      12.710 258.657  39.819  1.00  0.00     0.211 HD
ENDBRANCH   2   6
ENDBRANCH   1   2
BRANCH   1   8
ATOM      8  C   UNL     1      11.227 258.133  38.357  1.00  0.00     0.171 C 
BRANCH   8   9
ATOM      9  C   UNL     1      10.012 258.233  37.415  1.00  0.00     0.190 C 
BRANCH   9  10
ATOM     10  O   UNL     1       9.840 257.033  36.709  1.00  0.00    -0.394 OA
ATOM     11  H   UNL     1      10.011 256.296  37.351  1.00  0.00     0.210 HD
ENDBRANCH   9  10
ENDBRANCH   8   9
BRANCH   8  12
ATOM     12  O   UNL     1      10.952 257.266  39.429  1.00  0.00    -0.388 OA
ATOM     13  H   UNL     1       9.985 257.344  39.645  1.00  0.00     0.211 HD
ENDBRANCH   8  12
ENDBRANCH   1   8
BRANCH   1  14
ATOM     14  O   UNL     1      12.473 256.341  37.264  1.00  0.00    -0.388 OA
ATOM     15  H   UNL     1      13.412 256.040  37.147  1.00  0.00     0.211 HD
ENDBRANCH   1  14
TORSDOF 9
ENDMDL
MODEL 9
REMARK VINA RESULT:    -3.537      5.118      6.487
REMARK INTER + INTRA:          -5.832
REMARK INTER:                  -5.131
REMARK INTRA:                  -0.701
REMARK UNBOUND:                -0.951
REMARK SMILES OC[C@@H](O)[C@H](O)[C@@H](O)CO
REMARK SMILES IDX 5 1 7 2 9 3 10 4 8 6 3 8 2 9 1 10 4 12 6 14
REMARK H PARENT 10 5 8 7 1 11 4 13 6 15
REMARK Flexibility Score: inf
ROOT
ATOM      1  C   UNL     1      11.900 268.426  36.952  1.00  0.00     0.176 C 
ENDROOT
BRANCH   1   2
ATOM      2  C   UNL     1      11.594 268.239  38.462  1.00  0.00     0.171 C 
BRANCH   2   3
ATOM      3  C   UNL     1      12.837 267.895  39.300  1.00  0.00     0.190 C 
BRANCH   3   4
ATOM      4  O   UNL     1      13.936 267.655  38.463  1.00  0.00    -0.394 OA
ATOM      5  H   UNL     1      13.578 267.260  37.625  1.00  0.00     0.210 HD
ENDBRANCH   3   4
ENDBRANCH   2   3
BRANCH   2   6
ATOM      6  O   UNL     1      10.623 267.241  38.644  1.00  0.00    -0.388 OA
ATOM      7  H   UNL     1       9.739 267.664  38.478  1.00  0.00     0.211 HD
ENDBRANCH   2   6
ENDBRANCH   1   2
BRANCH   1   8
ATOM      8  C   UNL     1      10.892 269.362  36.224  1.00  0.00     0.171 C 
BRANCH   8   9
ATOM      9  C   UNL     1      10.758 269.003  34.732  1.00  0.00     0.190 C 
BRANCH   9  10
ATOM     10  O   UNL     1       9.650 268.167  34.528  1.00  0.00    -0.394 OA
ATOM     11  H   UNL     1       9.931 267.251  34.786  1.00  0.00     0.210 HD
ENDBRANCH   9  10
ENDBRANCH   8   9
BRANCH   8  12
ATOM     12  O   UNL     1       9.632 269.354  36.850  1.00  0.00    -0.388 OA
ATOM     13  H   UNL     1       9.466 268.436  37.191  1.00  0.00     0.211 HD
ENDBRANCH   8  12
ENDBRANCH   1   8
BRANCH   1  14
ATOM     14  O   UNL     1      11.955 267.167  36.328  1.00  0.00    -0.388 OA
ATOM     15  H   UNL     1      11.760 266.486  37.023  1.00  0.00     0.211 HD
ENDBRANCH   1  14
TORSDOF 9
ENDMDL
