MODEL 1
REMARK VINA RESULT:    -4.399      0.000      0.000
REMARK INTER + INTRA:          -4.663
REMARK INTER:                  -5.427
REMARK INTRA:                   0.764
REMARK UNBOUND:                 0.764
REMARK SMILES CC1=CC=CC(C)(C)CC1=O
REMARK SMILES IDX 1 1 2 2 3 3 10 4 11 5 9 6 4 8 5 9 6 10 7 11 8 12
REMARK H PARENT
REMARK Flexibility Score: 80.00
ROOT
ATOM      1  C   UNL     1       1.305 147.138  -6.096  1.00  0.00     0.048 C 
ATOM      2  C   UNL     1       2.331 146.290  -6.811  1.00  0.00    -0.008 C 
ATOM      3  C   UNL     1       1.892 145.472  -7.792  1.00  0.00     0.007 C 
ENDROOT
BRANCH   2   4
ATOM      4  C   UNL     1       3.752 146.481  -6.427  1.00  0.00     0.159 C 
ATOM      5  O   UNL     1       4.055 147.455  -5.684  1.00  0.00    -0.295 OA
BRANCH   4   6
ATOM      6  C   UNL     1       4.855 145.568  -6.864  1.00  0.00     0.091 CG0
ATOM      7  G   UNL     1       5.004 145.483  -8.400  1.00  0.00     0.000 G0
ENDBRANCH   4   6
ENDBRANCH   2   4
BRANCH   3   8
ATOM      8  C   UNL     1       2.649 144.554  -8.675  1.00  0.00    -0.003 C 
ATOM      9  C   UNL     1       3.958 144.544  -8.958  1.00  0.00    -0.020 C 
BRANCH   9  10
ATOM     10  C   UNL     1       5.004 145.479  -8.400  1.00  0.00    -0.010 CG0
ATOM     11  C   UNL     1       4.903 146.858  -9.093  1.00  0.00     0.016 C 
ATOM     12  C   UNL     1       6.399 144.890  -8.713  1.00  0.00     0.016 C 
ATOM     13  G   UNL     1       4.855 145.573  -6.865  1.00  0.00     0.000 G0
ENDBRANCH   9  10
ENDBRANCH   3   8
TORSDOF 0
ENDMDL
MODEL 2
REMARK VINA RESULT:    -3.925      1.599      2.518
REMARK INTER + INTRA:          -4.079
REMARK INTER:                  -4.838
REMARK INTRA:                   0.759
REMARK UNBOUND:                 0.764
REMARK SMILES CC1=CC=CC(C)(C)CC1=O
REMARK SMILES IDX 1 1 2 2 3 3 10 4 11 5 9 6 4 8 5 9 6 10 7 11 8 12
REMARK H PARENT
REMARK Flexibility Score: 80.00
ROOT
ATOM      1  C   UNL     1       0.739 146.144  -6.589  1.00  0.00     0.048 C 
ATOM      2  C   UNL     1       2.192 146.260  -6.984  1.00  0.00    -0.008 C 
ATOM      3  C   UNL     1       3.031 146.866  -6.116  1.00  0.00     0.007 C 
ENDROOT
BRANCH   2   4
ATOM      4  C   UNL     1       2.596 145.630  -8.267  1.00  0.00     0.159 C 
ATOM      5  O   UNL     1       1.776 144.874  -8.857  1.00  0.00    -0.295 OA
BRANCH   4   6
ATOM      6  C   UNL     1       3.928 145.852  -8.912  1.00  0.00     0.091 CG0
ATOM      7  G   UNL     1       5.116 145.420  -8.024  1.00  0.00     0.000 G0
ENDBRANCH   4   6
ENDBRANCH   2   4
BRANCH   3   8
ATOM      8  C   UNL     1       4.490 147.102  -6.211  1.00  0.00    -0.003 C 
ATOM      9  C   UNL     1       5.394 146.498  -6.994  1.00  0.00    -0.020 C 
BRANCH   9  10
ATOM     10  C   UNL     1       5.119 145.421  -8.016  1.00  0.00    -0.010 CG0
ATOM     11  C   UNL     1       4.887 144.068  -7.307  1.00  0.00     0.016 C 
ATOM     12  C   UNL     1       6.366 145.279  -8.919  1.00  0.00     0.016 C 
ATOM     13  G   UNL     1       3.927 145.839  -8.906  1.00  0.00     0.000 G0
ENDBRANCH   9  10
ENDBRANCH   3   8
TORSDOF 0
ENDMDL
MODEL 3
REMARK VINA RESULT:    -3.545      1.670      3.624
REMARK INTER + INTRA:          -3.610
REMARK INTER:                  -4.361
REMARK INTRA:                   0.752
REMARK UNBOUND:                 0.764
REMARK SMILES CC1=CC=CC(C)(C)CC1=O
REMARK SMILES IDX 1 1 2 2 3 3 10 4 11 5 9 6 4 8 5 9 6 10 7 11 8 12
REMARK H PARENT
REMARK Flexibility Score: 80.00
ROOT
ATOM      1  C   UNL     1       6.571 144.355  -8.792  1.00  0.00     0.048 C 
ATOM      2  C   UNL     1       5.129 144.494  -8.365  1.00  0.00    -0.008 C 
ATOM      3  C   UNL     1       4.528 143.410  -7.830  1.00  0.00     0.007 C 
ENDROOT
BRANCH   2   4
ATOM      4  C   UNL     1       4.510 145.837  -8.500  1.00  0.00     0.159 C 
ATOM      5  O   UNL     1       5.250 146.823  -8.768  1.00  0.00    -0.295 OA
BRANCH   4   6
ATOM      6  C   UNL     1       3.042 146.089  -8.348  1.00  0.00     0.091 CG0
ATOM      7  G   UNL     1       2.495 145.690  -6.960  1.00  0.00     0.000 G0
ENDBRANCH   4   6
ENDBRANCH   2   4
BRANCH   3   8
ATOM      8  C   UNL     1       3.153 143.248  -7.302  1.00  0.00    -0.003 C 
ATOM      9  C   UNL     1       2.281 144.188  -6.915  1.00  0.00    -0.020 C 
BRANCH   9  10
ATOM     10  C   UNL     1       2.495 145.682  -6.956  1.00  0.00    -0.010 CG0
ATOM     11  C   UNL     1       3.411 146.116  -5.788  1.00  0.00     0.016 C 
ATOM     12  C   UNL     1       1.126 146.375  -6.770  1.00  0.00     0.016 C 
ATOM     13  G   UNL     1       3.058 146.091  -8.335  1.00  0.00     0.000 G0
ENDBRANCH   9  10
ENDBRANCH   3   8
TORSDOF 0
ENDMDL
MODEL 4
REMARK VINA RESULT:    -3.414      1.610      2.667
REMARK INTER + INTRA:          -3.449
REMARK INTER:                  -4.207
REMARK INTRA:                   0.758
REMARK UNBOUND:                 0.764
REMARK SMILES CC1=CC=CC(C)(C)CC1=O
REMARK SMILES IDX 1 1 2 2 3 3 10 4 11 5 9 6 4 8 5 9 6 10 7 11 8 12
REMARK H PARENT
REMARK Flexibility Score: 80.00
ROOT
ATOM      1  C   UNL     1       4.534 147.772  -5.639  1.00  0.00     0.048 C 
ATOM      2  C   UNL     1       4.578 146.738  -6.739  1.00  0.00    -0.008 C 
ATOM      3  C   UNL     1       5.535 146.869  -7.684  1.00  0.00     0.007 C 
ENDROOT
BRANCH   2   4
ATOM      4  C   UNL     1       3.610 145.616  -6.650  1.00  0.00     0.159 C 
ATOM      5  O   UNL     1       2.943 145.471  -5.589  1.00  0.00    -0.295 OA
BRANCH   4   6
ATOM      6  C   UNL     1       3.369 144.643  -7.763  1.00  0.00     0.091 CG0
ATOM      7  G   UNL     1       4.640 143.874  -8.187  1.00  0.00     0.000 G0
ENDBRANCH   4   6
ENDBRANCH   2   4
BRANCH   3   8
ATOM      8  C   UNL     1       5.841 146.012  -8.852  1.00  0.00    -0.003 C 
ATOM      9  C   UNL     1       5.484 144.742  -9.085  1.00  0.00    -0.020 C 
BRANCH   9  10
ATOM     10  C   UNL     1       4.633 143.871  -8.192  1.00  0.00    -0.010 CG0
ATOM     11  C   UNL     1       5.468 143.374  -6.989  1.00  0.00     0.016 C 
ATOM     12  C   UNL     1       4.184 142.635  -9.004  1.00  0.00     0.016 C 
ATOM     13  G   UNL     1       3.369 144.647  -7.758  1.00  0.00     0.000 G0
ENDBRANCH   9  10
ENDBRANCH   3   8
TORSDOF 0
ENDMDL
MODEL 5
REMARK VINA RESULT:    -3.408      2.099      3.334
REMARK INTER + INTRA:          -3.441
REMARK INTER:                  -4.176
REMARK INTRA:                   0.734
REMARK UNBOUND:                 0.764
REMARK SMILES CC1=CC=CC(C)(C)CC1=O
REMARK SMILES IDX 1 1 2 2 3 3 10 4 11 5 9 6 4 8 5 9 6 10 7 11 8 12
REMARK H PARENT
REMARK Flexibility Score: 80.00
ROOT
ATOM      1  C   UNL     1       5.691 147.256  -9.081  1.00  0.00     0.048 C 
ATOM      2  C   UNL     1       4.855 146.254  -8.321  1.00  0.00    -0.008 C 
ATOM      3  C   UNL     1       3.674 146.676  -7.820  1.00  0.00     0.007 C 
ENDROOT
BRANCH   2   4
ATOM      4  C   UNL     1       5.367 144.862  -8.250  1.00  0.00     0.159 C 
ATOM      5  O   UNL     1       6.343 144.535  -8.980  1.00  0.00    -0.295 OA
BRANCH   4   6
ATOM      6  C   UNL     1       4.794 143.817  -7.344  1.00  0.00     0.091 CG0
ATOM      7  G   UNL     1       3.297 143.538  -7.603  1.00  0.00     0.000 G0
ENDBRANCH   4   6
ENDBRANCH   2   4
BRANCH   3   8
ATOM      8  C   UNL     1       2.640 145.931  -7.064  1.00  0.00    -0.003 C 
ATOM      9  C   UNL     1       2.456 144.607  -6.966  1.00  0.00    -0.020 C 
BRANCH   9  10
ATOM     10  C   UNL     1       3.306 143.534  -7.601  1.00  0.00    -0.010 CG0
ATOM     11  C   UNL     1       2.956 143.401  -9.101  1.00  0.00     0.016 C 
ATOM     12  C   UNL     1       2.981 142.187  -6.914  1.00  0.00     0.016 C 
ATOM     13  G   UNL     1       4.801 143.845  -7.365  1.00  0.00     0.000 G0
ENDBRANCH   9  10
ENDBRANCH   3   8
TORSDOF 0
ENDMDL
MODEL 6
REMARK VINA RESULT:    -3.267      1.825      3.140
REMARK INTER + INTRA:          -3.267
REMARK INTER:                  -4.019
REMARK INTRA:                   0.751
REMARK UNBOUND:                 0.764
REMARK SMILES CC1=CC=CC(C)(C)CC1=O
REMARK SMILES IDX 1 1 2 2 3 3 10 4 11 5 9 6 4 8 5 9 6 10 7 11 8 12
REMARK H PARENT
REMARK Flexibility Score: 80.00
ROOT
ATOM      1  C   UNL     1       2.495 142.399  -8.953  1.00  0.00     0.048 C 
ATOM      2  C   UNL     1       3.304 143.344  -8.096  1.00  0.00    -0.008 C 
ATOM      3  C   UNL     1       4.575 142.992  -7.803  1.00  0.00     0.007 C 
ENDROOT
BRANCH   2   4
ATOM      4  C   UNL     1       2.658 144.623  -7.705  1.00  0.00     0.159 C 
ATOM      5  O   UNL     1       1.585 144.962  -8.277  1.00  0.00    -0.295 OA
BRANCH   4   6
ATOM      6  C   UNL     1       3.206 145.537  -6.654  1.00  0.00     0.091 CG0
ATOM      7  G   UNL     1       4.616 146.074  -6.986  1.00  0.00     0.000 G0
ENDBRANCH   4   6
ENDBRANCH   2   4
BRANCH   3   8
ATOM      8  C   UNL     1       5.605 143.712  -7.020  1.00  0.00    -0.003 C 
ATOM      9  C   UNL     1       5.656 145.008  -6.682  1.00  0.00    -0.020 C 
BRANCH   9  10
ATOM     10  C   UNL     1       4.625 146.061  -7.007  1.00  0.00    -0.010 CG0
ATOM     11  C   UNL     1       4.763 146.496  -8.484  1.00  0.00     0.016 C 
ATOM     12  C   UNL     1       4.896 147.298  -6.119  1.00  0.00     0.016 C 
ATOM     13  G   UNL     1       3.213 145.530  -6.673  1.00  0.00     0.000 G0
ENDBRANCH   9  10
ENDBRANCH   3   8
TORSDOF 0
ENDMDL
MODEL 7
REMARK VINA RESULT:    -3.214      1.495      2.321
REMARK INTER + INTRA:          -3.202
REMARK INTER:                  -3.974
REMARK INTRA:                   0.772
REMARK UNBOUND:                 0.764
REMARK SMILES CC1=CC=CC(C)(C)CC1=O
REMARK SMILES IDX 1 1 2 2 3 3 10 4 11 5 9 6 4 8 5 9 6 10 7 11 8 12
REMARK H PARENT
REMARK Flexibility Score: 80.00
ROOT
ATOM      1  C   UNL     1       4.424 147.893  -4.921  1.00  0.00     0.048 C 
ATOM      2  C   UNL     1       3.719 146.871  -5.780  1.00  0.00    -0.008 C 
ATOM      3  C   UNL     1       2.413 147.080  -6.058  1.00  0.00     0.007 C 
ENDROOT
BRANCH   2   4
ATOM      4  C   UNL     1       4.539 145.754  -6.313  1.00  0.00     0.159 C 
ATOM      5  O   UNL     1       5.795 145.816  -6.203  1.00  0.00    -0.295 OA
BRANCH   4   6
ATOM      6  C   UNL     1       3.957 144.541  -6.969  1.00  0.00     0.091 CG0
ATOM      7  G   UNL     1       3.111 144.870  -8.219  1.00  0.00     0.000 G0
ENDBRANCH   4   6
ENDBRANCH   2   4
BRANCH   3   8
ATOM      8  C   UNL     1       1.476 146.281  -6.881  1.00  0.00    -0.003 C 
ATOM      9  C   UNL     1       1.748 145.353  -7.809  1.00  0.00    -0.020 C 
BRANCH   9  10
ATOM     10  C   UNL     1       3.117 144.871  -8.222  1.00  0.00    -0.010 CG0
ATOM     11  C   UNL     1       3.798 145.925  -9.125  1.00  0.00     0.016 C 
ATOM     12  C   UNL     1       2.948 143.575  -9.047  1.00  0.00     0.016 C 
ATOM     13  G   UNL     1       3.953 144.536  -6.966  1.00  0.00     0.000 G0
ENDBRANCH   9  10
ENDBRANCH   3   8
TORSDOF 0
ENDMDL
MODEL 8
REMARK VINA RESULT:    -3.186      1.984      2.916
REMARK INTER + INTRA:          -3.167
REMARK INTER:                  -3.929
REMARK INTRA:                   0.761
REMARK UNBOUND:                 0.764
REMARK SMILES CC1=CC=CC(C)(C)CC1=O
REMARK SMILES IDX 1 1 2 2 3 3 10 4 11 5 9 6 4 8 5 9 6 10 7 11 8 12
REMARK H PARENT
REMARK Flexibility Score: 80.00
ROOT
ATOM      1  C   UNL     1       2.586 142.384  -7.062  1.00  0.00     0.048 C 
ATOM      2  C   UNL     1       3.090 143.710  -7.581  1.00  0.00    -0.008 C 
ATOM      3  C   UNL     1       2.377 144.814  -7.270  1.00  0.00     0.007 C 
ENDROOT
BRANCH   2   4
ATOM      4  C   UNL     1       4.371 143.700  -8.331  1.00  0.00     0.159 C 
ATOM      5  O   UNL     1       5.077 142.654  -8.314  1.00  0.00    -0.295 OA
BRANCH   4   6
ATOM      6  C   UNL     1       4.872 144.866  -9.124  1.00  0.00     0.091 CG0
ATOM      7  G   UNL     1       5.081 146.139  -8.273  1.00  0.00     0.000 G0
ENDBRANCH   4   6
ENDBRANCH   2   4
BRANCH   3   8
ATOM      8  C   UNL     1       2.629 146.235  -7.607  1.00  0.00    -0.003 C 
ATOM      9  C   UNL     1       3.764 146.817  -8.018  1.00  0.00    -0.020 C 
BRANCH   9  10
ATOM     10  C   UNL     1       5.085 146.129  -8.269  1.00  0.00    -0.010 CG0
ATOM     11  C   UNL     1       5.784 145.824  -6.925  1.00  0.00     0.016 C 
ATOM     12  C   UNL     1       5.990 147.094  -9.069  1.00  0.00     0.016 C 
ATOM     13  G   UNL     1       4.860 144.862  -9.123  1.00  0.00     0.000 G0
ENDBRANCH   9  10
ENDBRANCH   3   8
TORSDOF 0
ENDMDL
MODEL 9
REMARK VINA RESULT:    -3.170      2.002      3.937
REMARK INTER + INTRA:          -3.148
REMARK INTER:                  -4.171
REMARK INTRA:                   1.023
REMARK UNBOUND:                 0.764
REMARK SMILES CC1=CC=CC(C)(C)CC1=O
REMARK SMILES IDX 1 1 2 2 3 3 10 4 11 5 9 6 4 8 5 9 6 10 7 11 8 12
REMARK H PARENT
REMARK Flexibility Score: 80.00
ROOT
ATOM      1  C   UNL     1       5.416 142.996  -8.755  1.00  0.00     0.048 C 
ATOM      2  C   UNL     1       4.749 144.219  -8.168  1.00  0.00    -0.008 C 
ATOM      3  C   UNL     1       5.538 145.126  -7.553  1.00  0.00     0.007 C 
ENDROOT
BRANCH   2   4
ATOM      4  C   UNL     1       3.287 144.359  -8.383  1.00  0.00     0.159 C 
ATOM      5  O   UNL     1       2.627 143.350  -8.755  1.00  0.00    -0.295 OA
BRANCH   4   6
ATOM      6  C   UNL     1       2.541 145.639  -8.169  1.00  0.00     0.091 CG0
ATOM      7  G   UNL     1       2.652 146.177  -6.724  1.00  0.00     0.000 G0
ENDBRANCH   4   6
ENDBRANCH   2   4
BRANCH   3   8
ATOM      8  C   UNL     1       5.184 146.416  -6.915  1.00  0.00    -0.003 C 
ATOM      9  C   UNL     1       3.977 146.885  -6.571  1.00  0.00    -0.020 C 
BRANCH   9  10
ATOM     10  C   UNL     1       2.657 146.170  -6.733  1.00  0.00    -0.010 CG0
ATOM     11  C   UNL     1       1.494 147.119  -6.364  1.00  0.00     0.016 C 
ATOM     12  C   UNL     1       2.628 144.976  -5.751  1.00  0.00     0.016 C 
ATOM     13  G   UNL     1       2.538 145.614  -8.169  1.00  0.00     0.000 G0
ENDBRANCH   9  10
ENDBRANCH   3   8
TORSDOF 0
ENDMDL
