MODEL 1
REMARK VINA RESULT:    -3.206      0.000      0.000
REMARK INTER + INTRA:          -3.487
REMARK INTER:                  -3.487
REMARK INTRA:                   0.000
REMARK UNBOUND:                 0.000
REMARK SMILES C=CC(C)(C)O
REMARK SMILES IDX 4 1 3 2 5 3 2 4 1 5 6 6
REMARK H PARENT 6 7
REMARK Flexibility Score: inf
ROOT
ATOM      1  C   UNL     1      41.343 -40.851  -5.054  1.00  0.00     0.046 C 
ATOM      2  C   UNL     1      42.697 -40.503  -4.399  1.00  0.00     0.077 C 
ATOM      3  C   UNL     1      42.529 -40.535  -2.872  1.00  0.00     0.046 C 
ENDROOT
BRANCH   2   4
ATOM      4  C   UNL     1      43.764 -41.509  -4.803  1.00  0.00    -0.001 C 
ATOM      5  C   UNL     1      43.772 -42.119  -5.995  1.00  0.00     0.007 C 
ENDBRANCH   2   4
BRANCH   2   6
ATOM      6  O   UNL     1      43.098 -39.200  -4.755  1.00  0.00    -0.386 OA
ATOM      7  H   UNL     1      43.869 -38.942  -4.186  1.00  0.00     0.211 HD
ENDBRANCH   2   6
TORSDOF 2
ENDMDL
MODEL 2
REMARK VINA RESULT:    -3.038      0.647      2.244
REMARK INTER + INTRA:          -3.304
REMARK INTER:                  -3.304
REMARK INTRA:                   0.000
REMARK UNBOUND:                 0.000
REMARK SMILES C=CC(C)(C)O
REMARK SMILES IDX 4 1 3 2 5 3 2 4 1 5 6 6
REMARK H PARENT 6 7
REMARK Flexibility Score: inf
ROOT
ATOM      1  C   UNL     1      42.806 -40.518  -2.634  1.00  0.00     0.046 C 
ATOM      2  C   UNL     1      42.668 -40.346  -4.162  1.00  0.00     0.077 C 
ATOM      3  C   UNL     1      43.582 -41.366  -4.859  1.00  0.00     0.046 C 
ENDROOT
BRANCH   2   4
ATOM      4  C   UNL     1      41.231 -40.585  -4.602  1.00  0.00    -0.001 C 
ATOM      5  C   UNL     1      40.913 -41.315  -5.678  1.00  0.00     0.007 C 
ENDBRANCH   2   4
BRANCH   2   6
ATOM      6  O   UNL     1      43.088 -39.060  -4.555  1.00  0.00    -0.386 OA
ATOM      7  H   UNL     1      42.784 -38.901  -5.486  1.00  0.00     0.211 HD
ENDBRANCH   2   6
TORSDOF 2
ENDMDL
MODEL 3
REMARK VINA RESULT:    -2.924     23.595     24.396
REMARK INTER + INTRA:          -3.180
REMARK INTER:                  -3.180
REMARK INTRA:                   0.000
REMARK UNBOUND:                 0.000
REMARK SMILES C=CC(C)(C)O
REMARK SMILES IDX 4 1 3 2 5 3 2 4 1 5 6 6
REMARK H PARENT 6 7
REMARK Flexibility Score: inf
ROOT
ATOM      1  C   UNL     1      23.875 -23.318  -7.256  1.00  0.00     0.046 C 
ATOM      2  C   UNL     1      25.188 -23.987  -6.797  1.00  0.00     0.077 C 
ATOM      3  C   UNL     1      25.654 -24.962  -7.889  1.00  0.00     0.046 C 
ENDROOT
BRANCH   2   4
ATOM      4  C   UNL     1      26.271 -22.944  -6.567  1.00  0.00    -0.001 C 
ATOM      5  C   UNL     1      27.435 -23.225  -5.970  1.00  0.00     0.007 C 
ENDBRANCH   2   4
BRANCH   2   6
ATOM      6  O   UNL     1      24.977 -24.734  -5.621  1.00  0.00    -0.386 OA
ATOM      7  H   UNL     1      25.813 -25.225  -5.406  1.00  0.00     0.211 HD
ENDBRANCH   2   6
TORSDOF 2
ENDMDL
MODEL 4
REMARK VINA RESULT:    -2.864     23.966     24.627
REMARK INTER + INTRA:          -3.116
REMARK INTER:                  -3.116
REMARK INTRA:                   0.000
REMARK UNBOUND:                 0.000
REMARK SMILES C=CC(C)(C)O
REMARK SMILES IDX 4 1 3 2 5 3 2 4 1 5 6 6
REMARK H PARENT 6 7
REMARK Flexibility Score: inf
ROOT
ATOM      1  C   UNL     1      26.361 -23.078  -6.749  1.00  0.00     0.046 C 
ATOM      2  C   UNL     1      25.108 -23.980  -6.788  1.00  0.00     0.077 C 
ATOM      3  C   UNL     1      23.878 -23.106  -7.077  1.00  0.00     0.046 C 
ENDROOT
BRANCH   2   4
ATOM      4  C   UNL     1      25.237 -25.032  -7.878  1.00  0.00    -0.001 C 
ATOM      5  C   UNL     1      24.750 -24.861  -9.113  1.00  0.00     0.007 C 
ENDBRANCH   2   4
BRANCH   2   6
ATOM      6  O   UNL     1      24.906 -24.599  -5.538  1.00  0.00    -0.386 OA
ATOM      7  H   UNL     1      25.757 -24.563  -5.028  1.00  0.00     0.211 HD
ENDBRANCH   2   6
TORSDOF 2
ENDMDL
MODEL 5
REMARK VINA RESULT:    -2.786      1.575      2.049
REMARK INTER + INTRA:          -3.030
REMARK INTER:                  -3.030
REMARK INTRA:                   0.000
REMARK UNBOUND:                 0.000
REMARK SMILES C=CC(C)(C)O
REMARK SMILES IDX 4 1 3 2 5 3 2 4 1 5 6 6
REMARK H PARENT 6 7
REMARK Flexibility Score: inf
ROOT
ATOM      1  C   UNL     1      41.756 -38.782  -4.461  1.00  0.00     0.046 C 
ATOM      2  C   UNL     1      41.727 -40.313  -4.269  1.00  0.00     0.077 C 
ATOM      3  C   UNL     1      40.792 -40.926  -5.322  1.00  0.00     0.046 C 
ENDROOT
BRANCH   2   4
ATOM      4  C   UNL     1      43.119 -40.902  -4.437  1.00  0.00    -0.001 C 
ATOM      5  C   UNL     1      43.498 -41.568  -5.534  1.00  0.00     0.007 C 
ENDBRANCH   2   4
BRANCH   2   6
ATOM      6  O   UNL     1      41.211 -40.642  -2.999  1.00  0.00    -0.386 OA
ATOM      7  H   UNL     1      41.284 -39.843  -2.414  1.00  0.00     0.211 HD
ENDBRANCH   2   6
TORSDOF 2
ENDMDL
MODEL 6
REMARK VINA RESULT:    -2.774     23.251     24.221
REMARK INTER + INTRA:          -3.018
REMARK INTER:                  -3.018
REMARK INTRA:                   0.000
REMARK UNBOUND:                 0.000
REMARK SMILES C=CC(C)(C)O
REMARK SMILES IDX 4 1 3 2 5 3 2 4 1 5 6 6
REMARK H PARENT 6 7
REMARK Flexibility Score: inf
ROOT
ATOM      1  C   UNL     1      26.496 -22.875  -8.125  1.00  0.00     0.046 C 
ATOM      2  C   UNL     1      26.508 -23.715  -6.829  1.00  0.00     0.077 C 
ATOM      3  C   UNL     1      27.644 -23.214  -5.925  1.00  0.00     0.046 C 
ENDROOT
BRANCH   2   4
ATOM      4  C   UNL     1      25.186 -23.578  -6.089  1.00  0.00    -0.001 C 
ATOM      5  C   UNL     1      24.041 -23.254  -6.701  1.00  0.00     0.007 C 
ENDBRANCH   2   4
BRANCH   2   6
ATOM      6  O   UNL     1      26.762 -25.070  -7.121  1.00  0.00    -0.386 OA
ATOM      7  H   UNL     1      26.043 -25.619  -6.713  1.00  0.00     0.211 HD
ENDBRANCH   2   6
TORSDOF 2
ENDMDL
MODEL 7
REMARK VINA RESULT:    -2.662      2.277      2.823
REMARK INTER + INTRA:          -2.895
REMARK INTER:                  -2.895
REMARK INTRA:                   0.000
REMARK UNBOUND:                 0.000
REMARK SMILES C=CC(C)(C)O
REMARK SMILES IDX 4 1 3 2 5 3 2 4 1 5 6 6
REMARK H PARENT 6 7
REMARK Flexibility Score: inf
ROOT
ATOM      1  C   UNL     1      39.230 -41.197  -4.083  1.00  0.00     0.046 C 
ATOM      2  C   UNL     1      40.089 -40.461  -5.134  1.00  0.00     0.077 C 
ATOM      3  C   UNL     1      40.760 -39.252  -4.464  1.00  0.00     0.046 C 
ENDROOT
BRANCH   2   4
ATOM      4  C   UNL     1      41.164 -41.382  -5.689  1.00  0.00    -0.001 C 
ATOM      5  C   UNL     1      42.455 -41.279  -5.349  1.00  0.00     0.007 C 
ENDBRANCH   2   4
BRANCH   2   6
ATOM      6  O   UNL     1      39.279 -39.973  -6.179  1.00  0.00    -0.386 OA
ATOM      7  H   UNL     1      39.381 -38.987  -6.221  1.00  0.00     0.211 HD
ENDBRANCH   2   6
TORSDOF 2
ENDMDL
MODEL 8
REMARK VINA RESULT:    -2.587      1.863      2.539
REMARK INTER + INTRA:          -2.813
REMARK INTER:                  -2.813
REMARK INTRA:                   0.000
REMARK UNBOUND:                 0.000
REMARK SMILES C=CC(C)(C)O
REMARK SMILES IDX 4 1 3 2 5 3 2 4 1 5 6 6
REMARK H PARENT 6 7
REMARK Flexibility Score: inf
ROOT
ATOM      1  C   UNL     1      40.059 -39.093  -4.927  1.00  0.00     0.046 C 
ATOM      2  C   UNL     1      40.486 -40.504  -4.470  1.00  0.00     0.077 C 
ATOM      3  C   UNL     1      39.230 -41.300  -4.085  1.00  0.00     0.046 C 
ENDROOT
BRANCH   2   4
ATOM      4  C   UNL     1      41.213 -41.233  -5.589  1.00  0.00    -0.001 C 
ATOM      5  C   UNL     1      42.524 -41.502  -5.549  1.00  0.00     0.007 C 
ENDBRANCH   2   4
BRANCH   2   6
ATOM      6  O   UNL     1      41.307 -40.427  -3.327  1.00  0.00    -0.386 OA
ATOM      7  H   UNL     1      41.459 -41.347  -2.987  1.00  0.00     0.211 HD
ENDBRANCH   2   6
TORSDOF 2
ENDMDL
MODEL 9
REMARK VINA RESULT:    -2.475      3.844      4.907
REMARK INTER + INTRA:          -2.692
REMARK INTER:                  -2.692
REMARK INTRA:                   0.000
REMARK UNBOUND:                 0.000
REMARK SMILES C=CC(C)(C)O
REMARK SMILES IDX 4 1 3 2 5 3 2 4 1 5 6 6
REMARK H PARENT 6 7
REMARK Flexibility Score: inf
ROOT
ATOM      1  C   UNL     1      37.937 -39.480  -3.507  1.00  0.00     0.046 C 
ATOM      2  C   UNL     1      38.038 -40.567  -4.597  1.00  0.00     0.077 C 
ATOM      3  C   UNL     1      37.852 -39.907  -5.972  1.00  0.00     0.046 C 
ENDROOT
BRANCH   2   4
ATOM      4  C   UNL     1      39.396 -41.249  -4.552  1.00  0.00    -0.001 C 
ATOM      5  C   UNL     1      40.421 -40.877  -5.329  1.00  0.00     0.007 C 
ENDBRANCH   2   4
BRANCH   2   6
ATOM      6  O   UNL     1      37.011 -41.520  -4.441  1.00  0.00    -0.386 OA
ATOM      7  H   UNL     1      36.463 -41.531  -5.269  1.00  0.00     0.211 HD
ENDBRANCH   2   6
TORSDOF 2
ENDMDL
