MODEL 1
REMARK VINA RESULT:    -3.997      0.000      0.000
REMARK INTER + INTRA:          -5.830
REMARK INTER:                  -5.398
REMARK INTRA:                  -0.432
REMARK UNBOUND:                -0.432
REMARK SMILES CCCCCCC=CC(=O)[O-]
REMARK SMILES IDX 5 1 6 2 7 3 8 4 9 5 10 6 11 7 4 8 3 9 2 10 1 11
REMARK H PARENT
REMARK Flexibility Score: inf
ROOT
ATOM      1  C   UNL     1      63.160 -29.928  13.810  1.00  0.00     0.004 C 
ENDROOT
BRANCH   1   2
ATOM      2  C   UNL     1      62.364 -31.240  13.826  1.00  0.00     0.027 C 
BRANCH   2   3
ATOM      3  C   UNL     1      62.119 -31.732  15.230  1.00  0.00    -0.025 C 
ATOM      4  C   UNL     1      62.317 -32.979  15.695  1.00  0.00     0.020 C 
BRANCH   4   5
ATOM      5  C   UNL     1      62.830 -34.146  14.948  1.00  0.00     0.064 C 
ATOM      6  O   UNL     1      64.002 -34.578  15.097  1.00  0.00    -0.545 OA
ATOM      7  O   UNL     1      61.979 -34.806  14.073  1.00  0.00    -0.545 OA
ENDBRANCH   4   5
ENDBRANCH   2   3
ENDBRANCH   1   2
BRANCH   1   8
ATOM      8  C   UNL     1      63.038 -29.146  15.126  1.00  0.00     0.000 C 
BRANCH   8   9
ATOM      9  C   UNL     1      62.613 -27.681  14.916  1.00  0.00    -0.000 C 
BRANCH   9  10
ATOM     10  C   UNL     1      62.051 -27.364  13.519  1.00  0.00    -0.003 C 
ATOM     11  C   UNL     1      62.732 -26.167  12.857  1.00  0.00     0.004 C 
ENDBRANCH   9  10
ENDBRANCH   8   9
ENDBRANCH   1   8
TORSDOF 6
ENDMDL
MODEL 2
REMARK VINA RESULT:    -3.929     12.346     13.855
REMARK INTER + INTRA:          -5.739
REMARK INTER:                  -5.090
REMARK INTRA:                  -0.648
REMARK UNBOUND:                -0.432
REMARK SMILES CCCCCCC=CC(=O)[O-]
REMARK SMILES IDX 5 1 6 2 7 3 8 4 9 5 10 6 11 7 4 8 3 9 2 10 1 11
REMARK H PARENT
REMARK Flexibility Score: inf
ROOT
ATOM      1  C   UNL     1      74.836 -32.787  21.765  1.00  0.00     0.004 C 
ENDROOT
BRANCH   1   2
ATOM      2  C   UNL     1      73.483 -32.172  22.150  1.00  0.00     0.027 C 
BRANCH   2   3
ATOM      3  C   UNL     1      72.333 -32.873  21.473  1.00  0.00    -0.025 C 
ATOM      4  C   UNL     1      71.737 -32.520  20.320  1.00  0.00     0.020 C 
BRANCH   4   5
ATOM      5  C   UNL     1      72.078 -31.379  19.445  1.00  0.00     0.064 C 
ATOM      6  O   UNL     1      72.787 -31.508  18.415  1.00  0.00    -0.545 OA
ATOM      7  O   UNL     1      71.570 -30.125  19.757  1.00  0.00    -0.545 OA
ENDBRANCH   4   5
ENDBRANCH   2   3
ENDBRANCH   1   2
BRANCH   1   8
ATOM      8  C   UNL     1      75.333 -33.814  22.795  1.00  0.00     0.000 C 
BRANCH   8   9
ATOM      9  C   UNL     1      75.146 -35.269  22.329  1.00  0.00    -0.000 C 
BRANCH   9  10
ATOM     10  C   UNL     1      73.922 -35.988  22.924  1.00  0.00    -0.003 C 
ATOM     11  C   UNL     1      72.960 -36.513  21.860  1.00  0.00     0.004 C 
ENDBRANCH   9  10
ENDBRANCH   8   9
ENDBRANCH   1   8
TORSDOF 6
ENDMDL
MODEL 3
REMARK VINA RESULT:    -3.819     10.887     12.414
REMARK INTER + INTRA:          -5.590
REMARK INTER:                  -5.252
REMARK INTRA:                  -0.338
REMARK UNBOUND:                -0.432
REMARK SMILES CCCCCCC=CC(=O)[O-]
REMARK SMILES IDX 5 1 6 2 7 3 8 4 9 5 10 6 11 7 4 8 3 9 2 10 1 11
REMARK H PARENT
REMARK Flexibility Score: inf
ROOT
ATOM      1  C   UNL     1      70.945 -36.894   8.518  1.00  0.00     0.004 C 
ENDROOT
BRANCH   1   2
ATOM      2  C   UNL     1      70.365 -36.292   7.231  1.00  0.00     0.027 C 
BRANCH   2   3
ATOM      3  C   UNL     1      69.230 -35.342   7.516  1.00  0.00    -0.025 C 
ATOM      4  C   UNL     1      69.199 -34.020   7.267  1.00  0.00     0.020 C 
BRANCH   4   5
ATOM      5  C   UNL     1      70.259 -33.199   6.646  1.00  0.00     0.064 C 
ATOM      6  O   UNL     1      71.079 -32.531   7.327  1.00  0.00    -0.545 OA
ATOM      7  O   UNL     1      70.372 -33.189   5.262  1.00  0.00    -0.545 OA
ENDBRANCH   4   5
ENDBRANCH   2   3
ENDBRANCH   1   2
BRANCH   1   8
ATOM      8  C   UNL     1      69.867 -37.522   9.415  1.00  0.00     0.000 C 
BRANCH   8   9
ATOM      9  C   UNL     1      70.417 -38.642  10.318  1.00  0.00    -0.000 C 
BRANCH   9  10
ATOM     10  C   UNL     1      71.001 -38.164  11.660  1.00  0.00    -0.003 C 
ATOM     11  C   UNL     1      72.528 -38.124  11.667  1.00  0.00     0.004 C 
ENDBRANCH   9  10
ENDBRANCH   8   9
ENDBRANCH   1   8
TORSDOF 6
ENDMDL
MODEL 4
REMARK VINA RESULT:    -3.786     12.550     13.522
REMARK INTER + INTRA:          -5.546
REMARK INTER:                  -4.858
REMARK INTRA:                  -0.688
REMARK UNBOUND:                -0.432
REMARK SMILES CCCCCCC=CC(=O)[O-]
REMARK SMILES IDX 5 1 6 2 7 3 8 4 9 5 10 6 11 7 4 8 3 9 2 10 1 11
REMARK H PARENT
REMARK Flexibility Score: inf
ROOT
ATOM      1  C   UNL     1      72.141 -33.180   5.346  1.00  0.00     0.004 C 
ENDROOT
BRANCH   1   2
ATOM      2  C   UNL     1      73.412 -34.035   5.249  1.00  0.00     0.027 C 
BRANCH   2   3
ATOM      3  C   UNL     1      73.095 -35.492   5.027  1.00  0.00    -0.025 C 
ATOM      4  C   UNL     1      73.360 -36.514   5.861  1.00  0.00     0.020 C 
BRANCH   4   5
ATOM      5  C   UNL     1      74.008 -36.445   7.187  1.00  0.00     0.064 C 
ATOM      6  O   UNL     1      73.423 -35.982   8.199  1.00  0.00    -0.545 OA
ATOM      7  O   UNL     1      75.298 -36.939   7.326  1.00  0.00    -0.545 OA
ENDBRANCH   4   5
ENDBRANCH   2   3
ENDBRANCH   1   2
BRANCH   1   8
ATOM      8  C   UNL     1      71.525 -33.195   6.754  1.00  0.00     0.000 C 
BRANCH   8   9
ATOM      9  C   UNL     1      69.993 -33.048   6.739  1.00  0.00    -0.000 C 
BRANCH   9  10
ATOM     10  C   UNL     1      69.221 -34.258   7.297  1.00  0.00    -0.003 C 
ATOM     11  C   UNL     1      70.040 -35.548   7.286  1.00  0.00     0.004 C 
ENDBRANCH   9  10
ENDBRANCH   8   9
ENDBRANCH   1   8
TORSDOF 6
ENDMDL
MODEL 5
REMARK VINA RESULT:    -3.726     12.110     13.659
REMARK INTER + INTRA:          -5.465
REMARK INTER:                  -5.177
REMARK INTRA:                  -0.288
REMARK UNBOUND:                -0.432
REMARK SMILES CCCCCCC=CC(=O)[O-]
REMARK SMILES IDX 5 1 6 2 7 3 8 4 9 5 10 6 11 7 4 8 3 9 2 10 1 11
REMARK H PARENT
REMARK Flexibility Score: inf
ROOT
ATOM      1  C   UNL     1      71.869 -37.010   9.895  1.00  0.00     0.004 C 
ENDROOT
BRANCH   1   2
ATOM      2  C   UNL     1      71.515 -36.535   8.479  1.00  0.00     0.027 C 
BRANCH   2   3
ATOM      3  C   UNL     1      72.654 -35.788   7.835  1.00  0.00    -0.025 C 
ATOM      4  C   UNL     1      72.574 -34.648   7.124  1.00  0.00     0.020 C 
BRANCH   4   5
ATOM      5  C   UNL     1      71.361 -33.860   6.824  1.00  0.00     0.064 C 
ATOM      6  O   UNL     1      71.198 -32.688   7.250  1.00  0.00    -0.545 OA
ATOM      7  O   UNL     1      70.381 -34.423   6.018  1.00  0.00    -0.545 OA
ENDBRANCH   4   5
ENDBRANCH   2   3
ENDBRANCH   1   2
BRANCH   1   8
ATOM      8  C   UNL     1      73.384 -37.023  10.153  1.00  0.00     0.000 C 
BRANCH   8   9
ATOM      9  C   UNL     1      73.763 -37.738  11.462  1.00  0.00    -0.000 C 
BRANCH   9  10
ATOM     10  C   UNL     1      75.274 -37.952  11.670  1.00  0.00    -0.003 C 
ATOM     11  C   UNL     1      76.115 -36.759  11.217  1.00  0.00     0.004 C 
ENDBRANCH   9  10
ENDBRANCH   8   9
ENDBRANCH   1   8
TORSDOF 6
ENDMDL
MODEL 6
REMARK VINA RESULT:    -3.712     11.415     12.903
REMARK INTER + INTRA:          -5.445
REMARK INTER:                  -5.322
REMARK INTRA:                  -0.123
REMARK UNBOUND:                -0.432
REMARK SMILES CCCCCCC=CC(=O)[O-]
REMARK SMILES IDX 5 1 6 2 7 3 8 4 9 5 10 6 11 7 4 8 3 9 2 10 1 11
REMARK H PARENT
REMARK Flexibility Score: inf
ROOT
ATOM      1  C   UNL     1      70.692 -37.673  10.327  1.00  0.00     0.004 C 
ENDROOT
BRANCH   1   2
ATOM      2  C   UNL     1      72.120 -37.122  10.437  1.00  0.00     0.027 C 
BRANCH   2   3
ATOM      3  C   UNL     1      72.958 -37.918  11.404  1.00  0.00    -0.025 C 
ATOM      4  C   UNL     1      74.300 -37.912  11.505  1.00  0.00     0.020 C 
BRANCH   4   5
ATOM      5  C   UNL     1      75.258 -37.119  10.708  1.00  0.00     0.064 C 
ATOM      6  O   UNL     1      76.208 -36.484  11.234  1.00  0.00    -0.545 OA
ATOM      7  O   UNL     1      75.122 -37.099   9.327  1.00  0.00    -0.545 OA
ENDBRANCH   4   5
ENDBRANCH   2   3
ENDBRANCH   1   2
BRANCH   1   8
ATOM      8  C   UNL     1      70.109 -37.527   8.913  1.00  0.00     0.000 C 
BRANCH   8   9
ATOM      9  C   UNL     1      70.680 -36.317   8.151  1.00  0.00    -0.000 C 
BRANCH   9  10
ATOM     10  C   UNL     1      69.782 -35.780   7.022  1.00  0.00    -0.003 C 
ATOM     11  C   UNL     1      69.061 -34.486   7.395  1.00  0.00     0.004 C 
ENDBRANCH   9  10
ENDBRANCH   8   9
ENDBRANCH   1   8
TORSDOF 6
ENDMDL
MODEL 7
REMARK VINA RESULT:    -3.703      1.484      1.845
REMARK INTER + INTRA:          -5.433
REMARK INTER:                  -5.054
REMARK INTRA:                  -0.379
REMARK UNBOUND:                -0.432
REMARK SMILES CCCCCCC=CC(=O)[O-]
REMARK SMILES IDX 5 1 6 2 7 3 8 4 9 5 10 6 11 7 4 8 3 9 2 10 1 11
REMARK H PARENT
REMARK Flexibility Score: inf
ROOT
ATOM      1  C   UNL     1      62.301 -30.980  14.905  1.00  0.00     0.004 C 
ENDROOT
BRANCH   1   2
ATOM      2  C   UNL     1      62.694 -31.136  13.430  1.00  0.00     0.027 C 
BRANCH   2   3
ATOM      3  C   UNL     1      61.886 -32.207  12.742  1.00  0.00    -0.025 C 
ATOM      4  C   UNL     1      62.222 -33.500  12.588  1.00  0.00     0.020 C 
BRANCH   4   5
ATOM      5  C   UNL     1      63.449 -34.172  13.065  1.00  0.00     0.064 C 
ATOM      6  O   UNL     1      64.437 -34.379  12.316  1.00  0.00    -0.545 OA
ATOM      7  O   UNL     1      63.522 -34.561  14.395  1.00  0.00    -0.545 OA
ENDBRANCH   4   5
ENDBRANCH   2   3
ENDBRANCH   1   2
BRANCH   1   8
ATOM      8  C   UNL     1      62.664 -29.598  15.470  1.00  0.00     0.000 C 
BRANCH   8   9
ATOM      9  C   UNL     1      63.170 -28.623  14.391  1.00  0.00    -0.000 C 
BRANCH   9  10
ATOM     10  C   UNL     1      62.545 -27.217  14.443  1.00  0.00    -0.003 C 
ATOM     11  C   UNL     1      62.547 -26.511  13.088  1.00  0.00     0.004 C 
ENDBRANCH   9  10
ENDBRANCH   8   9
ENDBRANCH   1   8
TORSDOF 6
ENDMDL
MODEL 8
REMARK VINA RESULT:    -3.680      1.936      2.418
REMARK INTER + INTRA:          -5.402
REMARK INTER:                  -4.898
REMARK INTRA:                  -0.505
REMARK UNBOUND:                -0.432
REMARK SMILES CCCCCCC=CC(=O)[O-]
REMARK SMILES IDX 5 1 6 2 7 3 8 4 9 5 10 6 11 7 4 8 3 9 2 10 1 11
REMARK H PARENT
REMARK Flexibility Score: inf
ROOT
ATOM      1  C   UNL     1      62.356 -29.525  16.630  1.00  0.00     0.004 C 
ENDROOT
BRANCH   1   2
ATOM      2  C   UNL     1      61.336 -30.594  16.216  1.00  0.00     0.027 C 
BRANCH   2   3
ATOM      3  C   UNL     1      61.976 -31.949  16.048  1.00  0.00    -0.025 C 
ATOM      4  C   UNL     1      62.341 -32.533  14.893  1.00  0.00     0.020 C 
BRANCH   4   5
ATOM      5  C   UNL     1      62.214 -31.982  13.528  1.00  0.00     0.064 C 
ATOM      6  O   UNL     1      61.285 -32.318  12.750  1.00  0.00    -0.545 OA
ATOM      7  O   UNL     1      63.136 -31.036  13.101  1.00  0.00    -0.545 OA
ENDBRANCH   4   5
ENDBRANCH   2   3
ENDBRANCH   1   2
BRANCH   1   8
ATOM      8  C   UNL     1      62.032 -28.141  16.045  1.00  0.00     0.000 C 
BRANCH   8   9
ATOM      9  C   UNL     1      61.445 -28.214  14.624  1.00  0.00    -0.000 C 
BRANCH   9  10
ATOM     10  C   UNL     1      62.393 -27.743  13.506  1.00  0.00    -0.003 C 
ATOM     11  C   UNL     1      62.522 -26.223  13.431  1.00  0.00     0.004 C 
ENDBRANCH   9  10
ENDBRANCH   8   9
ENDBRANCH   1   8
TORSDOF 6
ENDMDL
MODEL 9
REMARK VINA RESULT:    -3.673     10.697     11.754
REMARK INTER + INTRA:          -5.393
REMARK INTER:                  -4.872
REMARK INTRA:                  -0.522
REMARK UNBOUND:                -0.432
REMARK SMILES CCCCCCC=CC(=O)[O-]
REMARK SMILES IDX 5 1 6 2 7 3 8 4 9 5 10 6 11 7 4 8 3 9 2 10 1 11
REMARK H PARENT
REMARK Flexibility Score: inf
ROOT
ATOM      1  C   UNL     1      72.896 -35.959   7.818  1.00  0.00     0.004 C 
ENDROOT
BRANCH   1   2
ATOM      2  C   UNL     1      72.258 -36.487   9.111  1.00  0.00     0.027 C 
BRANCH   2   3
ATOM      3  C   UNL     1      70.831 -36.923   8.896  1.00  0.00    -0.025 C 
ATOM      4  C   UNL     1      70.139 -37.813   9.631  1.00  0.00     0.020 C 
BRANCH   4   5
ATOM      5  C   UNL     1      70.607 -38.554  10.820  1.00  0.00     0.064 C 
ATOM      6  O   UNL     1      70.837 -37.989  11.919  1.00  0.00    -0.545 OA
ATOM      7  O   UNL     1      70.770 -39.930  10.727  1.00  0.00    -0.545 OA
ENDBRANCH   4   5
ENDBRANCH   2   3
ENDBRANCH   1   2
BRANCH   1   8
ATOM      8  C   UNL     1      71.879 -35.266   6.897  1.00  0.00     0.000 C 
BRANCH   8   9
ATOM      9  C   UNL     1      72.043 -33.736   6.868  1.00  0.00    -0.000 C 
BRANCH   9  10
ATOM     10  C   UNL     1      70.731 -32.942   7.005  1.00  0.00    -0.003 C 
ATOM     11  C   UNL     1      69.495 -33.836   7.083  1.00  0.00     0.004 C 
ENDBRANCH   9  10
ENDBRANCH   8   9
ENDBRANCH   1   8
TORSDOF 6
ENDMDL
