MODEL 1
REMARK VINA RESULT:    -4.188      0.000      0.000
REMARK INTER + INTRA:          -5.393
REMARK INTER:                  -5.167
REMARK INTRA:                  -0.226
REMARK UNBOUND:                -0.226
REMARK SMILES CCCCCC(=O)[O-]
REMARK SMILES IDX 4 1 5 2 6 3 7 4 8 5 3 6 2 7 1 8
REMARK H PARENT
REMARK Flexibility Score: inf
ROOT
ATOM      1  C   UNL     1      17.510  -7.601  22.690  1.00  0.00     0.006 C 
ENDROOT
BRANCH   1   2
ATOM      2  C   UNL     1      18.334  -8.243  23.821  1.00  0.00     0.053 C 
BRANCH   2   3
ATOM      3  C   UNL     1      19.773  -7.832  23.795  1.00  0.00     0.041 C 
ATOM      4  O   UNL     1      20.107  -6.663  24.125  1.00  0.00    -0.550 OA
ATOM      5  O   UNL     1      20.747  -8.730  23.376  1.00  0.00    -0.550 OA
ENDBRANCH   2   3
ENDBRANCH   1   2
BRANCH   1   6
ATOM      6  C   UNL     1      18.003  -7.959  21.276  1.00  0.00     0.000 C 
BRANCH   6   7
ATOM      7  C   UNL     1      18.180  -6.733  20.371  1.00  0.00    -0.003 C 
ATOM      8  C   UNL     1      19.452  -5.967  20.722  1.00  0.00     0.004 C 
ENDBRANCH   6   7
ENDBRANCH   1   6
TORSDOF 4
ENDMDL
MODEL 2
REMARK VINA RESULT:    -4.055      1.034      1.740
REMARK INTER + INTRA:          -5.229
REMARK INTER:                  -5.063
REMARK INTRA:                  -0.166
REMARK UNBOUND:                -0.226
REMARK SMILES CCCCCC(=O)[O-]
REMARK SMILES IDX 4 1 5 2 6 3 7 4 8 5 3 6 2 7 1 8
REMARK H PARENT
REMARK Flexibility Score: inf
ROOT
ATOM      1  C   UNL     1      18.388  -8.073  23.783  1.00  0.00     0.006 C 
ENDROOT
BRANCH   1   2
ATOM      2  C   UNL     1      19.555  -7.124  24.113  1.00  0.00     0.053 C 
BRANCH   2   3
ATOM      3  C   UNL     1      20.800  -7.450  23.347  1.00  0.00     0.041 C 
ATOM      4  O   UNL     1      21.547  -8.393  23.719  1.00  0.00    -0.550 OA
ATOM      5  O   UNL     1      21.154  -6.691  22.239  1.00  0.00    -0.550 OA
ENDBRANCH   2   3
ENDBRANCH   1   2
BRANCH   1   6
ATOM      6  C   UNL     1      17.493  -7.587  22.629  1.00  0.00     0.000 C 
BRANCH   6   7
ATOM      7  C   UNL     1      18.017  -7.998  21.246  1.00  0.00    -0.003 C 
ATOM      8  C   UNL     1      18.217  -6.782  20.348  1.00  0.00     0.004 C 
ENDBRANCH   6   7
ENDBRANCH   1   6
TORSDOF 4
ENDMDL
MODEL 3
REMARK VINA RESULT:    -3.549      1.268      2.298
REMARK INTER + INTRA:          -4.605
REMARK INTER:                  -4.395
REMARK INTRA:                  -0.210
REMARK UNBOUND:                -0.226
REMARK SMILES CCCCCC(=O)[O-]
REMARK SMILES IDX 4 1 5 2 6 3 7 4 8 5 3 6 2 7 1 8
REMARK H PARENT
REMARK Flexibility Score: inf
ROOT
ATOM      1  C   UNL     1      20.539  -6.407  21.917  1.00  0.00     0.006 C 
ENDROOT
BRANCH   1   2
ATOM      2  C   UNL     1      20.091  -6.631  23.373  1.00  0.00     0.053 C 
BRANCH   2   3
ATOM      3  C   UNL     1      19.714  -8.053  23.651  1.00  0.00     0.041 C 
ATOM      4  O   UNL     1      20.535  -8.983  23.432  1.00  0.00    -0.550 OA
ATOM      5  O   UNL     1      18.443  -8.357  24.124  1.00  0.00    -0.550 OA
ENDBRANCH   2   3
ENDBRANCH   1   2
BRANCH   1   6
ATOM      6  C   UNL     1      19.439  -5.834  21.005  1.00  0.00     0.000 C 
BRANCH   6   7
ATOM      7  C   UNL     1      18.778  -6.897  20.117  1.00  0.00    -0.003 C 
ATOM      8  C   UNL     1      17.507  -7.441  20.762  1.00  0.00     0.004 C 
ENDBRANCH   6   7
ENDBRANCH   1   6
TORSDOF 4
ENDMDL
MODEL 4
REMARK VINA RESULT:    -3.321      2.452      3.934
REMARK INTER + INTRA:          -4.323
REMARK INTER:                  -4.172
REMARK INTRA:                  -0.151
REMARK UNBOUND:                -0.226
REMARK SMILES CCCCCC(=O)[O-]
REMARK SMILES IDX 4 1 5 2 6 3 7 4 8 5 3 6 2 7 1 8
REMARK H PARENT
REMARK Flexibility Score: inf
ROOT
ATOM      1  C   UNL     1      19.715  -5.791  21.413  1.00  0.00     0.006 C 
ENDROOT
BRANCH   1   2
ATOM      2  C   UNL     1      18.981  -6.474  20.244  1.00  0.00     0.053 C 
BRANCH   2   3
ATOM      3  C   UNL     1      17.806  -7.286  20.694  1.00  0.00     0.041 C 
ATOM      4  O   UNL     1      16.965  -7.706  19.855  1.00  0.00    -0.550 OA
ATOM      5  O   UNL     1      17.621  -7.554  22.044  1.00  0.00    -0.550 OA
ENDBRANCH   2   3
ENDBRANCH   1   2
BRANCH   1   6
ATOM      6  C   UNL     1      20.937  -6.574  21.927  1.00  0.00     0.000 C 
BRANCH   6   7
ATOM      7  C   UNL     1      20.744  -7.127  23.346  1.00  0.00    -0.003 C 
ATOM      8  C   UNL     1      20.594  -8.644  23.330  1.00  0.00     0.004 C 
ENDBRANCH   6   7
ENDBRANCH   1   6
TORSDOF 4
ENDMDL
MODEL 5
REMARK VINA RESULT:    -3.241      1.595      2.850
REMARK INTER + INTRA:          -4.224
REMARK INTER:                  -4.110
REMARK INTRA:                  -0.114
REMARK UNBOUND:                -0.226
REMARK SMILES CCCCCC(=O)[O-]
REMARK SMILES IDX 4 1 5 2 6 3 7 4 8 5 3 6 2 7 1 8
REMARK H PARENT
REMARK Flexibility Score: inf
ROOT
ATOM      1  C   UNL     1      18.850  -7.129  20.786  1.00  0.00     0.006 C 
ENDROOT
BRANCH   1   2
ATOM      2  C   UNL     1      19.740  -5.981  21.295  1.00  0.00     0.053 C 
BRANCH   2   3
ATOM      3  C   UNL     1      20.980  -6.469  21.979  1.00  0.00     0.041 C 
ATOM      4  O   UNL     1      22.113  -6.066  21.603  1.00  0.00    -0.550 OA
ATOM      5  O   UNL     1      20.888  -7.394  23.011  1.00  0.00    -0.550 OA
ENDBRANCH   2   3
ENDBRANCH   1   2
BRANCH   1   6
ATOM      6  C   UNL     1      17.566  -7.337  21.609  1.00  0.00     0.000 C 
BRANCH   6   7
ATOM      7  C   UNL     1      17.761  -8.284  22.801  1.00  0.00    -0.003 C 
ATOM      8  C   UNL     1      17.621  -7.539  24.125  1.00  0.00     0.004 C 
ENDBRANCH   6   7
ENDBRANCH   1   6
TORSDOF 4
ENDMDL
MODEL 6
REMARK VINA RESULT:    -2.633     14.896     16.188
REMARK INTER + INTRA:          -3.474
REMARK INTER:                  -3.368
REMARK INTRA:                  -0.106
REMARK UNBOUND:                -0.226
REMARK SMILES CCCCCC(=O)[O-]
REMARK SMILES IDX 4 1 5 2 6 3 7 4 8 5 3 6 2 7 1 8
REMARK H PARENT
REMARK Flexibility Score: inf
ROOT
ATOM      1  C   UNL     1      16.437  -7.050   6.823  1.00  0.00     0.006 C 
ENDROOT
BRANCH   1   2
ATOM      2  C   UNL     1      15.162  -7.508   6.091  1.00  0.00     0.053 C 
BRANCH   2   3
ATOM      3  C   UNL     1      14.473  -8.644   6.784  1.00  0.00     0.041 C 
ATOM      4  O   UNL     1      13.515  -8.421   7.571  1.00  0.00    -0.550 OA
ATOM      5  O   UNL     1      14.910  -9.948   6.586  1.00  0.00    -0.550 OA
ENDBRANCH   2   3
ENDBRANCH   1   2
BRANCH   1   6
ATOM      6  C   UNL     1      17.743  -7.449   6.112  1.00  0.00     0.000 C 
BRANCH   6   7
ATOM      7  C   UNL     1      18.937  -7.572   7.068  1.00  0.00    -0.003 C 
ATOM      8  C   UNL     1      18.666  -6.847   8.383  1.00  0.00     0.004 C 
ENDBRANCH   6   7
ENDBRANCH   1   6
TORSDOF 4
ENDMDL
MODEL 7
REMARK VINA RESULT:    -2.624     14.666     15.853
REMARK INTER + INTRA:          -3.463
REMARK INTER:                  -3.371
REMARK INTRA:                  -0.092
REMARK UNBOUND:                -0.226
REMARK SMILES CCCCCC(=O)[O-]
REMARK SMILES IDX 4 1 5 2 6 3 7 4 8 5 3 6 2 7 1 8
REMARK H PARENT
REMARK Flexibility Score: inf
ROOT
ATOM      1  C   UNL     1      16.561  -7.092   6.825  1.00  0.00     0.006 C 
ENDROOT
BRANCH   1   2
ATOM      2  C   UNL     1      18.035  -7.432   6.538  1.00  0.00     0.053 C 
BRANCH   2   3
ATOM      3  C   UNL     1      18.869  -7.490   7.780  1.00  0.00     0.041 C 
ATOM      4  O   UNL     1      19.484  -8.546   8.084  1.00  0.00    -0.550 OA
ATOM      5  O   UNL     1      18.943  -6.387   8.621  1.00  0.00    -0.550 OA
ENDBRANCH   2   3
ENDBRANCH   1   2
BRANCH   1   6
ATOM      6  C   UNL     1      15.706  -6.896   5.560  1.00  0.00     0.000 C 
BRANCH   6   7
ATOM      7  C   UNL     1      14.461  -7.794   5.529  1.00  0.00    -0.003 C 
ATOM      8  C   UNL     1      14.149  -8.351   6.914  1.00  0.00     0.004 C 
ENDBRANCH   6   7
ENDBRANCH   1   6
TORSDOF 4
ENDMDL
