MODEL 1
REMARK VINA RESULT:    -3.692      0.000      0.000
REMARK INTER + INTRA:          -5.527
REMARK INTER:                  -5.202
REMARK INTRA:                  -0.325
REMARK UNBOUND:                -0.325
REMARK SMILES C=CCCCCCCC(=O)[O-]
REMARK SMILES IDX 6 1 7 2 8 3 9 4 10 5 11 6 5 7 4 8 3 9 2 10 1 11
REMARK H PARENT
REMARK Flexibility Score: inf
ROOT
ATOM      1  C   UNL     1      62.139  32.685  60.386  1.00  0.00     0.000 C 
ENDROOT
BRANCH   1   2
ATOM      2  C   UNL     1      61.071  31.598  60.582  1.00  0.00     0.006 C 
BRANCH   2   3
ATOM      3  C   UNL     1      61.296  30.788  61.866  1.00  0.00     0.053 C 
BRANCH   3   4
ATOM      4  C   UNL     1      62.233  29.642  61.641  1.00  0.00     0.041 C 
ATOM      5  O   UNL     1      63.478  29.814  61.723  1.00  0.00    -0.550 OA
ATOM      6  O   UNL     1      61.730  28.375  61.372  1.00  0.00    -0.550 OA
ENDBRANCH   3   4
ENDBRANCH   2   3
ENDBRANCH   1   2
BRANCH   1   7
ATOM      7  C   UNL     1      61.517  34.085  60.448  1.00  0.00     0.000 C 
BRANCH   7   8
ATOM      8  C   UNL     1      62.576  35.145  60.772  1.00  0.00     0.004 C 
BRANCH   8   9
ATOM      9  C   UNL     1      63.941  34.497  61.031  1.00  0.00     0.027 C 
BRANCH   9  10
ATOM     10  C   UNL     1      64.849  35.423  61.793  1.00  0.00    -0.035 C 
ATOM     11  C   UNL     1      64.579  36.724  61.923  1.00  0.00     0.004 C 
ENDBRANCH   9  10
ENDBRANCH   8   9
ENDBRANCH   7   8
ENDBRANCH   1   7
TORSDOF 7
ENDMDL
MODEL 2
REMARK VINA RESULT:    -3.553     12.317     14.269
REMARK INTER + INTRA:          -5.331
REMARK INTER:                  -4.958
REMARK INTRA:                  -0.373
REMARK UNBOUND:                -0.325
REMARK SMILES C=CCCCCCCC(=O)[O-]
REMARK SMILES IDX 6 1 7 2 8 3 9 4 10 5 11 6 5 7 4 8 3 9 2 10 1 11
REMARK H PARENT
REMARK Flexibility Score: inf
ROOT
ATOM      1  C   UNL     1      57.388  28.941  51.360  1.00  0.00     0.000 C 
ENDROOT
BRANCH   1   2
ATOM      2  C   UNL     1      58.767  29.332  50.810  1.00  0.00     0.006 C 
BRANCH   2   3
ATOM      3  C   UNL     1      58.957  28.894  49.351  1.00  0.00     0.053 C 
BRANCH   3   4
ATOM      4  C   UNL     1      59.874  27.715  49.241  1.00  0.00     0.041 C 
ATOM      5  O   UNL     1      61.118  27.886  49.144  1.00  0.00    -0.550 OA
ATOM      6  O   UNL     1      59.358  26.427  49.279  1.00  0.00    -0.550 OA
ENDBRANCH   3   4
ENDBRANCH   2   3
ENDBRANCH   1   2
BRANCH   1   7
ATOM      7  C   UNL     1      56.433  28.553  50.225  1.00  0.00     0.000 C 
BRANCH   7   8
ATOM      8  C   UNL     1      54.977  28.845  50.605  1.00  0.00     0.004 C 
BRANCH   8   9
ATOM      9  C   UNL     1      54.012  27.945  49.825  1.00  0.00     0.027 C 
BRANCH   9  10
ATOM     10  C   UNL     1      54.529  26.535  49.739  1.00  0.00    -0.035 C 
ATOM     11  C   UNL     1      53.910  25.602  49.012  1.00  0.00     0.004 C 
ENDBRANCH   9  10
ENDBRANCH   8   9
ENDBRANCH   7   8
ENDBRANCH   1   7
TORSDOF 7
ENDMDL
MODEL 3
REMARK VINA RESULT:    -3.502      0.936      1.619
REMARK INTER + INTRA:          -5.260
REMARK INTER:                  -4.805
REMARK INTRA:                  -0.455
REMARK UNBOUND:                -0.325
REMARK SMILES C=CCCCCCCC(=O)[O-]
REMARK SMILES IDX 6 1 7 2 8 3 9 4 10 5 11 6 5 7 4 8 3 9 2 10 1 11
REMARK H PARENT
REMARK Flexibility Score: inf
ROOT
ATOM      1  C   UNL     1      61.439  31.950  59.605  1.00  0.00     0.000 C 
ENDROOT
BRANCH   1   2
ATOM      2  C   UNL     1      60.639  30.863  60.339  1.00  0.00     0.006 C 
BRANCH   2   3
ATOM      3  C   UNL     1      61.200  30.574  61.738  1.00  0.00     0.053 C 
BRANCH   3   4
ATOM      4  C   UNL     1      62.287  29.545  61.698  1.00  0.00     0.041 C 
ATOM      5  O   UNL     1      61.999  28.321  61.625  1.00  0.00    -0.550 OA
ATOM      6  O   UNL     1      63.618  29.939  61.707  1.00  0.00    -0.550 OA
ENDBRANCH   3   4
ENDBRANCH   2   3
ENDBRANCH   1   2
BRANCH   1   7
ATOM      7  C   UNL     1      61.850  33.073  60.565  1.00  0.00     0.000 C 
BRANCH   7   8
ATOM      8  C   UNL     1      63.357  33.343  60.483  1.00  0.00     0.004 C 
BRANCH   8   9
ATOM      9  C   UNL     1      63.697  34.733  61.034  1.00  0.00     0.027 C 
BRANCH   9  10
ATOM     10  C   UNL     1      62.510  35.653  60.966  1.00  0.00    -0.035 C 
ATOM     11  C   UNL     1      62.609  36.953  61.255  1.00  0.00     0.004 C 
ENDBRANCH   9  10
ENDBRANCH   8   9
ENDBRANCH   7   8
ENDBRANCH   1   7
TORSDOF 7
ENDMDL
MODEL 4
REMARK VINA RESULT:    -3.408     13.098     14.121
REMARK INTER + INTRA:          -5.128
REMARK INTER:                  -4.491
REMARK INTRA:                  -0.637
REMARK UNBOUND:                -0.325
REMARK SMILES C=CCCCCCCC(=O)[O-]
REMARK SMILES IDX 6 1 7 2 8 3 9 4 10 5 11 6 5 7 4 8 3 9 2 10 1 11
REMARK H PARENT
REMARK Flexibility Score: inf
ROOT
ATOM      1  C   UNL     1      57.842  28.710  50.802  1.00  0.00     0.000 C 
ENDROOT
BRANCH   1   2
ATOM      2  C   UNL     1      56.384  28.411  50.424  1.00  0.00     0.006 C 
BRANCH   2   3
ATOM      3  C   UNL     1      56.124  26.909  50.255  1.00  0.00     0.053 C 
BRANCH   3   4
ATOM      4  C   UNL     1      54.777  26.644  49.655  1.00  0.00     0.041 C 
ATOM      5  O   UNL     1      54.469  25.483  49.276  1.00  0.00    -0.550 OA
ATOM      6  O   UNL     1      53.851  27.673  49.544  1.00  0.00    -0.550 OA
ENDBRANCH   3   4
ENDBRANCH   2   3
ENDBRANCH   1   2
BRANCH   1   7
ATOM      7  C   UNL     1      58.637  29.199  49.585  1.00  0.00     0.000 C 
BRANCH   7   8
ATOM      8  C   UNL     1      59.580  28.106  49.068  1.00  0.00     0.004 C 
BRANCH   8   9
ATOM      9  C   UNL     1      60.068  27.212  50.213  1.00  0.00     0.027 C 
BRANCH   9  10
ATOM     10  C   UNL     1      60.018  25.758  49.831  1.00  0.00    -0.035 C 
ATOM     11  C   UNL     1      59.252  24.884  50.488  1.00  0.00     0.004 C 
ENDBRANCH   9  10
ENDBRANCH   8   9
ENDBRANCH   7   8
ENDBRANCH   1   7
TORSDOF 7
ENDMDL
MODEL 5
REMARK VINA RESULT:    -3.383      3.399      5.476
REMARK INTER + INTRA:          -5.093
REMARK INTER:                  -4.386
REMARK INTRA:                  -0.707
REMARK UNBOUND:                -0.325
REMARK SMILES C=CCCCCCCC(=O)[O-]
REMARK SMILES IDX 6 1 7 2 8 3 9 4 10 5 11 6 5 7 4 8 3 9 2 10 1 11
REMARK H PARENT
REMARK Flexibility Score: inf
ROOT
ATOM      1  C   UNL     1      64.057  32.594  59.901  1.00  0.00     0.000 C 
ENDROOT
BRANCH   1   2
ATOM      2  C   UNL     1      63.790  33.756  60.869  1.00  0.00     0.006 C 
BRANCH   2   3
ATOM      3  C   UNL     1      62.406  34.382  60.658  1.00  0.00     0.053 C 
BRANCH   3   4
ATOM      4  C   UNL     1      62.386  35.829  61.046  1.00  0.00     0.041 C 
ATOM      5  O   UNL     1      63.420  36.373  61.516  1.00  0.00    -0.550 OA
ATOM      6  O   UNL     1      61.236  36.583  60.859  1.00  0.00    -0.550 OA
ENDBRANCH   3   4
ENDBRANCH   2   3
ENDBRANCH   1   2
BRANCH   1   7
ATOM      7  C   UNL     1      64.420  31.315  60.664  1.00  0.00     0.000 C 
BRANCH   7   8
ATOM      8  C   UNL     1      63.355  30.231  60.462  1.00  0.00     0.004 C 
BRANCH   8   9
ATOM      9  C   UNL     1      62.482  30.077  61.713  1.00  0.00     0.027 C 
BRANCH   9  10
ATOM     10  C   UNL     1      61.165  30.785  61.551  1.00  0.00    -0.035 C 
ATOM     11  C   UNL     1      60.644  31.036  60.347  1.00  0.00     0.004 C 
ENDBRANCH   9  10
ENDBRANCH   8   9
ENDBRANCH   7   8
ENDBRANCH   1   7
TORSDOF 7
ENDMDL
MODEL 6
REMARK VINA RESULT:    -3.368      1.486      2.676
REMARK INTER + INTRA:          -5.071
REMARK INTER:                  -4.463
REMARK INTRA:                  -0.608
REMARK UNBOUND:                -0.325
REMARK SMILES C=CCCCCCCC(=O)[O-]
REMARK SMILES IDX 6 1 7 2 8 3 9 4 10 5 11 6 5 7 4 8 3 9 2 10 1 11
REMARK H PARENT
REMARK Flexibility Score: inf
ROOT
ATOM      1  C   UNL     1      64.381  33.209  60.277  1.00  0.00     0.000 C 
ENDROOT
BRANCH   1   2
ATOM      2  C   UNL     1      63.803  31.897  60.828  1.00  0.00     0.006 C 
BRANCH   2   3
ATOM      3  C   UNL     1      62.276  31.834  60.697  1.00  0.00     0.053 C 
BRANCH   3   4
ATOM      4  C   UNL     1      61.687  30.779  61.583  1.00  0.00     0.041 C 
ATOM      5  O   UNL     1      60.508  30.895  62.009  1.00  0.00    -0.550 OA
ATOM      6  O   UNL     1      62.430  29.652  61.910  1.00  0.00    -0.550 OA
ENDBRANCH   3   4
ENDBRANCH   2   3
ENDBRANCH   1   2
BRANCH   1   7
ATOM      7  C   UNL     1      64.236  34.345  61.296  1.00  0.00     0.000 C 
BRANCH   7   8
ATOM      8  C   UNL     1      63.943  35.678  60.598  1.00  0.00     0.004 C 
BRANCH   8   9
ATOM      9  C   UNL     1      62.643  36.300  61.123  1.00  0.00     0.027 C 
BRANCH   9  10
ATOM     10  C   UNL     1      61.439  35.539  60.640  1.00  0.00    -0.035 C 
ATOM     11  C   UNL     1      61.164  35.410  59.340  1.00  0.00     0.004 C 
ENDBRANCH   9  10
ENDBRANCH   8   9
ENDBRANCH   7   8
ENDBRANCH   1   7
TORSDOF 7
ENDMDL
MODEL 7
REMARK VINA RESULT:    -3.346      1.337      1.661
REMARK INTER + INTRA:          -5.040
REMARK INTER:                  -4.537
REMARK INTRA:                  -0.503
REMARK UNBOUND:                -0.325
REMARK SMILES C=CCCCCCCC(=O)[O-]
REMARK SMILES IDX 6 1 7 2 8 3 9 4 10 5 11 6 5 7 4 8 3 9 2 10 1 11
REMARK H PARENT
REMARK Flexibility Score: inf
ROOT
ATOM      1  C   UNL     1      61.681  33.671  58.961  1.00  0.00     0.000 C 
ENDROOT
BRANCH   1   2
ATOM      2  C   UNL     1      61.369  32.905  60.256  1.00  0.00     0.006 C 
BRANCH   2   3
ATOM      3  C   UNL     1      62.402  31.809  60.545  1.00  0.00     0.053 C 
BRANCH   3   4
ATOM      4  C   UNL     1      61.849  30.752  61.451  1.00  0.00     0.041 C 
ATOM      5  O   UNL     1      62.567  29.779  61.803  1.00  0.00    -0.550 OA
ATOM      6  O   UNL     1      60.550  30.858  61.931  1.00  0.00    -0.550 OA
ENDBRANCH   3   4
ENDBRANCH   2   3
ENDBRANCH   1   2
BRANCH   1   7
ATOM      7  C   UNL     1      61.552  35.184  59.172  1.00  0.00     0.000 C 
BRANCH   7   8
ATOM      8  C   UNL     1      61.501  35.530  60.665  1.00  0.00     0.004 C 
BRANCH   8   9
ATOM      9  C   UNL     1      62.766  36.277  61.100  1.00  0.00     0.027 C 
BRANCH   9  10
ATOM     10  C   UNL     1      63.916  35.330  61.307  1.00  0.00    -0.035 C 
ATOM     11  C   UNL     1      65.119  35.758  61.699  1.00  0.00     0.004 C 
ENDBRANCH   9  10
ENDBRANCH   8   9
ENDBRANCH   7   8
ENDBRANCH   1   7
TORSDOF 7
ENDMDL
MODEL 8
REMARK VINA RESULT:    -3.333      2.267      4.863
REMARK INTER + INTRA:          -5.022
REMARK INTER:                  -4.546
REMARK INTRA:                  -0.476
REMARK UNBOUND:                -0.325
REMARK SMILES C=CCCCCCCC(=O)[O-]
REMARK SMILES IDX 6 1 7 2 8 3 9 4 10 5 11 6 5 7 4 8 3 9 2 10 1 11
REMARK H PARENT
REMARK Flexibility Score: inf
ROOT
ATOM      1  C   UNL     1      61.418  33.749  59.257  1.00  0.00     0.000 C 
ENDROOT
BRANCH   1   2
ATOM      2  C   UNL     1      61.720  34.469  60.580  1.00  0.00     0.006 C 
BRANCH   2   3
ATOM      3  C   UNL     1      62.977  35.344  60.493  1.00  0.00     0.053 C 
BRANCH   3   4
ATOM      4  C   UNL     1      64.155  34.688  61.147  1.00  0.00     0.041 C 
ATOM      5  O   UNL     1      64.853  35.324  61.979  1.00  0.00    -0.550 OA
ATOM      6  O   UNL     1      64.461  33.364  60.861  1.00  0.00    -0.550 OA
ENDBRANCH   3   4
ENDBRANCH   2   3
ENDBRANCH   1   2
BRANCH   1   7
ATOM      7  C   UNL     1      61.115  32.265  59.495  1.00  0.00     0.000 C 
BRANCH   7   8
ATOM      8  C   UNL     1      61.296  31.895  60.972  1.00  0.00     0.004 C 
BRANCH   8   9
ATOM      9  C   UNL     1      60.979  30.415  61.211  1.00  0.00     0.027 C 
BRANCH   9  10
ATOM     10  C   UNL     1      62.162  29.690  61.793  1.00  0.00    -0.035 C 
ATOM     11  C   UNL     1      63.416  30.016  61.468  1.00  0.00     0.004 C 
ENDBRANCH   9  10
ENDBRANCH   8   9
ENDBRANCH   7   8
ENDBRANCH   1   7
TORSDOF 7
ENDMDL
MODEL 9
REMARK VINA RESULT:    -3.332      1.196      1.822
REMARK INTER + INTRA:          -5.021
REMARK INTER:                  -4.412
REMARK INTRA:                  -0.608
REMARK UNBOUND:                -0.325
REMARK SMILES C=CCCCCCCC(=O)[O-]
REMARK SMILES IDX 6 1 7 2 8 3 9 4 10 5 11 6 5 7 4 8 3 9 2 10 1 11
REMARK H PARENT
REMARK Flexibility Score: inf
ROOT
ATOM      1  C   UNL     1      62.948  31.670  59.802  1.00  0.00     0.000 C 
ENDROOT
BRANCH   1   2
ATOM      2  C   UNL     1      61.548  32.036  60.317  1.00  0.00     0.006 C 
BRANCH   2   3
ATOM      3  C   UNL     1      61.128  31.180  61.519  1.00  0.00     0.053 C 
BRANCH   3   4
ATOM      4  C   UNL     1      61.236  29.716  61.220  1.00  0.00     0.041 C 
ATOM      5  O   UNL     1      62.100  29.011  61.806  1.00  0.00    -0.550 OA
ATOM      6  O   UNL     1      60.361  29.124  60.319  1.00  0.00    -0.550 OA
ENDBRANCH   3   4
ENDBRANCH   2   3
ENDBRANCH   1   2
BRANCH   1   7
ATOM      7  C   UNL     1      64.038  32.273  60.696  1.00  0.00     0.000 C 
BRANCH   7   8
ATOM      8  C   UNL     1      64.367  33.709  60.272  1.00  0.00     0.004 C 
BRANCH   8   9
ATOM      9  C   UNL     1      64.293  34.666  61.467  1.00  0.00     0.027 C 
BRANCH   9  10
ATOM     10  C   UNL     1      63.409  35.845  61.168  1.00  0.00    -0.035 C 
ATOM     11  C   UNL     1      62.113  35.699  60.880  1.00  0.00     0.004 C 
ENDBRANCH   9  10
ENDBRANCH   8   9
ENDBRANCH   7   8
ENDBRANCH   1   7
TORSDOF 7
ENDMDL
