MODEL 1
REMARK VINA RESULT:    -2.839      0.000      0.000
REMARK INTER + INTRA:          -3.639
REMARK INTER:                  -3.419
REMARK INTRA:                  -0.220
REMARK UNBOUND:                -0.220
REMARK SMILES OCC(O)CO
REMARK SMILES IDX 3 1 5 2 6 3 2 5 1 6 4 8
REMARK H PARENT 6 4 1 7 4 9
REMARK Flexibility Score: inf
ROOT
ATOM      1  C   UNL     1     162.952 161.345 182.250  1.00  0.00     0.165 C 
ENDROOT
BRANCH   1   2
ATOM      2  C   UNL     1     161.462 161.252 181.873  1.00  0.00     0.190 C 
BRANCH   2   3
ATOM      3  O   UNL     1     160.992 159.943 182.048  1.00  0.00    -0.394 OA
ATOM      4  H   UNL     1     160.132 160.014 182.541  1.00  0.00     0.210 HD
ENDBRANCH   2   3
ENDBRANCH   1   2
BRANCH   1   5
ATOM      5  C   UNL     1     163.161 161.253 183.768  1.00  0.00     0.190 C 
BRANCH   5   6
ATOM      6  O   UNL     1     163.101 159.916 184.183  1.00  0.00    -0.394 OA
ATOM      7  H   UNL     1     162.893 159.385 183.372  1.00  0.00     0.210 HD
ENDBRANCH   5   6
ENDBRANCH   1   5
BRANCH   1   8
ATOM      8  O   UNL     1     163.689 160.344 181.594  1.00  0.00    -0.388 OA
ATOM      9  H   UNL     1     164.633 160.651 181.545  1.00  0.00     0.211 HD
ENDBRANCH   1   8
TORSDOF 5
ENDMDL
MODEL 2
REMARK VINA RESULT:    -2.757      0.756      2.401
REMARK INTER + INTRA:          -3.541
REMARK INTER:                  -3.335
REMARK INTRA:                  -0.207
REMARK UNBOUND:                -0.220
REMARK SMILES OCC(O)CO
REMARK SMILES IDX 3 1 5 2 6 3 2 5 1 6 4 8
REMARK H PARENT 6 4 1 7 4 9
REMARK Flexibility Score: inf
ROOT
ATOM      1  C   UNL     1     162.969 160.764 181.797  1.00  0.00     0.165 C 
ENDROOT
BRANCH   1   2
ATOM      2  C   UNL     1     163.104 161.145 183.282  1.00  0.00     0.190 C 
BRANCH   2   3
ATOM      3  O   UNL     1     163.136 159.993 184.083  1.00  0.00    -0.394 OA
ATOM      4  H   UNL     1     164.044 159.951 184.482  1.00  0.00     0.210 HD
ENDBRANCH   2   3
ENDBRANCH   1   2
BRANCH   1   5
ATOM      5  C   UNL     1     161.503 160.762 181.341  1.00  0.00     0.190 C 
BRANCH   5   6
ATOM      6  O   UNL     1     160.753 159.882 182.132  1.00  0.00    -0.394 OA
ATOM      7  H   UNL     1     161.218 159.006 182.086  1.00  0.00     0.210 HD
ENDBRANCH   5   6
ENDBRANCH   1   5
BRANCH   1   8
ATOM      8  O   UNL     1     163.729 161.633 180.993  1.00  0.00    -0.388 OA
ATOM      9  H   UNL     1     164.251 161.074 180.358  1.00  0.00     0.211 HD
ENDBRANCH   1   8
TORSDOF 5
ENDMDL
MODEL 3
REMARK VINA RESULT:    -2.682      1.852      3.540
REMARK INTER + INTRA:          -3.451
REMARK INTER:                  -3.228
REMARK INTRA:                  -0.223
REMARK UNBOUND:                -0.220
REMARK SMILES OCC(O)CO
REMARK SMILES IDX 3 1 5 2 6 3 2 5 1 6 4 8
REMARK H PARENT 6 4 1 7 4 9
REMARK Flexibility Score: inf
ROOT
ATOM      1  C   UNL     1     163.349 161.396 184.438  1.00  0.00     0.165 C 
ENDROOT
BRANCH   1   2
ATOM      2  C   UNL     1     164.568 161.785 185.293  1.00  0.00     0.190 C 
BRANCH   2   3
ATOM      3  O   UNL     1     165.652 160.940 185.015  1.00  0.00    -0.394 OA
ATOM      4  H   UNL     1     166.432 161.529 184.837  1.00  0.00     0.210 HD
ENDBRANCH   2   3
ENDBRANCH   1   2
BRANCH   1   5
ATOM      5  C   UNL     1     163.412 162.024 183.037  1.00  0.00     0.190 C 
BRANCH   5   6
ATOM      6  O   UNL     1     164.523 161.534 182.339  1.00  0.00    -0.394 OA
ATOM      7  H   UNL     1     164.218 161.380 181.408  1.00  0.00     0.210 HD
ENDBRANCH   5   6
ENDBRANCH   1   5
BRANCH   1   8
ATOM      8  O   UNL     1     163.239 159.998 184.341  1.00  0.00    -0.388 OA
ATOM      9  H   UNL     1     163.505 159.615 185.218  1.00  0.00     0.211 HD
ENDBRANCH   1   8
TORSDOF 5
ENDMDL
MODEL 4
REMARK VINA RESULT:    -2.681     13.115     13.394
REMARK INTER + INTRA:          -3.450
REMARK INTER:                  -3.226
REMARK INTRA:                  -0.224
REMARK UNBOUND:                -0.220
REMARK SMILES OCC(O)CO
REMARK SMILES IDX 3 1 5 2 6 3 2 5 1 6 4 8
REMARK H PARENT 6 4 1 7 4 9
REMARK Flexibility Score: inf
ROOT
ATOM      1  C   UNL     1     175.266 161.133 183.922  1.00  0.00     0.165 C 
ENDROOT
BRANCH   1   2
ATOM      2  C   UNL     1     175.177 162.634 184.252  1.00  0.00     0.190 C 
BRANCH   2   3
ATOM      3  O   UNL     1     175.644 163.402 183.176  1.00  0.00    -0.394 OA
ATOM      4  H   UNL     1     175.218 164.295 183.258  1.00  0.00     0.210 HD
ENDBRANCH   2   3
ENDBRANCH   1   2
BRANCH   1   5
ATOM      5  C   UNL     1     175.101 160.870 182.417  1.00  0.00     0.190 C 
BRANCH   5   6
ATOM      6  O   UNL     1     176.346 160.929 181.778  1.00  0.00    -0.394 OA
ATOM      7  H   UNL     1     176.720 161.825 181.986  1.00  0.00     0.210 HD
ENDBRANCH   5   6
ENDBRANCH   1   5
BRANCH   1   8
ATOM      8  O   UNL     1     176.483 160.598 184.379  1.00  0.00    -0.388 OA
ATOM      9  H   UNL     1     177.205 161.229 184.118  1.00  0.00     0.211 HD
ENDBRANCH   1   8
TORSDOF 5
ENDMDL
MODEL 5
REMARK VINA RESULT:    -2.674     12.956     13.180
REMARK INTER + INTRA:          -3.442
REMARK INTER:                  -3.236
REMARK INTRA:                  -0.205
REMARK UNBOUND:                -0.220
REMARK SMILES OCC(O)CO
REMARK SMILES IDX 3 1 5 2 6 3 2 5 1 6 4 8
REMARK H PARENT 6 4 1 7 4 9
REMARK Flexibility Score: inf
ROOT
ATOM      1  C   UNL     1     174.866 162.029 183.333  1.00  0.00     0.165 C 
ENDROOT
BRANCH   1   2
ATOM      2  C   UNL     1     174.984 161.026 182.171  1.00  0.00     0.190 C 
BRANCH   2   3
ATOM      3  O   UNL     1     176.296 161.000 181.676  1.00  0.00    -0.394 OA
ATOM      4  H   UNL     1     176.615 160.063 181.768  1.00  0.00     0.210 HD
ENDBRANCH   2   3
ENDBRANCH   1   2
BRANCH   1   5
ATOM      5  C   UNL     1     175.364 161.427 184.656  1.00  0.00     0.190 C 
BRANCH   5   6
ATOM      6  O   UNL     1     176.465 160.593 184.422  1.00  0.00    -0.394 OA
ATOM      7  H   UNL     1     176.105 159.778 183.985  1.00  0.00     0.210 HD
ENDBRANCH   5   6
ENDBRANCH   1   5
BRANCH   1   8
ATOM      8  O   UNL     1     175.570 163.209 183.039  1.00  0.00    -0.388 OA
ATOM      9  H   UNL     1     175.100 163.660 182.288  1.00  0.00     0.211 HD
ENDBRANCH   1   8
TORSDOF 5
ENDMDL
MODEL 6
REMARK VINA RESULT:    -2.653      2.129      3.131
REMARK INTER + INTRA:          -3.416
REMARK INTER:                  -3.199
REMARK INTRA:                  -0.216
REMARK UNBOUND:                -0.220
REMARK SMILES OCC(O)CO
REMARK SMILES IDX 3 1 5 2 6 3 2 5 1 6 4 8
REMARK H PARENT 6 4 1 7 4 9
REMARK Flexibility Score: inf
ROOT
ATOM      1  C   UNL     1     164.318 161.827 185.073  1.00  0.00     0.165 C 
ENDROOT
BRANCH   1   2
ATOM      2  C   UNL     1     163.345 161.311 183.998  1.00  0.00     0.190 C 
BRANCH   2   3
ATOM      3  O   UNL     1     163.184 159.922 184.109  1.00  0.00    -0.394 OA
ATOM      4  H   UNL     1     164.094 159.527 184.068  1.00  0.00     0.210 HD
ENDBRANCH   2   3
ENDBRANCH   1   2
BRANCH   1   5
ATOM      5  C   UNL     1     163.647 161.920 186.451  1.00  0.00     0.190 C 
BRANCH   5   6
ATOM      6  O   UNL     1     162.354 161.384 186.394  1.00  0.00    -0.394 OA
ATOM      7  H   UNL     1     162.465 160.412 186.229  1.00  0.00     0.210 HD
ENDBRANCH   5   6
ENDBRANCH   1   5
BRANCH   1   8
ATOM      8  O   UNL     1     165.459 161.008 185.140  1.00  0.00    -0.388 OA
ATOM      9  H   UNL     1     166.054 161.381 185.844  1.00  0.00     0.211 HD
ENDBRANCH   1   8
TORSDOF 5
ENDMDL
MODEL 7
REMARK VINA RESULT:    -2.649     12.765     13.337
REMARK INTER + INTRA:          -3.411
REMARK INTER:                  -3.187
REMARK INTRA:                  -0.224
REMARK UNBOUND:                -0.220
REMARK SMILES OCC(O)CO
REMARK SMILES IDX 3 1 5 2 6 3 2 5 1 6 4 8
REMARK H PARENT 6 4 1 7 4 9
REMARK Flexibility Score: inf
ROOT
ATOM      1  C   UNL     1     175.201 162.014 184.930  1.00  0.00     0.165 C 
ENDROOT
BRANCH   1   2
ATOM      2  C   UNL     1     175.498 160.978 183.830  1.00  0.00     0.190 C 
BRANCH   2   3
ATOM      3  O   UNL     1     176.715 160.328 184.084  1.00  0.00    -0.394 OA
ATOM      4  H   UNL     1     176.487 159.427 184.433  1.00  0.00     0.210 HD
ENDBRANCH   2   3
ENDBRANCH   1   2
BRANCH   1   5
ATOM      5  C   UNL     1     174.905 161.342 186.279  1.00  0.00     0.190 C 
BRANCH   5   6
ATOM      6  O   UNL     1     174.605 159.987 186.087  1.00  0.00    -0.394 OA
ATOM      7  H   UNL     1     173.853 159.960 185.440  1.00  0.00     0.210 HD
ENDBRANCH   5   6
ENDBRANCH   1   5
BRANCH   1   8
ATOM      8  O   UNL     1     176.270 162.917 185.058  1.00  0.00    -0.388 OA
ATOM      9  H   UNL     1     176.495 162.980 186.024  1.00  0.00     0.211 HD
ENDBRANCH   1   8
TORSDOF 5
ENDMDL
MODEL 8
REMARK VINA RESULT:    -2.597      2.218      2.927
REMARK INTER + INTRA:          -3.349
REMARK INTER:                  -3.145
REMARK INTRA:                  -0.204
REMARK UNBOUND:                -0.220
REMARK SMILES OCC(O)CO
REMARK SMILES IDX 3 1 5 2 6 3 2 5 1 6 4 8
REMARK H PARENT 6 4 1 7 4 9
REMARK Flexibility Score: inf
ROOT
ATOM      1  C   UNL     1     164.651 162.136 184.053  1.00  0.00     0.165 C 
ENDROOT
BRANCH   1   2
ATOM      2  C   UNL     1     163.268 161.483 183.882  1.00  0.00     0.190 C 
BRANCH   2   3
ATOM      3  O   UNL     1     163.242 160.222 184.495  1.00  0.00    -0.394 OA
ATOM      4  H   UNL     1     164.119 160.109 184.948  1.00  0.00     0.210 HD
ENDBRANCH   2   3
ENDBRANCH   1   2
BRANCH   1   5
ATOM      5  C   UNL     1     165.283 161.784 185.407  1.00  0.00     0.190 C 
BRANCH   5   6
ATOM      6  O   UNL     1     166.194 160.731 185.255  1.00  0.00    -0.394 OA
ATOM      7  H   UNL     1     165.940 160.047 185.927  1.00  0.00     0.210 HD
ENDBRANCH   5   6
ENDBRANCH   1   5
BRANCH   1   8
ATOM      8  O   UNL     1     165.508 161.762 183.003  1.00  0.00    -0.388 OA
ATOM      9  H   UNL     1     166.204 162.466 182.918  1.00  0.00     0.211 HD
ENDBRANCH   1   8
TORSDOF 5
ENDMDL
MODEL 9
REMARK VINA RESULT:    -2.571     13.079     13.510
REMARK INTER + INTRA:          -3.317
REMARK INTER:                  -3.118
REMARK INTRA:                  -0.198
REMARK UNBOUND:                -0.220
REMARK SMILES OCC(O)CO
REMARK SMILES IDX 3 1 5 2 6 3 2 5 1 6 4 8
REMARK H PARENT 6 4 1 7 4 9
REMARK Flexibility Score: inf
ROOT
ATOM      1  C   UNL     1     174.969 162.542 184.045  1.00  0.00     0.165 C 
ENDROOT
BRANCH   1   2
ATOM      2  C   UNL     1     175.152 161.017 183.930  1.00  0.00     0.190 C 
BRANCH   2   3
ATOM      3  O   UNL     1     176.375 160.627 184.495  1.00  0.00    -0.394 OA
ATOM      4  H   UNL     1     176.796 161.450 184.857  1.00  0.00     0.210 HD
ENDBRANCH   2   3
ENDBRANCH   1   2
BRANCH   1   5
ATOM      5  C   UNL     1     175.468 163.074 185.397  1.00  0.00     0.190 C 
BRANCH   5   6
ATOM      6  O   UNL     1     176.750 163.621 185.256  1.00  0.00    -0.394 OA
ATOM      7  H   UNL     1     176.901 164.181 186.061  1.00  0.00     0.210 HD
ENDBRANCH   5   6
ENDBRANCH   1   5
BRANCH   1   8
ATOM      8  O   UNL     1     175.625 163.199 182.990  1.00  0.00    -0.388 OA
ATOM      9  H   UNL     1     175.687 162.560 182.231  1.00  0.00     0.211 HD
ENDBRANCH   1   8
TORSDOF 5
ENDMDL
