MODEL 1
REMARK VINA RESULT:    -4.506      0.000      0.000
REMARK INTER + INTRA:          -5.703
REMARK INTER:                  -5.560
REMARK INTRA:                  -0.143
REMARK UNBOUND:                -0.143
REMARK SMILES [NH3+][C@H](Cc1ccc(O)cc1)C(=O)[O-]
REMARK SMILES IDX 3 1 2 2 1 3 11 7 12 8 13 9 4 10 5 11 10 12 6 13 9 14 7 15
REMARK SMILES IDX 8 16
REMARK H PARENT 1 4 1 5 1 6 8 17
REMARK Flexibility Score: inf
ROOT
ATOM      1  C   UNL     1     143.674 149.555 146.451  1.00  0.00     0.107 C 
ENDROOT
BRANCH   1   2
ATOM      2  C   UNL     1     144.863 150.511 146.215  1.00  0.00     0.232 C 
BRANCH   2   3
ATOM      3  N   UNL     1     144.733 151.228 144.939  1.00  0.00    -0.350 N 
ATOM      4  H   UNL     1     145.665 151.564 144.605  1.00  0.00     0.345 HD
ATOM      5  H   UNL     1     144.316 150.596 144.217  1.00  0.00     0.345 HD
ATOM      6  H   UNL     1     144.093 152.047 145.054  1.00  0.00     0.345 HD
ENDBRANCH   2   3
BRANCH   2   7
ATOM      7  C   UNL     1     144.964 151.489 147.355  1.00  0.00     0.099 C 
ATOM      8  O   UNL     1     145.808 152.424 147.323  1.00  0.00    -0.544 OA
ATOM      9  O   UNL     1     144.109 151.375 148.444  1.00  0.00    -0.544 OA
ENDBRANCH   2   7
ENDBRANCH   1   2
BRANCH   1  10
ATOM     10  C   UNL     1     143.733 148.351 145.546  1.00  0.00    -0.041 A 
ATOM     11  C   UNL     1     144.644 147.315 145.806  1.00  0.00     0.008 A 
ATOM     12  C   UNL     1     142.904 148.269 144.414  1.00  0.00     0.008 A 
ATOM     13  C   UNL     1     144.716 146.208 144.954  1.00  0.00     0.046 A 
ATOM     14  C   UNL     1     142.978 147.162 143.564  1.00  0.00     0.046 A 
ATOM     15  C   UNL     1     143.884 146.127 143.833  1.00  0.00     0.115 A 
BRANCH  15  16
ATOM     16  O   UNL     1     143.968 145.019 142.994  1.00  0.00    -0.508 OA
ATOM     17  H   UNL     1     144.598 144.251 143.193  1.00  0.00     0.293 HD
ENDBRANCH  15  16
ENDBRANCH   1  10
TORSDOF 5
ENDMDL
MODEL 2
REMARK VINA RESULT:    -4.487      1.941      5.663
REMARK INTER + INTRA:          -5.679
REMARK INTER:                  -5.475
REMARK INTRA:                  -0.204
REMARK UNBOUND:                -0.143
REMARK SMILES [NH3+][C@H](Cc1ccc(O)cc1)C(=O)[O-]
REMARK SMILES IDX 3 1 2 2 1 3 11 7 12 8 13 9 4 10 5 11 10 12 6 13 9 14 7 15
REMARK SMILES IDX 8 16
REMARK H PARENT 1 4 1 5 1 6 8 17
REMARK Flexibility Score: inf
ROOT
ATOM      1  C   UNL     1     143.138 147.449 145.963  1.00  0.00     0.107 C 
ENDROOT
BRANCH   1   2
ATOM      2  C   UNL     1     144.328 146.975 145.102  1.00  0.00     0.232 C 
BRANCH   2   3
ATOM      3  N   UNL     1     145.143 145.980 145.811  1.00  0.00    -0.350 N 
ATOM      4  H   UNL     1     145.730 145.433 145.139  1.00  0.00     0.345 HD
ATOM      5  H   UNL     1     145.768 146.458 146.501  1.00  0.00     0.345 HD
ATOM      6  H   UNL     1     144.526 145.324 146.342  1.00  0.00     0.345 HD
ENDBRANCH   2   3
BRANCH   2   7
ATOM      7  C   UNL     1     143.822 146.405 143.804  1.00  0.00     0.099 C 
ATOM      8  O   UNL     1     143.215 147.137 142.977  1.00  0.00    -0.544 OA
ATOM      9  O   UNL     1     144.039 145.066 143.502  1.00  0.00    -0.544 OA
ENDBRANCH   2   7
ENDBRANCH   1   2
BRANCH   1  10
ATOM     10  C   UNL     1     143.440 148.744 146.674  1.00  0.00    -0.041 A 
ATOM     11  C   UNL     1     143.958 149.837 145.962  1.00  0.00     0.008 A 
ATOM     12  C   UNL     1     143.241 148.858 148.061  1.00  0.00     0.008 A 
ATOM     13  C   UNL     1     144.260 151.031 146.625  1.00  0.00     0.046 A 
ATOM     14  C   UNL     1     143.545 150.052 148.721  1.00  0.00     0.046 A 
ATOM     15  C   UNL     1     144.054 151.143 148.004  1.00  0.00     0.115 A 
BRANCH  15  16
ATOM     16  O   UNL     1     144.361 152.338 148.650  1.00  0.00    -0.508 OA
ATOM     17  H   UNL     1     145.319 152.595 148.859  1.00  0.00     0.293 HD
ENDBRANCH  15  16
ENDBRANCH   1  10
TORSDOF 5
ENDMDL
MODEL 3
REMARK VINA RESULT:    -4.465      0.214      1.630
REMARK INTER + INTRA:          -5.653
REMARK INTER:                  -5.513
REMARK INTRA:                  -0.140
REMARK UNBOUND:                -0.143
REMARK SMILES [NH3+][C@H](Cc1ccc(O)cc1)C(=O)[O-]
REMARK SMILES IDX 3 1 2 2 1 3 11 7 12 8 13 9 4 10 5 11 10 12 6 13 9 14 7 15
REMARK SMILES IDX 8 16
REMARK H PARENT 1 4 1 5 1 6 8 17
REMARK Flexibility Score: inf
ROOT
ATOM      1  C   UNL     1     143.574 149.408 146.360  1.00  0.00     0.107 C 
ENDROOT
BRANCH   1   2
ATOM      2  C   UNL     1     144.671 150.458 146.078  1.00  0.00     0.232 C 
BRANCH   2   3
ATOM      3  N   UNL     1     144.388 151.216 144.851  1.00  0.00    -0.350 N 
ATOM      4  H   UNL     1     145.271 151.600 144.440  1.00  0.00     0.345 HD
ATOM      5  H   UNL     1     143.924 150.594 144.149  1.00  0.00     0.345 HD
ATOM      6  H   UNL     1     143.734 152.004 145.060  1.00  0.00     0.345 HD
ENDBRANCH   2   3
BRANCH   2   7
ATOM      7  C   UNL     1     144.794 151.393 147.251  1.00  0.00     0.099 C 
ATOM      8  O   UNL     1     144.024 151.280 148.242  1.00  0.00    -0.544 OA
ATOM      9  O   UNL     1     145.775 152.376 147.255  1.00  0.00    -0.544 OA
ENDBRANCH   2   7
ENDBRANCH   1   2
BRANCH   1  10
ATOM     10  C   UNL     1     143.707 148.203 145.465  1.00  0.00    -0.041 A 
ATOM     11  C   UNL     1     142.883 148.066 144.336  1.00  0.00     0.008 A 
ATOM     12  C   UNL     1     144.630 147.187 145.770  1.00  0.00     0.008 A 
ATOM     13  C   UNL     1     142.989 146.937 143.518  1.00  0.00     0.046 A 
ATOM     14  C   UNL     1     144.733 146.059 144.951  1.00  0.00     0.046 A 
ATOM     15  C   UNL     1     143.914 145.932 143.821  1.00  0.00     0.115 A 
BRANCH  15  16
ATOM     16  O   UNL     1     144.007 144.813 142.997  1.00  0.00    -0.508 OA
ATOM     17  H   UNL     1     144.855 144.259 142.951  1.00  0.00     0.293 HD
ENDBRANCH  15  16
ENDBRANCH   1  10
TORSDOF 5
ENDMDL
MODEL 4
REMARK VINA RESULT:    -4.430      3.515      6.105
REMARK INTER + INTRA:          -5.609
REMARK INTER:                  -5.392
REMARK INTRA:                  -0.218
REMARK UNBOUND:                -0.143
REMARK SMILES [NH3+][C@H](Cc1ccc(O)cc1)C(=O)[O-]
REMARK SMILES IDX 3 1 2 2 1 3 11 7 12 8 13 9 4 10 5 11 10 12 6 13 9 14 7 15
REMARK SMILES IDX 8 16
REMARK H PARENT 1 4 1 5 1 6 8 17
REMARK Flexibility Score: inf
ROOT
ATOM      1  C   UNL     1     145.653 152.127 147.497  1.00  0.00     0.107 C 
ENDROOT
BRANCH   1   2
ATOM      2  C   UNL     1     144.632 151.002 147.222  1.00  0.00     0.232 C 
BRANCH   2   3
ATOM      3  N   UNL     1     143.344 151.272 147.876  1.00  0.00    -0.350 N 
ATOM      4  H   UNL     1     142.915 152.150 147.503  1.00  0.00     0.345 HD
ATOM      5  H   UNL     1     142.689 150.473 147.713  1.00  0.00     0.345 HD
ATOM      6  H   UNL     1     143.481 151.367 148.908  1.00  0.00     0.345 HD
ENDBRANCH   2   3
BRANCH   2   7
ATOM      7  C   UNL     1     144.439 150.842 145.737  1.00  0.00     0.099 C 
ATOM      8  O   UNL     1     144.965 151.657 144.932  1.00  0.00    -0.544 OA
ATOM      9  O   UNL     1     143.693 149.778 145.245  1.00  0.00    -0.544 OA
ENDBRANCH   2   7
ENDBRANCH   1   2
BRANCH   1  10
ATOM     10  C   UNL     1     146.907 151.600 148.147  1.00  0.00    -0.041 A 
ATOM     11  C   UNL     1     146.955 150.280 148.625  1.00  0.00     0.008 A 
ATOM     12  C   UNL     1     148.027 152.432 148.313  1.00  0.00     0.008 A 
ATOM     13  C   UNL     1     148.109 149.797 149.249  1.00  0.00     0.046 A 
ATOM     14  C   UNL     1     149.180 151.947 148.938  1.00  0.00     0.046 A 
ATOM     15  C   UNL     1     149.224 150.627 149.406  1.00  0.00     0.115 A 
BRANCH  15  16
ATOM     16  O   UNL     1     150.366 150.132 150.031  1.00  0.00    -0.508 OA
ATOM     17  H   UNL     1     150.306 149.537 150.848  1.00  0.00     0.293 HD
ENDBRANCH  15  16
ENDBRANCH   1  10
TORSDOF 5
ENDMDL
MODEL 5
REMARK VINA RESULT:    -4.414      3.540      6.249
REMARK INTER + INTRA:          -5.590
REMARK INTER:                  -5.380
REMARK INTRA:                  -0.210
REMARK UNBOUND:                -0.143
REMARK SMILES [NH3+][C@H](Cc1ccc(O)cc1)C(=O)[O-]
REMARK SMILES IDX 3 1 2 2 1 3 11 7 12 8 13 9 4 10 5 11 10 12 6 13 9 14 7 15
REMARK SMILES IDX 8 16
REMARK H PARENT 1 4 1 5 1 6 8 17
REMARK Flexibility Score: inf
ROOT
ATOM      1  C   UNL     1     145.977 152.167 147.456  1.00  0.00     0.107 C 
ENDROOT
BRANCH   1   2
ATOM      2  C   UNL     1     144.853 151.115 147.336  1.00  0.00     0.232 C 
BRANCH   2   3
ATOM      3  N   UNL     1     143.636 151.546 148.036  1.00  0.00    -0.350 N 
ATOM      4  H   UNL     1     143.479 152.573 147.912  1.00  0.00     0.345 HD
ATOM      5  H   UNL     1     142.808 151.025 147.663  1.00  0.00     0.345 HD
ATOM      6  H   UNL     1     143.714 151.331 149.056  1.00  0.00     0.345 HD
ENDBRANCH   2   3
BRANCH   2   7
ATOM      7  C   UNL     1     144.555 150.852 145.884  1.00  0.00     0.099 C 
ATOM      8  O   UNL     1     144.981 151.633 144.992  1.00  0.00    -0.544 OA
ATOM      9  O   UNL     1     143.822 149.730 145.519  1.00  0.00    -0.544 OA
ENDBRANCH   2   7
ENDBRANCH   1   2
BRANCH   1  10
ATOM     10  C   UNL     1     147.175 151.627 148.195  1.00  0.00    -0.041 A 
ATOM     11  C   UNL     1     148.308 152.434 148.390  1.00  0.00     0.008 A 
ATOM     12  C   UNL     1     147.186 150.302 148.664  1.00  0.00     0.008 A 
ATOM     13  C   UNL     1     149.428 151.928 149.056  1.00  0.00     0.046 A 
ATOM     14  C   UNL     1     148.308 149.798 149.329  1.00  0.00     0.046 A 
ATOM     15  C   UNL     1     149.432 150.611 149.528  1.00  0.00     0.115 A 
BRANCH  15  16
ATOM     16  O   UNL     1     150.556 150.120 150.187  1.00  0.00    -0.508 OA
ATOM     17  H   UNL     1     151.014 150.652 150.918  1.00  0.00     0.293 HD
ENDBRANCH  15  16
ENDBRANCH   1  10
TORSDOF 5
ENDMDL
MODEL 6
REMARK VINA RESULT:    -4.270      2.048      5.928
REMARK INTER + INTRA:          -5.412
REMARK INTER:                  -5.295
REMARK INTRA:                  -0.117
REMARK UNBOUND:                -0.143
REMARK SMILES [NH3+][C@H](Cc1ccc(O)cc1)C(=O)[O-]
REMARK SMILES IDX 3 1 2 2 1 3 11 7 12 8 13 9 4 10 5 11 10 12 6 13 9 14 7 15
REMARK SMILES IDX 8 16
REMARK H PARENT 1 4 1 5 1 6 8 17
REMARK Flexibility Score: inf
ROOT
ATOM      1  C   UNL     1     144.561 146.072 144.749  1.00  0.00     0.107 C 
ENDROOT
BRANCH   1   2
ATOM      2  C   UNL     1     143.317 145.808 143.873  1.00  0.00     0.232 C 
BRANCH   2   3
ATOM      3  N   UNL     1     143.240 146.752 142.750  1.00  0.00    -0.350 N 
ATOM      4  H   UNL     1     143.152 147.735 143.096  1.00  0.00     0.345 HD
ATOM      5  H   UNL     1     144.099 146.671 142.158  1.00  0.00     0.345 HD
ATOM      6  H   UNL     1     142.416 146.524 142.148  1.00  0.00     0.345 HD
ENDBRANCH   2   3
BRANCH   2   7
ATOM      7  C   UNL     1     143.346 144.392 143.363  1.00  0.00     0.099 C 
ATOM      8  O   UNL     1     142.875 144.111 142.229  1.00  0.00    -0.544 OA
ATOM      9  O   UNL     1     143.912 143.387 144.138  1.00  0.00    -0.544 OA
ENDBRANCH   2   7
ENDBRANCH   1   2
BRANCH   1  10
ATOM     10  C   UNL     1     144.360 147.248 145.671  1.00  0.00    -0.041 A 
ATOM     11  C   UNL     1     143.066 147.619 146.070  1.00  0.00     0.008 A 
ATOM     12  C   UNL     1     145.459 148.006 146.109  1.00  0.00     0.008 A 
ATOM     13  C   UNL     1     142.876 148.724 146.907  1.00  0.00     0.046 A 
ATOM     14  C   UNL     1     145.267 149.110 146.945  1.00  0.00     0.046 A 
ATOM     15  C   UNL     1     143.973 149.471 147.347  1.00  0.00     0.115 A 
BRANCH  15  16
ATOM     16  O   UNL     1     143.768 150.569 148.178  1.00  0.00    -0.508 OA
ATOM     17  H   UNL     1     142.903 151.096 148.155  1.00  0.00     0.293 HD
ENDBRANCH  15  16
ENDBRANCH   1  10
TORSDOF 5
ENDMDL
MODEL 7
REMARK VINA RESULT:    -4.159      4.439      6.558
REMARK INTER + INTRA:          -5.275
REMARK INTER:                  -5.106
REMARK INTRA:                  -0.169
REMARK UNBOUND:                -0.143
REMARK SMILES [NH3+][C@H](Cc1ccc(O)cc1)C(=O)[O-]
REMARK SMILES IDX 3 1 2 2 1 3 11 7 12 8 13 9 4 10 5 11 10 12 6 13 9 14 7 15
REMARK SMILES IDX 8 16
REMARK H PARENT 1 4 1 5 1 6 8 17
REMARK Flexibility Score: inf
ROOT
ATOM      1  C   UNL     1     145.617 150.115 148.111  1.00  0.00     0.107 C 
ENDROOT
BRANCH   1   2
ATOM      2  C   UNL     1     144.432 150.880 148.738  1.00  0.00     0.232 C 
BRANCH   2   3
ATOM      3  N   UNL     1     143.634 151.570 147.716  1.00  0.00    -0.350 N 
ATOM      4  H   UNL     1     144.120 152.435 147.386  1.00  0.00     0.345 HD
ATOM      5  H   UNL     1     143.474 150.934 146.901  1.00  0.00     0.345 HD
ATOM      6  H   UNL     1     142.699 151.828 148.107  1.00  0.00     0.345 HD
ENDBRANCH   2   3
BRANCH   2   7
ATOM      7  C   UNL     1     143.567 149.927 149.519  1.00  0.00     0.099 C 
ATOM      8  O   UNL     1     142.924 149.018 148.930  1.00  0.00    -0.544 OA
ATOM      9  O   UNL     1     143.491 150.033 150.903  1.00  0.00    -0.544 OA
ENDBRANCH   2   7
ENDBRANCH   1   2
BRANCH   1  10
ATOM     10  C   UNL     1     146.945 150.687 148.538  1.00  0.00    -0.041 A 
ATOM     11  C   UNL     1     147.237 152.041 148.311  1.00  0.00     0.008 A 
ATOM     12  C   UNL     1     147.916 149.864 149.134  1.00  0.00     0.008 A 
ATOM     13  C   UNL     1     148.477 152.568 148.687  1.00  0.00     0.046 A 
ATOM     14  C   UNL     1     149.155 150.393 149.507  1.00  0.00     0.046 A 
ATOM     15  C   UNL     1     149.438 151.747 149.286  1.00  0.00     0.115 A 
BRANCH  15  16
ATOM     16  O   UNL     1     150.669 152.286 149.653  1.00  0.00    -0.508 OA
ATOM     17  H   UNL     1     150.766 153.264 149.897  1.00  0.00     0.293 HD
ENDBRANCH  15  16
ENDBRANCH   1  10
TORSDOF 5
ENDMDL
MODEL 8
REMARK VINA RESULT:    -4.125      3.848      5.418
REMARK INTER + INTRA:          -5.233
REMARK INTER:                  -5.050
REMARK INTRA:                  -0.182
REMARK UNBOUND:                -0.143
REMARK SMILES [NH3+][C@H](Cc1ccc(O)cc1)C(=O)[O-]
REMARK SMILES IDX 3 1 2 2 1 3 11 7 12 8 13 9 4 10 5 11 10 12 6 13 9 14 7 15
REMARK SMILES IDX 8 16
REMARK H PARENT 1 4 1 5 1 6 8 17
REMARK Flexibility Score: inf
ROOT
ATOM      1  C   UNL     1     143.896 150.283 150.142  1.00  0.00     0.107 C 
ENDROOT
BRANCH   1   2
ATOM      2  C   UNL     1     143.986 148.763 150.393  1.00  0.00     0.232 C 
BRANCH   2   3
ATOM      3  N   UNL     1     145.372 148.283 150.302  1.00  0.00    -0.350 N 
ATOM      4  H   UNL     1     145.397 147.263 150.073  1.00  0.00     0.345 HD
ATOM      5  H   UNL     1     145.884 148.814 149.560  1.00  0.00     0.345 HD
ATOM      6  H   UNL     1     145.867 148.445 151.209  1.00  0.00     0.345 HD
ENDBRANCH   2   3
BRANCH   2   7
ATOM      7  C   UNL     1     143.409 148.436 151.744  1.00  0.00     0.099 C 
ATOM      8  O   UNL     1     142.875 147.314 151.958  1.00  0.00    -0.544 OA
ATOM      9  O   UNL     1     143.480 149.367 152.773  1.00  0.00    -0.544 OA
ENDBRANCH   2   7
ENDBRANCH   1   2
BRANCH   1  10
ATOM     10  C   UNL     1     144.196 150.635 148.707  1.00  0.00    -0.041 A 
ATOM     11  C   UNL     1     143.540 149.962 147.663  1.00  0.00     0.008 A 
ATOM     12  C   UNL     1     145.160 151.610 148.398  1.00  0.00     0.008 A 
ATOM     13  C   UNL     1     143.834 150.270 146.331  1.00  0.00     0.046 A 
ATOM     14  C   UNL     1     145.452 151.916 147.065  1.00  0.00     0.046 A 
ATOM     15  C   UNL     1     144.788 151.247 146.028  1.00  0.00     0.115 A 
BRANCH  15  16
ATOM     16  O   UNL     1     145.071 151.542 144.697  1.00  0.00    -0.508 OA
ATOM     17  H   UNL     1     145.981 151.352 144.295  1.00  0.00     0.293 HD
ENDBRANCH  15  16
ENDBRANCH   1  10
TORSDOF 5
ENDMDL
MODEL 9
REMARK VINA RESULT:    -4.121      3.473      6.519
REMARK INTER + INTRA:          -5.228
REMARK INTER:                  -5.009
REMARK INTRA:                  -0.218
REMARK UNBOUND:                -0.143
REMARK SMILES [NH3+][C@H](Cc1ccc(O)cc1)C(=O)[O-]
REMARK SMILES IDX 3 1 2 2 1 3 11 7 12 8 13 9 4 10 5 11 10 12 6 13 9 14 7 15
REMARK SMILES IDX 8 16
REMARK H PARENT 1 4 1 5 1 6 8 17
REMARK Flexibility Score: inf
ROOT
ATOM      1  C   UNL     1     146.158 149.699 148.390  1.00  0.00     0.107 C 
ENDROOT
BRANCH   1   2
ATOM      2  C   UNL     1     145.528 150.061 147.028  1.00  0.00     0.232 C 
BRANCH   2   3
ATOM      3  N   UNL     1     145.834 149.050 146.007  1.00  0.00    -0.350 N 
ATOM      4  H   UNL     1     146.503 148.337 146.378  1.00  0.00     0.345 HD
ATOM      5  H   UNL     1     144.954 148.571 145.706  1.00  0.00     0.345 HD
ATOM      6  H   UNL     1     146.251 149.508 145.164  1.00  0.00     0.345 HD
ENDBRANCH   2   3
BRANCH   2   7
ATOM      7  C   UNL     1     144.038 150.213 147.181  1.00  0.00     0.099 C 
ATOM      8  O   UNL     1     143.560 151.063 147.979  1.00  0.00    -0.544 OA
ATOM      9  O   UNL     1     143.179 149.426 146.424  1.00  0.00    -0.544 OA
ENDBRANCH   2   7
ENDBRANCH   1   2
BRANCH   1  10
ATOM     10  C   UNL     1     147.367 150.546 148.693  1.00  0.00    -0.041 A 
ATOM     11  C   UNL     1     148.486 149.981 149.327  1.00  0.00     0.008 A 
ATOM     12  C   UNL     1     147.374 151.916 148.379  1.00  0.00     0.008 A 
ATOM     13  C   UNL     1     149.599 150.772 149.630  1.00  0.00     0.046 A 
ATOM     14  C   UNL     1     148.488 152.704 148.683  1.00  0.00     0.046 A 
ATOM     15  C   UNL     1     149.605 152.133 149.309  1.00  0.00     0.115 A 
BRANCH  15  16
ATOM     16  O   UNL     1     150.720 152.907 149.617  1.00  0.00    -0.508 OA
ATOM     17  H   UNL     1     151.558 152.879 149.048  1.00  0.00     0.293 HD
ENDBRANCH  15  16
ENDBRANCH   1  10
TORSDOF 5
ENDMDL
