MODEL 1
REMARK VINA RESULT:    -4.011      0.000      0.000
REMARK INTER + INTRA:          -6.416
REMARK INTER:                  -6.122
REMARK INTRA:                  -0.294
REMARK UNBOUND:                -0.294
REMARK SMILES CC1=CCC[C@H](C)C(=O)C[C@@H](C(C)C)C(=O)C1
REMARK SMILES IDX 8 1 9 2 6 3 7 4 5 5 4 6 3 7 2 8 1 9 10 11 11 12 15 13 16 14
REMARK SMILES IDX 17 15 12 17 13 18 14 19
REMARK H PARENT
REMARK Flexibility Score: 70.00
ROOT
ATOM      1  C   UNL     1     100.675 117.920 122.646  1.00  0.00     0.136 C 
ATOM      2  O   UNL     1     100.753 119.077 123.036  1.00  0.00    -0.299 OA
ENDROOT
BRANCH   1   3
ATOM      3  C   UNL     1     100.765 117.625 121.160  1.00  0.00     0.053 C 
ATOM      4  C   UNL     1      99.605 118.293 120.410  1.00  0.00     0.016 C 
BRANCH   3   5
ATOM      5  C   UNL     1     102.128 118.091 120.597  1.00  0.00     0.015 C 
BRANCH   5   6
ATOM      6  C   UNL     1     103.166 116.953 120.606  1.00  0.00     0.028 C 
BRANCH   6   7
ATOM      7  C   UNL     1     102.557 115.590 120.389  1.00  0.00    -0.028 C 
ATOM      8  C   UNL     1     102.469 114.610 121.322  1.00  0.00    -0.070 CG0
ATOM      9  C   UNL     1     101.734 113.348 120.944  1.00  0.00     0.039 C 
ATOM     10  G   UNL     1     103.110 114.699 122.701  1.00  0.00     0.000 G0
ENDBRANCH   6   7
ENDBRANCH   5   6
ENDBRANCH   3   5
ENDBRANCH   1   3
BRANCH   1  11
ATOM     11  C   UNL     1     100.473 116.816 123.660  1.00  0.00     0.087 C 
BRANCH  11  12
ATOM     12  C   UNL     1     101.814 116.331 124.275  1.00  0.00     0.066 C 
BRANCH  12  13
ATOM     13  C   UNL     1     102.144 114.913 123.828  1.00  0.00     0.140 C 
ATOM     14  O   UNL     1     101.665 113.951 124.412  1.00  0.00    -0.299 OA
BRANCH  13  15
ATOM     15  C   UNL     1     103.116 114.687 122.695  1.00  0.00     0.106 CG0
ATOM     16  G   UNL     1     102.458 114.600 121.323  1.00  0.00     0.000 G0
ENDBRANCH  13  15
ENDBRANCH  12  13
BRANCH  12  17
ATOM     17  C   UNL     1     101.875 116.480 125.831  1.00  0.00    -0.006 C 
ATOM     18  C   UNL     1     101.289 117.806 126.352  1.00  0.00     0.008 C 
ATOM     19  C   UNL     1     103.308 116.304 126.358  1.00  0.00     0.008 C 
ENDBRANCH  12  17
ENDBRANCH  11  12
ENDBRANCH   1  11
TORSDOF 1
ENDMDL
MODEL 2
REMARK VINA RESULT:    -3.771      1.479      4.060
REMARK INTER + INTRA:          -6.049
REMARK INTER:                  -6.027
REMARK INTRA:                  -0.022
REMARK UNBOUND:                -0.294
REMARK SMILES CC1=CCC[C@H](C)C(=O)C[C@@H](C(C)C)C(=O)C1
REMARK SMILES IDX 8 1 9 2 6 3 7 4 5 5 4 6 3 7 2 8 1 9 10 11 11 12 15 13 16 14
REMARK SMILES IDX 17 15 12 17 13 18 14 19
REMARK H PARENT
REMARK Flexibility Score: 70.00
ROOT
ATOM      1  C   UNL     1     101.088 117.369 123.950  1.00  0.00     0.136 C 
ATOM      2  O   UNL     1      99.868 117.291 123.894  1.00  0.00    -0.299 OA
ENDROOT
BRANCH   1   3
ATOM      3  C   UNL     1     101.763 117.556 125.297  1.00  0.00     0.053 C 
ATOM      4  C   UNL     1     100.886 118.413 126.220  1.00  0.00     0.016 C 
BRANCH   3   5
ATOM      5  C   UNL     1     102.071 116.186 125.944  1.00  0.00     0.015 C 
BRANCH   5   6
ATOM      6  C   UNL     1     103.193 115.442 125.193  1.00  0.00     0.028 C 
BRANCH   6   7
ATOM      7  C   UNL     1     102.750 114.119 124.620  1.00  0.00    -0.028 C 
ATOM      8  C   UNL     1     102.768 113.785 123.306  1.00  0.00    -0.070 CG0
ATOM      9  C   UNL     1     102.378 112.375 122.938  1.00  0.00     0.039 C 
ATOM     10  G   UNL     1     103.112 114.765 122.192  1.00  0.00     0.000 G0
ENDBRANCH   6   7
ENDBRANCH   5   6
ENDBRANCH   3   5
ENDBRANCH   1   3
BRANCH   1  11
ATOM     11  C   UNL     1     101.888 117.291 122.670  1.00  0.00     0.087 C 
BRANCH  11  12
ATOM     12  C   UNL     1     101.175 116.444 121.581  1.00  0.00     0.066 C 
BRANCH  12  13
ATOM     13  C   UNL     1     101.922 115.143 121.318  1.00  0.00     0.140 C 
ATOM     14  O   UNL     1     101.545 114.378 120.441  1.00  0.00    -0.299 OA
BRANCH  13  15
ATOM     15  C   UNL     1     103.100 114.762 122.183  1.00  0.00     0.106 CG0
ATOM     16  G   UNL     1     102.753 113.797 123.309  1.00  0.00     0.000 G0
ENDBRANCH  13  15
ENDBRANCH  12  13
BRANCH  12  17
ATOM     17  C   UNL     1     100.898 117.234 120.260  1.00  0.00    -0.006 C 
ATOM     18  C   UNL     1     102.020 118.217 119.875  1.00  0.00     0.008 C 
ATOM     19  C   UNL     1      99.555 117.979 120.319  1.00  0.00     0.008 C 
ENDBRANCH  12  17
ENDBRANCH  11  12
ENDBRANCH   1  11
TORSDOF 1
ENDMDL
MODEL 3
REMARK VINA RESULT:    -3.752      1.745      2.653
REMARK INTER + INTRA:          -6.020
REMARK INTER:                  -6.017
REMARK INTRA:                  -0.003
REMARK UNBOUND:                -0.294
REMARK SMILES CC1=CCC[C@H](C)C(=O)C[C@@H](C(C)C)C(=O)C1
REMARK SMILES IDX 8 1 9 2 6 3 7 4 5 5 4 6 3 7 2 8 1 9 10 11 11 12 15 13 16 14
REMARK SMILES IDX 17 15 12 17 13 18 14 19
REMARK H PARENT
REMARK Flexibility Score: 70.00
ROOT
ATOM      1  C   UNL     1     100.866 117.873 124.348  1.00  0.00     0.136 C 
ATOM      2  O   UNL     1     100.962 118.140 125.539  1.00  0.00    -0.299 OA
ENDROOT
BRANCH   1   3
ATOM      3  C   UNL     1     100.354 118.930 123.386  1.00  0.00     0.053 C 
ATOM      4  C   UNL     1     100.093 120.248 124.127  1.00  0.00     0.016 C 
BRANCH   3   5
ATOM      5  C   UNL     1     101.355 119.136 122.226  1.00  0.00     0.015 C 
BRANCH   5   6
ATOM      6  C   UNL     1     100.888 118.428 120.939  1.00  0.00     0.028 C 
BRANCH   6   7
ATOM      7  C   UNL     1     102.029 117.950 120.076  1.00  0.00    -0.028 C 
ATOM      8  C   UNL     1     102.680 116.769 120.216  1.00  0.00    -0.070 CG0
ATOM      9  C   UNL     1     103.732 116.424 119.191  1.00  0.00     0.039 C 
ATOM     10  G   UNL     1     102.440 115.805 121.371  1.00  0.00     0.000 G0
ENDBRANCH   6   7
ENDBRANCH   5   6
ENDBRANCH   3   5
ENDBRANCH   1   3
BRANCH   1  11
ATOM     11  C   UNL     1     101.247 116.490 123.873  1.00  0.00     0.087 C 
BRANCH  11  12
ATOM     12  C   UNL     1     102.778 116.244 123.944  1.00  0.00     0.066 C 
BRANCH  12  13
ATOM     13  C   UNL     1     103.355 115.955 122.565  1.00  0.00     0.140 C 
ATOM     14  O   UNL     1     104.565 115.900 122.398  1.00  0.00    -0.299 OA
BRANCH  13  15
ATOM     15  C   UNL     1     102.432 115.795 121.381  1.00  0.00     0.106 CG0
ATOM     16  G   UNL     1     102.698 116.782 120.251  1.00  0.00     0.000 G0
ENDBRANCH  13  15
ENDBRANCH  12  13
BRANCH  12  17
ATOM     17  C   UNL     1     103.186 115.151 124.987  1.00  0.00    -0.006 C 
ATOM     18  C   UNL     1     102.368 113.850 124.877  1.00  0.00     0.008 C 
ATOM     19  C   UNL     1     103.114 115.689 126.425  1.00  0.00     0.008 C 
ENDBRANCH  12  17
ENDBRANCH  11  12
ENDBRANCH   1  11
TORSDOF 1
ENDMDL
MODEL 4
REMARK VINA RESULT:    -3.702      1.588      3.692
REMARK INTER + INTRA:          -5.943
REMARK INTER:                  -6.194
REMARK INTRA:                   0.250
REMARK UNBOUND:                -0.294
REMARK SMILES CC1=CCC[C@H](C)C(=O)C[C@@H](C(C)C)C(=O)C1
REMARK SMILES IDX 8 1 9 2 6 3 7 4 5 5 4 6 3 7 2 8 1 9 10 11 11 12 15 13 16 14
REMARK SMILES IDX 17 15 12 17 13 18 14 19
REMARK H PARENT
REMARK Flexibility Score: 70.00
ROOT
ATOM      1  C   UNL     1     102.692 114.840 124.934  1.00  0.00     0.136 C 
ATOM      2  O   UNL     1     102.834 114.669 126.137  1.00  0.00    -0.299 OA
ENDROOT
BRANCH   1   3
ATOM      3  C   UNL     1     102.541 113.637 124.021  1.00  0.00     0.053 C 
ATOM      4  C   UNL     1     101.080 113.166 123.993  1.00  0.00     0.016 C 
BRANCH   3   5
ATOM      5  C   UNL     1     103.041 113.971 122.597  1.00  0.00     0.015 C 
BRANCH   5   6
ATOM      6  C   UNL     1     101.917 113.831 121.552  1.00  0.00     0.028 C 
BRANCH   6   7
ATOM      7  C   UNL     1     102.088 114.749 120.367  1.00  0.00    -0.028 C 
ATOM      8  C   UNL     1     101.599 116.010 120.272  1.00  0.00    -0.070 CG0
ATOM      9  C   UNL     1     101.960 116.810 119.046  1.00  0.00     0.039 C 
ATOM     10  G   UNL     1     100.674 116.636 121.309  1.00  0.00     0.000 G0
ENDBRANCH   6   7
ENDBRANCH   5   6
ENDBRANCH   3   5
ENDBRANCH   1   3
BRANCH   1  11
ATOM     11  C   UNL     1     102.686 116.251 124.390  1.00  0.00     0.087 C 
BRANCH  11  12
ATOM     12  C   UNL     1     101.286 116.675 123.869  1.00  0.00     0.066 C 
BRANCH  12  13
ATOM     13  C   UNL     1     101.381 117.303 122.484  1.00  0.00     0.140 C 
ATOM     14  O   UNL     1     101.990 118.350 122.320  1.00  0.00    -0.299 OA
BRANCH  13  15
ATOM     15  C   UNL     1     100.668 116.664 121.316  1.00  0.00     0.106 CG0
ATOM     16  G   UNL     1     101.603 116.023 120.297  1.00  0.00     0.000 G0
ENDBRANCH  13  15
ENDBRANCH  12  13
BRANCH  12  17
ATOM     17  C   UNL     1     100.498 117.584 124.868  1.00  0.00    -0.006 C 
ATOM     18  C   UNL     1      99.877 118.834 124.215  1.00  0.00     0.008 C 
ATOM     19  C   UNL     1     101.374 118.003 126.060  1.00  0.00     0.008 C 
ENDBRANCH  12  17
ENDBRANCH  11  12
ENDBRANCH   1  11
TORSDOF 1
ENDMDL
MODEL 5
REMARK VINA RESULT:    -3.696      1.887      4.348
REMARK INTER + INTRA:          -5.934
REMARK INTER:                  -6.128
REMARK INTRA:                   0.194
REMARK UNBOUND:                -0.294
REMARK SMILES CC1=CCC[C@H](C)C(=O)C[C@@H](C(C)C)C(=O)C1
REMARK SMILES IDX 8 1 9 2 6 3 7 4 5 5 4 6 3 7 2 8 1 9 10 11 11 12 15 13 16 14
REMARK SMILES IDX 17 15 12 17 13 18 14 19
REMARK H PARENT
REMARK Flexibility Score: 70.00
ROOT
ATOM      1  C   UNL     1     100.468 118.777 122.754  1.00  0.00     0.136 C 
ATOM      2  O   UNL     1      99.447 118.222 122.370  1.00  0.00    -0.299 OA
ENDROOT
BRANCH   1   3
ATOM      3  C   UNL     1     100.365 119.943 123.721  1.00  0.00     0.053 C 
ATOM      4  C   UNL     1      98.982 120.601 123.621  1.00  0.00     0.016 C 
BRANCH   3   5
ATOM      5  C   UNL     1     100.651 119.475 125.166  1.00  0.00     0.015 C 
BRANCH   5   6
ATOM      6  C   UNL     1     100.522 117.945 125.305  1.00  0.00     0.028 C 
BRANCH   6   7
ATOM      7  C   UNL     1     101.626 117.327 126.126  1.00  0.00    -0.028 C 
ATOM      8  C   UNL     1     102.413 116.294 125.736  1.00  0.00    -0.070 CG0
ATOM      9  C   UNL     1     103.531 115.879 126.658  1.00  0.00     0.039 C 
ATOM     10  G   UNL     1     102.196 115.509 124.448  1.00  0.00     0.000 G0
ENDBRANCH   6   7
ENDBRANCH   5   6
ENDBRANCH   3   5
ENDBRANCH   1   3
BRANCH   1  11
ATOM     11  C   UNL     1     101.804 118.293 122.240  1.00  0.00     0.087 C 
BRANCH  11  12
ATOM     12  C   UNL     1     101.873 116.744 122.147  1.00  0.00     0.066 C 
BRANCH  12  13
ATOM     13  C   UNL     1     102.792 116.169 123.216  1.00  0.00     0.140 C 
ATOM     14  O   UNL     1     104.006 116.197 123.070  1.00  0.00    -0.299 OA
BRANCH  13  15
ATOM     15  C   UNL     1     102.205 115.502 124.437  1.00  0.00     0.106 CG0
ATOM     16  G   UNL     1     102.421 116.279 125.729  1.00  0.00     0.000 G0
ENDBRANCH  13  15
ENDBRANCH  12  13
BRANCH  12  17
ATOM     17  C   UNL     1     102.240 116.221 120.719  1.00  0.00    -0.006 C 
ATOM     18  C   UNL     1     102.134 117.293 119.618  1.00  0.00     0.008 C 
ATOM     19  C   UNL     1     101.396 114.996 120.333  1.00  0.00     0.008 C 
ENDBRANCH  12  17
ENDBRANCH  11  12
ENDBRANCH   1  11
TORSDOF 1
ENDMDL
MODEL 6
REMARK VINA RESULT:    -3.655      1.824      3.779
REMARK INTER + INTRA:          -5.872
REMARK INTER:                  -5.977
REMARK INTRA:                   0.105
REMARK UNBOUND:                -0.294
REMARK SMILES CC1=CCC[C@H](C)C(=O)C[C@@H](C(C)C)C(=O)C1
REMARK SMILES IDX 8 1 9 2 6 3 7 4 5 5 4 6 3 7 2 8 1 9 10 11 11 12 15 13 16 14
REMARK SMILES IDX 17 15 12 17 13 18 14 19
REMARK H PARENT
REMARK Flexibility Score: 70.00
ROOT
ATOM      1  C   UNL     1     101.609 116.459 124.658  1.00  0.00     0.136 C 
ATOM      2  O   UNL     1     102.598 116.445 125.378  1.00  0.00    -0.299 OA
ENDROOT
BRANCH   1   3
ATOM      3  C   UNL     1     100.686 117.664 124.680  1.00  0.00     0.053 C 
ATOM      4  C   UNL     1     100.802 118.403 126.021  1.00  0.00     0.016 C 
BRANCH   3   5
ATOM      5  C   UNL     1     101.002 118.610 123.499  1.00  0.00     0.015 C 
BRANCH   5   6
ATOM      6  C   UNL     1     100.093 118.329 122.287  1.00  0.00     0.028 C 
BRANCH   6   7
ATOM      7  C   UNL     1     100.831 118.351 120.971  1.00  0.00    -0.028 C 
ATOM      8  C   UNL     1     101.321 117.264 120.327  1.00  0.00    -0.070 CG0
ATOM      9  C   UNL     1     101.944 117.477 118.970  1.00  0.00     0.039 C 
ATOM     10  G   UNL     1     101.318 115.860 120.918  1.00  0.00     0.000 G0
ENDBRANCH   6   7
ENDBRANCH   5   6
ENDBRANCH   3   5
ENDBRANCH   1   3
BRANCH   1  11
ATOM     11  C   UNL     1     101.327 115.264 123.776  1.00  0.00     0.087 C 
BRANCH  11  12
ATOM     12  C   UNL     1     102.579 114.813 122.977  1.00  0.00     0.066 C 
BRANCH  12  13
ATOM     13  C   UNL     1     102.616 115.460 121.599  1.00  0.00     0.140 C 
ATOM     14  O   UNL     1     103.685 115.726 121.067  1.00  0.00    -0.299 OA
BRANCH  13  15
ATOM     15  C   UNL     1     101.327 115.835 120.907  1.00  0.00     0.106 CG0
ATOM     16  G   UNL     1     101.317 117.249 120.340  1.00  0.00     0.000 G0
ENDBRANCH  13  15
ENDBRANCH  12  13
BRANCH  12  17
ATOM     17  C   UNL     1     102.741 113.260 122.896  1.00  0.00    -0.006 C 
ATOM     18  C   UNL     1     101.497 112.533 122.350  1.00  0.00     0.008 C 
ATOM     19  C   UNL     1     103.135 112.662 124.256  1.00  0.00     0.008 C 
ENDBRANCH  12  17
ENDBRANCH  11  12
ENDBRANCH   1  11
TORSDOF 1
ENDMDL
MODEL 7
REMARK VINA RESULT:    -3.631      2.041      5.152
REMARK INTER + INTRA:          -5.835
REMARK INTER:                  -6.316
REMARK INTRA:                   0.482
REMARK UNBOUND:                -0.294
REMARK SMILES CC1=CCC[C@H](C)C(=O)C[C@@H](C(C)C)C(=O)C1
REMARK SMILES IDX 8 1 9 2 6 3 7 4 5 5 4 6 3 7 2 8 1 9 10 11 11 12 15 13 16 14
REMARK SMILES IDX 17 15 12 17 13 18 14 19
REMARK H PARENT
REMARK Flexibility Score: 70.00
ROOT
ATOM      1  C   UNL     1     102.775 115.640 124.509  1.00  0.00     0.136 C 
ATOM      2  O   UNL     1     103.886 115.915 124.076  1.00  0.00    -0.299 OA
ENDROOT
BRANCH   1   3
ATOM      3  C   UNL     1     102.375 116.119 125.893  1.00  0.00     0.053 C 
ATOM      4  C   UNL     1     103.417 115.684 126.932  1.00  0.00     0.016 C 
BRANCH   3   5
ATOM      5  C   UNL     1     102.191 117.654 125.903  1.00  0.00     0.015 C 
BRANCH   5   6
ATOM      6  C   UNL     1     100.703 118.049 125.824  1.00  0.00     0.028 C 
BRANCH   6   7
ATOM      7  C   UNL     1     100.365 118.850 124.591  1.00  0.00    -0.028 C 
ATOM      8  C   UNL     1      99.950 118.335 123.408  1.00  0.00    -0.070 CG0
ATOM      9  C   UNL     1      99.563 119.305 122.320  1.00  0.00     0.039 C 
ATOM     10  G   UNL     1      99.900 116.841 123.110  1.00  0.00     0.000 G0
ENDBRANCH   6   7
ENDBRANCH   5   6
ENDBRANCH   3   5
ENDBRANCH   1   3
BRANCH   1  11
ATOM     11  C   UNL     1     101.837 114.817 123.656  1.00  0.00     0.087 C 
BRANCH  11  12
ATOM     12  C   UNL     1     101.822 115.287 122.176  1.00  0.00     0.066 C 
BRANCH  12  13
ATOM     13  C   UNL     1     100.804 116.398 121.961  1.00  0.00     0.140 C 
ATOM     14  O   UNL     1     100.746 116.987 120.891  1.00  0.00    -0.299 OA
BRANCH  13  15
ATOM     15  C   UNL     1      99.899 116.821 123.094  1.00  0.00     0.106 CG0
ATOM     16  G   UNL     1      99.959 118.311 123.410  1.00  0.00     0.000 G0
ENDBRANCH  13  15
ENDBRANCH  12  13
BRANCH  12  17
ATOM     17  C   UNL     1     101.634 114.119 121.153  1.00  0.00    -0.006 C 
ATOM     18  C   UNL     1     101.839 112.719 121.763  1.00  0.00     0.008 C 
ATOM     19  C   UNL     1     102.546 114.289 119.928  1.00  0.00     0.008 C 
ENDBRANCH  12  17
ENDBRANCH  11  12
ENDBRANCH   1  11
TORSDOF 1
ENDMDL
MODEL 8
REMARK VINA RESULT:    -3.511      1.935      2.823
REMARK INTER + INTRA:          -5.652
REMARK INTER:                  -5.339
REMARK INTRA:                  -0.314
REMARK UNBOUND:                -0.294
REMARK SMILES CC1=CCC[C@H](C)C(=O)C[C@@H](C(C)C)C(=O)C1
REMARK SMILES IDX 8 1 9 2 6 3 7 4 5 5 4 6 3 7 2 8 1 9 10 11 11 12 15 13 16 14
REMARK SMILES IDX 17 15 12 17 13 18 14 19
REMARK H PARENT
REMARK Flexibility Score: 70.00
ROOT
ATOM      1  C   UNL     1      99.659 117.880 120.215  1.00  0.00     0.136 C 
ATOM      2  O   UNL     1      98.869 118.762 119.907  1.00  0.00    -0.299 OA
ENDROOT
BRANCH   1   3
ATOM      3  C   UNL     1     100.457 117.180 119.130  1.00  0.00     0.053 C 
ATOM      4  C   UNL     1     101.749 117.953 118.832  1.00  0.00     0.016 C 
BRANCH   3   5
ATOM      5  C   UNL     1     100.767 115.722 119.540  1.00  0.00     0.015 C 
BRANCH   5   6
ATOM      6  C   UNL     1     102.283 115.446 119.554  1.00  0.00     0.028 C 
BRANCH   6   7
ATOM      7  C   UNL     1     102.715 114.556 120.693  1.00  0.00    -0.028 C 
ATOM      8  C   UNL     1     103.035 114.977 121.942  1.00  0.00    -0.070 CG0
ATOM      9  C   UNL     1     103.349 113.925 122.976  1.00  0.00     0.039 C 
ATOM     10  G   UNL     1     103.139 116.445 122.336  1.00  0.00     0.000 G0
ENDBRANCH   6   7
ENDBRANCH   5   6
ENDBRANCH   3   5
ENDBRANCH   1   3
BRANCH   1  11
ATOM     11  C   UNL     1      99.805 117.502 121.671  1.00  0.00     0.087 C 
BRANCH  11  12
ATOM     12  C   UNL     1     101.095 118.088 122.306  1.00  0.00     0.066 C 
BRANCH  12  13
ATOM     13  C   UNL     1     101.904 117.006 123.008  1.00  0.00     0.140 C 
ATOM     14  O   UNL     1     101.589 116.625 124.127  1.00  0.00    -0.299 OA
BRANCH  13  15
ATOM     15  C   UNL     1     103.139 116.439 122.349  1.00  0.00     0.106 CG0
ATOM     16  G   UNL     1     103.009 114.975 121.948  1.00  0.00     0.000 G0
ENDBRANCH  13  15
ENDBRANCH  12  13
BRANCH  12  17
ATOM     17  C   UNL     1     100.830 119.315 123.238  1.00  0.00    -0.006 C 
ATOM     18  C   UNL     1      99.337 119.657 123.406  1.00  0.00     0.008 C 
ATOM     19  C   UNL     1     101.596 120.560 122.764  1.00  0.00     0.008 C 
ENDBRANCH  12  17
ENDBRANCH  11  12
ENDBRANCH   1  11
TORSDOF 1
ENDMDL
MODEL 9
REMARK VINA RESULT:    -3.487      2.308      4.214
REMARK INTER + INTRA:          -5.615
REMARK INTER:                  -5.366
REMARK INTRA:                  -0.249
REMARK UNBOUND:                -0.294
REMARK SMILES CC1=CCC[C@H](C)C(=O)C[C@@H](C(C)C)C(=O)C1
REMARK SMILES IDX 8 1 9 2 6 3 7 4 5 5 4 6 3 7 2 8 1 9 10 11 11 12 15 13 16 14
REMARK SMILES IDX 17 15 12 17 13 18 14 19
REMARK H PARENT
REMARK Flexibility Score: 70.00
ROOT
ATOM      1  C   UNL     1     102.076 115.564 119.607  1.00  0.00     0.136 C 
ATOM      2  O   UNL     1     101.744 114.517 119.066  1.00  0.00    -0.299 OA
ENDROOT
BRANCH   1   3
ATOM      3  C   UNL     1     101.784 116.885 118.920  1.00  0.00     0.053 C 
ATOM      4  C   UNL     1     102.462 116.934 117.544  1.00  0.00     0.016 C 
BRANCH   3   5
ATOM      5  C   UNL     1     100.259 117.104 118.793  1.00  0.00     0.015 C 
BRANCH   5   6
ATOM      6  C   UNL     1      99.553 116.993 120.158  1.00  0.00     0.028 C 
BRANCH   6   7
ATOM      7  C   UNL     1      99.833 118.162 121.070  1.00  0.00    -0.028 C 
ATOM      8  C   UNL     1     100.212 118.074 122.368  1.00  0.00    -0.070 CG0
ATOM      9  C   UNL     1     100.544 119.356 123.089  1.00  0.00     0.039 C 
ATOM     10  G   UNL     1     100.274 116.762 123.141  1.00  0.00     0.000 G0
ENDBRANCH   6   7
ENDBRANCH   5   6
ENDBRANCH   3   5
ENDBRANCH   1   3
BRANCH   1  11
ATOM     11  C   UNL     1     102.784 115.506 120.942  1.00  0.00     0.087 C 
BRANCH  11  12
ATOM     12  C   UNL     1     101.859 114.991 122.077  1.00  0.00     0.066 C 
BRANCH  12  13
ATOM     13  C   UNL     1     101.609 116.074 123.118  1.00  0.00     0.140 C 
ATOM     14  O   UNL     1     102.466 116.348 123.946  1.00  0.00    -0.299 OA
BRANCH  13  15
ATOM     15  C   UNL     1     100.272 116.775 123.170  1.00  0.00     0.106 CG0
ATOM     16  G   UNL     1     100.216 118.061 122.356  1.00  0.00     0.000 G0
ENDBRANCH  13  15
ENDBRANCH  12  13
BRANCH  12  17
ATOM     17  C   UNL     1     102.356 113.660 122.730  1.00  0.00    -0.006 C 
ATOM     18  C   UNL     1     102.677 112.549 121.712  1.00  0.00     0.008 C 
ATOM     19  C   UNL     1     101.356 113.134 123.772  1.00  0.00     0.008 C 
ENDBRANCH  12  17
ENDBRANCH  11  12
ENDBRANCH   1  11
TORSDOF 1
ENDMDL
