MODEL 1
REMARK VINA RESULT:    -0.866      0.000      0.000
REMARK INTER + INTRA:           0.055
REMARK INTER:                  -1.321
REMARK INTRA:                   1.377
REMARK UNBOUND:                 1.377
REMARK SMILES CC1=CCC[C@@H](C)C(=O)C[C@H](C(C)C)C(=O)C1
REMARK SMILES IDX 8 1 9 2 6 3 7 4 5 5 4 6 3 7 2 8 1 9 10 11 11 12 15 13 16 14
REMARK SMILES IDX 17 15 12 17 13 18 14 19
REMARK H PARENT
REMARK Flexibility Score: 70.00
ROOT
ATOM      1  C   UNL     1      77.222  35.644  52.020  1.00  0.00     0.136 C 
ATOM      2  O   UNL     1      77.766  36.101  53.016  1.00  0.00    -0.299 OA
ENDROOT
BRANCH   1   3
ATOM      3  C   UNL     1      75.813  35.052  52.140  1.00  0.00     0.053 C 
ATOM      4  C   UNL     1      74.884  36.028  52.886  1.00  0.00     0.016 C 
BRANCH   3   5
ATOM      5  C   UNL     1      75.772  33.665  52.846  1.00  0.00     0.015 C 
BRANCH   5   6
ATOM      6  C   UNL     1      76.383  32.525  51.998  1.00  0.00     0.028 C 
BRANCH   6   7
ATOM      7  C   UNL     1      77.550  31.865  52.695  1.00  0.00    -0.028 C 
ATOM      8  C   UNL     1      78.859  31.991  52.359  1.00  0.00    -0.070 CG0
ATOM      9  C   UNL     1      79.876  31.284  53.216  1.00  0.00     0.039 C 
ATOM     10  G   UNL     1      79.361  32.828  51.196  1.00  0.00     0.000 G0
ENDBRANCH   6   7
ENDBRANCH   5   6
ENDBRANCH   3   5
ENDBRANCH   1   3
BRANCH   1  11
ATOM     11  C   UNL     1      77.986  35.717  50.718  1.00  0.00     0.087 C 
BRANCH  11  12
ATOM     12  C   UNL     1      79.530  35.466  50.756  1.00  0.00     0.066 C 
BRANCH  12  13
ATOM     13  C   UNL     1      79.788  34.235  51.619  1.00  0.00     0.140 C 
ATOM     14  O   UNL     1      80.278  34.390  52.729  1.00  0.00    -0.299 OA
BRANCH  13  15
ATOM     15  C   UNL     1      79.395  32.836  51.197  1.00  0.00     0.106 CG0
ATOM     16  G   UNL     1      78.884  32.019  52.371  1.00  0.00     0.000 G0
ENDBRANCH  13  15
ENDBRANCH  12  13
BRANCH  12  17
ATOM     17  C   UNL     1      80.330  35.438  49.401  1.00  0.00    -0.006 C 
ATOM     18  C   UNL     1      79.528  36.115  48.267  1.00  0.00     0.008 C 
ATOM     19  C   UNL     1      80.674  34.002  48.942  1.00  0.00     0.008 C 
ENDBRANCH  12  17
ENDBRANCH  11  12
ENDBRANCH   1  11
TORSDOF 1
ENDMDL
MODEL 2
REMARK VINA RESULT:    -0.778     14.526     16.777
REMARK INTER + INTRA:           0.190
REMARK INTER:                  -1.325
REMARK INTRA:                   1.515
REMARK UNBOUND:                 1.377
REMARK SMILES CC1=CCC[C@@H](C)C(=O)C[C@H](C(C)C)C(=O)C1
REMARK SMILES IDX 8 1 9 2 6 3 7 4 5 5 4 6 3 7 2 8 1 9 10 11 11 12 15 13 16 14
REMARK SMILES IDX 17 15 12 17 13 18 14 19
REMARK H PARENT
REMARK Flexibility Score: 70.00
ROOT
ATOM      1  C   UNL     1      87.487  29.225  64.958  1.00  0.00     0.136 C 
ATOM      2  O   UNL     1      87.983  29.549  63.888  1.00  0.00    -0.299 OA
ENDROOT
BRANCH   1   3
ATOM      3  C   UNL     1      86.759  27.881  65.070  1.00  0.00     0.053 C 
ATOM      4  C   UNL     1      87.604  26.760  64.437  1.00  0.00     0.016 C 
BRANCH   3   5
ATOM      5  C   UNL     1      85.340  27.879  64.427  1.00  0.00     0.015 C 
BRANCH   5   6
ATOM      6  C   UNL     1      84.342  28.825  65.135  1.00  0.00     0.028 C 
BRANCH   6   7
ATOM      7  C   UNL     1      84.242  30.162  64.438  1.00  0.00    -0.028 C 
ATOM      8  C   UNL     1      84.297  31.381  65.033  1.00  0.00    -0.070 CG0
ATOM      9  C   UNL     1      84.223  32.599  64.149  1.00  0.00     0.039 C 
ATOM     10  G   UNL     1      84.464  31.591  66.528  1.00  0.00     0.000 G0
ENDBRANCH   6   7
ENDBRANCH   5   6
ENDBRANCH   3   5
ENDBRANCH   1   3
BRANCH   1  11
ATOM     11  C   UNL     1      87.650  30.182  66.115  1.00  0.00     0.087 C 
BRANCH  11  12
ATOM     12  C   UNL     1      87.056  31.623  65.968  1.00  0.00     0.066 C 
BRANCH  12  13
ATOM     13  C   UNL     1      85.887  31.754  66.940  1.00  0.00     0.140 C 
ATOM     14  O   UNL     1      86.120  32.078  68.096  1.00  0.00    -0.299 OA
BRANCH  13  15
ATOM     15  C   UNL     1      84.444  31.577  66.522  1.00  0.00     0.106 CG0
ATOM     16  G   UNL     1      84.314  31.386  65.021  1.00  0.00     0.000 G0
ENDBRANCH  13  15
ENDBRANCH  12  13
BRANCH  12  17
ATOM     17  C   UNL     1      88.031  32.857  66.019  1.00  0.00    -0.006 C 
ATOM     18  C   UNL     1      87.981  33.550  67.399  1.00  0.00     0.008 C 
ATOM     19  C   UNL     1      87.702  33.920  64.945  1.00  0.00     0.008 C 
ENDBRANCH  12  17
ENDBRANCH  11  12
ENDBRANCH   1  11
TORSDOF 1
ENDMDL
MODEL 3
REMARK VINA RESULT:    -0.236     14.807     16.563
REMARK INTER + INTRA:           1.016
REMARK INTER:                  -1.110
REMARK INTRA:                   2.125
REMARK UNBOUND:                 1.377
REMARK SMILES CC1=CCC[C@@H](C)C(=O)C[C@H](C(C)C)C(=O)C1
REMARK SMILES IDX 8 1 9 2 6 3 7 4 5 5 4 6 3 7 2 8 1 9 10 11 11 12 15 13 16 14
REMARK SMILES IDX 17 15 12 17 13 18 14 19
REMARK H PARENT
REMARK Flexibility Score: 70.00
ROOT
ATOM      1  C   UNL     1      85.233  31.504  66.442  1.00  0.00     0.136 C 
ATOM      2  O   UNL     1      84.339  31.926  67.163  1.00  0.00    -0.299 OA
ENDROOT
BRANCH   1   3
ATOM      3  C   UNL     1      84.964  31.319  64.944  1.00  0.00     0.053 C 
ATOM      4  C   UNL     1      84.022  32.423  64.430  1.00  0.00     0.016 C 
BRANCH   3   5
ATOM      5  C   UNL     1      84.370  29.927  64.580  1.00  0.00     0.015 C 
BRANCH   5   6
ATOM      6  C   UNL     1      85.017  28.758  65.358  1.00  0.00     0.028 C 
BRANCH   6   7
ATOM      7  C   UNL     1      85.984  27.975  64.500  1.00  0.00    -0.028 C 
ATOM      8  C   UNL     1      87.338  28.046  64.552  1.00  0.00    -0.070 CG0
ATOM      9  C   UNL     1      88.125  27.142  63.638  1.00  0.00     0.039 C 
ATOM     10  G   UNL     1      88.107  28.953  65.496  1.00  0.00     0.000 G0
ENDBRANCH   6   7
ENDBRANCH   5   6
ENDBRANCH   3   5
ENDBRANCH   1   3
BRANCH   1  11
ATOM     11  C   UNL     1      86.565  31.209  67.091  1.00  0.00     0.087 C 
BRANCH  11  12
ATOM     12  C   UNL     1      87.865  31.486  66.264  1.00  0.00     0.066 C 
BRANCH  12  13
ATOM     13  C   UNL     1      87.985  30.404  65.195  1.00  0.00     0.140 C 
ATOM     14  O   UNL     1      88.052  30.744  64.023  1.00  0.00    -0.299 OA
BRANCH  13  15
ATOM     15  C   UNL     1      88.102  28.931  65.523  1.00  0.00     0.106 CG0
ATOM     16  G   UNL     1      87.365  28.072  64.511  1.00  0.00     0.000 G0
ENDBRANCH  13  15
ENDBRANCH  12  13
BRANCH  12  17
ATOM     17  C   UNL     1      88.112  32.933  65.697  1.00  0.00    -0.006 C 
ATOM     18  C   UNL     1      88.026  33.993  66.817  1.00  0.00     0.008 C 
ATOM     19  C   UNL     1      87.096  33.323  64.598  1.00  0.00     0.008 C 
ENDBRANCH  12  17
ENDBRANCH  11  12
ENDBRANCH   1  11
TORSDOF 1
ENDMDL
MODEL 4
REMARK VINA RESULT:     0.050     14.503     16.434
REMARK INTER + INTRA:           1.453
REMARK INTER:                   0.501
REMARK INTRA:                   0.951
REMARK UNBOUND:                 1.377
REMARK SMILES CC1=CCC[C@@H](C)C(=O)C[C@H](C(C)C)C(=O)C1
REMARK SMILES IDX 8 1 9 2 6 3 7 4 5 5 4 6 3 7 2 8 1 9 10 11 11 12 15 13 16 14
REMARK SMILES IDX 17 15 12 17 13 18 14 19
REMARK H PARENT
REMARK Flexibility Score: 70.00
ROOT
ATOM      1  C   UNL     1      87.771  33.460  66.086  1.00  0.00     0.136 C 
ATOM      2  O   UNL     1      87.794  34.681  66.010  1.00  0.00    -0.299 OA
ENDROOT
BRANCH   1   3
ATOM      3  C   UNL     1      87.553  32.799  67.451  1.00  0.00     0.053 C 
ATOM      4  C   UNL     1      87.870  31.294  67.374  1.00  0.00     0.016 C 
BRANCH   3   5
ATOM      5  C   UNL     1      86.116  32.991  68.021  1.00  0.00     0.015 C 
BRANCH   5   6
ATOM      6  C   UNL     1      85.224  31.736  67.879  1.00  0.00     0.028 C 
BRANCH   6   7
ATOM      7  C   UNL     1      84.025  31.993  66.996  1.00  0.00    -0.028 C 
ATOM      8  C   UNL     1      83.820  31.481  65.756  1.00  0.00    -0.070 CG0
ATOM      9  C   UNL     1      82.529  31.825  65.058  1.00  0.00     0.039 C 
ATOM     10  G   UNL     1      84.793  30.557  65.045  1.00  0.00     0.000 G0
ENDBRANCH   6   7
ENDBRANCH   5   6
ENDBRANCH   3   5
ENDBRANCH   1   3
BRANCH   1  11
ATOM     11  C   UNL     1      87.944  32.683  64.802  1.00  0.00     0.087 C 
BRANCH  11  12
ATOM     12  C   UNL     1      87.352  31.236  64.732  1.00  0.00     0.066 C 
BRANCH  12  13
ATOM     13  C   UNL     1      85.883  31.345  64.333  1.00  0.00     0.140 C 
ATOM     14  O   UNL     1      85.586  32.048  63.377  1.00  0.00    -0.299 OA
BRANCH  13  15
ATOM     15  C   UNL     1      84.783  30.563  65.017  1.00  0.00     0.106 CG0
ATOM     16  G   UNL     1      83.826  31.476  65.762  1.00  0.00     0.000 G0
ENDBRANCH  13  15
ENDBRANCH  12  13
BRANCH  12  17
ATOM     17  C   UNL     1      88.125  30.136  63.913  1.00  0.00    -0.006 C 
ATOM     18  C   UNL     1      88.110  30.454  62.401  1.00  0.00     0.008 C 
ATOM     19  C   UNL     1      87.527  28.722  64.104  1.00  0.00     0.008 C 
ENDBRANCH  12  17
ENDBRANCH  11  12
ENDBRANCH   1  11
TORSDOF 1
ENDMDL
MODEL 5
REMARK VINA RESULT:     0.192     14.369     16.617
REMARK INTER + INTRA:           1.669
REMARK INTER:                   0.683
REMARK INTRA:                   0.986
REMARK UNBOUND:                 1.377
REMARK SMILES CC1=CCC[C@@H](C)C(=O)C[C@H](C(C)C)C(=O)C1
REMARK SMILES IDX 8 1 9 2 6 3 7 4 5 5 4 6 3 7 2 8 1 9 10 11 11 12 15 13 16 14
REMARK SMILES IDX 17 15 12 17 13 18 14 19
REMARK H PARENT
REMARK Flexibility Score: 70.00
ROOT
ATOM      1  C   UNL     1      86.182  32.044  67.150  1.00  0.00     0.136 C 
ATOM      2  O   UNL     1      85.683  32.721  68.039  1.00  0.00    -0.299 OA
ENDROOT
BRANCH   1   3
ATOM      3  C   UNL     1      87.501  32.497  66.513  1.00  0.00     0.053 C 
ATOM      4  C   UNL     1      88.057  33.727  67.254  1.00  0.00     0.016 C 
BRANCH   3   5
ATOM      5  C   UNL     1      87.387  32.821  64.994  1.00  0.00     0.015 C 
BRANCH   5   6
ATOM      6  C   UNL     1      87.721  31.618  64.082  1.00  0.00     0.028 C 
BRANCH   6   7
ATOM      7  C   UNL     1      88.122  30.399  64.879  1.00  0.00    -0.028 C 
ATOM      8  C   UNL     1      87.496  29.195  64.871  1.00  0.00    -0.070 CG0
ATOM      9  C   UNL     1      88.086  28.089  65.707  1.00  0.00     0.039 C 
ATOM     10  G   UNL     1      86.260  28.885  64.045  1.00  0.00     0.000 G0
ENDBRANCH   6   7
ENDBRANCH   5   6
ENDBRANCH   3   5
ENDBRANCH   1   3
BRANCH   1  11
ATOM     11  C   UNL     1      85.458  30.779  66.753  1.00  0.00     0.087 C 
BRANCH  11  12
ATOM     12  C   UNL     1      84.791  30.724  65.338  1.00  0.00     0.066 C 
BRANCH  12  13
ATOM     13  C   UNL     1      84.993  29.321  64.775  1.00  0.00     0.140 C 
ATOM     14  O   UNL     1      84.074  28.519  64.856  1.00  0.00    -0.299 OA
BRANCH  13  15
ATOM     15  C   UNL     1      86.252  28.898  64.049  1.00  0.00     0.106 CG0
ATOM     16  G   UNL     1      87.495  29.175  64.875  1.00  0.00     0.000 G0
ENDBRANCH  13  15
ENDBRANCH  12  13
BRANCH  12  17
ATOM     17  C   UNL     1      83.313  31.240  65.173  1.00  0.00    -0.006 C 
ATOM     18  C   UNL     1      83.271  32.563  64.377  1.00  0.00     0.008 C 
ATOM     19  C   UNL     1      82.613  31.484  66.530  1.00  0.00     0.008 C 
ENDBRANCH  12  17
ENDBRANCH  11  12
ENDBRANCH   1  11
TORSDOF 1
ENDMDL
MODEL 6
REMARK VINA RESULT:     0.539     14.628     16.027
REMARK INTER + INTRA:           2.200
REMARK INTER:                  -0.353
REMARK INTRA:                   2.553
REMARK UNBOUND:                 1.377
REMARK SMILES CC1=CCC[C@@H](C)C(=O)C[C@H](C(C)C)C(=O)C1
REMARK SMILES IDX 8 1 9 2 6 3 7 4 5 5 4 6 3 7 2 8 1 9 10 11 11 12 15 13 16 14
REMARK SMILES IDX 17 15 12 17 13 18 14 19
REMARK H PARENT
REMARK Flexibility Score: 70.00
ROOT
ATOM      1  C   UNL     1      87.081  32.184  66.093  1.00  0.00     0.136 C 
ATOM      2  O   UNL     1      88.020  32.577  66.772  1.00  0.00    -0.299 OA
ENDROOT
BRANCH   1   3
ATOM      3  C   UNL     1      86.693  32.961  64.830  1.00  0.00     0.053 C 
ATOM      4  C   UNL     1      87.426  34.315  64.788  1.00  0.00     0.016 C 
BRANCH   3   5
ATOM      5  C   UNL     1      85.162  33.202  64.686  1.00  0.00     0.015 C 
BRANCH   5   6
ATOM      6  C   UNL     1      84.349  32.756  65.924  1.00  0.00     0.028 C 
BRANCH   6   7
ATOM      7  C   UNL     1      83.237  31.801  65.554  1.00  0.00    -0.028 C 
ATOM      8  C   UNL     1      83.357  30.694  64.778  1.00  0.00    -0.070 CG0
ATOM      9  C   UNL     1      82.130  29.846  64.568  1.00  0.00     0.039 C 
ATOM     10  G   UNL     1      84.657  30.241  64.138  1.00  0.00     0.000 G0
ENDBRANCH   6   7
ENDBRANCH   5   6
ENDBRANCH   3   5
ENDBRANCH   1   3
BRANCH   1  11
ATOM     11  C   UNL     1      86.375  30.928  66.548  1.00  0.00     0.087 C 
BRANCH  11  12
ATOM     12  C   UNL     1      86.654  29.601  65.766  1.00  0.00     0.066 C 
BRANCH  12  13
ATOM     13  C   UNL     1      85.396  29.242  64.982  1.00  0.00     0.140 C 
ATOM     14  O   UNL     1      84.934  28.115  65.100  1.00  0.00    -0.299 OA
BRANCH  13  15
ATOM     15  C   UNL     1      84.647  30.237  64.123  1.00  0.00     0.106 CG0
ATOM     16  G   UNL     1      83.372  30.711  64.798  1.00  0.00     0.000 G0
ENDBRANCH  13  15
ENDBRANCH  12  13
BRANCH  12  17
ATOM     17  C   UNL     1      87.964  29.489  64.901  1.00  0.00    -0.006 C 
ATOM     18  C   UNL     1      87.980  30.547  63.776  1.00  0.00     0.008 C 
ATOM     19  C   UNL     1      88.125  28.098  64.243  1.00  0.00     0.008 C 
ENDBRANCH  12  17
ENDBRANCH  11  12
ENDBRANCH   1  11
TORSDOF 1
ENDMDL
MODEL 7
REMARK VINA RESULT:     0.616     14.467     15.977
REMARK INTER + INTRA:           2.317
REMARK INTER:                   1.392
REMARK INTRA:                   0.924
REMARK UNBOUND:                 1.377
REMARK SMILES CC1=CCC[C@@H](C)C(=O)C[C@H](C(C)C)C(=O)C1
REMARK SMILES IDX 8 1 9 2 6 3 7 4 5 5 4 6 3 7 2 8 1 9 10 11 11 12 15 13 16 14
REMARK SMILES IDX 17 15 12 17 13 18 14 19
REMARK H PARENT
REMARK Flexibility Score: 70.00
ROOT
ATOM      1  C   UNL     1      85.574  27.949  64.750  1.00  0.00     0.136 C 
ATOM      2  O   UNL     1      85.824  27.002  64.016  1.00  0.00    -0.299 OA
ENDROOT
BRANCH   1   3
ATOM      3  C   UNL     1      84.117  28.243  65.123  1.00  0.00     0.053 C 
ATOM      4  C   UNL     1      83.333  26.929  65.298  1.00  0.00     0.016 C 
BRANCH   3   5
ATOM      5  C   UNL     1      83.376  29.149  64.096  1.00  0.00     0.015 C 
BRANCH   5   6
ATOM      6  C   UNL     1      82.868  30.479  64.701  1.00  0.00     0.028 C 
BRANCH   6   7
ATOM      7  C   UNL     1      83.636  31.668  64.173  1.00  0.00    -0.028 C 
ATOM      8  C   UNL     1      84.623  32.337  64.822  1.00  0.00    -0.070 CG0
ATOM      9  C   UNL     1      85.297  33.473  64.097  1.00  0.00     0.039 C 
ATOM     10  G   UNL     1      85.112  31.988  66.216  1.00  0.00     0.000 G0
ENDBRANCH   6   7
ENDBRANCH   5   6
ENDBRANCH   3   5
ENDBRANCH   1   3
BRANCH   1  11
ATOM     11  C   UNL     1      86.743  28.759  65.259  1.00  0.00     0.087 C 
BRANCH  11  12
ATOM     12  C   UNL     1      86.757  30.296  64.968  1.00  0.00     0.066 C 
BRANCH  12  13
ATOM     13  C   UNL     1      86.280  31.019  66.224  1.00  0.00     0.140 C 
ATOM     14  O   UNL     1      86.905  30.862  67.264  1.00  0.00    -0.299 OA
BRANCH  13  15
ATOM     15  C   UNL     1      85.114  31.983  66.228  1.00  0.00     0.106 CG0
ATOM     16  G   UNL     1      84.658  32.317  64.819  1.00  0.00     0.000 G0
ENDBRANCH  13  15
ENDBRANCH  12  13
BRANCH  12  17
ATOM     17  C   UNL     1      88.051  30.942  64.348  1.00  0.00    -0.006 C 
ATOM     18  C   UNL     1      88.121  32.454  64.657  1.00  0.00     0.008 C 
ATOM     19  C   UNL     1      88.125  30.771  62.813  1.00  0.00     0.008 C 
ENDBRANCH  12  17
ENDBRANCH  11  12
ENDBRANCH   1  11
TORSDOF 1
ENDMDL
MODEL 8
REMARK VINA RESULT:     1.589     14.657     16.216
REMARK INTER + INTRA:           3.801
REMARK INTER:                   0.144
REMARK INTRA:                   3.658
REMARK UNBOUND:                 1.377
REMARK SMILES CC1=CCC[C@@H](C)C(=O)C[C@H](C(C)C)C(=O)C1
REMARK SMILES IDX 8 1 9 2 6 3 7 4 5 5 4 6 3 7 2 8 1 9 10 11 11 12 15 13 16 14
REMARK SMILES IDX 17 15 12 17 13 18 14 19
REMARK H PARENT
REMARK Flexibility Score: 70.00
ROOT
ATOM      1  C   UNL     1      85.338  29.296  64.590  1.00  0.00     0.136 C 
ATOM      2  O   UNL     1      86.067  28.356  64.878  1.00  0.00    -0.299 OA
ENDROOT
BRANCH   1   3
ATOM      3  C   UNL     1      83.864  29.256  65.007  1.00  0.00     0.053 C 
ATOM      4  C   UNL     1      83.273  27.857  64.749  1.00  0.00     0.016 C 
BRANCH   3   5
ATOM      5  C   UNL     1      82.980  30.324  64.297  1.00  0.00     0.015 C 
BRANCH   5   6
ATOM      6  C   UNL     1      82.455  31.421  65.252  1.00  0.00     0.028 C 
BRANCH   6   7
ATOM      7  C   UNL     1      83.351  31.598  66.456  1.00  0.00    -0.028 C 
ATOM      8  C   UNL     1      84.559  32.215  66.470  1.00  0.00    -0.070 CG0
ATOM      9  C   UNL     1      85.276  32.328  67.791  1.00  0.00     0.039 C 
ATOM     10  G   UNL     1      85.216  32.828  65.246  1.00  0.00     0.000 G0
ENDBRANCH   6   7
ENDBRANCH   5   6
ENDBRANCH   3   5
ENDBRANCH   1   3
BRANCH   1  11
ATOM     11  C   UNL     1      85.963  30.456  63.849  1.00  0.00     0.087 C 
BRANCH  11  12
ATOM     12  C   UNL     1      87.182  31.181  64.510  1.00  0.00     0.066 C 
BRANCH  12  13
ATOM     13  C   UNL     1      86.678  32.476  65.139  1.00  0.00     0.140 C 
ATOM     14  O   UNL     1      87.497  33.298  65.524  1.00  0.00    -0.299 OA
BRANCH  13  15
ATOM     15  C   UNL     1      85.209  32.826  65.240  1.00  0.00     0.106 CG0
ATOM     16  G   UNL     1      84.569  32.211  66.472  1.00  0.00     0.000 G0
ENDBRANCH  13  15
ENDBRANCH  12  13
BRANCH  12  17
ATOM     17  C   UNL     1      88.125  30.364  65.469  1.00  0.00    -0.006 C 
ATOM     18  C   UNL     1      88.121  28.863  65.108  1.00  0.00     0.008 C 
ATOM     19  C   UNL     1      87.717  30.493  66.956  1.00  0.00     0.008 C 
ENDBRANCH  12  17
ENDBRANCH  11  12
ENDBRANCH   1  11
TORSDOF 1
ENDMDL
MODEL 9
REMARK VINA RESULT:     2.061     13.456     15.503
REMARK INTER + INTRA:           4.521
REMARK INTER:                   3.907
REMARK INTRA:                   0.614
REMARK UNBOUND:                 1.377
REMARK SMILES CC1=CCC[C@@H](C)C(=O)C[C@H](C(C)C)C(=O)C1
REMARK SMILES IDX 8 1 9 2 6 3 7 4 5 5 4 6 3 7 2 8 1 9 10 11 11 12 15 13 16 14
REMARK SMILES IDX 17 15 12 17 13 18 14 19
REMARK H PARENT
REMARK Flexibility Score: 70.00
ROOT
ATOM      1  C   UNL     1      87.279  33.014  65.912  1.00  0.00     0.136 C 
ATOM      2  O   UNL     1      87.650  33.962  66.591  1.00  0.00    -0.299 OA
ENDROOT
BRANCH   1   3
ATOM      3  C   UNL     1      86.600  31.823  66.597  1.00  0.00     0.053 C 
ATOM      4  C   UNL     1      86.547  32.041  68.121  1.00  0.00     0.016 C 
BRANCH   3   5
ATOM      5  C   UNL     1      87.280  30.454  66.298  1.00  0.00     0.015 C 
BRANCH   5   6
ATOM      6  C   UNL     1      86.526  29.609  65.246  1.00  0.00     0.028 C 
BRANCH   6   7
ATOM      7  C   UNL     1      85.040  29.883  65.261  1.00  0.00    -0.028 C 
ATOM      8  C   UNL     1      84.370  30.710  64.420  1.00  0.00    -0.070 CG0
ATOM      9  C   UNL     1      82.874  30.808  64.574  1.00  0.00     0.039 C 
ATOM     10  G   UNL     1      85.029  31.514  63.313  1.00  0.00     0.000 G0
ENDBRANCH   6   7
ENDBRANCH   5   6
ENDBRANCH   3   5
ENDBRANCH   1   3
BRANCH   1  11
ATOM     11  C   UNL     1      87.504  33.100  64.420  1.00  0.00     0.087 C 
BRANCH  11  12
ATOM     12  C   UNL     1      86.410  33.802  63.549  1.00  0.00     0.066 C 
BRANCH  12  13
ATOM     13  C   UNL     1      85.120  32.996  63.670  1.00  0.00     0.140 C 
ATOM     14  O   UNL     1      84.097  33.575  64.007  1.00  0.00    -0.299 OA
BRANCH  13  15
ATOM     15  C   UNL     1      85.030  31.527  63.318  1.00  0.00     0.106 CG0
ATOM     16  G   UNL     1      84.382  30.722  64.431  1.00  0.00     0.000 G0
ENDBRANCH  13  15
ENDBRANCH  12  13
BRANCH  12  17
ATOM     17  C   UNL     1      86.179  35.349  63.719  1.00  0.00    -0.006 C 
ATOM     18  C   UNL     1      85.716  35.992  62.393  1.00  0.00     0.008 C 
ATOM     19  C   UNL     1      87.452  36.093  64.185  1.00  0.00     0.008 C 
ENDBRANCH  12  17
ENDBRANCH  11  12
ENDBRANCH   1  11
TORSDOF 1
ENDMDL
