MODEL 1
REMARK VINA RESULT:    -5.000      0.000      0.000
REMARK INTER + INTRA:          -5.146
REMARK INTER:                  -5.146
REMARK INTRA:                   0.000
REMARK UNBOUND:                 0.000
REMARK SMILES Nc1ncnc2nc[nH]c12
REMARK SMILES IDX 8 1 7 2 6 3 5 4 4 5 3 6 2 7 10 8 9 9 1 11
REMARK H PARENT 9 10 1 12 1 13
REMARK Flexibility Score: inf
ROOT
ATOM      1  C   UNL     1      22.513  -2.673  45.414  1.00  0.00     0.199 A 
ATOM      2  N   UNL     1      21.413  -1.943  45.082  1.00  0.00    -0.217 NA
ATOM      3  C   UNL     1      21.537  -1.829  43.749  1.00  0.00     0.182 A 
ATOM      4  N   UNL     1      20.691  -1.184  42.911  1.00  0.00    -0.215 NA
ATOM      5  C   UNL     1      20.988  -1.175  41.576  1.00  0.00     0.226 A 
ATOM      6  N   UNL     1      22.113  -1.805  41.109  1.00  0.00    -0.217 NA
ATOM      7  C   UNL     1      22.968  -2.455  41.953  1.00  0.00     0.152 A 
ATOM      8  C   UNL     1      22.653  -2.455  43.309  1.00  0.00     0.127 A 
ATOM      9  N   UNL     1      23.291  -3.000  44.351  1.00  0.00    -0.340 N 
ATOM     10  H   UNL     1      24.178  -3.551  44.359  1.00  0.00     0.168 HD
ENDROOT
BRANCH   7  11
ATOM     11  N   UNL     1      24.134  -3.103  41.443  1.00  0.00    -0.382 N 
ATOM     12  H   UNL     1      24.158  -4.144  41.357  1.00  0.00     0.158 HD
ATOM     13  H   UNL     1      24.975  -2.558  41.151  1.00  0.00     0.158 HD
ENDBRANCH   7  11
TORSDOF 1
ENDMDL
MODEL 2
REMARK VINA RESULT:    -4.957      1.155      3.164
REMARK INTER + INTRA:          -5.102
REMARK INTER:                  -5.102
REMARK INTRA:                   0.000
REMARK UNBOUND:                 0.000
REMARK SMILES Nc1ncnc2nc[nH]c12
REMARK SMILES IDX 8 1 7 2 6 3 5 4 4 5 3 6 2 7 10 8 9 9 1 11
REMARK H PARENT 9 10 1 12 1 13
REMARK Flexibility Score: inf
ROOT
ATOM      1  C   UNL     1      23.892  -2.745  40.088  1.00  0.00     0.199 A 
ATOM      2  N   UNL     1      22.865  -1.872  39.898  1.00  0.00    -0.217 NA
ATOM      3  C   UNL     1      22.316  -1.807  41.122  1.00  0.00     0.182 A 
ATOM      4  N   UNL     1      21.243  -1.065  41.487  1.00  0.00    -0.215 NA
ATOM      5  C   UNL     1      20.827  -1.130  42.788  1.00  0.00     0.226 A 
ATOM      6  N   UNL     1      21.484  -1.927  43.691  1.00  0.00    -0.217 NA
ATOM      7  C   UNL     1      22.566  -2.675  43.324  1.00  0.00     0.152 A 
ATOM      8  C   UNL     1      22.978  -2.599  41.996  1.00  0.00     0.127 A 
ATOM      9  N   UNL     1      23.986  -3.208  41.361  1.00  0.00    -0.340 N 
ATOM     10  H   UNL     1      24.688  -3.880  41.742  1.00  0.00     0.168 HD
ENDROOT
BRANCH   7  11
ATOM     11  N   UNL     1      23.235  -3.498  44.281  1.00  0.00    -0.382 N 
ATOM     12  H   UNL     1      24.221  -3.797  44.115  1.00  0.00     0.158 HD
ATOM     13  H   UNL     1      22.757  -3.813  45.154  1.00  0.00     0.158 HD
ENDBRANCH   7  11
TORSDOF 1
ENDMDL
MODEL 3
REMARK VINA RESULT:    -4.576      1.255      2.005
REMARK INTER + INTRA:          -4.710
REMARK INTER:                  -4.710
REMARK INTRA:                   0.000
REMARK UNBOUND:                 0.000
REMARK SMILES Nc1ncnc2nc[nH]c12
REMARK SMILES IDX 8 1 7 2 6 3 5 4 4 5 3 6 2 7 10 8 9 9 1 11
REMARK H PARENT 9 10 1 12 1 13
REMARK Flexibility Score: inf
ROOT
ATOM      1  C   UNL     1      20.266  -0.834  44.549  1.00  0.00     0.199 A 
ATOM      2  N   UNL     1      20.310  -0.069  43.425  1.00  0.00    -0.217 NA
ATOM      3  C   UNL     1      21.191  -0.735  42.659  1.00  0.00     0.182 A 
ATOM      4  N   UNL     1      21.601  -0.393  41.415  1.00  0.00    -0.215 NA
ATOM      5  C   UNL     1      22.510  -1.201  40.791  1.00  0.00     0.226 A 
ATOM      6  N   UNL     1      22.988  -2.325  41.416  1.00  0.00    -0.217 NA
ATOM      7  C   UNL     1      22.574  -2.671  42.671  1.00  0.00     0.152 A 
ATOM      8  C   UNL     1      21.649  -1.839  43.294  1.00  0.00     0.127 A 
ATOM      9  N   UNL     1      21.075  -1.923  44.500  1.00  0.00    -0.340 N 
ATOM     10  H   UNL     1      21.208  -2.650  45.237  1.00  0.00     0.168 HD
ENDROOT
BRANCH   7  11
ATOM     11  N   UNL     1      23.086  -3.846  43.302  1.00  0.00    -0.382 N 
ATOM     12  H   UNL     1      23.363  -3.821  44.309  1.00  0.00     0.158 HD
ATOM     13  H   UNL     1      23.193  -4.742  42.777  1.00  0.00     0.158 HD
ENDBRANCH   7  11
TORSDOF 1
ENDMDL
MODEL 4
REMARK VINA RESULT:    -4.507     14.423     15.892
REMARK INTER + INTRA:          -4.639
REMARK INTER:                  -4.639
REMARK INTRA:                   0.000
REMARK UNBOUND:                 0.000
REMARK SMILES Nc1ncnc2nc[nH]c12
REMARK SMILES IDX 8 1 7 2 6 3 5 4 4 5 3 6 2 7 10 8 9 9 1 11
REMARK H PARENT 9 10 1 12 1 13
REMARK Flexibility Score: inf
ROOT
ATOM      1  C   UNL     1      31.484  -6.958  33.036  1.00  0.00     0.199 A 
ATOM      2  N   UNL     1      30.214  -7.120  32.575  1.00  0.00    -0.217 NA
ATOM      3  C   UNL     1      30.269  -8.335  32.005  1.00  0.00     0.182 A 
ATOM      4  N   UNL     1      29.254  -8.984  31.387  1.00  0.00    -0.215 NA
ATOM      5  C   UNL     1      29.504 -10.222  30.863  1.00  0.00     0.226 A 
ATOM      6  N   UNL     1      30.752 -10.783  30.967  1.00  0.00    -0.217 NA
ATOM      7  C   UNL     1      31.777 -10.130  31.592  1.00  0.00     0.152 A 
ATOM      8  C   UNL     1      31.507  -8.870  32.119  1.00  0.00     0.127 A 
ATOM      9  N   UNL     1      32.299  -8.011  32.772  1.00  0.00    -0.340 N 
ATOM     10  H   UNL     1      33.306  -8.115  33.025  1.00  0.00     0.168 HD
ENDROOT
BRANCH   7  11
ATOM     11  N   UNL     1      33.067 -10.734  31.687  1.00  0.00    -0.382 N 
ATOM     12  H   UNL     1      33.753 -10.627  30.907  1.00  0.00     0.158 HD
ATOM     13  H   UNL     1      33.347 -11.287  32.527  1.00  0.00     0.158 HD
ENDBRANCH   7  11
TORSDOF 1
ENDMDL
MODEL 5
REMARK VINA RESULT:    -4.466      1.212      3.209
REMARK INTER + INTRA:          -4.596
REMARK INTER:                  -4.596
REMARK INTRA:                   0.000
REMARK UNBOUND:                 0.000
REMARK SMILES Nc1ncnc2nc[nH]c12
REMARK SMILES IDX 8 1 7 2 6 3 5 4 4 5 3 6 2 7 10 8 9 9 1 11
REMARK H PARENT 9 10 1 12 1 13
REMARK Flexibility Score: inf
ROOT
ATOM      1  C   UNL     1      21.541  -0.176  39.916  1.00  0.00     0.199 A 
ATOM      2  N   UNL     1      20.808  -0.073  41.058  1.00  0.00    -0.217 NA
ATOM      3  C   UNL     1      21.398  -0.976  41.860  1.00  0.00     0.182 A 
ATOM      4  N   UNL     1      21.050  -1.274  43.134  1.00  0.00    -0.215 NA
ATOM      5  C   UNL     1      21.774  -2.229  43.793  1.00  0.00     0.226 A 
ATOM      6  N   UNL     1      22.822  -2.861  43.172  1.00  0.00    -0.217 NA
ATOM      7  C   UNL     1      23.174  -2.559  41.887  1.00  0.00     0.152 A 
ATOM      8  C   UNL     1      22.428  -1.586  41.229  1.00  0.00     0.127 A 
ATOM      9  N   UNL     1      22.539  -1.094  39.990  1.00  0.00    -0.340 N 
ATOM     10  H   UNL     1      23.225  -1.347  39.245  1.00  0.00     0.168 HD
ENDROOT
BRANCH   7  11
ATOM     11  N   UNL     1      24.269  -3.230  41.262  1.00  0.00    -0.382 N 
ATOM     12  H   UNL     1      25.107  -2.688  40.953  1.00  0.00     0.158 HD
ATOM     13  H   UNL     1      24.255  -4.262  41.102  1.00  0.00     0.158 HD
ENDBRANCH   7  11
TORSDOF 1
ENDMDL
MODEL 6
REMARK VINA RESULT:    -4.376      1.291      3.051
REMARK INTER + INTRA:          -4.504
REMARK INTER:                  -4.504
REMARK INTRA:                   0.000
REMARK UNBOUND:                 0.000
REMARK SMILES Nc1ncnc2nc[nH]c12
REMARK SMILES IDX 8 1 7 2 6 3 5 4 4 5 3 6 2 7 10 8 9 9 1 11
REMARK H PARENT 9 10 1 12 1 13
REMARK Flexibility Score: inf
ROOT
ATOM      1  C   UNL     1      23.220  -3.235  42.832  1.00  0.00     0.199 A 
ATOM      2  N   UNL     1      22.720  -2.319  41.958  1.00  0.00    -0.217 NA
ATOM      3  C   UNL     1      21.842  -1.646  42.721  1.00  0.00     0.182 A 
ATOM      4  N   UNL     1      21.061  -0.611  42.331  1.00  0.00    -0.215 NA
ATOM      5  C   UNL     1      20.224  -0.051  43.257  1.00  0.00     0.226 A 
ATOM      6  N   UNL     1      20.185  -0.531  44.541  1.00  0.00    -0.217 NA
ATOM      7  C   UNL     1      20.973  -1.575  44.935  1.00  0.00     0.152 A 
ATOM      8  C   UNL     1      21.819  -2.134  43.983  1.00  0.00     0.127 A 
ATOM      9  N   UNL     1      22.689  -3.148  44.078  1.00  0.00    -0.340 N 
ATOM     10  H   UNL     1      22.914  -3.739  44.908  1.00  0.00     0.168 HD
ENDROOT
BRANCH   7  11
ATOM     11  N   UNL     1      20.915  -2.057  46.278  1.00  0.00    -0.382 N 
ATOM     12  H   UNL     1      20.092  -2.616  46.598  1.00  0.00     0.158 HD
ATOM     13  H   UNL     1      21.682  -1.864  46.959  1.00  0.00     0.158 HD
ENDBRANCH   7  11
TORSDOF 1
ENDMDL
MODEL 7
REMARK VINA RESULT:    -4.189     14.233     15.964
REMARK INTER + INTRA:          -4.311
REMARK INTER:                  -4.311
REMARK INTRA:                   0.000
REMARK UNBOUND:                 0.000
REMARK SMILES Nc1ncnc2nc[nH]c12
REMARK SMILES IDX 8 1 7 2 6 3 5 4 4 5 3 6 2 7 10 8 9 9 1 11
REMARK H PARENT 9 10 1 12 1 13
REMARK Flexibility Score: inf
ROOT
ATOM      1  C   UNL     1      32.059 -11.008  31.120  1.00  0.00     0.199 A 
ATOM      2  N   UNL     1      30.832 -10.555  30.745  1.00  0.00    -0.217 NA
ATOM      3  C   UNL     1      30.693  -9.450  31.496  1.00  0.00     0.182 A 
ATOM      4  N   UNL     1      29.632  -8.609  31.508  1.00  0.00    -0.215 NA
ATOM      5  C   UNL     1      29.674  -7.530  32.346  1.00  0.00     0.226 A 
ATOM      6  N   UNL     1      30.766  -7.312  33.148  1.00  0.00    -0.217 NA
ATOM      7  C   UNL     1      31.837  -8.159  33.136  1.00  0.00     0.152 A 
ATOM      8  C   UNL     1      31.780  -9.254  32.279  1.00  0.00     0.127 A 
ATOM      9  N   UNL     1      32.664 -10.234  32.057  1.00  0.00    -0.340 N 
ATOM     10  H   UNL     1      33.600 -10.380  32.494  1.00  0.00     0.168 HD
ENDROOT
BRANCH   7  11
ATOM     11  N   UNL     1      32.963  -7.913  33.980  1.00  0.00    -0.382 N 
ATOM     12  H   UNL     1      33.084  -6.978  34.430  1.00  0.00     0.158 HD
ATOM     13  H   UNL     1      33.678  -8.651  34.161  1.00  0.00     0.158 HD
ENDBRANCH   7  11
TORSDOF 1
ENDMDL
MODEL 8
REMARK VINA RESULT:    -4.142     14.824     16.824
REMARK INTER + INTRA:          -4.263
REMARK INTER:                  -4.263
REMARK INTRA:                   0.000
REMARK UNBOUND:                 0.000
REMARK SMILES Nc1ncnc2nc[nH]c12
REMARK SMILES IDX 8 1 7 2 6 3 5 4 4 5 3 6 2 7 10 8 9 9 1 11
REMARK H PARENT 9 10 1 12 1 13
REMARK Flexibility Score: inf
ROOT
ATOM      1  C   UNL     1      31.004  -6.904  32.262  1.00  0.00     0.199 A 
ATOM      2  N   UNL     1      30.212  -8.009  32.325  1.00  0.00    -0.217 NA
ATOM      3  C   UNL     1      30.953  -8.929  31.686  1.00  0.00     0.182 A 
ATOM      4  N   UNL     1      30.620 -10.224  31.467  1.00  0.00    -0.215 NA
ATOM      5  C   UNL     1      31.510 -11.013  30.792  1.00  0.00     0.226 A 
ATOM      6  N   UNL     1      32.704 -10.499  30.354  1.00  0.00    -0.217 NA
ATOM      7  C   UNL     1      33.040  -9.193  30.575  1.00  0.00     0.152 A 
ATOM      8  C   UNL     1      32.125  -8.403  31.263  1.00  0.00     0.127 A 
ATOM      9  N   UNL     1      32.180  -7.113  31.618  1.00  0.00    -0.340 N 
ATOM     10  H   UNL     1      32.943  -6.421  31.446  1.00  0.00     0.168 HD
ENDROOT
BRANCH   7  11
ATOM     11  N   UNL     1      34.289  -8.680  30.109  1.00  0.00    -0.382 N 
ATOM     12  H   UNL     1      35.171  -8.906  30.621  1.00  0.00     0.158 HD
ATOM     13  H   UNL     1      34.346  -8.076  29.260  1.00  0.00     0.158 HD
ENDBRANCH   7  11
TORSDOF 1
ENDMDL
MODEL 9
REMARK VINA RESULT:    -4.072     14.521     16.110
REMARK INTER + INTRA:          -4.191
REMARK INTER:                  -4.191
REMARK INTRA:                   0.000
REMARK UNBOUND:                 0.000
REMARK SMILES Nc1ncnc2nc[nH]c12
REMARK SMILES IDX 8 1 7 2 6 3 5 4 4 5 3 6 2 7 10 8 9 9 1 11
REMARK H PARENT 9 10 1 12 1 13
REMARK Flexibility Score: inf
ROOT
ATOM      1  C   UNL     1      30.946  -7.137  32.751  1.00  0.00     0.199 A 
ATOM      2  N   UNL     1      31.986  -8.010  32.656  1.00  0.00    -0.217 NA
ATOM      3  C   UNL     1      31.451  -9.017  31.946  1.00  0.00     0.182 A 
ATOM      4  N   UNL     1      32.074 -10.158  31.567  1.00  0.00    -0.215 NA
ATOM      5  C   UNL     1      31.359 -11.073  30.845  1.00  0.00     0.226 A 
ATOM      6  N   UNL     1      30.049 -10.833  30.518  1.00  0.00    -0.217 NA
ATOM      7  C   UNL     1      29.419  -9.682  30.900  1.00  0.00     0.152 A 
ATOM      8  C   UNL     1      30.159  -8.761  31.635  1.00  0.00     0.127 A 
ATOM      9  N   UNL     1      29.815  -7.569  32.137  1.00  0.00    -0.340 N 
ATOM     10  H   UNL     1      28.897  -7.076  32.077  1.00  0.00     0.168 HD
ENDROOT
BRANCH   7  11
ATOM     11  N   UNL     1      28.054  -9.454  30.549  1.00  0.00    -0.382 N 
ATOM     12  H   UNL     1      27.406 -10.263  30.416  1.00  0.00     0.158 HD
ATOM     13  H   UNL     1      27.680  -8.488  30.418  1.00  0.00     0.158 HD
ENDBRANCH   7  11
TORSDOF 1
ENDMDL
