MODEL 1
REMARK VINA RESULT:    -2.954      0.000      0.000
REMARK INTER + INTRA:          -7.004
REMARK INTER:                  -5.113
REMARK INTRA:                  -1.891
REMARK UNBOUND:                -1.891
REMARK SMILES CCCCCCCCCCCCCCO
REMARK SMILES IDX 8 1 7 2 6 3 5 4 4 5 3 6 2 7 1 8 9 9 10 10 11 11 12 12 13 13
REMARK SMILES IDX 14 14 15 15
REMARK H PARENT 15 16
REMARK Flexibility Score: inf
ROOT
ATOM      1  C   UNL     1     145.585 140.616 138.866  1.00  0.00     0.000 C 
ENDROOT
BRANCH   1   2
ATOM      2  C   UNL     1     145.256 141.127 140.278  1.00  0.00    -0.000 C 
BRANCH   2   3
ATOM      3  C   UNL     1     146.377 141.999 140.875  1.00  0.00    -0.000 C 
BRANCH   3   4
ATOM      4  C   UNL     1     145.903 143.180 141.747  1.00  0.00    -0.000 C 
BRANCH   4   5
ATOM      5  C   UNL     1     145.890 144.551 141.046  1.00  0.00    -0.000 C 
BRANCH   5   6
ATOM      6  C   UNL     1     144.500 144.936 140.513  1.00  0.00    -0.000 C 
BRANCH   6   7
ATOM      7  C   UNL     1     144.352 144.667 139.008  1.00  0.00    -0.003 C 
ATOM      8  C   UNL     1     143.171 143.754 138.681  1.00  0.00     0.004 C 
ENDBRANCH   6   7
ENDBRANCH   5   6
ENDBRANCH   4   5
ENDBRANCH   3   4
ENDBRANCH   2   3
ENDBRANCH   1   2
BRANCH   1   9
ATOM      9  C   UNL     1     146.217 141.696 137.969  1.00  0.00     0.000 C 
BRANCH   9  10
ATOM     10  C   UNL     1     147.664 141.420 137.522  1.00  0.00     0.000 C 
BRANCH  10  11
ATOM     11  C   UNL     1     148.615 142.596 137.805  1.00  0.00     0.000 C 
BRANCH  11  12
ATOM     12  C   UNL     1     147.867 143.926 137.999  1.00  0.00     0.002 C 
BRANCH  12  13
ATOM     13  C   UNL     1     148.733 144.997 138.684  1.00  0.00     0.028 C 
BRANCH  13  14
ATOM     14  C   UNL     1     149.365 145.949 137.662  1.00  0.00     0.156 C 
BRANCH  14  15
ATOM     15  O   UNL     1     148.381 146.604 136.908  1.00  0.00    -0.396 OA
ATOM     16  H   UNL     1     147.560 146.049 136.970  1.00  0.00     0.210 HD
ENDBRANCH  14  15
ENDBRANCH  13  14
ENDBRANCH  12  13
ENDBRANCH  11  12
ENDBRANCH  10  11
ENDBRANCH   9  10
ENDBRANCH   1   9
TORSDOF 13
ENDMDL
MODEL 2
REMARK VINA RESULT:    -2.944     11.568     14.325
REMARK INTER + INTRA:          -6.987
REMARK INTER:                  -5.204
REMARK INTRA:                  -1.783
REMARK UNBOUND:                -1.891
REMARK SMILES CCCCCCCCCCCCCCO
REMARK SMILES IDX 8 1 7 2 6 3 5 4 4 5 3 6 2 7 1 8 9 9 10 10 11 11 12 12 13 13
REMARK SMILES IDX 14 14 15 15
REMARK H PARENT 15 16
REMARK Flexibility Score: inf
ROOT
ATOM      1  C   UNL     1     134.177 139.440 138.909  1.00  0.00     0.000 C 
ENDROOT
BRANCH   1   2
ATOM      2  C   UNL     1     135.479 140.173 138.545  1.00  0.00    -0.000 C 
BRANCH   2   3
ATOM      3  C   UNL     1     136.126 139.637 137.254  1.00  0.00    -0.000 C 
BRANCH   3   4
ATOM      4  C   UNL     1     137.497 138.954 137.435  1.00  0.00    -0.000 C 
BRANCH   4   5
ATOM      5  C   UNL     1     137.862 138.588 138.885  1.00  0.00    -0.000 C 
BRANCH   5   6
ATOM      6  C   UNL     1     137.892 137.070 139.128  1.00  0.00    -0.000 C 
BRANCH   6   7
ATOM      7  C   UNL     1     136.484 136.462 139.229  1.00  0.00    -0.003 C 
ATOM      8  C   UNL     1     135.957 136.420 140.663  1.00  0.00     0.004 C 
ENDBRANCH   6   7
ENDBRANCH   5   6
ENDBRANCH   4   5
ENDBRANCH   3   4
ENDBRANCH   2   3
ENDBRANCH   1   2
BRANCH   1   9
ATOM      9  C   UNL     1     133.588 138.641 137.732  1.00  0.00     0.000 C 
BRANCH   9  10
ATOM     10  C   UNL     1     133.031 137.251 138.089  1.00  0.00     0.000 C 
BRANCH  10  11
ATOM     11  C   UNL     1     132.648 137.121 139.573  1.00  0.00     0.000 C 
BRANCH  11  12
ATOM     12  C   UNL     1     132.131 135.717 139.928  1.00  0.00     0.002 C 
BRANCH  12  13
ATOM     13  C   UNL     1     132.603 134.643 138.934  1.00  0.00     0.028 C 
BRANCH  13  14
ATOM     14  C   UNL     1     133.256 133.457 139.652  1.00  0.00     0.156 C 
BRANCH  14  15
ATOM     15  O   UNL     1     134.619 133.364 139.334  1.00  0.00    -0.396 OA
ATOM     16  H   UNL     1     134.737 132.512 138.838  1.00  0.00     0.210 HD
ENDBRANCH  14  15
ENDBRANCH  13  14
ENDBRANCH  12  13
ENDBRANCH  11  12
ENDBRANCH  10  11
ENDBRANCH   9  10
ENDBRANCH   1   9
TORSDOF 13
ENDMDL
MODEL 3
REMARK VINA RESULT:    -2.882     10.880     13.360
REMARK INTER + INTRA:          -6.879
REMARK INTER:                  -4.755
REMARK INTRA:                  -2.124
REMARK UNBOUND:                -1.891
REMARK SMILES CCCCCCCCCCCCCCO
REMARK SMILES IDX 8 1 7 2 6 3 5 4 4 5 3 6 2 7 1 8 9 9 10 10 11 11 12 12 13 13
REMARK SMILES IDX 14 14 15 15
REMARK H PARENT 15 16
REMARK Flexibility Score: inf
ROOT
ATOM      1  C   UNL     1     137.996 138.931 138.640  1.00  0.00     0.000 C 
ENDROOT
BRANCH   1   2
ATOM      2  C   UNL     1     137.111 139.420 137.481  1.00  0.00    -0.000 C 
BRANCH   2   3
ATOM      3  C   UNL     1     135.862 140.180 137.963  1.00  0.00    -0.000 C 
BRANCH   3   4
ATOM      4  C   UNL     1     134.553 139.363 137.976  1.00  0.00    -0.000 C 
BRANCH   4   5
ATOM      5  C   UNL     1     133.854 139.266 139.344  1.00  0.00    -0.000 C 
BRANCH   5   6
ATOM      6  C   UNL     1     134.767 139.675 140.512  1.00  0.00    -0.000 C 
BRANCH   6   7
ATOM      7  C   UNL     1     134.372 138.997 141.833  1.00  0.00    -0.003 C 
ATOM      8  C   UNL     1     133.119 138.132 141.706  1.00  0.00     0.004 C 
ENDBRANCH   6   7
ENDBRANCH   5   6
ENDBRANCH   4   5
ENDBRANCH   3   4
ENDBRANCH   2   3
ENDBRANCH   1   2
BRANCH   1   9
ATOM      9  C   UNL     1     137.829 137.428 138.930  1.00  0.00     0.000 C 
BRANCH   9  10
ATOM     10  C   UNL     1     137.414 137.075 140.371  1.00  0.00     0.000 C 
BRANCH  10  11
ATOM     11  C   UNL     1     136.139 136.217 140.435  1.00  0.00     0.000 C 
BRANCH  11  12
ATOM     12  C   UNL     1     135.541 135.942 139.046  1.00  0.00     0.002 C 
BRANCH  12  13
ATOM     13  C   UNL     1     134.088 135.442 139.115  1.00  0.00     0.028 C 
BRANCH  13  14
ATOM     14  C   UNL     1     133.279 135.887 137.892  1.00  0.00     0.156 C 
BRANCH  14  15
ATOM     15  O   UNL     1     133.087 134.821 137.000  1.00  0.00    -0.396 OA
ATOM     16  H   UNL     1     132.148 134.521 137.116  1.00  0.00     0.210 HD
ENDBRANCH  14  15
ENDBRANCH  13  14
ENDBRANCH  12  13
ENDBRANCH  11  12
ENDBRANCH  10  11
ENDBRANCH   9  10
ENDBRANCH   1   9
TORSDOF 13
ENDMDL
MODEL 4
REMARK VINA RESULT:    -2.870      7.001      9.472
REMARK INTER + INTRA:          -6.858
REMARK INTER:                  -5.252
REMARK INTRA:                  -1.606
REMARK UNBOUND:                -1.891
REMARK SMILES CCCCCCCCCCCCCCO
REMARK SMILES IDX 8 1 7 2 6 3 5 4 4 5 3 6 2 7 1 8 9 9 10 10 11 11 12 12 13 13
REMARK SMILES IDX 14 14 15 15
REMARK H PARENT 15 16
REMARK Flexibility Score: inf
ROOT
ATOM      1  C   UNL     1     141.453 134.625 137.976  1.00  0.00     0.000 C 
ENDROOT
BRANCH   1   2
ATOM      2  C   UNL     1     141.357 136.119 138.326  1.00  0.00    -0.000 C 
BRANCH   2   3
ATOM      3  C   UNL     1     142.558 136.933 137.810  1.00  0.00    -0.000 C 
BRANCH   3   4
ATOM      4  C   UNL     1     143.058 138.047 138.754  1.00  0.00    -0.000 C 
BRANCH   4   5
ATOM      5  C   UNL     1     144.533 137.934 139.180  1.00  0.00    -0.000 C 
BRANCH   5   6
ATOM      6  C   UNL     1     145.029 136.479 139.236  1.00  0.00    -0.000 C 
BRANCH   6   7
ATOM      7  C   UNL     1     145.177 135.963 140.675  1.00  0.00    -0.003 C 
ATOM      8  C   UNL     1     143.890 136.096 141.489  1.00  0.00     0.004 C 
ENDBRANCH   6   7
ENDBRANCH   5   6
ENDBRANCH   4   5
ENDBRANCH   3   4
ENDBRANCH   2   3
ENDBRANCH   1   2
BRANCH   1   9
ATOM      9  C   UNL     1     142.457 133.864 138.861  1.00  0.00     0.000 C 
BRANCH   9  10
ATOM     10  C   UNL     1     143.574 133.121 138.105  1.00  0.00     0.000 C 
BRANCH  10  11
ATOM     11  C   UNL     1     144.737 132.696 139.018  1.00  0.00     0.000 C 
BRANCH  11  12
ATOM     12  C   UNL     1     146.112 133.046 138.424  1.00  0.00     0.002 C 
BRANCH  12  13
ATOM     13  C   UNL     1     147.259 132.265 139.087  1.00  0.00     0.028 C 
BRANCH  13  14
ATOM     14  C   UNL     1     148.157 133.182 139.923  1.00  0.00     0.156 C 
BRANCH  14  15
ATOM     15  O   UNL     1     148.276 134.448 139.331  1.00  0.00    -0.396 OA
ATOM     16  H   UNL     1     148.958 134.363 138.615  1.00  0.00     0.210 HD
ENDBRANCH  14  15
ENDBRANCH  13  14
ENDBRANCH  12  13
ENDBRANCH  11  12
ENDBRANCH  10  11
ENDBRANCH   9  10
ENDBRANCH   1   9
TORSDOF 13
ENDMDL
MODEL 5
REMARK VINA RESULT:    -2.847      8.455     11.618
REMARK INTER + INTRA:          -6.818
REMARK INTER:                  -5.444
REMARK INTRA:                  -1.374
REMARK UNBOUND:                -1.891
REMARK SMILES CCCCCCCCCCCCCCO
REMARK SMILES IDX 8 1 7 2 6 3 5 4 4 5 3 6 2 7 1 8 9 9 10 10 11 11 12 12 13 13
REMARK SMILES IDX 14 14 15 15
REMARK H PARENT 15 16
REMARK Flexibility Score: inf
ROOT
ATOM      1  C   UNL     1     139.056 148.432 138.055  1.00  0.00     0.000 C 
ENDROOT
BRANCH   1   2
ATOM      2  C   UNL     1     139.222 147.054 137.393  1.00  0.00    -0.000 C 
BRANCH   2   3
ATOM      3  C   UNL     1     140.128 146.107 138.203  1.00  0.00    -0.000 C 
BRANCH   3   4
ATOM      4  C   UNL     1     139.393 145.014 139.007  1.00  0.00    -0.000 C 
BRANCH   4   5
ATOM      5  C   UNL     1     138.319 144.235 138.226  1.00  0.00    -0.000 C 
BRANCH   5   6
ATOM      6  C   UNL     1     137.002 144.089 139.007  1.00  0.00    -0.000 C 
BRANCH   6   7
ATOM      7  C   UNL     1     136.260 145.425 139.164  1.00  0.00    -0.003 C 
ATOM      8  C   UNL     1     136.310 145.969 140.592  1.00  0.00     0.004 C 
ENDBRANCH   6   7
ENDBRANCH   5   6
ENDBRANCH   4   5
ENDBRANCH   3   4
ENDBRANCH   2   3
ENDBRANCH   1   2
BRANCH   1   9
ATOM      9  C   UNL     1     137.592 148.758 138.402  1.00  0.00     0.000 C 
BRANCH   9  10
ATOM     10  C   UNL     1     137.080 150.119 137.896  1.00  0.00     0.000 C 
BRANCH  10  11
ATOM     11  C   UNL     1     135.607 150.082 137.457  1.00  0.00     0.000 C 
BRANCH  11  12
ATOM     12  C   UNL     1     134.829 148.921 138.098  1.00  0.00     0.002 C 
BRANCH  12  13
ATOM     13  C   UNL     1     133.875 149.390 139.210  1.00  0.00     0.028 C 
BRANCH  13  14
ATOM     14  C   UNL     1     133.462 148.232 140.125  1.00  0.00     0.156 C 
BRANCH  14  15
ATOM     15  O   UNL     1     133.076 147.111 139.376  1.00  0.00    -0.396 OA
ATOM     16  H   UNL     1     133.490 146.322 139.814  1.00  0.00     0.210 HD
ENDBRANCH  14  15
ENDBRANCH  13  14
ENDBRANCH  12  13
ENDBRANCH  11  12
ENDBRANCH  10  11
ENDBRANCH   9  10
ENDBRANCH   1   9
TORSDOF 13
ENDMDL
MODEL 6
REMARK VINA RESULT:    -2.832      1.067      2.175
REMARK INTER + INTRA:          -6.793
REMARK INTER:                  -5.224
REMARK INTRA:                  -1.569
REMARK UNBOUND:                -1.891
REMARK SMILES CCCCCCCCCCCCCCO
REMARK SMILES IDX 8 1 7 2 6 3 5 4 4 5 3 6 2 7 1 8 9 9 10 10 11 11 12 12 13 13
REMARK SMILES IDX 14 14 15 15
REMARK H PARENT 15 16
REMARK Flexibility Score: inf
ROOT
ATOM      1  C   UNL     1     146.083 141.484 139.815  1.00  0.00     0.000 C 
ENDROOT
BRANCH   1   2
ATOM      2  C   UNL     1     145.385 141.056 138.513  1.00  0.00    -0.000 C 
BRANCH   2   3
ATOM      3  C   UNL     1     144.744 142.237 137.762  1.00  0.00    -0.000 C 
BRANCH   3   4
ATOM      4  C   UNL     1     143.397 142.730 138.331  1.00  0.00    -0.000 C 
BRANCH   4   5
ATOM      5  C   UNL     1     143.389 144.186 138.833  1.00  0.00    -0.000 C 
BRANCH   5   6
ATOM      6  C   UNL     1     143.736 144.303 140.327  1.00  0.00    -0.000 C 
BRANCH   6   7
ATOM      7  C   UNL     1     145.034 145.088 140.570  1.00  0.00    -0.003 C 
ATOM      8  C   UNL     1     145.695 145.559 139.275  1.00  0.00     0.004 C 
ENDBRANCH   6   7
ENDBRANCH   5   6
ENDBRANCH   4   5
ENDBRANCH   3   4
ENDBRANCH   2   3
ENDBRANCH   1   2
BRANCH   1   9
ATOM      9  C   UNL     1     147.384 142.270 139.567  1.00  0.00     0.000 C 
BRANCH   9  10
ATOM     10  C   UNL     1     148.263 141.747 138.416  1.00  0.00     0.000 C 
BRANCH  10  11
ATOM     11  C   UNL     1     148.892 142.876 137.581  1.00  0.00     0.000 C 
BRANCH  11  12
ATOM     12  C   UNL     1     148.902 144.223 138.322  1.00  0.00     0.002 C 
BRANCH  12  13
ATOM     13  C   UNL     1     150.163 145.053 138.024  1.00  0.00     0.028 C 
BRANCH  13  14
ATOM     14  C   UNL     1     149.817 146.377 137.335  1.00  0.00     0.156 C 
BRANCH  14  15
ATOM     15  O   UNL     1     148.456 146.432 137.003  1.00  0.00    -0.396 OA
ATOM     16  H   UNL     1     147.956 146.124 137.804  1.00  0.00     0.210 HD
ENDBRANCH  14  15
ENDBRANCH  13  14
ENDBRANCH  12  13
ENDBRANCH  11  12
ENDBRANCH  10  11
ENDBRANCH   9  10
ENDBRANCH   1   9
TORSDOF 13
ENDMDL
MODEL 7
REMARK VINA RESULT:    -2.811      1.633      2.802
REMARK INTER + INTRA:          -6.756
REMARK INTER:                  -4.816
REMARK INTRA:                  -1.940
REMARK UNBOUND:                -1.891
REMARK SMILES CCCCCCCCCCCCCCO
REMARK SMILES IDX 8 1 7 2 6 3 5 4 4 5 3 6 2 7 1 8 9 9 10 10 11 11 12 12 13 13
REMARK SMILES IDX 14 14 15 15
REMARK H PARENT 15 16
REMARK Flexibility Score: inf
ROOT
ATOM      1  C   UNL     1     146.958 142.088 140.123  1.00  0.00     0.000 C 
ENDROOT
BRANCH   1   2
ATOM      2  C   UNL     1     146.052 141.532 139.011  1.00  0.00    -0.000 C 
BRANCH   2   3
ATOM      3  C   UNL     1     144.584 141.971 139.161  1.00  0.00    -0.000 C 
BRANCH   3   4
ATOM      4  C   UNL     1     144.165 143.185 138.307  1.00  0.00    -0.000 C 
BRANCH   4   5
ATOM      5  C   UNL     1     143.705 144.421 139.102  1.00  0.00    -0.000 C 
BRANCH   5   6
ATOM      6  C   UNL     1     144.865 145.136 139.816  1.00  0.00    -0.000 C 
BRANCH   6   7
ATOM      7  C   UNL     1     144.800 144.983 141.343  1.00  0.00    -0.003 C 
ATOM      8  C   UNL     1     146.136 145.273 142.026  1.00  0.00     0.004 C 
ENDBRANCH   6   7
ENDBRANCH   5   6
ENDBRANCH   4   5
ENDBRANCH   3   4
ENDBRANCH   2   3
ENDBRANCH   1   2
BRANCH   1   9
ATOM      9  C   UNL     1     148.065 143.015 139.588  1.00  0.00     0.000 C 
BRANCH   9  10
ATOM     10  C   UNL     1     147.822 143.590 138.181  1.00  0.00     0.000 C 
BRANCH  10  11
ATOM     11  C   UNL     1     148.226 145.069 138.059  1.00  0.00     0.000 C 
BRANCH  11  12
ATOM     12  C   UNL     1     148.625 145.686 139.410  1.00  0.00     0.002 C 
BRANCH  12  13
ATOM     13  C   UNL     1     149.142 147.128 139.272  1.00  0.00     0.028 C 
BRANCH  13  14
ATOM     14  C   UNL     1     148.196 148.133 139.938  1.00  0.00     0.156 C 
BRANCH  14  15
ATOM     15  O   UNL     1     146.953 148.160 139.289  1.00  0.00    -0.396 OA
ATOM     16  H   UNL     1     146.467 147.341 139.572  1.00  0.00     0.210 HD
ENDBRANCH  14  15
ENDBRANCH  13  14
ENDBRANCH  12  13
ENDBRANCH  11  12
ENDBRANCH  10  11
ENDBRANCH   9  10
ENDBRANCH   1   9
TORSDOF 13
ENDMDL
MODEL 8
REMARK VINA RESULT:    -2.804      8.157     10.053
REMARK INTER + INTRA:          -6.744
REMARK INTER:                  -5.095
REMARK INTRA:                  -1.649
REMARK UNBOUND:                -1.891
REMARK SMILES CCCCCCCCCCCCCCO
REMARK SMILES IDX 8 1 7 2 6 3 5 4 4 5 3 6 2 7 1 8 9 9 10 10 11 11 12 12 13 13
REMARK SMILES IDX 14 14 15 15
REMARK H PARENT 15 16
REMARK Flexibility Score: inf
ROOT
ATOM      1  C   UNL     1     139.304 144.981 137.612  1.00  0.00     0.000 C 
ENDROOT
BRANCH   1   2
ATOM      2  C   UNL     1     138.864 143.992 138.704  1.00  0.00    -0.000 C 
BRANCH   2   3
ATOM      3  C   UNL     1     137.334 143.880 138.829  1.00  0.00    -0.000 C 
BRANCH   3   4
ATOM      4  C   UNL     1     136.640 145.056 139.548  1.00  0.00    -0.000 C 
BRANCH   4   5
ATOM      5  C   UNL     1     136.421 144.865 141.060  1.00  0.00    -0.000 C 
BRANCH   5   6
ATOM      6  C   UNL     1     136.980 146.028 141.896  1.00  0.00    -0.000 C 
BRANCH   6   7
ATOM      7  C   UNL     1     138.470 146.285 141.625  1.00  0.00    -0.003 C 
ATOM      8  C   UNL     1     138.807 147.772 141.519  1.00  0.00     0.004 C 
ENDBRANCH   6   7
ENDBRANCH   5   6
ENDBRANCH   4   5
ENDBRANCH   3   4
ENDBRANCH   2   3
ENDBRANCH   1   2
BRANCH   1   9
ATOM      9  C   UNL     1     139.907 146.277 138.185  1.00  0.00     0.000 C 
BRANCH   9  10
ATOM     10  C   UNL     1     139.738 147.529 137.305  1.00  0.00     0.000 C 
BRANCH  10  11
ATOM     11  C   UNL     1     138.833 148.596 137.945  1.00  0.00     0.000 C 
BRANCH  11  12
ATOM     12  C   UNL     1     137.368 148.141 138.050  1.00  0.00     0.002 C 
BRANCH  12  13
ATOM     13  C   UNL     1     136.448 149.235 138.619  1.00  0.00     0.028 C 
BRANCH  13  14
ATOM     14  C   UNL     1     135.197 149.427 137.755  1.00  0.00     0.156 C 
BRANCH  14  15
ATOM     15  O   UNL     1     135.020 148.346 136.879  1.00  0.00    -0.396 OA
ATOM     16  H   UNL     1     134.340 148.629 136.213  1.00  0.00     0.210 HD
ENDBRANCH  14  15
ENDBRANCH  13  14
ENDBRANCH  12  13
ENDBRANCH  11  12
ENDBRANCH  10  11
ENDBRANCH   9  10
ENDBRANCH   1   9
TORSDOF 13
ENDMDL
MODEL 9
REMARK VINA RESULT:    -2.776     11.646     14.282
REMARK INTER + INTRA:          -6.696
REMARK INTER:                  -4.767
REMARK INTRA:                  -1.929
REMARK UNBOUND:                -1.891
REMARK SMILES CCCCCCCCCCCCCCO
REMARK SMILES IDX 8 1 7 2 6 3 5 4 4 5 3 6 2 7 1 8 9 9 10 10 11 11 12 12 13 13
REMARK SMILES IDX 14 14 15 15
REMARK H PARENT 15 16
REMARK Flexibility Score: inf
ROOT
ATOM      1  C   UNL     1     135.310 140.022 138.553  1.00  0.00     0.000 C 
ENDROOT
BRANCH   1   2
ATOM      2  C   UNL     1     136.242 139.023 137.847  1.00  0.00    -0.000 C 
BRANCH   2   3
ATOM      3  C   UNL     1     137.182 138.289 138.823  1.00  0.00    -0.000 C 
BRANCH   3   4
ATOM      4  C   UNL     1     136.823 136.816 139.107  1.00  0.00    -0.000 C 
BRANCH   4   5
ATOM      5  C   UNL     1     136.523 136.486 140.580  1.00  0.00    -0.000 C 
BRANCH   5   6
ATOM      6  C   UNL     1     135.126 136.950 141.025  1.00  0.00    -0.000 C 
BRANCH   6   7
ATOM      7  C   UNL     1     135.178 138.199 141.918  1.00  0.00    -0.003 C 
ATOM      8  C   UNL     1     133.803 138.827 142.141  1.00  0.00     0.004 C 
ENDBRANCH   6   7
ENDBRANCH   5   6
ENDBRANCH   4   5
ENDBRANCH   3   4
ENDBRANCH   2   3
ENDBRANCH   1   2
BRANCH   1   9
ATOM      9  C   UNL     1     133.844 139.552 138.589  1.00  0.00     0.000 C 
BRANCH   9  10
ATOM     10  C   UNL     1     133.569 138.194 137.918  1.00  0.00     0.000 C 
BRANCH  10  11
ATOM     11  C   UNL     1     132.127 137.701 138.129  1.00  0.00     0.000 C 
BRANCH  11  12
ATOM     12  C   UNL     1     132.015 136.168 138.088  1.00  0.00     0.002 C 
BRANCH  12  13
ATOM     13  C   UNL     1     133.378 135.471 138.241  1.00  0.00     0.028 C 
BRANCH  13  14
ATOM     14  C   UNL     1     133.286 134.247 139.159  1.00  0.00     0.156 C 
BRANCH  14  15
ATOM     15  O   UNL     1     134.522 133.588 139.245  1.00  0.00    -0.396 OA
ATOM     16  H   UNL     1     134.324 132.615 139.243  1.00  0.00     0.210 HD
ENDBRANCH  14  15
ENDBRANCH  13  14
ENDBRANCH  12  13
ENDBRANCH  11  12
ENDBRANCH  10  11
ENDBRANCH   9  10
ENDBRANCH   1   9
TORSDOF 13
ENDMDL
