MODEL 1
REMARK VINA RESULT:    -3.933      0.000      0.000
REMARK INTER + INTRA:          -4.837
REMARK INTER:                  -4.623
REMARK INTRA:                  -0.214
REMARK UNBOUND:                -0.214
REMARK SMILES [NH3+][C@H](CO)C(=O)[O-]
REMARK SMILES IDX 3 1 2 2 1 3 5 7 6 8 7 9 4 10
REMARK H PARENT 1 4 1 5 1 6 4 11
REMARK Flexibility Score: inf
ROOT
ATOM      1  C   UNL     1      10.177 -13.812 -21.917  1.00  0.00     0.227 C 
ENDROOT
BRANCH   1   2
ATOM      2  C   UNL     1       9.864 -14.805 -20.783  1.00  0.00     0.253 C 
BRANCH   2   3
ATOM      3  N   UNL     1      10.196 -16.175 -21.191  1.00  0.00    -0.348 N 
ATOM      4  H   UNL     1       9.345 -16.780 -21.125  1.00  0.00     0.345 HD
ATOM      5  H   UNL     1      10.948 -16.572 -20.581  1.00  0.00     0.345 HD
ATOM      6  H   UNL     1      10.524 -16.179 -22.184  1.00  0.00     0.345 HD
ENDBRANCH   2   3
BRANCH   2   7
ATOM      7  C   UNL     1      10.618 -14.436 -19.534  1.00  0.00     0.102 C 
ATOM      8  O   UNL     1      10.737 -13.228 -19.200  1.00  0.00    -0.544 OA
ATOM      9  O   UNL     1      11.200 -15.423 -18.747  1.00  0.00    -0.544 OA
ENDBRANCH   2   7
ENDBRANCH   1   2
BRANCH   1  10
ATOM     10  O   UNL     1       9.574 -12.569 -21.672  1.00  0.00    -0.390 OA
ATOM     11  H   UNL     1       9.533 -12.097 -22.544  1.00  0.00     0.210 HD
ENDBRANCH   1  10
TORSDOF 4
ENDMDL
MODEL 2
REMARK VINA RESULT:    -3.893      1.595      2.138
REMARK INTER + INTRA:          -4.790
REMARK INTER:                  -4.559
REMARK INTRA:                  -0.231
REMARK UNBOUND:                -0.214
REMARK SMILES [NH3+][C@H](CO)C(=O)[O-]
REMARK SMILES IDX 3 1 2 2 1 3 5 7 6 8 7 9 4 10
REMARK H PARENT 1 4 1 5 1 6 4 11
REMARK Flexibility Score: inf
ROOT
ATOM      1  C   UNL     1      10.492 -16.296 -21.373  1.00  0.00     0.227 C 
ENDROOT
BRANCH   1   2
ATOM      2  C   UNL     1      10.520 -14.781 -21.098  1.00  0.00     0.253 C 
BRANCH   2   3
ATOM      3  N   UNL     1       9.254 -14.160 -21.507  1.00  0.00    -0.348 N 
ATOM      4  H   UNL     1       8.481 -14.488 -20.883  1.00  0.00     0.345 HD
ATOM      5  H   UNL     1       9.023 -14.405 -22.498  1.00  0.00     0.345 HD
ATOM      6  H   UNL     1       9.326 -13.121 -21.420  1.00  0.00     0.345 HD
ENDBRANCH   2   3
BRANCH   2   7
ATOM      7  C   UNL     1      10.784 -14.513 -19.641  1.00  0.00     0.102 C 
ATOM      8  O   UNL     1      10.675 -13.345 -19.183  1.00  0.00    -0.544 OA
ATOM      9  O   UNL     1      11.163 -15.548 -18.794  1.00  0.00    -0.544 OA
ENDBRANCH   2   7
ENDBRANCH   1   2
BRANCH   1  10
ATOM     10  O   UNL     1       9.421 -16.905 -20.702  1.00  0.00    -0.390 OA
ATOM     11  H   UNL     1       8.603 -16.409 -20.967  1.00  0.00     0.210 HD
ENDBRANCH   1  10
TORSDOF 4
ENDMDL
MODEL 3
REMARK VINA RESULT:    -3.859      1.764      2.267
REMARK INTER + INTRA:          -4.750
REMARK INTER:                  -4.376
REMARK INTRA:                  -0.374
REMARK UNBOUND:                -0.214
REMARK SMILES [NH3+][C@H](CO)C(=O)[O-]
REMARK SMILES IDX 3 1 2 2 1 3 5 7 6 8 7 9 4 10
REMARK H PARENT 1 4 1 5 1 6 4 11
REMARK Flexibility Score: inf
ROOT
ATOM      1  C   UNL     1       9.650 -15.469 -22.044  1.00  0.00     0.227 C 
ENDROOT
BRANCH   1   2
ATOM      2  C   UNL     1      10.899 -14.747 -21.505  1.00  0.00     0.253 C 
BRANCH   2   3
ATOM      3  N   UNL     1      11.620 -14.081 -22.596  1.00  0.00    -0.348 N 
ATOM      4  H   UNL     1      12.369 -13.465 -22.202  1.00  0.00     0.345 HD
ATOM      5  H   UNL     1      10.968 -13.502 -23.175  1.00  0.00     0.345 HD
ATOM      6  H   UNL     1      12.076 -14.797 -23.208  1.00  0.00     0.345 HD
ENDBRANCH   2   3
BRANCH   2   7
ATOM      7  C   UNL     1      10.515 -13.746 -20.448  1.00  0.00     0.102 C 
ATOM      8  O   UNL     1      10.608 -14.048 -19.229  1.00  0.00    -0.544 OA
ATOM      9  O   UNL     1      10.045 -12.489 -20.808  1.00  0.00    -0.544 OA
ENDBRANCH   2   7
ENDBRANCH   1   2
BRANCH   1  10
ATOM     10  O   UNL     1       8.482 -14.922 -21.493  1.00  0.00    -0.390 OA
ATOM     11  H   UNL     1       8.006 -14.464 -22.234  1.00  0.00     0.210 HD
ENDBRANCH   1  10
TORSDOF 4
ENDMDL
MODEL 4
REMARK VINA RESULT:    -3.829      1.369      1.952
REMARK INTER + INTRA:          -4.715
REMARK INTER:                  -4.464
REMARK INTRA:                  -0.251
REMARK UNBOUND:                -0.214
REMARK SMILES [NH3+][C@H](CO)C(=O)[O-]
REMARK SMILES IDX 3 1 2 2 1 3 5 7 6 8 7 9 4 10
REMARK H PARENT 1 4 1 5 1 6 4 11
REMARK Flexibility Score: inf
ROOT
ATOM      1  C   UNL     1      10.579 -14.737 -22.565  1.00  0.00     0.227 C 
ENDROOT
BRANCH   1   2
ATOM      2  C   UNL     1       9.967 -14.896 -21.161  1.00  0.00     0.253 C 
BRANCH   2   3
ATOM      3  N   UNL     1      10.463 -16.119 -20.518  1.00  0.00    -0.348 N 
ATOM      4  H   UNL     1      10.122 -16.162 -19.529  1.00  0.00     0.345 HD
ATOM      5  H   UNL     1      11.509 -16.143 -20.522  1.00  0.00     0.345 HD
ATOM      6  H   UNL     1      10.100 -16.958 -21.026  1.00  0.00     0.345 HD
ENDBRANCH   2   3
BRANCH   2   7
ATOM      7  C   UNL     1      10.280 -13.696 -20.309  1.00  0.00     0.102 C 
ATOM      8  O   UNL     1      10.755 -13.847 -19.153  1.00  0.00    -0.544 OA
ATOM      9  O   UNL     1      10.037 -12.413 -20.786  1.00  0.00    -0.544 OA
ENDBRANCH   2   7
ENDBRANCH   1   2
BRANCH   1  10
ATOM     10  O   UNL     1      11.848 -14.145 -22.491  1.00  0.00    -0.390 OA
ATOM     11  H   UNL     1      11.845 -13.568 -21.683  1.00  0.00     0.210 HD
ENDBRANCH   1  10
TORSDOF 4
ENDMDL
MODEL 5
REMARK VINA RESULT:    -3.712      2.131      2.833
REMARK INTER + INTRA:          -4.577
REMARK INTER:                  -4.198
REMARK INTRA:                  -0.379
REMARK UNBOUND:                -0.214
REMARK SMILES [NH3+][C@H](CO)C(=O)[O-]
REMARK SMILES IDX 3 1 2 2 1 3 5 7 6 8 7 9 4 10
REMARK H PARENT 1 4 1 5 1 6 4 11
REMARK Flexibility Score: inf
ROOT
ATOM      1  C   UNL     1       9.694 -15.348 -21.740  1.00  0.00     0.227 C 
ENDROOT
BRANCH   1   2
ATOM      2  C   UNL     1      10.759 -14.239 -21.657  1.00  0.00     0.253 C 
BRANCH   2   3
ATOM      3  N   UNL     1      11.610 -14.251 -22.853  1.00  0.00    -0.348 N 
ATOM      4  H   UNL     1      12.270 -13.439 -22.827  1.00  0.00     0.345 HD
ATOM      5  H   UNL     1      11.030 -14.195 -23.723  1.00  0.00     0.345 HD
ATOM      6  H   UNL     1      12.175 -15.131 -22.876  1.00  0.00     0.345 HD
ENDBRANCH   2   3
BRANCH   2   7
ATOM      7  C   UNL     1      10.108 -12.891 -21.496  1.00  0.00     0.102 C 
ATOM      8  O   UNL     1       9.958 -12.395 -20.348  1.00  0.00    -0.544 OA
ATOM      9  O   UNL     1       9.657 -12.191 -22.608  1.00  0.00    -0.544 OA
ENDBRANCH   2   7
ENDBRANCH   1   2
BRANCH   1  10
ATOM     10  O   UNL     1       8.406 -14.797 -21.812  1.00  0.00    -0.390 OA
ATOM     11  H   UNL     1       8.502 -13.827 -21.621  1.00  0.00     0.210 HD
ENDBRANCH   1  10
TORSDOF 4
ENDMDL
MODEL 6
REMARK VINA RESULT:    -3.691      1.812      3.486
REMARK INTER + INTRA:          -4.552
REMARK INTER:                  -4.542
REMARK INTRA:                  -0.009
REMARK UNBOUND:                -0.214
REMARK SMILES [NH3+][C@H](CO)C(=O)[O-]
REMARK SMILES IDX 3 1 2 2 1 3 5 7 6 8 7 9 4 10
REMARK H PARENT 1 4 1 5 1 6 4 11
REMARK Flexibility Score: inf
ROOT
ATOM      1  C   UNL     1      10.915 -15.107 -20.083  1.00  0.00     0.227 C 
ENDROOT
BRANCH   1   2
ATOM      2  C   UNL     1      10.182 -13.776 -20.330  1.00  0.00     0.253 C 
BRANCH   2   3
ATOM      3  N   UNL     1      10.855 -12.678 -19.626  1.00  0.00    -0.348 N 
ATOM      4  H   UNL     1      11.891 -12.816 -19.663  1.00  0.00     0.345 HD
ATOM      5  H   UNL     1      10.549 -12.636 -18.625  1.00  0.00     0.345 HD
ATOM      6  H   UNL     1      10.629 -11.768 -20.090  1.00  0.00     0.345 HD
ENDBRANCH   2   3
BRANCH   2   7
ATOM      7  C   UNL     1      10.106 -13.480 -21.804  1.00  0.00     0.102 C 
ATOM      8  O   UNL     1      10.457 -14.351 -22.643  1.00  0.00    -0.544 OA
ATOM      9  O   UNL     1       9.660 -12.241 -22.250  1.00  0.00    -0.544 OA
ENDBRANCH   2   7
ENDBRANCH   1   2
BRANCH   1  10
ATOM     10  O   UNL     1      10.956 -15.406 -18.713  1.00  0.00    -0.390 OA
ATOM     11  H   UNL     1      11.885 -15.693 -18.513  1.00  0.00     0.210 HD
ENDBRANCH   1  10
TORSDOF 4
ENDMDL
MODEL 7
REMARK VINA RESULT:    -3.538      2.532      3.259
REMARK INTER + INTRA:          -4.372
REMARK INTER:                  -3.979
REMARK INTRA:                  -0.393
REMARK UNBOUND:                -0.214
REMARK SMILES [NH3+][C@H](CO)C(=O)[O-]
REMARK SMILES IDX 3 1 2 2 1 3 5 7 6 8 7 9 4 10
REMARK H PARENT 1 4 1 5 1 6 4 11
REMARK Flexibility Score: inf
ROOT
ATOM      1  C   UNL     1      10.857 -14.738 -23.209  1.00  0.00     0.227 C 
ENDROOT
BRANCH   1   2
ATOM      2  C   UNL     1       9.614 -13.861 -22.973  1.00  0.00     0.253 C 
BRANCH   2   3
ATOM      3  N   UNL     1       8.612 -14.590 -22.185  1.00  0.00    -0.348 N 
ATOM      4  H   UNL     1       8.999 -14.812 -21.239  1.00  0.00     0.345 HD
ATOM      5  H   UNL     1       8.339 -15.480 -22.663  1.00  0.00     0.345 HD
ATOM      6  H   UNL     1       7.761 -13.995 -22.059  1.00  0.00     0.345 HD
ENDBRANCH   2   3
BRANCH   2   7
ATOM      7  C   UNL     1       9.993 -12.582 -22.277  1.00  0.00     0.102 C 
ATOM      8  O   UNL     1       9.938 -12.504 -21.022  1.00  0.00    -0.544 OA
ATOM      9  O   UNL     1      10.394 -11.474 -23.015  1.00  0.00    -0.544 OA
ENDBRANCH   2   7
ENDBRANCH   1   2
BRANCH   1  10
ATOM     10  O   UNL     1      11.999 -14.142 -22.652  1.00  0.00    -0.390 OA
ATOM     11  H   UNL     1      11.685 -13.352 -22.140  1.00  0.00     0.210 HD
ENDBRANCH   1  10
TORSDOF 4
ENDMDL
MODEL 8
REMARK VINA RESULT:    -3.503      1.672      1.989
REMARK INTER + INTRA:          -4.331
REMARK INTER:                  -4.088
REMARK INTRA:                  -0.243
REMARK UNBOUND:                -0.214
REMARK SMILES [NH3+][C@H](CO)C(=O)[O-]
REMARK SMILES IDX 3 1 2 2 1 3 5 7 6 8 7 9 4 10
REMARK H PARENT 1 4 1 5 1 6 4 11
REMARK Flexibility Score: inf
ROOT
ATOM      1  C   UNL     1       9.925 -12.917 -22.191  1.00  0.00     0.227 C 
ENDROOT
BRANCH   1   2
ATOM      2  C   UNL     1      10.434 -14.369 -22.244  1.00  0.00     0.253 C 
BRANCH   2   3
ATOM      3  N   UNL     1      11.839 -14.408 -22.663  1.00  0.00    -0.348 N 
ATOM      4  H   UNL     1      12.050 -15.330 -23.112  1.00  0.00     0.345 HD
ATOM      5  H   UNL     1      12.476 -14.272 -21.843  1.00  0.00     0.345 HD
ATOM      6  H   UNL     1      12.020 -13.654 -23.365  1.00  0.00     0.345 HD
ENDBRANCH   2   3
BRANCH   2   7
ATOM      7  C   UNL     1      10.271 -15.036 -20.904  1.00  0.00     0.102 C 
ATOM      8  O   UNL     1       9.369 -15.897 -20.731  1.00  0.00    -0.544 OA
ATOM      9  O   UNL     1      11.105 -14.697 -19.845  1.00  0.00    -0.544 OA
ENDBRANCH   2   7
ENDBRANCH   1   2
BRANCH   1  10
ATOM     10  O   UNL     1       9.716 -12.511 -20.865  1.00  0.00    -0.390 OA
ATOM     11  H   UNL     1      10.499 -11.955 -20.612  1.00  0.00     0.210 HD
ENDBRANCH   1  10
TORSDOF 4
ENDMDL
MODEL 9
REMARK VINA RESULT:    -3.478      1.966      2.533
REMARK INTER + INTRA:          -4.302
REMARK INTER:                  -3.943
REMARK INTRA:                  -0.359
REMARK UNBOUND:                -0.214
REMARK SMILES [NH3+][C@H](CO)C(=O)[O-]
REMARK SMILES IDX 3 1 2 2 1 3 5 7 6 8 7 9 4 10
REMARK H PARENT 1 4 1 5 1 6 4 11
REMARK Flexibility Score: inf
ROOT
ATOM      1  C   UNL     1      10.198 -13.268 -19.935  1.00  0.00     0.227 C 
ENDROOT
BRANCH   1   2
ATOM      2  C   UNL     1      10.777 -14.630 -20.360  1.00  0.00     0.253 C 
BRANCH   2   3
ATOM      3  N   UNL     1      10.528 -15.641 -19.326  1.00  0.00    -0.348 N 
ATOM      4  H   UNL     1      11.148 -15.465 -18.501  1.00  0.00     0.345 HD
ATOM      5  H   UNL     1      10.713 -16.603 -19.695  1.00  0.00     0.345 HD
ATOM      6  H   UNL     1       9.534 -15.583 -19.007  1.00  0.00     0.345 HD
ENDBRANCH   2   3
BRANCH   2   7
ATOM      7  C   UNL     1      10.186 -15.070 -21.672  1.00  0.00     0.102 C 
ATOM      8  O   UNL     1      10.888 -15.058 -22.718  1.00  0.00    -0.544 OA
ATOM      9  O   UNL     1       8.860 -15.480 -21.743  1.00  0.00    -0.544 OA
ENDBRANCH   2   7
ENDBRANCH   1   2
BRANCH   1  10
ATOM     10  O   UNL     1       9.648 -12.595 -21.037  1.00  0.00    -0.390 OA
ATOM     11  H   UNL     1       9.859 -13.143 -21.838  1.00  0.00     0.210 HD
ENDBRANCH   1  10
TORSDOF 4
ENDMDL
