MODEL 1
REMARK VINA RESULT:    -5.367      0.000      0.000
REMARK INTER + INTRA:          -8.753
REMARK INTER:                  -7.563
REMARK INTRA:                  -1.190
REMARK UNBOUND:                -1.190
REMARK SMILES COc1c(O[C@@H]2O[C@@H](C(=O)[O-])[C@@H](O)[C@@H](O)[C@H]2O)cc(O)c2c(=O)cc(-c3ccccc3)oc12
REMARK SMILES IDX 5 1 6 2 8 3 12 4 7 5 14 6 16 7 9 8 10 9 11 10 13 11 15 13
REMARK SMILES IDX 17 15 4 17 3 18 18 19 33 20 19 21 21 22 32 23 22 24 25 25
REMARK SMILES IDX 24 26 23 27 2 28 1 29 20 30 26 32 27 33 31 34 28 35 30 36
REMARK SMILES IDX 29 37
REMARK H PARENT 13 12 15 14 17 16 20 31
REMARK Flexibility Score: inf
ROOT
ATOM      1  O   UNL     1      15.066  55.891  21.377  1.00  0.00    -0.458 OA
ENDROOT
BRANCH   1   2
ATOM      2  C   UNL     1      15.361  54.623  21.975  1.00  0.00     0.339 C 
ATOM      3  C   UNL     1      17.556  55.295  22.482  1.00  0.00     0.199 C 
ATOM      4  C   UNL     1      18.208  54.312  21.479  1.00  0.00     0.180 C 
ATOM      5  O   UNL     1      16.337  54.777  22.996  1.00  0.00    -0.328 OA
ATOM      6  C   UNL     1      17.216  53.963  20.354  1.00  0.00     0.181 C 
ATOM      7  C   UNL     1      15.825  53.590  20.909  1.00  0.00     0.214 C 
BRANCH   3   8
ATOM      8  C   UNL     1      18.493  55.584  23.619  1.00  0.00     0.073 C 
ATOM      9  O   UNL     1      19.125  56.672  23.667  1.00  0.00    -0.547 OA
ATOM     10  O   UNL     1      18.627  54.668  24.656  1.00  0.00    -0.547 OA
ENDBRANCH   3   8
BRANCH   4  11
ATOM     11  O   UNL     1      18.706  53.150  22.104  1.00  0.00    -0.387 OA
ATOM     12  H   UNL     1      18.013  52.445  22.052  1.00  0.00     0.211 HD
ENDBRANCH   4  11
BRANCH   6  13
ATOM     13  O   UNL     1      17.735  52.924  19.566  1.00  0.00    -0.387 OA
ATOM     14  H   UNL     1      17.556  52.078  20.055  1.00  0.00     0.211 HD
ENDBRANCH   6  13
BRANCH   7  15
ATOM     15  O   UNL     1      15.819  52.264  21.392  1.00  0.00    -0.384 OA
ATOM     16  H   UNL     1      14.939  52.064  21.804  1.00  0.00     0.211 HD
ENDBRANCH   7  15
ENDBRANCH   1   2
BRANCH   1  17
ATOM     17  C   UNL     1      14.153  56.126  20.334  1.00  0.00     0.172 A 
ATOM     18  C   UNL     1      14.540  56.993  19.311  1.00  0.00     0.205 A 
ATOM     19  C   UNL     1      12.889  55.519  20.282  1.00  0.00     0.097 A 
ATOM     20  C   UNL     1      13.660  57.291  18.259  1.00  0.00     0.188 A 
ATOM     21  C   UNL     1      12.014  55.756  19.216  1.00  0.00     0.134 A 
ATOM     22  C   UNL     1      12.374  56.691  18.202  1.00  0.00     0.111 A 
ATOM     23  O   UNL     1      14.042  58.162  17.330  1.00  0.00    -0.452 OA
ATOM     24  C   UNL     1      11.523  57.099  17.148  1.00  0.00     0.197 A 
ATOM     25  C   UNL     1      13.273  58.541  16.314  1.00  0.00     0.138 A 
ATOM     26  C   UNL     1      11.982  58.008  16.196  1.00  0.00     0.100 A 
ATOM     27  O   UNL     1      10.337  56.687  17.050  1.00  0.00    -0.289 OA
BRANCH  18  28
ATOM     28  O   UNL     1      15.809  57.575  19.362  1.00  0.00    -0.490 OA
ATOM     29  C   UNL     1      16.037  58.815  20.019  1.00  0.00     0.278 C 
ENDBRANCH  18  28
BRANCH  21  30
ATOM     30  O   UNL     1      10.824  55.021  19.214  1.00  0.00    -0.507 OA
ATOM     31  H   UNL     1      10.220  54.904  18.414  1.00  0.00     0.293 HD
ENDBRANCH  21  30
BRANCH  25  32
ATOM     32  C   UNL     1      13.809  59.521  15.336  1.00  0.00     0.017 A 
ATOM     33  C   UNL     1      14.562  59.114  14.216  1.00  0.00     0.012 A 
ATOM     34  C   UNL     1      13.535  60.891  15.505  1.00  0.00     0.012 A 
ATOM     35  C   UNL     1      15.044  60.058  13.304  1.00  0.00     0.001 A 
ATOM     36  C   UNL     1      14.020  61.831  14.590  1.00  0.00     0.001 A 
ATOM     37  C   UNL     1      14.776  61.416  13.494  1.00  0.00     0.000 A 
ENDBRANCH  25  32
ENDBRANCH   1  17
TORSDOF 9
ENDMDL
MODEL 2
REMARK VINA RESULT:    -5.038      1.969      2.381
REMARK INTER + INTRA:          -8.290
REMARK INTER:                  -6.972
REMARK INTRA:                  -1.318
REMARK UNBOUND:                -1.190
REMARK SMILES COc1c(O[C@@H]2O[C@@H](C(=O)[O-])[C@@H](O)[C@@H](O)[C@H]2O)cc(O)c2c(=O)cc(-c3ccccc3)oc12
REMARK SMILES IDX 5 1 6 2 8 3 12 4 7 5 14 6 16 7 9 8 10 9 11 10 13 11 15 13
REMARK SMILES IDX 17 15 4 17 3 18 18 19 33 20 19 21 21 22 32 23 22 24 25 25
REMARK SMILES IDX 24 26 23 27 2 28 1 29 20 30 26 32 27 33 31 34 28 35 30 36
REMARK SMILES IDX 29 37
REMARK H PARENT 13 12 15 14 17 16 20 31
REMARK Flexibility Score: inf
ROOT
ATOM      1  O   UNL     1      15.330  57.330  21.740  1.00  0.00    -0.458 OA
ENDROOT
BRANCH   1   2
ATOM      2  C   UNL     1      14.927  56.297  22.648  1.00  0.00     0.339 C 
ATOM      3  C   UNL     1      17.100  55.404  22.708  1.00  0.00     0.199 C 
ATOM      4  C   UNL     1      16.705  54.100  21.973  1.00  0.00     0.180 C 
ATOM      5  O   UNL     1      16.018  55.915  23.473  1.00  0.00    -0.328 OA
ATOM      6  C   UNL     1      15.454  54.334  21.108  1.00  0.00     0.181 C 
ATOM      7  C   UNL     1      14.345  55.072  21.888  1.00  0.00     0.214 C 
BRANCH   3   8
ATOM      8  C   UNL     1      18.278  55.165  23.607  1.00  0.00     0.073 C 
ATOM      9  O   UNL     1      19.125  54.275  23.330  1.00  0.00    -0.547 OA
ATOM     10  O   UNL     1      18.467  55.965  24.728  1.00  0.00    -0.547 OA
ENDBRANCH   3   8
BRANCH   4  11
ATOM     11  O   UNL     1      16.525  53.014  22.854  1.00  0.00    -0.387 OA
ATOM     12  H   UNL     1      15.557  52.811  22.908  1.00  0.00     0.211 HD
ENDBRANCH   4  11
BRANCH   6  13
ATOM     13  O   UNL     1      14.982  53.110  20.608  1.00  0.00    -0.387 OA
ATOM     14  H   UNL     1      14.483  52.672  21.347  1.00  0.00     0.211 HD
ENDBRANCH   6  13
BRANCH   7  15
ATOM     15  O   UNL     1      13.652  54.181  22.735  1.00  0.00    -0.384 OA
ATOM     16  H   UNL     1      13.041  54.691  23.328  1.00  0.00     0.211 HD
ENDBRANCH   7  15
ENDBRANCH   1   2
BRANCH   1  17
ATOM     17  C   UNL     1      14.495  58.024  20.847  1.00  0.00     0.172 A 
ATOM     18  C   UNL     1      14.792  57.951  19.485  1.00  0.00     0.205 A 
ATOM     19  C   UNL     1      13.384  58.768  21.271  1.00  0.00     0.097 A 
ATOM     20  C   UNL     1      14.014  58.648  18.549  1.00  0.00     0.188 A 
ATOM     21  C   UNL     1      12.559  59.427  20.354  1.00  0.00     0.134 A 
ATOM     22  C   UNL     1      12.894  59.413  18.968  1.00  0.00     0.111 A 
ATOM     23  O   UNL     1      14.357  58.598  17.264  1.00  0.00    -0.452 OA
ATOM     24  C   UNL     1      12.205  60.142  17.969  1.00  0.00     0.197 A 
ATOM     25  C   UNL     1      13.711  59.250  16.303  1.00  0.00     0.138 A 
ATOM     26  C   UNL     1      12.605  60.042  16.637  1.00  0.00     0.100 A 
ATOM     27  O   UNL     1      11.247  60.910  18.244  1.00  0.00    -0.289 OA
BRANCH  18  28
ATOM     28  O   UNL     1      15.888  57.189  19.072  1.00  0.00    -0.490 OA
ATOM     29  C   UNL     1      17.205  57.725  19.050  1.00  0.00     0.278 C 
ENDBRANCH  18  28
BRANCH  21  30
ATOM     30  O   UNL     1      11.424  60.054  20.876  1.00  0.00    -0.507 OA
ATOM     31  H   UNL     1      10.651  60.399  20.327  1.00  0.00     0.293 HD
ENDBRANCH  21  30
BRANCH  25  32
ATOM     32  C   UNL     1      14.186  59.117  14.903  1.00  0.00     0.017 A 
ATOM     33  C   UNL     1      14.321  57.858  14.282  1.00  0.00     0.012 A 
ATOM     34  C   UNL     1      14.481  60.273  14.158  1.00  0.00     0.012 A 
ATOM     35  C   UNL     1      14.760  57.764  12.957  1.00  0.00     0.001 A 
ATOM     36  C   UNL     1      14.920  60.173  12.833  1.00  0.00     0.001 A 
ATOM     37  C   UNL     1      15.062  58.921  12.235  1.00  0.00     0.000 A 
ENDBRANCH  25  32
ENDBRANCH   1  17
TORSDOF 9
ENDMDL
MODEL 3
REMARK VINA RESULT:    -4.944      1.984      3.109
REMARK INTER + INTRA:          -8.157
REMARK INTER:                  -6.889
REMARK INTRA:                  -1.268
REMARK UNBOUND:                -1.190
REMARK SMILES COc1c(O[C@@H]2O[C@@H](C(=O)[O-])[C@@H](O)[C@@H](O)[C@H]2O)cc(O)c2c(=O)cc(-c3ccccc3)oc12
REMARK SMILES IDX 5 1 6 2 8 3 12 4 7 5 14 6 16 7 9 8 10 9 11 10 13 11 15 13
REMARK SMILES IDX 17 15 4 17 3 18 18 19 33 20 19 21 21 22 32 23 22 24 25 25
REMARK SMILES IDX 24 26 23 27 2 28 1 29 20 30 26 32 27 33 31 34 28 35 30 36
REMARK SMILES IDX 29 37
REMARK H PARENT 13 12 15 14 17 16 20 31
REMARK Flexibility Score: inf
ROOT
ATOM      1  O   UNL     1      14.546  56.416  21.523  1.00  0.00    -0.458 OA
ENDROOT
BRANCH   1   2
ATOM      2  C   UNL     1      15.674  56.606  22.386  1.00  0.00     0.339 C 
ATOM      3  C   UNL     1      16.689  54.634  21.610  1.00  0.00     0.199 C 
ATOM      4  C   UNL     1      16.528  53.888  22.957  1.00  0.00     0.180 C 
ATOM      5  O   UNL     1      16.837  56.033  21.807  1.00  0.00    -0.328 OA
ATOM      6  C   UNL     1      15.354  54.480  23.757  1.00  0.00     0.181 C 
ATOM      7  C   UNL     1      15.408  56.022  23.802  1.00  0.00     0.214 C 
BRANCH   3   8
ATOM      8  C   UNL     1      17.875  54.107  20.856  1.00  0.00     0.073 C 
ATOM      9  O   UNL     1      19.041  54.266  21.304  1.00  0.00    -0.547 OA
ATOM     10  O   UNL     1      17.686  53.393  19.678  1.00  0.00    -0.547 OA
ENDBRANCH   3   8
BRANCH   4  11
ATOM     11  O   UNL     1      17.716  53.880  23.718  1.00  0.00    -0.387 OA
ATOM     12  H   UNL     1      17.689  54.643  24.348  1.00  0.00     0.211 HD
ENDBRANCH   4  11
BRANCH   6  13
ATOM     13  O   UNL     1      15.340  53.943  25.054  1.00  0.00    -0.387 OA
ATOM     14  H   UNL     1      15.741  54.628  25.652  1.00  0.00     0.211 HD
ENDBRANCH   6  13
BRANCH   7  15
ATOM     15  O   UNL     1      16.345  56.462  24.761  1.00  0.00    -0.384 OA
ATOM     16  H   UNL     1      16.029  56.223  25.671  1.00  0.00     0.211 HD
ENDBRANCH   7  15
ENDBRANCH   1   2
BRANCH   1  17
ATOM     17  C   UNL     1      13.944  57.395  20.714  1.00  0.00     0.172 A 
ATOM     18  C   UNL     1      14.265  57.406  19.356  1.00  0.00     0.205 A 
ATOM     19  C   UNL     1      13.036  58.340  21.216  1.00  0.00     0.097 A 
ATOM     20  C   UNL     1      13.720  58.379  18.504  1.00  0.00     0.188 A 
ATOM     21  C   UNL     1      12.436  59.286  20.377  1.00  0.00     0.134 A 
ATOM     22  C   UNL     1      12.809  59.347  19.003  1.00  0.00     0.111 A 
ATOM     23  O   UNL     1      14.089  58.393  17.226  1.00  0.00    -0.452 OA
ATOM     24  C   UNL     1      12.361  60.335  18.093  1.00  0.00     0.197 A 
ATOM     25  C   UNL     1      13.662  59.291  16.345  1.00  0.00     0.138 A 
ATOM     26  C   UNL     1      12.774  60.292  16.762  1.00  0.00     0.100 A 
ATOM     27  O   UNL     1      11.614  61.282  18.451  1.00  0.00    -0.289 OA
BRANCH  18  28
ATOM     28  O   UNL     1      15.153  56.447  18.863  1.00  0.00    -0.490 OA
ATOM     29  C   UNL     1      16.503  56.768  18.550  1.00  0.00     0.278 C 
ENDBRANCH  18  28
BRANCH  21  30
ATOM     30  O   UNL     1      11.472  60.113  20.962  1.00  0.00    -0.507 OA
ATOM     31  H   UNL     1      11.258  60.142  21.948  1.00  0.00     0.293 HD
ENDBRANCH  21  30
BRANCH  25  32
ATOM     32  C   UNL     1      14.143  59.205  14.943  1.00  0.00     0.017 A 
ATOM     33  C   UNL     1      14.466  60.357  14.197  1.00  0.00     0.012 A 
ATOM     34  C   UNL     1      14.315  57.943  14.344  1.00  0.00     0.012 A 
ATOM     35  C   UNL     1      14.928  60.245  12.882  1.00  0.00     0.001 A 
ATOM     36  C   UNL     1      14.777  57.836  13.029  1.00  0.00     0.001 A 
ATOM     37  C   UNL     1      15.080  58.985  12.298  1.00  0.00     0.000 A 
ENDBRANCH  25  32
ENDBRANCH   1  17
TORSDOF 9
ENDMDL
MODEL 4
REMARK VINA RESULT:    -4.927      2.731      4.541
REMARK INTER + INTRA:          -8.134
REMARK INTER:                  -6.962
REMARK INTRA:                  -1.171
REMARK UNBOUND:                -1.190
REMARK SMILES COc1c(O[C@@H]2O[C@@H](C(=O)[O-])[C@@H](O)[C@@H](O)[C@H]2O)cc(O)c2c(=O)cc(-c3ccccc3)oc12
REMARK SMILES IDX 5 1 6 2 8 3 12 4 7 5 14 6 16 7 9 8 10 9 11 10 13 11 15 13
REMARK SMILES IDX 17 15 4 17 3 18 18 19 33 20 19 21 21 22 32 23 22 24 25 25
REMARK SMILES IDX 24 26 23 27 2 28 1 29 20 30 26 32 27 33 31 34 28 35 30 36
REMARK SMILES IDX 29 37
REMARK H PARENT 13 12 15 14 17 16 20 31
REMARK Flexibility Score: inf
ROOT
ATOM      1  O   UNL     1      15.134  56.122  19.105  1.00  0.00    -0.458 OA
ENDROOT
BRANCH   1   2
ATOM      2  C   UNL     1      15.855  56.142  20.343  1.00  0.00     0.339 C 
ATOM      3  C   UNL     1      16.861  54.071  19.872  1.00  0.00     0.199 C 
ATOM      4  C   UNL     1      16.109  53.323  21.000  1.00  0.00     0.180 C 
ATOM      5  O   UNL     1      17.079  55.433  20.211  1.00  0.00    -0.328 OA
ATOM      6  C   UNL     1      14.792  54.046  21.333  1.00  0.00     0.181 C 
ATOM      7  C   UNL     1      14.998  55.566  21.506  1.00  0.00     0.214 C 
BRANCH   3   8
ATOM      8  C   UNL     1      18.179  53.410  19.591  1.00  0.00     0.073 C 
ATOM      9  O   UNL     1      19.119  54.055  19.056  1.00  0.00    -0.547 OA
ATOM     10  O   UNL     1      18.386  52.088  19.971  1.00  0.00    -0.547 OA
ENDBRANCH   3   8
BRANCH   4  11
ATOM     11  O   UNL     1      16.901  53.141  22.153  1.00  0.00    -0.387 OA
ATOM     12  H   UNL     1      16.553  53.730  22.868  1.00  0.00     0.211 HD
ENDBRANCH   4  11
BRANCH   6  13
ATOM     13  O   UNL     1      14.217  53.486  22.485  1.00  0.00    -0.387 OA
ATOM     14  H   UNL     1      13.498  52.874  22.177  1.00  0.00     0.211 HD
ENDBRANCH   6  13
BRANCH   7  15
ATOM     15  O   UNL     1      15.535  55.856  22.778  1.00  0.00    -0.384 OA
ATOM     16  H   UNL     1      15.300  56.785  23.036  1.00  0.00     0.211 HD
ENDBRANCH   7  15
ENDBRANCH   1   2
BRANCH   1  17
ATOM     17  C   UNL     1      14.824  57.236  18.306  1.00  0.00     0.172 A 
ATOM     18  C   UNL     1      13.581  57.844  18.489  1.00  0.00     0.205 A 
ATOM     19  C   UNL     1      15.712  57.756  17.352  1.00  0.00     0.097 A 
ATOM     20  C   UNL     1      13.201  58.940  17.699  1.00  0.00     0.188 A 
ATOM     21  C   UNL     1      15.381  58.881  16.590  1.00  0.00     0.134 A 
ATOM     22  C   UNL     1      14.088  59.468  16.724  1.00  0.00     0.111 A 
ATOM     23  O   UNL     1      11.989  59.461  17.865  1.00  0.00    -0.452 OA
ATOM     24  C   UNL     1      13.601  60.528  15.922  1.00  0.00     0.197 A 
ATOM     25  C   UNL     1      11.518  60.474  17.145  1.00  0.00     0.138 A 
ATOM     26  C   UNL     1      12.325  61.040  16.149  1.00  0.00     0.100 A 
ATOM     27  O   UNL     1      14.276  61.016  14.979  1.00  0.00    -0.289 OA
BRANCH  18  28
ATOM     28  O   UNL     1      12.713  57.331  19.457  1.00  0.00    -0.490 OA
ATOM     29  C   UNL     1      11.917  56.179  19.212  1.00  0.00     0.278 C 
ENDBRANCH  18  28
BRANCH  21  30
ATOM     30  O   UNL     1      16.378  59.375  15.743  1.00  0.00    -0.507 OA
ATOM     31  H   UNL     1      16.647  58.957  14.865  1.00  0.00     0.293 HD
ENDBRANCH  21  30
BRANCH  25  32
ATOM     32  C   UNL     1      10.148  60.974  17.422  1.00  0.00     0.017 A 
ATOM     33  C   UNL     1       9.113  60.866  16.470  1.00  0.00     0.012 A 
ATOM     34  C   UNL     1       9.856  61.541  18.676  1.00  0.00     0.012 A 
ATOM     35  C   UNL     1       7.828  61.335  16.763  1.00  0.00     0.001 A 
ATOM     36  C   UNL     1       8.569  62.009  18.963  1.00  0.00     0.001 A 
ATOM     37  C   UNL     1       7.558  61.908  18.007  1.00  0.00     0.000 A 
ENDBRANCH  25  32
ENDBRANCH   1  17
TORSDOF 9
ENDMDL
MODEL 5
REMARK VINA RESULT:    -4.871      2.717      5.069
REMARK INTER + INTRA:          -8.055
REMARK INTER:                  -6.925
REMARK INTRA:                  -1.130
REMARK UNBOUND:                -1.190
REMARK SMILES COc1c(O[C@@H]2O[C@@H](C(=O)[O-])[C@@H](O)[C@@H](O)[C@H]2O)cc(O)c2c(=O)cc(-c3ccccc3)oc12
REMARK SMILES IDX 5 1 6 2 8 3 12 4 7 5 14 6 16 7 9 8 10 9 11 10 13 11 15 13
REMARK SMILES IDX 17 15 4 17 3 18 18 19 33 20 19 21 21 22 32 23 22 24 25 25
REMARK SMILES IDX 24 26 23 27 2 28 1 29 20 30 26 32 27 33 31 34 28 35 30 36
REMARK SMILES IDX 29 37
REMARK H PARENT 13 12 15 14 17 16 20 31
REMARK Flexibility Score: inf
ROOT
ATOM      1  O   UNL     1      13.633  57.371  21.238  1.00  0.00    -0.458 OA
ENDROOT
BRANCH   1   2
ATOM      2  C   UNL     1      13.161  56.035  21.451  1.00  0.00     0.339 C 
ATOM      3  C   UNL     1      11.983  56.683  23.379  1.00  0.00     0.199 C 
ATOM      4  C   UNL     1      12.896  55.886  24.342  1.00  0.00     0.180 C 
ATOM      5  O   UNL     1      11.901  56.058  22.106  1.00  0.00    -0.328 OA
ATOM      6  C   UNL     1      14.287  55.686  23.713  1.00  0.00     0.181 C 
ATOM      7  C   UNL     1      14.193  55.192  22.253  1.00  0.00     0.214 C 
BRANCH   3   8
ATOM      8  C   UNL     1      10.605  56.822  23.957  1.00  0.00     0.073 C 
ATOM      9  O   UNL     1      10.193  57.937  24.373  1.00  0.00    -0.547 OA
ATOM     10  O   UNL     1       9.753  55.723  23.987  1.00  0.00    -0.547 OA
ENDBRANCH   3   8
BRANCH   4  11
ATOM     11  O   UNL     1      12.328  54.657  24.735  1.00  0.00    -0.387 OA
ATOM     12  H   UNL     1      12.015  54.183  23.925  1.00  0.00     0.211 HD
ENDBRANCH   4  11
BRANCH   6  13
ATOM     13  O   UNL     1      15.041  54.795  24.493  1.00  0.00    -0.387 OA
ATOM     14  H   UNL     1      14.394  54.268  25.032  1.00  0.00     0.211 HD
ENDBRANCH   6  13
BRANCH   7  15
ATOM     15  O   UNL     1      13.921  53.808  22.211  1.00  0.00    -0.384 OA
ATOM     16  H   UNL     1      13.821  53.516  21.267  1.00  0.00     0.211 HD
ENDBRANCH   7  15
ENDBRANCH   1   2
BRANCH   1  17
ATOM     17  C   UNL     1      14.708  57.751  20.416  1.00  0.00     0.172 A 
ATOM     18  C   UNL     1      14.448  57.967  19.062  1.00  0.00     0.205 A 
ATOM     19  C   UNL     1      16.011  57.930  20.905  1.00  0.00     0.097 A 
ATOM     20  C   UNL     1      15.487  58.318  18.185  1.00  0.00     0.188 A 
ATOM     21  C   UNL     1      17.053  58.333  20.064  1.00  0.00     0.134 A 
ATOM     22  C   UNL     1      16.811  58.490  18.667  1.00  0.00     0.111 A 
ATOM     23  O   UNL     1      15.213  58.464  16.892  1.00  0.00    -0.452 OA
ATOM     24  C   UNL     1      17.811  58.775  17.707  1.00  0.00     0.197 A 
ATOM     25  C   UNL     1      16.127  58.758  15.974  1.00  0.00     0.138 A 
ATOM     26  C   UNL     1      17.462  58.927  16.366  1.00  0.00     0.100 A 
ATOM     27  O   UNL     1      19.027  58.870  18.017  1.00  0.00    -0.289 OA
BRANCH  18  28
ATOM     28  O   UNL     1      13.143  57.808  18.590  1.00  0.00    -0.490 OA
ATOM     29  C   UNL     1      12.224  58.893  18.550  1.00  0.00     0.278 C 
ENDBRANCH  18  28
BRANCH  21  30
ATOM     30  O   UNL     1      18.287  58.577  20.674  1.00  0.00    -0.507 OA
ATOM     31  H   UNL     1      19.167  58.191  20.370  1.00  0.00     0.293 HD
ENDBRANCH  21  30
BRANCH  25  32
ATOM     32  C   UNL     1      15.703  58.898  14.558  1.00  0.00     0.017 A 
ATOM     33  C   UNL     1      15.319  60.143  14.018  1.00  0.00     0.012 A 
ATOM     34  C   UNL     1      15.710  57.770  13.716  1.00  0.00     0.012 A 
ATOM     35  C   UNL     1      14.936  60.247  12.677  1.00  0.00     0.001 A 
ATOM     36  C   UNL     1      15.325  57.880  12.377  1.00  0.00     0.001 A 
ATOM     37  C   UNL     1      14.935  59.115  11.859  1.00  0.00     0.000 A 
ENDBRANCH  25  32
ENDBRANCH   1  17
TORSDOF 9
ENDMDL
MODEL 6
REMARK VINA RESULT:    -4.831      2.229      3.909
REMARK INTER + INTRA:          -7.998
REMARK INTER:                  -6.625
REMARK INTRA:                  -1.374
REMARK UNBOUND:                -1.190
REMARK SMILES COc1c(O[C@@H]2O[C@@H](C(=O)[O-])[C@@H](O)[C@@H](O)[C@H]2O)cc(O)c2c(=O)cc(-c3ccccc3)oc12
REMARK SMILES IDX 5 1 6 2 8 3 12 4 7 5 14 6 16 7 9 8 10 9 11 10 13 11 15 13
REMARK SMILES IDX 17 15 4 17 3 18 18 19 33 20 19 21 21 22 32 23 22 24 25 25
REMARK SMILES IDX 24 26 23 27 2 28 1 29 20 30 26 32 27 33 31 34 28 35 30 36
REMARK SMILES IDX 29 37
REMARK H PARENT 13 12 15 14 17 16 20 31
REMARK Flexibility Score: inf
ROOT
ATOM      1  O   UNL     1      16.620  56.081  20.150  1.00  0.00    -0.458 OA
ENDROOT
BRANCH   1   2
ATOM      2  C   UNL     1      16.290  54.704  20.372  1.00  0.00     0.339 C 
ATOM      3  C   UNL     1      15.432  55.181  22.507  1.00  0.00     0.199 C 
ATOM      4  C   UNL     1      16.557  54.422  23.252  1.00  0.00     0.180 C 
ATOM      5  O   UNL     1      15.169  54.601  21.237  1.00  0.00    -0.328 OA
ATOM      6  C   UNL     1      17.824  54.358  22.380  1.00  0.00     0.181 C 
ATOM      7  C   UNL     1      17.506  53.915  20.936  1.00  0.00     0.214 C 
BRANCH   3   8
ATOM      8  C   UNL     1      14.172  55.186  23.323  1.00  0.00     0.073 C 
ATOM      9  O   UNL     1      13.077  55.540  22.810  1.00  0.00    -0.547 OA
ATOM     10  O   UNL     1      14.200  54.748  24.642  1.00  0.00    -0.547 OA
ENDBRANCH   3   8
BRANCH   4  11
ATOM     11  O   UNL     1      16.157  53.137  23.673  1.00  0.00    -0.387 OA
ATOM     12  H   UNL     1      16.711  52.465  23.201  1.00  0.00     0.211 HD
ENDBRANCH   4  11
BRANCH   6  13
ATOM     13  O   UNL     1      18.767  53.500  22.969  1.00  0.00    -0.387 OA
ATOM     14  H   UNL     1      18.311  53.053  23.729  1.00  0.00     0.211 HD
ENDBRANCH   6  13
BRANCH   7  15
ATOM     15  O   UNL     1      17.331  52.516  20.868  1.00  0.00    -0.384 OA
ATOM     16  H   UNL     1      16.427  52.310  20.514  1.00  0.00     0.211 HD
ENDBRANCH   7  15
ENDBRANCH   1   2
BRANCH   1  17
ATOM     17  C   UNL     1      16.411  56.805  18.963  1.00  0.00     0.172 A 
ATOM     18  C   UNL     1      15.233  57.545  18.850  1.00  0.00     0.205 A 
ATOM     19  C   UNL     1      17.338  56.818  17.910  1.00  0.00     0.097 A 
ATOM     20  C   UNL     1      14.954  58.263  17.677  1.00  0.00     0.188 A 
ATOM     21  C   UNL     1      17.109  57.569  16.752  1.00  0.00     0.134 A 
ATOM     22  C   UNL     1      15.879  58.274  16.600  1.00  0.00     0.111 A 
ATOM     23  O   UNL     1      13.798  58.914  17.582  1.00  0.00    -0.452 OA
ATOM     24  C   UNL     1      15.490  58.964  15.427  1.00  0.00     0.197 A 
ATOM     25  C   UNL     1      13.421  59.593  16.504  1.00  0.00     0.138 A 
ATOM     26  C   UNL     1      14.270  59.637  15.391  1.00  0.00     0.100 A 
ATOM     27  O   UNL     1      16.202  58.970  14.389  1.00  0.00    -0.289 OA
BRANCH  18  28
ATOM     28  O   UNL     1      14.328  57.543  19.914  1.00  0.00    -0.490 OA
ATOM     29  C   UNL     1      14.413  58.491  20.971  1.00  0.00     0.278 C 
ENDBRANCH  18  28
BRANCH  21  30
ATOM     30  O   UNL     1      18.143  57.590  15.810  1.00  0.00    -0.507 OA
ATOM     31  H   UNL     1      18.804  56.843  15.663  1.00  0.00     0.293 HD
ENDBRANCH  21  30
BRANCH  25  32
ATOM     32  C   UNL     1      12.106  60.282  16.515  1.00  0.00     0.017 A 
ATOM     33  C   UNL     1      11.903  61.504  15.841  1.00  0.00     0.012 A 
ATOM     34  C   UNL     1      11.019  59.693  17.187  1.00  0.00     0.012 A 
ATOM     35  C   UNL     1      10.650  62.125  15.859  1.00  0.00     0.001 A 
ATOM     36  C   UNL     1       9.768  60.319  17.202  1.00  0.00     0.001 A 
ATOM     37  C   UNL     1       9.585  61.534  16.542  1.00  0.00     0.000 A 
ENDBRANCH  25  32
ENDBRANCH   1  17
TORSDOF 9
ENDMDL
MODEL 7
REMARK VINA RESULT:    -4.772      2.366      4.644
REMARK INTER + INTRA:          -7.915
REMARK INTER:                  -6.900
REMARK INTRA:                  -1.015
REMARK UNBOUND:                -1.190
REMARK SMILES COc1c(O[C@@H]2O[C@@H](C(=O)[O-])[C@@H](O)[C@@H](O)[C@H]2O)cc(O)c2c(=O)cc(-c3ccccc3)oc12
REMARK SMILES IDX 5 1 6 2 8 3 12 4 7 5 14 6 16 7 9 8 10 9 11 10 13 11 15 13
REMARK SMILES IDX 17 15 4 17 3 18 18 19 33 20 19 21 21 22 32 23 22 24 25 25
REMARK SMILES IDX 24 26 23 27 2 28 1 29 20 30 26 32 27 33 31 34 28 35 30 36
REMARK SMILES IDX 29 37
REMARK H PARENT 13 12 15 14 17 16 20 31
REMARK Flexibility Score: inf
ROOT
ATOM      1  O   UNL     1      16.885  56.584  21.533  1.00  0.00    -0.458 OA
ENDROOT
BRANCH   1   2
ATOM      2  C   UNL     1      17.847  55.675  22.081  1.00  0.00     0.339 C 
ATOM      3  C   UNL     1      17.565  54.182  20.289  1.00  0.00     0.199 C 
ATOM      4  C   UNL     1      16.905  53.086  21.160  1.00  0.00     0.180 C 
ATOM      5  O   UNL     1      18.491  54.953  21.041  1.00  0.00    -0.328 OA
ATOM      6  C   UNL     1      16.248  53.715  22.401  1.00  0.00     0.181 C 
ATOM      7  C   UNL     1      17.191  54.710  23.109  1.00  0.00     0.214 C 
BRANCH   3   8
ATOM      8  C   UNL     1      18.267  53.567  19.113  1.00  0.00     0.073 C 
ATOM      9  O   UNL     1      18.463  52.325  19.062  1.00  0.00    -0.547 OA
ATOM     10  O   UNL     1      18.660  54.367  18.046  1.00  0.00    -0.547 OA
ENDBRANCH   3   8
BRANCH   4  11
ATOM     11  O   UNL     1      17.806  52.062  21.519  1.00  0.00    -0.387 OA
ATOM     12  H   UNL     1      18.125  52.234  22.440  1.00  0.00     0.211 HD
ENDBRANCH   4  11
BRANCH   6  13
ATOM     13  O   UNL     1      15.831  52.707  23.285  1.00  0.00    -0.387 OA
ATOM     14  H   UNL     1      14.862  52.849  23.446  1.00  0.00     0.211 HD
ENDBRANCH   6  13
BRANCH   7  15
ATOM     15  O   UNL     1      18.139  54.024  23.899  1.00  0.00    -0.384 OA
ATOM     16  H   UNL     1      19.029  54.454  23.801  1.00  0.00     0.211 HD
ENDBRANCH   7  15
ENDBRANCH   1   2
BRANCH   1  17
ATOM     17  C   UNL     1      17.155  57.662  20.673  1.00  0.00     0.172 A 
ATOM     18  C   UNL     1      16.611  57.625  19.388  1.00  0.00     0.205 A 
ATOM     19  C   UNL     1      17.933  58.764  21.060  1.00  0.00     0.097 A 
ATOM     20  C   UNL     1      16.873  58.657  18.474  1.00  0.00     0.188 A 
ATOM     21  C   UNL     1      18.163  59.832  20.187  1.00  0.00     0.134 A 
ATOM     22  C   UNL     1      17.667  59.771  18.852  1.00  0.00     0.111 A 
ATOM     23  O   UNL     1      16.381  58.563  17.241  1.00  0.00    -0.452 OA
ATOM     24  C   UNL     1      17.941  60.733  17.850  1.00  0.00     0.197 A 
ATOM     25  C   UNL     1      16.599  59.465  16.290  1.00  0.00     0.138 A 
ATOM     26  C   UNL     1      17.389  60.586  16.577  1.00  0.00     0.100 A 
ATOM     27  O   UNL     1      18.697  61.717  18.057  1.00  0.00    -0.289 OA
BRANCH  18  28
ATOM     28  O   UNL     1      15.820  56.533  19.020  1.00  0.00    -0.490 OA
ATOM     29  C   UNL     1      14.426  56.494  19.295  1.00  0.00     0.278 C 
ENDBRANCH  18  28
BRANCH  21  30
ATOM     30  O   UNL     1      18.866  60.922  20.709  1.00  0.00    -0.507 OA
ATOM     31  H   UNL     1      19.525  60.872  21.472  1.00  0.00     0.293 HD
ENDBRANCH  21  30
BRANCH  25  32
ATOM     32  C   UNL     1      15.996  59.253  14.950  1.00  0.00     0.017 A 
ATOM     33  C   UNL     1      15.505  60.327  14.180  1.00  0.00     0.012 A 
ATOM     34  C   UNL     1      15.940  57.954  14.412  1.00  0.00     0.012 A 
ATOM     35  C   UNL     1      14.953  60.099  12.915  1.00  0.00     0.001 A 
ATOM     36  C   UNL     1      15.386  57.731  13.147  1.00  0.00     0.001 A 
ATOM     37  C   UNL     1      14.891  58.801  12.401  1.00  0.00     0.000 A 
ENDBRANCH  25  32
ENDBRANCH   1  17
TORSDOF 9
ENDMDL
MODEL 8
REMARK VINA RESULT:    -4.633      1.081      2.709
REMARK INTER + INTRA:          -7.719
REMARK INTER:                  -6.985
REMARK INTRA:                  -0.735
REMARK UNBOUND:                -1.190
REMARK SMILES COc1c(O[C@@H]2O[C@@H](C(=O)[O-])[C@@H](O)[C@@H](O)[C@H]2O)cc(O)c2c(=O)cc(-c3ccccc3)oc12
REMARK SMILES IDX 5 1 6 2 8 3 12 4 7 5 14 6 16 7 9 8 10 9 11 10 13 11 15 13
REMARK SMILES IDX 17 15 4 17 3 18 18 19 33 20 19 21 21 22 32 23 22 24 25 25
REMARK SMILES IDX 24 26 23 27 2 28 1 29 20 30 26 32 27 33 31 34 28 35 30 36
REMARK SMILES IDX 29 37
REMARK H PARENT 13 12 15 14 17 16 20 31
REMARK Flexibility Score: inf
ROOT
ATOM      1  O   UNL     1      15.589  57.132  21.561  1.00  0.00    -0.458 OA
ENDROOT
BRANCH   1   2
ATOM      2  C   UNL     1      16.938  56.650  21.515  1.00  0.00     0.339 C 
ATOM      3  C   UNL     1      16.258  54.480  22.108  1.00  0.00     0.199 C 
ATOM      4  C   UNL     1      16.943  54.524  23.496  1.00  0.00     0.180 C 
ATOM      5  O   UNL     1      16.957  55.275  21.160  1.00  0.00    -0.328 OA
ATOM      6  C   UNL     1      17.092  55.981  23.971  1.00  0.00     0.181 C 
ATOM      7  C   UNL     1      17.670  56.890  22.866  1.00  0.00     0.214 C 
BRANCH   3   8
ATOM      8  C   UNL     1      16.173  53.067  21.609  1.00  0.00     0.073 C 
ATOM      9  O   UNL     1      15.136  52.380  21.805  1.00  0.00    -0.547 OA
ATOM     10  O   UNL     1      17.225  52.527  20.878  1.00  0.00    -0.547 OA
ENDBRANCH   3   8
BRANCH   4  11
ATOM     11  O   UNL     1      18.181  53.850  23.511  1.00  0.00    -0.387 OA
ATOM     12  H   UNL     1      18.140  53.134  24.194  1.00  0.00     0.211 HD
ENDBRANCH   4  11
BRANCH   6  13
ATOM     13  O   UNL     1      17.890  56.029  25.125  1.00  0.00    -0.387 OA
ATOM     14  H   UNL     1      18.409  55.182  25.149  1.00  0.00     0.211 HD
ENDBRANCH   6  13
BRANCH   7  15
ATOM     15  O   UNL     1      19.069  56.728  22.767  1.00  0.00    -0.384 OA
ATOM     16  H   UNL     1      19.410  57.242  21.989  1.00  0.00     0.211 HD
ENDBRANCH   7  15
ENDBRANCH   1   2
BRANCH   1  17
ATOM     17  C   UNL     1      14.656  57.091  20.511  1.00  0.00     0.172 A 
ATOM     18  C   UNL     1      14.924  57.849  19.369  1.00  0.00     0.205 A 
ATOM     19  C   UNL     1      13.487  56.317  20.565  1.00  0.00     0.097 A 
ATOM     20  C   UNL     1      14.014  57.873  18.301  1.00  0.00     0.188 A 
ATOM     21  C   UNL     1      12.591  56.280  19.492  1.00  0.00     0.134 A 
ATOM     22  C   UNL     1      12.823  57.102  18.350  1.00  0.00     0.111 A 
ATOM     23  O   UNL     1      14.277  58.648  17.252  1.00  0.00    -0.452 OA
ATOM     24  C   UNL     1      11.927  57.237  17.263  1.00  0.00     0.197 A 
ATOM     25  C   UNL     1      13.466  58.771  16.207  1.00  0.00     0.138 A 
ATOM     26  C   UNL     1      12.261  58.057  16.186  1.00  0.00     0.100 A 
ATOM     27  O   UNL     1      10.809  56.659  17.244  1.00  0.00    -0.289 OA
BRANCH  18  28
ATOM     28  O   UNL     1      16.102  58.599  19.317  1.00  0.00    -0.490 OA
ATOM     29  C   UNL     1      17.199  58.212  18.500  1.00  0.00     0.278 C 
ENDBRANCH  18  28
BRANCH  21  30
ATOM     30  O   UNL     1      11.512  55.398  19.612  1.00  0.00    -0.507 OA
ATOM     31  H   UNL     1      10.587  55.565  19.246  1.00  0.00     0.293 HD
ENDBRANCH  21  30
BRANCH  25  32
ATOM     32  C   UNL     1      13.866  59.666  15.091  1.00  0.00     0.017 A 
ATOM     33  C   UNL     1      13.527  61.035  15.080  1.00  0.00     0.012 A 
ATOM     34  C   UNL     1      14.632  59.151  14.029  1.00  0.00     0.012 A 
ATOM     35  C   UNL     1      13.928  61.856  14.022  1.00  0.00     0.001 A 
ATOM     36  C   UNL     1      15.030  59.977  12.973  1.00  0.00     0.001 A 
ATOM     37  C   UNL     1      14.676  61.327  12.968  1.00  0.00     0.000 A 
ENDBRANCH  25  32
ENDBRANCH   1  17
TORSDOF 9
ENDMDL
MODEL 9
REMARK VINA RESULT:    -4.621      2.157      4.461
REMARK INTER + INTRA:          -7.703
REMARK INTER:                  -6.517
REMARK INTRA:                  -1.186
REMARK UNBOUND:                -1.190
REMARK SMILES COc1c(O[C@@H]2O[C@@H](C(=O)[O-])[C@@H](O)[C@@H](O)[C@H]2O)cc(O)c2c(=O)cc(-c3ccccc3)oc12
REMARK SMILES IDX 5 1 6 2 8 3 12 4 7 5 14 6 16 7 9 8 10 9 11 10 13 11 15 13
REMARK SMILES IDX 17 15 4 17 3 18 18 19 33 20 19 21 21 22 32 23 22 24 25 25
REMARK SMILES IDX 24 26 23 27 2 28 1 29 20 30 26 32 27 33 31 34 28 35 30 36
REMARK SMILES IDX 29 37
REMARK H PARENT 13 12 15 14 17 16 20 31
REMARK Flexibility Score: inf
ROOT
ATOM      1  O   UNL     1      15.703  57.107  21.638  1.00  0.00    -0.458 OA
ENDROOT
BRANCH   1   2
ATOM      2  C   UNL     1      16.554  56.501  22.619  1.00  0.00     0.339 C 
ATOM      3  C   UNL     1      16.145  54.355  21.752  1.00  0.00     0.199 C 
ATOM      4  C   UNL     1      15.357  53.880  22.996  1.00  0.00     0.180 C 
ATOM      5  O   UNL     1      17.135  55.313  22.100  1.00  0.00    -0.328 OA
ATOM      6  C   UNL     1      14.749  55.086  23.734  1.00  0.00     0.181 C 
ATOM      7  C   UNL     1      15.780  56.216  23.938  1.00  0.00     0.214 C 
BRANCH   3   8
ATOM      8  C   UNL     1      16.799  53.190  21.067  1.00  0.00     0.073 C 
ATOM      9  O   UNL     1      16.538  52.010  21.421  1.00  0.00    -0.547 OA
ATOM     10  O   UNL     1      17.661  53.410  19.998  1.00  0.00    -0.547 OA
ENDBRANCH   3   8
BRANCH   4  11
ATOM     11  O   UNL     1      16.137  53.087  23.863  1.00  0.00    -0.387 OA
ATOM     12  H   UNL     1      15.720  52.192  23.930  1.00  0.00     0.211 HD
ENDBRANCH   4  11
BRANCH   6  13
ATOM     13  O   UNL     1      14.212  54.673  24.964  1.00  0.00    -0.387 OA
ATOM     14  H   UNL     1      13.446  55.276  25.159  1.00  0.00     0.211 HD
ENDBRANCH   6  13
BRANCH   7  15
ATOM     15  O   UNL     1      16.636  55.922  25.022  1.00  0.00    -0.384 OA
ATOM     16  H   UNL     1      16.350  55.074  25.452  1.00  0.00     0.211 HD
ENDBRANCH   7  15
ENDBRANCH   1   2
BRANCH   1  17
ATOM     17  C   UNL     1      16.063  58.132  20.746  1.00  0.00     0.172 A 
ATOM     18  C   UNL     1      15.729  57.972  19.400  1.00  0.00     0.205 A 
ATOM     19  C   UNL     1      16.725  59.298  21.158  1.00  0.00     0.097 A 
ATOM     20  C   UNL     1      16.089  58.947  18.457  1.00  0.00     0.188 A 
ATOM     21  C   UNL     1      17.047  60.310  20.248  1.00  0.00     0.134 A 
ATOM     22  C   UNL     1      16.770  60.126  18.861  1.00  0.00     0.111 A 
ATOM     23  O   UNL     1      15.802  58.737  17.175  1.00  0.00    -0.452 OA
ATOM     24  C   UNL     1      17.158  61.024  17.839  1.00  0.00     0.197 A 
ATOM     25  C   UNL     1      16.130  59.577  16.200  1.00  0.00     0.138 A 
ATOM     26  C   UNL     1      16.820  60.756  16.513  1.00  0.00     0.100 A 
ATOM     27  O   UNL     1      17.832  62.059  18.081  1.00  0.00    -0.289 OA
BRANCH  18  28
ATOM     28  O   UNL     1      15.050  56.817  19.004  1.00  0.00    -0.490 OA
ATOM     29  C   UNL     1      13.630  56.749  18.998  1.00  0.00     0.278 C 
ENDBRANCH  18  28
BRANCH  21  30
ATOM     30  O   UNL     1      17.614  61.470  20.783  1.00  0.00    -0.507 OA
ATOM     31  H   UNL     1      18.602  61.676  20.796  1.00  0.00     0.293 HD
ENDBRANCH  21  30
BRANCH  25  32
ATOM     32  C   UNL     1      15.755  59.237  14.804  1.00  0.00     0.017 A 
ATOM     33  C   UNL     1      15.801  57.911  14.325  1.00  0.00     0.012 A 
ATOM     34  C   UNL     1      15.309  60.253  13.938  1.00  0.00     0.012 A 
ATOM     35  C   UNL     1      15.430  57.619  13.009  1.00  0.00     0.001 A 
ATOM     36  C   UNL     1      14.940  59.954  12.622  1.00  0.00     0.001 A 
ATOM     37  C   UNL     1      15.003  58.640  12.158  1.00  0.00     0.000 A 
ENDBRANCH  25  32
ENDBRANCH   1  17
TORSDOF 9
ENDMDL
