MODEL 1
REMARK VINA RESULT:    -4.622      0.000      0.000
REMARK INTER + INTRA:          -6.453
REMARK INTER:                  -6.243
REMARK INTRA:                  -0.210
REMARK UNBOUND:                -0.210
REMARK SMILES CCCCCCC=CC(=O)[O-]
REMARK SMILES IDX 5 1 6 2 7 3 8 4 9 5 10 6 11 7 4 8 3 9 2 10 1 11
REMARK H PARENT
REMARK Flexibility Score: inf
ROOT
ATOM      1  C   UNL     1      13.359  29.851  49.484  1.00  0.00     0.004 C 
ENDROOT
BRANCH   1   2
ATOM      2  C   UNL     1      12.704  28.516  49.100  1.00  0.00     0.027 C 
BRANCH   2   3
ATOM      3  C   UNL     1      13.134  28.074  47.731  1.00  0.00    -0.025 C 
ATOM      4  C   UNL     1      12.804  26.871  47.250  1.00  0.00     0.020 C 
BRANCH   4   5
ATOM      5  C   UNL     1      13.208  26.431  45.907  1.00  0.00     0.064 C 
ATOM      6  O   UNL     1      12.503  26.745  44.912  1.00  0.00    -0.545 OA
ATOM      7  O   UNL     1      14.356  25.670  45.717  1.00  0.00    -0.545 OA
ENDBRANCH   4   5
ENDBRANCH   2   3
ENDBRANCH   1   2
BRANCH   1   8
ATOM      8  C   UNL     1      14.692  29.672  50.233  1.00  0.00     0.000 C 
BRANCH   8   9
ATOM      9  C   UNL     1      15.599  30.915  50.248  1.00  0.00    -0.000 C 
BRANCH   9  10
ATOM     10  C   UNL     1      17.089  30.570  50.101  1.00  0.00    -0.003 C 
ATOM     11  C   UNL     1      17.661  31.142  48.807  1.00  0.00     0.004 C 
ENDBRANCH   9  10
ENDBRANCH   8   9
ENDBRANCH   1   8
TORSDOF 6
ENDMDL
MODEL 2
REMARK VINA RESULT:    -4.441      7.950      9.231
REMARK INTER + INTRA:          -6.208
REMARK INTER:                  -5.619
REMARK INTRA:                  -0.589
REMARK UNBOUND:                -0.210
REMARK SMILES CCCCCCC=CC(=O)[O-]
REMARK SMILES IDX 5 1 6 2 7 3 8 4 9 5 10 6 11 7 4 8 3 9 2 10 1 11
REMARK H PARENT
REMARK Flexibility Score: inf
ROOT
ATOM      1  C   UNL     1      15.562  24.998  58.495  1.00  0.00     0.004 C 
ENDROOT
BRANCH   1   2
ATOM      2  C   UNL     1      16.726  25.537  57.651  1.00  0.00     0.027 C 
BRANCH   2   3
ATOM      3  C   UNL     1      16.920  24.719  56.408  1.00  0.00    -0.025 C 
ATOM      4  C   UNL     1      17.062  25.293  55.209  1.00  0.00     0.020 C 
BRANCH   4   5
ATOM      5  C   UNL     1      17.266  24.505  53.985  1.00  0.00     0.064 C 
ATOM      6  O   UNL     1      17.383  23.254  54.064  1.00  0.00    -0.545 OA
ATOM      7  O   UNL     1      17.331  25.119  52.739  1.00  0.00    -0.545 OA
ENDBRANCH   4   5
ENDBRANCH   2   3
ENDBRANCH   1   2
BRANCH   1   8
ATOM      8  C   UNL     1      14.336  25.929  58.491  1.00  0.00     0.000 C 
BRANCH   8   9
ATOM      9  C   UNL     1      13.815  26.309  57.093  1.00  0.00    -0.000 C 
BRANCH   9  10
ATOM     10  C   UNL     1      13.849  27.822  56.833  1.00  0.00    -0.003 C 
ATOM     11  C   UNL     1      14.722  28.153  55.625  1.00  0.00     0.004 C 
ENDBRANCH   9  10
ENDBRANCH   8   9
ENDBRANCH   1   8
TORSDOF 6
ENDMDL
MODEL 3
REMARK VINA RESULT:    -4.361     14.036     16.071
REMARK INTER + INTRA:          -6.100
REMARK INTER:                  -5.477
REMARK INTRA:                  -0.623
REMARK UNBOUND:                -0.210
REMARK SMILES CCCCCCC=CC(=O)[O-]
REMARK SMILES IDX 5 1 6 2 7 3 8 4 9 5 10 6 11 7 4 8 3 9 2 10 1 11
REMARK H PARENT
REMARK Flexibility Score: inf
ROOT
ATOM      1  C   UNL     1      27.332  23.128  58.009  1.00  0.00     0.004 C 
ENDROOT
BRANCH   1   2
ATOM      2  C   UNL     1      26.181  23.433  57.040  1.00  0.00     0.027 C 
BRANCH   2   3
ATOM      3  C   UNL     1      25.897  24.907  56.983  1.00  0.00    -0.025 C 
ATOM      4  C   UNL     1      25.805  25.555  55.817  1.00  0.00     0.020 C 
BRANCH   4   5
ATOM      5  C   UNL     1      25.515  26.994  55.745  1.00  0.00     0.064 C 
ATOM      6  O   UNL     1      25.167  27.504  54.648  1.00  0.00    -0.545 OA
ATOM      7  O   UNL     1      25.620  27.804  56.871  1.00  0.00    -0.545 OA
ENDBRANCH   4   5
ENDBRANCH   2   3
ENDBRANCH   1   2
BRANCH   1   8
ATOM      8  C   UNL     1      28.555  22.505  57.312  1.00  0.00     0.000 C 
BRANCH   8   9
ATOM      9  C   UNL     1      29.165  23.361  56.187  1.00  0.00    -0.000 C 
BRANCH   9  10
ATOM     10  C   UNL     1      29.100  22.677  54.813  1.00  0.00    -0.003 C 
ATOM     11  C   UNL     1      28.206  23.457  53.853  1.00  0.00     0.004 C 
ENDBRANCH   9  10
ENDBRANCH   8   9
ENDBRANCH   1   8
TORSDOF 6
ENDMDL
MODEL 4
REMARK VINA RESULT:    -4.314      7.616      8.846
REMARK INTER + INTRA:          -6.037
REMARK INTER:                  -5.574
REMARK INTRA:                  -0.463
REMARK UNBOUND:                -0.210
REMARK SMILES CCCCCCC=CC(=O)[O-]
REMARK SMILES IDX 5 1 6 2 7 3 8 4 9 5 10 6 11 7 4 8 3 9 2 10 1 11
REMARK H PARENT
REMARK Flexibility Score: inf
ROOT
ATOM      1  C   UNL     1      16.424  25.789  57.356  1.00  0.00     0.004 C 
ENDROOT
BRANCH   1   2
ATOM      2  C   UNL     1      17.047  24.657  56.525  1.00  0.00     0.027 C 
BRANCH   2   3
ATOM      3  C   UNL     1      17.200  25.060  55.087  1.00  0.00    -0.025 C 
ATOM      4  C   UNL     1      16.137  25.279  54.306  1.00  0.00     0.020 C 
BRANCH   4   5
ATOM      5  C   UNL     1      16.272  25.686  52.901  1.00  0.00     0.064 C 
ATOM      6  O   UNL     1      15.415  26.455  52.392  1.00  0.00    -0.545 OA
ATOM      7  O   UNL     1      17.332  25.235  52.122  1.00  0.00    -0.545 OA
ENDBRANCH   4   5
ENDBRANCH   2   3
ENDBRANCH   1   2
BRANCH   1   8
ATOM      8  C   UNL     1      15.548  25.274  58.511  1.00  0.00     0.000 C 
BRANCH   8   9
ATOM      9  C   UNL     1      14.102  25.802  58.514  1.00  0.00    -0.000 C 
BRANCH   9  10
ATOM     10  C   UNL     1      13.676  26.387  57.159  1.00  0.00    -0.003 C 
ATOM     11  C   UNL     1      13.199  27.829  57.308  1.00  0.00     0.004 C 
ENDBRANCH   9  10
ENDBRANCH   8   9
ENDBRANCH   1   8
TORSDOF 6
ENDMDL
MODEL 5
REMARK VINA RESULT:    -4.173      5.041      6.066
REMARK INTER + INTRA:          -5.847
REMARK INTER:                  -5.628
REMARK INTRA:                  -0.219
REMARK UNBOUND:                -0.210
REMARK SMILES CCCCCCC=CC(=O)[O-]
REMARK SMILES IDX 5 1 6 2 7 3 8 4 9 5 10 6 11 7 4 8 3 9 2 10 1 11
REMARK H PARENT
REMARK Flexibility Score: inf
ROOT
ATOM      1  C   UNL     1      15.711  28.792  51.710  1.00  0.00     0.004 C 
ENDROOT
BRANCH   1   2
ATOM      2  C   UNL     1      15.241  27.367  52.034  1.00  0.00     0.027 C 
BRANCH   2   3
ATOM      3  C   UNL     1      16.338  26.566  52.674  1.00  0.00    -0.025 C 
ATOM      4  C   UNL     1      16.084  25.420  53.313  1.00  0.00     0.020 C 
BRANCH   4   5
ATOM      5  C   UNL     1      17.149  24.619  53.933  1.00  0.00     0.064 C 
ATOM      6  O   UNL     1      17.055  23.363  53.945  1.00  0.00    -0.545 OA
ATOM      7  O   UNL     1      18.260  25.225  54.508  1.00  0.00    -0.545 OA
ENDBRANCH   4   5
ENDBRANCH   2   3
ENDBRANCH   1   2
BRANCH   1   8
ATOM      8  C   UNL     1      14.808  29.504  50.686  1.00  0.00     0.000 C 
BRANCH   8   9
ATOM      9  C   UNL     1      15.505  30.599  49.859  1.00  0.00    -0.000 C 
BRANCH   9  10
ATOM     10  C   UNL     1      17.033  30.588  50.017  1.00  0.00    -0.003 C 
ATOM     11  C   UNL     1      17.712  31.282  48.839  1.00  0.00     0.004 C 
ENDBRANCH   9  10
ENDBRANCH   8   9
ENDBRANCH   1   8
TORSDOF 6
ENDMDL
MODEL 6
REMARK VINA RESULT:    -4.163      8.515      9.687
REMARK INTER + INTRA:          -5.834
REMARK INTER:                  -5.514
REMARK INTRA:                  -0.319
REMARK UNBOUND:                -0.210
REMARK SMILES CCCCCCC=CC(=O)[O-]
REMARK SMILES IDX 5 1 6 2 7 3 8 4 9 5 10 6 11 7 4 8 3 9 2 10 1 11
REMARK H PARENT
REMARK Flexibility Score: inf
ROOT
ATOM      1  C   UNL     1      16.358  25.376  55.234  1.00  0.00     0.004 C 
ENDROOT
BRANCH   1   2
ATOM      2  C   UNL     1      16.806  24.714  53.922  1.00  0.00     0.027 C 
BRANCH   2   3
ATOM      3  C   UNL     1      18.149  24.060  54.076  1.00  0.00    -0.025 C 
ATOM      4  C   UNL     1      19.145  24.300  53.217  1.00  0.00     0.020 C 
BRANCH   4   5
ATOM      5  C   UNL     1      20.468  23.678  53.362  1.00  0.00     0.064 C 
ATOM      6  O   UNL     1      20.556  22.493  53.779  1.00  0.00    -0.545 OA
ATOM      7  O   UNL     1      21.628  24.377  53.047  1.00  0.00    -0.545 OA
ENDBRANCH   4   5
ENDBRANCH   2   3
ENDBRANCH   1   2
BRANCH   1   8
ATOM      8  C   UNL     1      16.998  24.736  56.479  1.00  0.00     0.000 C 
BRANCH   8   9
ATOM      9  C   UNL     1      16.338  25.118  57.815  1.00  0.00    -0.000 C 
BRANCH   9  10
ATOM     10  C   UNL     1      15.432  26.354  57.704  1.00  0.00    -0.003 C 
ATOM     11  C   UNL     1      14.025  26.051  58.210  1.00  0.00     0.004 C 
ENDBRANCH   9  10
ENDBRANCH   8   9
ENDBRANCH   1   8
TORSDOF 6
ENDMDL
MODEL 7
REMARK VINA RESULT:    -4.161     11.098     12.521
REMARK INTER + INTRA:          -5.830
REMARK INTER:                  -5.248
REMARK INTRA:                  -0.583
REMARK UNBOUND:                -0.210
REMARK SMILES CCCCCCC=CC(=O)[O-]
REMARK SMILES IDX 5 1 6 2 7 3 8 4 9 5 10 6 11 7 4 8 3 9 2 10 1 11
REMARK H PARENT
REMARK Flexibility Score: inf
ROOT
ATOM      1  C   UNL     1      26.698  25.855  55.134  1.00  0.00     0.004 C 
ENDROOT
BRANCH   1   2
ATOM      2  C   UNL     1      26.303  26.122  53.674  1.00  0.00     0.027 C 
BRANCH   2   3
ATOM      3  C   UNL     1      25.492  24.988  53.116  1.00  0.00    -0.025 C 
ATOM      4  C   UNL     1      24.298  25.196  52.552  1.00  0.00     0.020 C 
BRANCH   4   5
ATOM      5  C   UNL     1      23.499  24.098  51.990  1.00  0.00     0.064 C 
ATOM      6  O   UNL     1      22.296  23.964  52.337  1.00  0.00    -0.545 OA
ATOM      7  O   UNL     1      24.049  23.203  51.079  1.00  0.00    -0.545 OA
ENDBRANCH   4   5
ENDBRANCH   2   3
ENDBRANCH   1   2
BRANCH   1   8
ATOM      8  C   UNL     1      25.573  26.190  56.131  1.00  0.00     0.000 C 
BRANCH   8   9
ATOM      9  C   UNL     1      25.554  27.650  56.619  1.00  0.00    -0.000 C 
BRANCH   9  10
ATOM     10  C   UNL     1      24.464  28.493  55.943  1.00  0.00    -0.003 C 
ATOM     11  C   UNL     1      23.326  27.613  55.433  1.00  0.00     0.004 C 
ENDBRANCH   9  10
ENDBRANCH   8   9
ENDBRANCH   1   8
TORSDOF 6
ENDMDL
MODEL 8
REMARK VINA RESULT:    -4.158      8.611     10.163
REMARK INTER + INTRA:          -5.827
REMARK INTER:                  -5.451
REMARK INTRA:                  -0.376
REMARK UNBOUND:                -0.210
REMARK SMILES CCCCCCC=CC(=O)[O-]
REMARK SMILES IDX 5 1 6 2 7 3 8 4 9 5 10 6 11 7 4 8 3 9 2 10 1 11
REMARK H PARENT
REMARK Flexibility Score: inf
ROOT
ATOM      1  C   UNL     1      16.841  24.981  55.373  1.00  0.00     0.004 C 
ENDROOT
BRANCH   1   2
ATOM      2  C   UNL     1      18.208  25.075  54.679  1.00  0.00     0.027 C 
BRANCH   2   3
ATOM      3  C   UNL     1      18.915  26.348  55.044  1.00  0.00    -0.025 C 
ATOM      4  C   UNL     1      18.358  27.544  54.825  1.00  0.00     0.020 C 
BRANCH   4   5
ATOM      5  C   UNL     1      19.032  28.798  55.188  1.00  0.00     0.064 C 
ATOM      6  O   UNL     1      20.101  28.759  55.851  1.00  0.00    -0.545 OA
ATOM      7  O   UNL     1      18.508  30.029  54.811  1.00  0.00    -0.545 OA
ENDBRANCH   4   5
ENDBRANCH   2   3
ENDBRANCH   1   2
BRANCH   1   8
ATOM      8  C   UNL     1      16.950  24.624  56.867  1.00  0.00     0.000 C 
BRANCH   8   9
ATOM      9  C   UNL     1      16.482  25.728  57.832  1.00  0.00    -0.000 C 
BRANCH   9  10
ATOM     10  C   UNL     1      15.210  25.348  58.604  1.00  0.00    -0.003 C 
ATOM     11  C   UNL     1      14.007  26.145  58.108  1.00  0.00     0.004 C 
ENDBRANCH   9  10
ENDBRANCH   8   9
ENDBRANCH   1   8
TORSDOF 6
ENDMDL
MODEL 9
REMARK VINA RESULT:    -4.107      8.558      9.272
REMARK INTER + INTRA:          -5.757
REMARK INTER:                  -4.998
REMARK INTRA:                  -0.759
REMARK UNBOUND:                -0.210
REMARK SMILES CCCCCCC=CC(=O)[O-]
REMARK SMILES IDX 5 1 6 2 7 3 8 4 9 5 10 6 11 7 4 8 3 9 2 10 1 11
REMARK H PARENT
REMARK Flexibility Score: inf
ROOT
ATOM      1  C   UNL     1      14.736  26.074  57.523  1.00  0.00     0.004 C 
ENDROOT
BRANCH   1   2
ATOM      2  C   UNL     1      15.973  25.409  58.143  1.00  0.00     0.027 C 
BRANCH   2   3
ATOM      3  C   UNL     1      16.883  24.860  57.082  1.00  0.00    -0.025 C 
ATOM      4  C   UNL     1      16.622  25.031  55.782  1.00  0.00     0.020 C 
BRANCH   4   5
ATOM      5  C   UNL     1      17.509  24.510  54.733  1.00  0.00     0.064 C 
ATOM      6  O   UNL     1      17.260  23.396  54.204  1.00  0.00    -0.545 OA
ATOM      7  O   UNL     1      18.623  25.230  54.313  1.00  0.00    -0.545 OA
ENDBRANCH   4   5
ENDBRANCH   2   3
ENDBRANCH   1   2
BRANCH   1   8
ATOM      8  C   UNL     1      14.491  27.498  58.054  1.00  0.00     0.000 C 
BRANCH   8   9
ATOM      9  C   UNL     1      15.739  28.398  58.096  1.00  0.00    -0.000 C 
BRANCH   9  10
ATOM     10  C   UNL     1      16.222  28.816  56.700  1.00  0.00    -0.003 C 
ATOM     11  C   UNL     1      17.709  28.518  56.521  1.00  0.00     0.004 C 
ENDBRANCH   9  10
ENDBRANCH   8   9
ENDBRANCH   1   8
TORSDOF 6
ENDMDL
