MODEL 1
REMARK VINA RESULT:    -4.026      0.000      0.000
REMARK INTER + INTRA:          -5.716
REMARK INTER:                  -5.085
REMARK INTRA:                  -0.631
REMARK UNBOUND:                -0.631
REMARK SMILES CC(C)=CCCC(C)=CCO
REMARK SMILES IDX 7 1 9 2 8 3 6 4 5 5 4 6 1 7 2 8 3 9 10 10 11 11
REMARK H PARENT 11 12
REMARK Flexibility Score: inf
ROOT
ATOM      1  C   UNL     1      -8.133 -32.974 -49.826  1.00  0.00    -0.075 C 
ATOM      2  C   UNL     1      -7.872 -32.677 -48.533  1.00  0.00    -0.000 C 
ATOM      3  C   UNL     1      -9.405 -32.516 -50.501  1.00  0.00     0.039 C 
ENDROOT
BRANCH   1   4
ATOM      4  C   UNL     1      -7.116 -33.764 -50.620  1.00  0.00     0.034 C 
BRANCH   4   5
ATOM      5  C   UNL     1      -7.232 -35.261 -50.317  1.00  0.00     0.032 C 
BRANCH   5   6
ATOM      6  C   UNL     1      -7.997 -35.970 -51.406  1.00  0.00    -0.028 C 
ATOM      7  C   UNL     1      -9.883 -37.163 -52.436  1.00  0.00     0.039 C 
ATOM      8  C   UNL     1      -9.258 -36.441 -51.272  1.00  0.00    -0.080 C 
ATOM      9  C   UNL     1     -10.053 -36.245 -50.002  1.00  0.00     0.039 C 
ENDBRANCH   5   6
ENDBRANCH   4   5
ENDBRANCH   1   4
BRANCH   2  10
ATOM     10  C   UNL     1      -8.800 -31.892 -47.648  1.00  0.00     0.183 C 
BRANCH  10  11
ATOM     11  O   UNL     1      -9.313 -32.723 -46.645  1.00  0.00    -0.392 OA
ATOM     12  H   UNL     1     -10.302 -32.645 -46.702  1.00  0.00     0.210 HD
ENDBRANCH  10  11
ENDBRANCH   2  10
TORSDOF 5
ENDMDL
MODEL 2
REMARK VINA RESULT:    -3.959      5.325      7.472
REMARK INTER + INTRA:          -5.632
REMARK INTER:                  -5.036
REMARK INTRA:                  -0.597
REMARK UNBOUND:                -0.631
REMARK SMILES CC(C)=CCCC(C)=CCO
REMARK SMILES IDX 7 1 9 2 8 3 6 4 5 5 4 6 1 7 2 8 3 9 10 10 11 11
REMARK H PARENT 11 12
REMARK Flexibility Score: inf
ROOT
ATOM      1  C   UNL     1      -3.544 -33.521 -49.880  1.00  0.00    -0.075 C 
ATOM      2  C   UNL     1      -3.914 -34.298 -48.836  1.00  0.00    -0.000 C 
ATOM      3  C   UNL     1      -2.204 -33.695 -50.557  1.00  0.00     0.039 C 
ENDROOT
BRANCH   1   4
ATOM      4  C   UNL     1      -4.504 -32.471 -50.393  1.00  0.00     0.034 C 
BRANCH   4   5
ATOM      5  C   UNL     1      -4.573 -31.279 -49.432  1.00  0.00     0.032 C 
BRANCH   5   6
ATOM      6  C   UNL     1      -3.967 -30.049 -50.060  1.00  0.00    -0.028 C 
ATOM      7  C   UNL     1      -2.262 -28.330 -50.480  1.00  0.00     0.039 C 
ATOM      8  C   UNL     1      -2.719 -29.597 -49.806  1.00  0.00    -0.080 C 
ATOM      9  C   UNL     1      -1.774 -30.333 -48.885  1.00  0.00     0.039 C 
ENDBRANCH   5   6
ENDBRANCH   4   5
ENDBRANCH   1   4
BRANCH   2  10
ATOM     10  C   UNL     1      -3.052 -35.378 -48.245  1.00  0.00     0.183 C 
BRANCH  10  11
ATOM     11  O   UNL     1      -2.314 -34.863 -47.173  1.00  0.00    -0.392 OA
ATOM     12  H   UNL     1      -2.349 -33.874 -47.265  1.00  0.00     0.210 HD
ENDBRANCH  10  11
ENDBRANCH   2  10
TORSDOF 5
ENDMDL
MODEL 3
REMARK VINA RESULT:    -3.924      3.765      5.177
REMARK INTER + INTRA:          -5.588
REMARK INTER:                  -5.107
REMARK INTRA:                  -0.481
REMARK UNBOUND:                -0.631
REMARK SMILES CC(C)=CCCC(C)=CCO
REMARK SMILES IDX 7 1 9 2 8 3 6 4 5 5 4 6 1 7 2 8 3 9 10 10 11 11
REMARK H PARENT 11 12
REMARK Flexibility Score: inf
ROOT
ATOM      1  C   UNL     1      -5.041 -33.592 -49.060  1.00  0.00    -0.075 C 
ATOM      2  C   UNL     1      -3.752 -33.882 -48.771  1.00  0.00    -0.000 C 
ATOM      3  C   UNL     1      -6.149 -34.591 -48.819  1.00  0.00     0.039 C 
ENDROOT
BRANCH   1   4
ATOM      4  C   UNL     1      -5.382 -32.227 -49.614  1.00  0.00     0.034 C 
BRANCH   4   5
ATOM      5  C   UNL     1      -6.243 -31.435 -48.624  1.00  0.00     0.032 C 
BRANCH   5   6
ATOM      6  C   UNL     1      -7.597 -31.131 -49.215  1.00  0.00    -0.028 C 
ATOM      7  C   UNL     1     -10.047 -31.190 -49.406  1.00  0.00     0.039 C 
ATOM      8  C   UNL     1      -8.772 -31.538 -48.683  1.00  0.00    -0.080 C 
ATOM      9  C   UNL     1      -8.838 -32.307 -47.384  1.00  0.00     0.039 C 
ENDBRANCH   5   6
ENDBRANCH   4   5
ENDBRANCH   1   4
BRANCH   2  10
ATOM     10  C   UNL     1      -3.293 -35.198 -48.209  1.00  0.00     0.183 C 
BRANCH  10  11
ATOM     11  O   UNL     1      -2.375 -34.978 -47.175  1.00  0.00    -0.392 OA
ATOM     12  H   UNL     1      -2.051 -34.046 -47.289  1.00  0.00     0.210 HD
ENDBRANCH  10  11
ENDBRANCH   2  10
TORSDOF 5
ENDMDL
MODEL 4
REMARK VINA RESULT:    -3.919      2.353      3.676
REMARK INTER + INTRA:          -5.581
REMARK INTER:                  -5.117
REMARK INTRA:                  -0.464
REMARK UNBOUND:                -0.631
REMARK SMILES CC(C)=CCCC(C)=CCO
REMARK SMILES IDX 7 1 9 2 8 3 6 4 5 5 4 6 1 7 2 8 3 9 10 10 11 11
REMARK H PARENT 11 12
REMARK Flexibility Score: inf
ROOT
ATOM      1  C   UNL     1      -7.229 -33.459 -49.048  1.00  0.00    -0.075 C 
ATOM      2  C   UNL     1      -8.439 -32.908 -48.798  1.00  0.00    -0.000 C 
ATOM      3  C   UNL     1      -6.032 -33.168 -48.174  1.00  0.00     0.039 C 
ENDROOT
BRANCH   1   4
ATOM      4  C   UNL     1      -7.080 -34.408 -50.217  1.00  0.00     0.034 C 
BRANCH   4   5
ATOM      5  C   UNL     1      -5.608 -34.772 -50.439  1.00  0.00     0.032 C 
BRANCH   5   6
ATOM      6  C   UNL     1      -5.365 -36.229 -50.133  1.00  0.00    -0.028 C 
ATOM      7  C   UNL     1      -4.238 -38.174 -49.140  1.00  0.00     0.039 C 
ATOM      8  C   UNL     1      -4.384 -36.686 -49.323  1.00  0.00    -0.080 C 
ATOM      9  C   UNL     1      -3.452 -35.751 -48.589  1.00  0.00     0.039 C 
ENDBRANCH   5   6
ENDBRANCH   4   5
ENDBRANCH   1   4
BRANCH   2  10
ATOM     10  C   UNL     1      -8.711 -31.961 -47.663  1.00  0.00     0.183 C 
BRANCH  10  11
ATOM     11  O   UNL     1      -9.312 -32.651 -46.603  1.00  0.00    -0.392 OA
ATOM     12  H   UNL     1     -10.174 -32.191 -46.429  1.00  0.00     0.210 HD
ENDBRANCH  10  11
ENDBRANCH   2  10
TORSDOF 5
ENDMDL
MODEL 5
REMARK VINA RESULT:    -3.852      3.277      3.988
REMARK INTER + INTRA:          -5.496
REMARK INTER:                  -5.155
REMARK INTRA:                  -0.341
REMARK UNBOUND:                -0.631
REMARK SMILES CC(C)=CCCC(C)=CCO
REMARK SMILES IDX 7 1 9 2 8 3 6 4 5 5 4 6 1 7 2 8 3 9 10 10 11 11
REMARK H PARENT 11 12
REMARK Flexibility Score: inf
ROOT
ATOM      1  C   UNL     1      -7.940 -31.936 -48.855  1.00  0.00    -0.075 C 
ATOM      2  C   UNL     1      -8.633 -31.475 -49.921  1.00  0.00    -0.000 C 
ATOM      3  C   UNL     1      -8.620 -32.229 -47.538  1.00  0.00     0.039 C 
ENDROOT
BRANCH   1   4
ATOM      4  C   UNL     1      -6.455 -32.184 -48.994  1.00  0.00     0.034 C 
BRANCH   4   5
ATOM      5  C   UNL     1      -6.002 -33.317 -48.066  1.00  0.00     0.032 C 
BRANCH   5   6
ATOM      6  C   UNL     1      -5.911 -34.621 -48.818  1.00  0.00    -0.028 C 
ATOM      7  C   UNL     1      -4.821 -36.584 -49.817  1.00  0.00     0.039 C 
ATOM      8  C   UNL     1      -4.766 -35.313 -49.011  1.00  0.00    -0.080 C 
ATOM      9  C   UNL     1      -3.448 -34.857 -48.429  1.00  0.00     0.039 C 
ENDBRANCH   5   6
ENDBRANCH   4   5
ENDBRANCH   1   4
BRANCH   2  10
ATOM     10  C   UNL     1     -10.111 -31.200 -49.907  1.00  0.00     0.183 C 
BRANCH  10  11
ATOM     11  O   UNL     1     -10.810 -32.338 -50.326  1.00  0.00    -0.392 OA
ATOM     12  H   UNL     1     -11.405 -32.589 -49.572  1.00  0.00     0.210 HD
ENDBRANCH  10  11
ENDBRANCH   2  10
TORSDOF 5
ENDMDL
MODEL 6
REMARK VINA RESULT:    -3.851      3.132      4.037
REMARK INTER + INTRA:          -5.495
REMARK INTER:                  -5.065
REMARK INTRA:                  -0.430
REMARK UNBOUND:                -0.631
REMARK SMILES CC(C)=CCCC(C)=CCO
REMARK SMILES IDX 7 1 9 2 8 3 6 4 5 5 4 6 1 7 2 8 3 9 10 10 11 11
REMARK H PARENT 11 12
REMARK Flexibility Score: inf
ROOT
ATOM      1  C   UNL     1      -5.300 -34.862 -49.194  1.00  0.00    -0.075 C 
ATOM      2  C   UNL     1      -4.267 -34.502 -48.400  1.00  0.00    -0.000 C 
ATOM      3  C   UNL     1      -5.191 -36.021 -50.157  1.00  0.00     0.039 C 
ENDROOT
BRANCH   1   4
ATOM      4  C   UNL     1      -6.603 -34.098 -49.099  1.00  0.00     0.034 C 
BRANCH   4   5
ATOM      5  C   UNL     1      -7.453 -34.311 -50.356  1.00  0.00     0.032 C 
BRANCH   5   6
ATOM      6  C   UNL     1      -8.823 -34.827 -49.995  1.00  0.00    -0.028 C 
ATOM      7  C   UNL     1     -10.741 -36.364 -50.024  1.00  0.00     0.039 C 
ATOM      8  C   UNL     1      -9.341 -35.994 -50.439  1.00  0.00    -0.080 C 
ATOM      9  C   UNL     1      -8.551 -36.938 -51.316  1.00  0.00     0.039 C 
ENDBRANCH   5   6
ENDBRANCH   4   5
ENDBRANCH   1   4
BRANCH   2  10
ATOM     10  C   UNL     1      -2.930 -35.189 -48.399  1.00  0.00     0.183 C 
BRANCH  10  11
ATOM     11  O   UNL     1      -2.282 -34.965 -47.178  1.00  0.00    -0.392 OA
ATOM     12  H   UNL     1      -2.523 -34.042 -46.904  1.00  0.00     0.210 HD
ENDBRANCH  10  11
ENDBRANCH   2  10
TORSDOF 5
ENDMDL
MODEL 7
REMARK VINA RESULT:    -3.836      4.461      6.419
REMARK INTER + INTRA:          -5.476
REMARK INTER:                  -5.146
REMARK INTRA:                  -0.330
REMARK UNBOUND:                -0.631
REMARK SMILES CC(C)=CCCC(C)=CCO
REMARK SMILES IDX 7 1 9 2 8 3 6 4 5 5 4 6 1 7 2 8 3 9 10 10 11 11
REMARK H PARENT 11 12
REMARK Flexibility Score: inf
ROOT
ATOM      1  C   UNL     1      -3.610 -34.900 -49.299  1.00  0.00    -0.075 C 
ATOM      2  C   UNL     1      -2.859 -35.016 -50.417  1.00  0.00    -0.000 C 
ATOM      3  C   UNL     1      -3.004 -35.041 -47.922  1.00  0.00     0.039 C 
ENDROOT
BRANCH   1   4
ATOM      4  C   UNL     1      -5.087 -34.598 -49.431  1.00  0.00     0.034 C 
BRANCH   4   5
ATOM      5  C   UNL     1      -5.611 -33.882 -48.182  1.00  0.00     0.032 C 
BRANCH   5   6
ATOM      6  C   UNL     1      -5.738 -32.400 -48.429  1.00  0.00    -0.028 C 
ATOM      7  C   UNL     1      -6.875 -30.231 -48.641  1.00  0.00     0.039 C 
ATOM      8  C   UNL     1      -6.893 -31.704 -48.328  1.00  0.00    -0.080 C 
ATOM      9  C   UNL     1      -8.185 -32.358 -47.895  1.00  0.00     0.039 C 
ENDBRANCH   5   6
ENDBRANCH   4   5
ENDBRANCH   1   4
BRANCH   2  10
ATOM     10  C   UNL     1      -1.384 -35.304 -50.411  1.00  0.00     0.183 C 
BRANCH  10  11
ATOM     11  O   UNL     1      -0.670 -34.134 -50.695  1.00  0.00    -0.392 OA
ATOM     12  H   UNL     1      -1.279 -33.565 -51.236  1.00  0.00     0.210 HD
ENDBRANCH  10  11
ENDBRANCH   2  10
TORSDOF 5
ENDMDL
MODEL 8
REMARK VINA RESULT:    -3.815      3.085      4.632
REMARK INTER + INTRA:          -5.450
REMARK INTER:                  -5.133
REMARK INTRA:                  -0.317
REMARK UNBOUND:                -0.631
REMARK SMILES CC(C)=CCCC(C)=CCO
REMARK SMILES IDX 7 1 9 2 8 3 6 4 5 5 4 6 1 7 2 8 3 9 10 10 11 11
REMARK H PARENT 11 12
REMARK Flexibility Score: inf
ROOT
ATOM      1  C   UNL     1      -7.369 -33.922 -49.101  1.00  0.00    -0.075 C 
ATOM      2  C   UNL     1      -7.413 -33.027 -48.089  1.00  0.00    -0.000 C 
ATOM      3  C   UNL     1      -8.539 -34.114 -50.038  1.00  0.00     0.039 C 
ENDROOT
BRANCH   1   4
ATOM      4  C   UNL     1      -6.110 -34.733 -49.313  1.00  0.00     0.034 C 
BRANCH   4   5
ATOM      5  C   UNL     1      -4.943 -34.145 -48.513  1.00  0.00     0.032 C 
BRANCH   5   6
ATOM      6  C   UNL     1      -3.698 -34.978 -48.692  1.00  0.00    -0.028 C 
ATOM      7  C   UNL     1      -1.544 -35.643 -49.670  1.00  0.00     0.039 C 
ATOM      8  C   UNL     1      -2.713 -34.699 -49.575  1.00  0.00    -0.080 C 
ATOM      9  C   UNL     1      -2.746 -33.465 -50.447  1.00  0.00     0.039 C 
ENDBRANCH   5   6
ENDBRANCH   4   5
ENDBRANCH   1   4
BRANCH   2  10
ATOM     10  C   UNL     1      -8.603 -32.159 -47.786  1.00  0.00     0.183 C 
BRANCH  10  11
ATOM     11  O   UNL     1      -9.295 -32.671 -46.682  1.00  0.00    -0.392 OA
ATOM     12  H   UNL     1      -9.580 -31.884 -46.148  1.00  0.00     0.210 HD
ENDBRANCH  10  11
ENDBRANCH   2  10
TORSDOF 5
ENDMDL
MODEL 9
REMARK VINA RESULT:    -3.743      2.883      4.672
REMARK INTER + INTRA:          -5.358
REMARK INTER:                  -4.769
REMARK INTRA:                  -0.589
REMARK UNBOUND:                -0.631
REMARK SMILES CC(C)=CCCC(C)=CCO
REMARK SMILES IDX 7 1 9 2 8 3 6 4 5 5 4 6 1 7 2 8 3 9 10 10 11 11
REMARK H PARENT 11 12
REMARK Flexibility Score: inf
ROOT
ATOM      1  C   UNL     1      -8.037 -33.021 -48.958  1.00  0.00    -0.075 C 
ATOM      2  C   UNL     1      -8.598 -32.749 -50.158  1.00  0.00    -0.000 C 
ATOM      3  C   UNL     1      -8.426 -32.258 -47.713  1.00  0.00     0.039 C 
ENDROOT
BRANCH   1   4
ATOM      4  C   UNL     1      -7.014 -34.130 -48.858  1.00  0.00     0.034 C 
BRANCH   4   5
ATOM      5  C   UNL     1      -5.762 -33.652 -48.116  1.00  0.00     0.032 C 
BRANCH   5   6
ATOM      6  C   UNL     1      -4.568 -33.630 -49.037  1.00  0.00    -0.028 C 
ATOM      7  C   UNL     1      -2.968 -32.683 -50.645  1.00  0.00     0.039 C 
ATOM      8  C   UNL     1      -4.158 -32.545 -49.732  1.00  0.00    -0.080 C 
ATOM      9  C   UNL     1      -4.845 -31.206 -49.601  1.00  0.00     0.039 C 
ENDBRANCH   5   6
ENDBRANCH   4   5
ENDBRANCH   1   4
BRANCH   2  10
ATOM     10  C   UNL     1      -9.630 -31.679 -50.380  1.00  0.00     0.183 C 
BRANCH  10  11
ATOM     11  O   UNL     1     -10.913 -32.233 -50.300  1.00  0.00    -0.392 OA
ATOM     12  H   UNL     1     -11.455 -31.597 -49.764  1.00  0.00     0.210 HD
ENDBRANCH  10  11
ENDBRANCH   2  10
TORSDOF 5
ENDMDL
