MODEL 1
REMARK VINA RESULT:    -5.479      0.000      0.000
REMARK INTER + INTRA:          -6.704
REMARK INTER:                  -6.440
REMARK INTRA:                  -0.264
REMARK UNBOUND:                -0.264
REMARK SMILES O=c1cc(-c2ccc(O)c(O)c2)oc2cc(O)cc(O)c12
REMARK SMILES IDX 4 1 3 2 2 3 1 4 21 5 19 6 18 7 16 8 15 9 14 10 13 11 5 12
REMARK SMILES IDX 6 13 7 14 8 15 12 16 10 17 9 18 11 20 20 22 17 24
REMARK H PARENT 9 19 11 21 20 23 17 25
REMARK Flexibility Score: inf
ROOT
ATOM      1  C   UNL     1      26.415  49.687  61.134  1.00  0.00     0.138 A 
ATOM      2  C   UNL     1      27.623  49.229  60.585  1.00  0.00     0.100 A 
ATOM      3  C   UNL     1      28.462  48.418  61.351  1.00  0.00     0.197 A 
ATOM      4  O   UNL     1      29.544  48.010  60.848  1.00  0.00    -0.289 OA
ATOM      5  C   UNL     1      28.083  48.068  62.663  1.00  0.00     0.107 A 
ATOM      6  C   UNL     1      28.874  47.252  63.506  1.00  0.00     0.134 A 
ATOM      7  C   UNL     1      28.423  46.945  64.798  1.00  0.00     0.093 A 
ATOM      8  C   UNL     1      27.196  47.437  65.260  1.00  0.00     0.123 A 
ATOM      9  C   UNL     1      26.413  48.242  64.431  1.00  0.00     0.094 A 
ATOM     10  C   UNL     1      26.845  48.561  63.140  1.00  0.00     0.146 A 
ATOM     11  O   UNL     1      26.081  49.330  62.372  1.00  0.00    -0.456 OA
ENDROOT
BRANCH   1  12
ATOM     12  C   UNL     1      25.483  50.550  60.365  1.00  0.00     0.021 A 
ATOM     13  C   UNL     1      25.563  51.947  60.500  1.00  0.00     0.016 A 
ATOM     14  C   UNL     1      24.702  52.781  59.783  1.00  0.00     0.051 A 
ATOM     15  C   UNL     1      23.755  52.239  58.911  1.00  0.00     0.157 A 
ATOM     16  C   UNL     1      24.535  50.008  59.474  1.00  0.00     0.062 A 
ATOM     17  C   UNL     1      23.673  50.846  58.752  1.00  0.00     0.158 A 
BRANCH  15  18
ATOM     18  O   UNL     1      22.908  53.097  58.210  1.00  0.00    -0.504 OA
ATOM     19  H   UNL     1      22.057  52.770  57.768  1.00  0.00     0.293 HD
ENDBRANCH  15  18
BRANCH  17  20
ATOM     20  O   UNL     1      22.737  50.298  57.875  1.00  0.00    -0.504 OA
ATOM     21  H   UNL     1      21.997  50.858  57.468  1.00  0.00     0.293 HD
ENDBRANCH  17  20
ENDBRANCH   1  12
BRANCH   6  22
ATOM     22  O   UNL     1      30.100  46.748  63.071  1.00  0.00    -0.507 OA
ATOM     23  H   UNL     1      30.923  46.762  63.663  1.00  0.00     0.293 HD
ENDBRANCH   6  22
BRANCH   8  24
ATOM     24  O   UNL     1      26.748  47.131  66.543  1.00  0.00    -0.508 OA
ATOM     25  H   UNL     1      27.385  46.825  67.269  1.00  0.00     0.293 HD
ENDBRANCH   8  24
TORSDOF 5
ENDMDL
MODEL 2
REMARK VINA RESULT:    -5.459      3.250      4.722
REMARK INTER + INTRA:          -6.680
REMARK INTER:                  -6.416
REMARK INTRA:                  -0.264
REMARK UNBOUND:                -0.264
REMARK SMILES O=c1cc(-c2ccc(O)c(O)c2)oc2cc(O)cc(O)c12
REMARK SMILES IDX 4 1 3 2 2 3 1 4 21 5 19 6 18 7 16 8 15 9 14 10 13 11 5 12
REMARK SMILES IDX 6 13 7 14 8 15 12 16 10 17 9 18 11 20 20 22 17 24
REMARK H PARENT 9 19 11 21 20 23 17 25
REMARK Flexibility Score: inf
ROOT
ATOM      1  C   UNL     1      25.545  49.185  63.998  1.00  0.00     0.138 A 
ATOM      2  C   UNL     1      25.993  48.320  65.010  1.00  0.00     0.100 A 
ATOM      3  C   UNL     1      27.146  47.561  64.803  1.00  0.00     0.197 A 
ATOM      4  O   UNL     1      27.541  46.789  65.719  1.00  0.00    -0.289 OA
ATOM      5  C   UNL     1      27.845  47.674  63.585  1.00  0.00     0.107 A 
ATOM      6  C   UNL     1      29.019  46.941  63.294  1.00  0.00     0.134 A 
ATOM      7  C   UNL     1      29.660  47.116  62.058  1.00  0.00     0.093 A 
ATOM      8  C   UNL     1      29.147  48.010  61.110  1.00  0.00     0.123 A 
ATOM      9  C   UNL     1      27.989  48.736  61.394  1.00  0.00     0.094 A 
ATOM     10  C   UNL     1      27.335  48.575  62.619  1.00  0.00     0.146 A 
ATOM     11  O   UNL     1      26.233  49.277  62.863  1.00  0.00    -0.456 OA
ENDROOT
BRANCH   1  12
ATOM     12  C   UNL     1      24.326  50.018  64.163  1.00  0.00     0.021 A 
ATOM     13  C   UNL     1      23.136  49.637  63.521  1.00  0.00     0.016 A 
ATOM     14  C   UNL     1      21.975  50.400  63.665  1.00  0.00     0.051 A 
ATOM     15  C   UNL     1      21.977  51.548  64.461  1.00  0.00     0.157 A 
ATOM     16  C   UNL     1      24.321  51.169  64.975  1.00  0.00     0.062 A 
ATOM     17  C   UNL     1      23.155  51.934  65.122  1.00  0.00     0.158 A 
BRANCH  15  18
ATOM     18  O   UNL     1      20.803  52.290  64.584  1.00  0.00    -0.504 OA
ATOM     19  H   UNL     1      19.926  51.867  64.861  1.00  0.00     0.293 HD
ENDBRANCH  15  18
BRANCH  17  20
ATOM     20  O   UNL     1      23.161  53.073  65.926  1.00  0.00    -0.504 OA
ATOM     21  H   UNL     1      22.959  53.992  65.549  1.00  0.00     0.293 HD
ENDBRANCH  17  20
ENDBRANCH   1  12
BRANCH   6  22
ATOM     22  O   UNL     1      29.552  46.044  64.220  1.00  0.00    -0.507 OA
ATOM     23  H   UNL     1      28.978  45.613  64.936  1.00  0.00     0.293 HD
ENDBRANCH   6  22
BRANCH   8  24
ATOM     24  O   UNL     1      29.784  48.184  59.883  1.00  0.00    -0.508 OA
ATOM     25  H   UNL     1      29.901  47.415  59.233  1.00  0.00     0.293 HD
ENDBRANCH   8  24
TORSDOF 5
ENDMDL
MODEL 3
REMARK VINA RESULT:    -5.438      1.782      6.899
REMARK INTER + INTRA:          -6.655
REMARK INTER:                  -6.391
REMARK INTRA:                  -0.264
REMARK UNBOUND:                -0.264
REMARK SMILES O=c1cc(-c2ccc(O)c(O)c2)oc2cc(O)cc(O)c12
REMARK SMILES IDX 4 1 3 2 2 3 1 4 21 5 19 6 18 7 16 8 15 9 14 10 13 11 5 12
REMARK SMILES IDX 6 13 7 14 8 15 12 16 10 17 9 18 11 20 20 22 17 24
REMARK H PARENT 9 19 11 21 20 23 17 25
REMARK Flexibility Score: inf
ROOT
ATOM      1  C   UNL     1      27.432  47.827  62.663  1.00  0.00     0.138 A 
ATOM      2  C   UNL     1      28.737  48.219  62.323  1.00  0.00     0.100 A 
ATOM      3  C   UNL     1      28.944  49.003  61.187  1.00  0.00     0.197 A 
ATOM      4  O   UNL     1      30.119  49.352  60.891  1.00  0.00    -0.289 OA
ATOM      5  C   UNL     1      27.842  49.393  60.399  1.00  0.00     0.107 A 
ATOM      6  C   UNL     1      27.964  50.185  59.233  1.00  0.00     0.134 A 
ATOM      7  C   UNL     1      26.816  50.535  58.507  1.00  0.00     0.093 A 
ATOM      8  C   UNL     1      25.550  50.108  58.927  1.00  0.00     0.123 A 
ATOM      9  C   UNL     1      25.425  49.327  60.077  1.00  0.00     0.094 A 
ATOM     10  C   UNL     1      26.557  48.966  60.814  1.00  0.00     0.146 A 
ATOM     11  O   UNL     1      26.411  48.220  61.904  1.00  0.00    -0.456 OA
ENDROOT
BRANCH   1  12
ATOM     12  C   UNL     1      27.151  46.995  63.860  1.00  0.00     0.021 A 
ATOM     13  C   UNL     1      26.830  45.637  63.699  1.00  0.00     0.016 A 
ATOM     14  C   UNL     1      26.568  44.831  64.809  1.00  0.00     0.051 A 
ATOM     15  C   UNL     1      26.632  45.363  66.100  1.00  0.00     0.157 A 
ATOM     16  C   UNL     1      27.228  47.524  65.164  1.00  0.00     0.062 A 
ATOM     17  C   UNL     1      26.968  46.715  66.280  1.00  0.00     0.158 A 
BRANCH  15  18
ATOM     18  O   UNL     1      26.364  44.534  67.189  1.00  0.00    -0.504 OA
ATOM     19  H   UNL     1      27.015  44.428  67.958  1.00  0.00     0.293 HD
ENDBRANCH  15  18
BRANCH  17  20
ATOM     20  O   UNL     1      27.045  47.249  67.565  1.00  0.00    -0.504 OA
ATOM     21  H   UNL     1      27.837  47.806  67.864  1.00  0.00     0.293 HD
ENDBRANCH  17  20
ENDBRANCH   1  12
BRANCH   6  22
ATOM     22  O   UNL     1      29.213  50.624  58.793  1.00  0.00    -0.507 OA
ATOM     23  H   UNL     1      29.526  50.472  57.841  1.00  0.00     0.293 HD
ENDBRANCH   6  22
BRANCH   8  24
ATOM     24  O   UNL     1      24.410  50.456  58.206  1.00  0.00    -0.508 OA
ATOM     25  H   UNL     1      23.735  49.760  57.914  1.00  0.00     0.293 HD
ENDBRANCH   8  24
TORSDOF 5
ENDMDL
MODEL 4
REMARK VINA RESULT:    -5.235      1.894      6.746
REMARK INTER + INTRA:          -6.417
REMARK INTER:                  -6.149
REMARK INTRA:                  -0.268
REMARK UNBOUND:                -0.264
REMARK SMILES O=c1cc(-c2ccc(O)c(O)c2)oc2cc(O)cc(O)c12
REMARK SMILES IDX 4 1 3 2 2 3 1 4 21 5 19 6 18 7 16 8 15 9 14 10 13 11 5 12
REMARK SMILES IDX 6 13 7 14 8 15 12 16 10 17 9 18 11 20 20 22 17 24
REMARK H PARENT 9 19 11 21 20 23 17 25
REMARK Flexibility Score: inf
ROOT
ATOM      1  C   UNL     1      27.498  47.984  62.564  1.00  0.00     0.138 A 
ATOM      2  C   UNL     1      28.786  48.434  62.231  1.00  0.00     0.100 A 
ATOM      3  C   UNL     1      28.965  49.220  61.092  1.00  0.00     0.197 A 
ATOM      4  O   UNL     1      30.125  49.621  60.803  1.00  0.00    -0.289 OA
ATOM      5  C   UNL     1      27.852  49.554  60.295  1.00  0.00     0.107 A 
ATOM      6  C   UNL     1      27.946  50.344  59.125  1.00  0.00     0.134 A 
ATOM      7  C   UNL     1      26.788  50.637  58.389  1.00  0.00     0.093 A 
ATOM      8  C   UNL     1      25.540  50.154  58.802  1.00  0.00     0.123 A 
ATOM      9  C   UNL     1      25.443  49.374  59.956  1.00  0.00     0.094 A 
ATOM     10  C   UNL     1      26.585  49.071  60.702  1.00  0.00     0.146 A 
ATOM     11  O   UNL     1      26.466  48.325  61.796  1.00  0.00    -0.456 OA
ENDROOT
BRANCH   1  12
ATOM     12  C   UNL     1      27.247  47.146  63.765  1.00  0.00     0.021 A 
ATOM     13  C   UNL     1      27.291  47.735  65.040  1.00  0.00     0.016 A 
ATOM     14  C   UNL     1      27.052  46.971  66.185  1.00  0.00     0.051 A 
ATOM     15  C   UNL     1      26.753  45.610  66.077  1.00  0.00     0.157 A 
ATOM     16  C   UNL     1      26.933  45.777  63.660  1.00  0.00     0.062 A 
ATOM     17  C   UNL     1      26.690  45.009  64.808  1.00  0.00     0.158 A 
BRANCH  15  18
ATOM     18  O   UNL     1      26.521  44.872  67.237  1.00  0.00    -0.504 OA
ATOM     19  H   UNL     1      25.673  44.978  67.781  1.00  0.00     0.293 HD
ENDBRANCH  15  18
BRANCH  17  20
ATOM     20  O   UNL     1      26.382  43.655  64.693  1.00  0.00    -0.504 OA
ATOM     21  H   UNL     1      26.497  43.155  63.819  1.00  0.00     0.293 HD
ENDBRANCH  17  20
ENDBRANCH   1  12
BRANCH   6  22
ATOM     22  O   UNL     1      29.176  50.838  58.691  1.00  0.00    -0.507 OA
ATOM     23  H   UNL     1      29.860  50.243  58.237  1.00  0.00     0.293 HD
ENDBRANCH   6  22
BRANCH   8  24
ATOM     24  O   UNL     1      24.391  50.445  58.070  1.00  0.00    -0.508 OA
ATOM     25  H   UNL     1      24.057  51.395  57.962  1.00  0.00     0.293 HD
ENDBRANCH   8  24
TORSDOF 5
ENDMDL
MODEL 5
REMARK VINA RESULT:    -5.191      1.826      2.091
REMARK INTER + INTRA:          -6.366
REMARK INTER:                  -6.074
REMARK INTRA:                  -0.292
REMARK UNBOUND:                -0.264
REMARK SMILES O=c1cc(-c2ccc(O)c(O)c2)oc2cc(O)cc(O)c12
REMARK SMILES IDX 4 1 3 2 2 3 1 4 21 5 19 6 18 7 16 8 15 9 14 10 13 11 5 12
REMARK SMILES IDX 6 13 7 14 8 15 12 16 10 17 9 18 11 20 20 22 17 24
REMARK H PARENT 9 19 11 21 20 23 17 25
REMARK Flexibility Score: inf
ROOT
ATOM      1  C   UNL     1      25.525  48.945  61.499  1.00  0.00     0.138 A 
ATOM      2  C   UNL     1      25.174  47.602  61.287  1.00  0.00     0.100 A 
ATOM      3  C   UNL     1      25.571  46.635  62.212  1.00  0.00     0.197 A 
ATOM      4  O   UNL     1      25.250  45.432  62.013  1.00  0.00    -0.289 OA
ATOM      5  C   UNL     1      26.316  47.020  63.345  1.00  0.00     0.107 A 
ATOM      6  C   UNL     1      26.758  46.104  64.329  1.00  0.00     0.134 A 
ATOM      7  C   UNL     1      27.490  46.568  65.432  1.00  0.00     0.093 A 
ATOM      8  C   UNL     1      27.786  47.930  65.568  1.00  0.00     0.123 A 
ATOM      9  C   UNL     1      27.350  48.837  64.600  1.00  0.00     0.094 A 
ATOM     10  C   UNL     1      26.621  48.394  63.493  1.00  0.00     0.146 A 
ATOM     11  O   UNL     1      26.220  49.278  62.584  1.00  0.00    -0.456 OA
ENDROOT
BRANCH   1  12
ATOM     12  C   UNL     1      25.129  50.017  60.550  1.00  0.00     0.021 A 
ATOM     13  C   UNL     1      25.857  51.219  60.521  1.00  0.00     0.016 A 
ATOM     14  C   UNL     1      25.509  52.240  59.634  1.00  0.00     0.051 A 
ATOM     15  C   UNL     1      24.437  52.077  58.753  1.00  0.00     0.157 A 
ATOM     16  C   UNL     1      24.057  49.852  59.652  1.00  0.00     0.062 A 
ATOM     17  C   UNL     1      23.708  50.876  58.759  1.00  0.00     0.158 A 
BRANCH  15  18
ATOM     18  O   UNL     1      24.112  53.114  57.880  1.00  0.00    -0.504 OA
ATOM     19  H   UNL     1      23.205  53.565  57.894  1.00  0.00     0.293 HD
ENDBRANCH  15  18
BRANCH  17  20
ATOM     20  O   UNL     1      22.644  50.702  57.875  1.00  0.00    -0.504 OA
ATOM     21  H   UNL     1      22.068  49.869  57.894  1.00  0.00     0.293 HD
ENDBRANCH  17  20
ENDBRANCH   1  12
BRANCH   6  22
ATOM     22  O   UNL     1      26.477  44.742  64.218  1.00  0.00    -0.507 OA
ATOM     23  H   UNL     1      26.273  44.310  63.324  1.00  0.00     0.293 HD
ENDBRANCH   6  22
BRANCH   8  24
ATOM     24  O   UNL     1      28.512  48.391  66.664  1.00  0.00    -0.508 OA
ATOM     25  H   UNL     1      28.433  47.955  67.574  1.00  0.00     0.293 HD
ENDBRANCH   8  24
TORSDOF 5
ENDMDL
MODEL 6
REMARK VINA RESULT:    -5.177      3.327      4.686
REMARK INTER + INTRA:          -6.349
REMARK INTER:                  -6.072
REMARK INTRA:                  -0.277
REMARK UNBOUND:                -0.264
REMARK SMILES O=c1cc(-c2ccc(O)c(O)c2)oc2cc(O)cc(O)c12
REMARK SMILES IDX 4 1 3 2 2 3 1 4 21 5 19 6 18 7 16 8 15 9 14 10 13 11 5 12
REMARK SMILES IDX 6 13 7 14 8 15 12 16 10 17 9 18 11 20 20 22 17 24
REMARK H PARENT 9 19 11 21 20 23 17 25
REMARK Flexibility Score: inf
ROOT
ATOM      1  C   UNL     1      28.405  48.220  62.810  1.00  0.00     0.138 A 
ATOM      2  C   UNL     1      28.522  48.889  64.039  1.00  0.00     0.100 A 
ATOM      3  C   UNL     1      28.094  48.258  65.208  1.00  0.00     0.197 A 
ATOM      4  O   UNL     1      28.204  48.868  66.307  1.00  0.00    -0.289 OA
ATOM      5  C   UNL     1      27.555  46.958  65.140  1.00  0.00     0.107 A 
ATOM      6  C   UNL     1      27.098  46.248  66.275  1.00  0.00     0.134 A 
ATOM      7  C   UNL     1      26.579  44.954  66.124  1.00  0.00     0.093 A 
ATOM      8  C   UNL     1      26.511  44.357  64.859  1.00  0.00     0.123 A 
ATOM      9  C   UNL     1      26.962  45.054  63.736  1.00  0.00     0.094 A 
ATOM     10  C   UNL     1      27.480  46.346  63.866  1.00  0.00     0.146 A 
ATOM     11  O   UNL     1      27.901  46.988  62.781  1.00  0.00    -0.456 OA
ENDROOT
BRANCH   1  12
ATOM     12  C   UNL     1      28.845  48.840  61.535  1.00  0.00     0.021 A 
ATOM     13  C   UNL     1      29.637  48.098  60.642  1.00  0.00     0.016 A 
ATOM     14  C   UNL     1      30.059  48.657  59.433  1.00  0.00     0.051 A 
ATOM     15  C   UNL     1      29.688  49.959  59.088  1.00  0.00     0.157 A 
ATOM     16  C   UNL     1      28.463  50.148  61.178  1.00  0.00     0.062 A 
ATOM     17  C   UNL     1      28.883  50.708  59.962  1.00  0.00     0.158 A 
BRANCH  15  18
ATOM     18  O   UNL     1      30.125  50.490  57.875  1.00  0.00    -0.504 OA
ATOM     19  H   UNL     1      30.632  49.936  57.197  1.00  0.00     0.293 HD
ENDBRANCH  15  18
BRANCH  17  20
ATOM     20  O   UNL     1      28.501  52.004  59.620  1.00  0.00    -0.504 OA
ATOM     21  H   UNL     1      29.126  52.793  59.740  1.00  0.00     0.293 HD
ENDBRANCH  17  20
ENDBRANCH   1  12
BRANCH   6  22
ATOM     22  O   UNL     1      27.154  46.818  67.548  1.00  0.00    -0.507 OA
ATOM     23  H   UNL     1      27.645  47.688  67.721  1.00  0.00     0.293 HD
ENDBRANCH   6  22
BRANCH   8  24
ATOM     24  O   UNL     1      25.996  43.072  64.708  1.00  0.00    -0.508 OA
ATOM     25  H   UNL     1      26.267  42.479  63.933  1.00  0.00     0.293 HD
ENDBRANCH   8  24
TORSDOF 5
ENDMDL
MODEL 7
REMARK VINA RESULT:    -5.146      2.142      7.032
REMARK INTER + INTRA:          -6.313
REMARK INTER:                  -6.022
REMARK INTRA:                  -0.291
REMARK UNBOUND:                -0.264
REMARK SMILES O=c1cc(-c2ccc(O)c(O)c2)oc2cc(O)cc(O)c12
REMARK SMILES IDX 4 1 3 2 2 3 1 4 21 5 19 6 18 7 16 8 15 9 14 10 13 11 5 12
REMARK SMILES IDX 6 13 7 14 8 15 12 16 10 17 9 18 11 20 20 22 17 24
REMARK H PARENT 9 19 11 21 20 23 17 25
REMARK Flexibility Score: inf
ROOT
ATOM      1  C   UNL     1      26.728  48.713  62.687  1.00  0.00     0.138 A 
ATOM      2  C   UNL     1      25.461  48.351  62.202  1.00  0.00     0.100 A 
ATOM      3  C   UNL     1      25.091  48.717  60.907  1.00  0.00     0.197 A 
ATOM      4  O   UNL     1      23.951  48.386  60.480  1.00  0.00    -0.289 OA
ATOM      5  C   UNL     1      25.994  49.442  60.103  1.00  0.00     0.107 A 
ATOM      6  C   UNL     1      25.699  49.853  58.782  1.00  0.00     0.134 A 
ATOM      7  C   UNL     1      26.656  50.567  58.046  1.00  0.00     0.093 A 
ATOM      8  C   UNL     1      27.901  50.875  58.606  1.00  0.00     0.123 A 
ATOM      9  C   UNL     1      28.197  50.471  59.910  1.00  0.00     0.094 A 
ATOM     10  C   UNL     1      27.256  49.760  60.660  1.00  0.00     0.146 A 
ATOM     11  O   UNL     1      27.562  49.388  61.899  1.00  0.00    -0.456 OA
ENDROOT
BRANCH   1  12
ATOM     12  C   UNL     1      27.176  48.348  64.055  1.00  0.00     0.021 A 
ATOM     13  C   UNL     1      28.188  49.102  64.674  1.00  0.00     0.016 A 
ATOM     14  C   UNL     1      28.623  48.784  65.963  1.00  0.00     0.051 A 
ATOM     15  C   UNL     1      28.050  47.718  66.660  1.00  0.00     0.157 A 
ATOM     16  C   UNL     1      26.592  47.282  64.766  1.00  0.00     0.062 A 
ATOM     17  C   UNL     1      27.026  46.965  66.061  1.00  0.00     0.158 A 
BRANCH  15  18
ATOM     18  O   UNL     1      28.506  47.423  67.944  1.00  0.00    -0.504 OA
ATOM     19  H   UNL     1      27.938  47.585  68.767  1.00  0.00     0.293 HD
ENDBRANCH  15  18
BRANCH  17  20
ATOM     20  O   UNL     1      26.442  45.906  66.756  1.00  0.00    -0.504 OA
ATOM     21  H   UNL     1      25.486  45.952  67.090  1.00  0.00     0.293 HD
ENDBRANCH  17  20
ENDBRANCH   1  12
BRANCH   6  22
ATOM     22  O   UNL     1      24.466  49.559  58.199  1.00  0.00    -0.507 OA
ATOM     23  H   UNL     1      24.193  49.948  57.303  1.00  0.00     0.293 HD
ENDBRANCH   6  22
BRANCH   8  24
ATOM     24  O   UNL     1      28.851  51.585  57.875  1.00  0.00    -0.508 OA
ATOM     25  H   UNL     1      28.882  52.597  57.886  1.00  0.00     0.293 HD
ENDBRANCH   8  24
TORSDOF 5
ENDMDL
MODEL 8
REMARK VINA RESULT:    -5.084      1.967      2.564
REMARK INTER + INTRA:          -6.240
REMARK INTER:                  -5.939
REMARK INTRA:                  -0.301
REMARK UNBOUND:                -0.264
REMARK SMILES O=c1cc(-c2ccc(O)c(O)c2)oc2cc(O)cc(O)c12
REMARK SMILES IDX 4 1 3 2 2 3 1 4 21 5 19 6 18 7 16 8 15 9 14 10 13 11 5 12
REMARK SMILES IDX 6 13 7 14 8 15 12 16 10 17 9 18 11 20 20 22 17 24
REMARK H PARENT 9 19 11 21 20 23 17 25
REMARK Flexibility Score: inf
ROOT
ATOM      1  C   UNL     1      25.589  48.852  61.624  1.00  0.00     0.138 A 
ATOM      2  C   UNL     1      25.257  47.505  61.411  1.00  0.00     0.100 A 
ATOM      3  C   UNL     1      25.646  46.545  62.347  1.00  0.00     0.197 A 
ATOM      4  O   UNL     1      25.341  45.338  62.146  1.00  0.00    -0.289 OA
ATOM      5  C   UNL     1      26.364  46.942  63.493  1.00  0.00     0.107 A 
ATOM      6  C   UNL     1      26.796  46.034  64.488  1.00  0.00     0.134 A 
ATOM      7  C   UNL     1      27.502  46.510  65.603  1.00  0.00     0.093 A 
ATOM      8  C   UNL     1      27.780  47.876  65.741  1.00  0.00     0.123 A 
ATOM      9  C   UNL     1      27.354  48.774  64.761  1.00  0.00     0.094 A 
ATOM     10  C   UNL     1      26.652  48.320  63.641  1.00  0.00     0.146 A 
ATOM     11  O   UNL     1      26.259  49.196  62.722  1.00  0.00    -0.456 OA
ENDROOT
BRANCH   1  12
ATOM     12  C   UNL     1      25.200  49.917  60.664  1.00  0.00     0.021 A 
ATOM     13  C   UNL     1      23.962  49.834  60.004  1.00  0.00     0.016 A 
ATOM     14  C   UNL     1      23.570  50.826  59.102  1.00  0.00     0.051 A 
ATOM     15  C   UNL     1      24.399  51.922  58.851  1.00  0.00     0.157 A 
ATOM     16  C   UNL     1      26.028  51.030  60.418  1.00  0.00     0.062 A 
ATOM     17  C   UNL     1      25.633  52.028  59.514  1.00  0.00     0.158 A 
BRANCH  15  18
ATOM     18  O   UNL     1      23.982  52.895  57.944  1.00  0.00    -0.504 OA
ATOM     19  H   UNL     1      23.415  53.685  58.226  1.00  0.00     0.293 HD
ENDBRANCH  15  18
BRANCH  17  20
ATOM     20  O   UNL     1      26.460  53.124  59.277  1.00  0.00    -0.504 OA
ATOM     21  H   UNL     1      26.607  53.842  59.977  1.00  0.00     0.293 HD
ENDBRANCH  17  20
ENDBRANCH   1  12
BRANCH   6  22
ATOM     22  O   UNL     1      26.532  44.669  64.377  1.00  0.00    -0.507 OA
ATOM     23  H   UNL     1      27.012  43.985  64.951  1.00  0.00     0.293 HD
ENDBRANCH   6  22
BRANCH   8  24
ATOM     24  O   UNL     1      28.481  48.348  66.848  1.00  0.00    -0.508 OA
ATOM     25  H   UNL     1      29.090  47.745  67.387  1.00  0.00     0.293 HD
ENDBRANCH   8  24
TORSDOF 5
ENDMDL
