MODEL 1
REMARK VINA RESULT:     4.988      0.000      0.000
REMARK INTER + INTRA:           8.452
REMARK INTER:                   9.070
REMARK INTRA:                  -0.618
REMARK UNBOUND:                -0.618
REMARK SMILES CCCCCCCCCCCCCCCC(=O)[O-]
REMARK SMILES IDX 9 1 10 2 11 3 12 4 13 5 14 6 15 7 16 8 17 9 18 10 8 11 7 12
REMARK SMILES IDX 6 13 5 14 4 15 3 16 2 17 1 18
REMARK H PARENT
REMARK Flexibility Score: inf
ROOT
ATOM      1  C   UNL     1      29.768  22.094  27.139  1.00  0.00     0.000 C 
ENDROOT
BRANCH   1   2
ATOM      2  C   UNL     1      28.632  21.381  27.893  1.00  0.00     0.000 C 
BRANCH   2   3
ATOM      3  C   UNL     1      28.121  22.187  29.102  1.00  0.00     0.000 C 
BRANCH   3   4
ATOM      4  C   UNL     1      28.539  23.672  29.126  1.00  0.00     0.000 C 
BRANCH   4   5
ATOM      5  C   UNL     1      29.410  24.085  30.327  1.00  0.00     0.000 C 
BRANCH   5   6
ATOM      6  C   UNL     1      30.723  23.289  30.413  1.00  0.00     0.006 C 
BRANCH   6   7
ATOM      7  C   UNL     1      31.677  23.860  31.471  1.00  0.00     0.053 C 
BRANCH   7   8
ATOM      8  C   UNL     1      31.041  23.900  32.827  1.00  0.00     0.041 C 
ATOM      9  O   UNL     1      31.744  24.123  33.848  1.00  0.00    -0.550 OA
ATOM     10  O   UNL     1      29.670  23.727  32.959  1.00  0.00    -0.550 OA
ENDBRANCH   7   8
ENDBRANCH   6   7
ENDBRANCH   5   6
ENDBRANCH   4   5
ENDBRANCH   3   4
ENDBRANCH   2   3
ENDBRANCH   1   2
BRANCH   1  11
ATOM     11  C   UNL     1      31.109  21.352  27.259  1.00  0.00     0.000 C 
BRANCH  11  12
ATOM     12  C   UNL     1      32.308  22.237  26.875  1.00  0.00    -0.000 C 
BRANCH  12  13
ATOM     13  C   UNL     1      32.264  23.623  27.541  1.00  0.00    -0.000 C 
BRANCH  13  14
ATOM     14  C   UNL     1      33.519  24.002  28.354  1.00  0.00    -0.000 C 
BRANCH  14  15
ATOM     15  C   UNL     1      34.851  23.473  27.791  1.00  0.00    -0.000 C 
BRANCH  15  16
ATOM     16  C   UNL     1      35.730  22.809  28.865  1.00  0.00    -0.000 C 
BRANCH  16  17
ATOM     17  C   UNL     1      36.962  22.112  28.268  1.00  0.00    -0.003 C 
ATOM     18  C   UNL     1      36.635  21.299  27.015  1.00  0.00     0.004 C 
ENDBRANCH  16  17
ENDBRANCH  15  16
ENDBRANCH  14  15
ENDBRANCH  13  14
ENDBRANCH  12  13
ENDBRANCH  11  12
ENDBRANCH   1  11
TORSDOF 14
ENDMDL
MODEL 2
REMARK VINA RESULT:     7.445     12.849     15.458
REMARK INTER + INTRA:          12.920
REMARK INTER:                  13.911
REMARK INTRA:                  -0.991
REMARK UNBOUND:                -0.618
REMARK SMILES CCCCCCCCCCCCCCCC(=O)[O-]
REMARK SMILES IDX 9 1 10 2 11 3 12 4 13 5 14 6 15 7 16 8 17 9 18 10 8 11 7 12
REMARK SMILES IDX 6 13 5 14 4 15 3 16 2 17 1 18
REMARK H PARENT
REMARK Flexibility Score: inf
ROOT
ATOM      1  C   UNL     1      34.689  15.730  43.396  1.00  0.00     0.000 C 
ENDROOT
BRANCH   1   2
ATOM      2  C   UNL     1      36.002  14.999  43.727  1.00  0.00     0.000 C 
BRANCH   2   3
ATOM      3  C   UNL     1      36.133  13.649  42.997  1.00  0.00     0.000 C 
BRANCH   3   4
ATOM      4  C   UNL     1      34.857  13.164  42.278  1.00  0.00     0.000 C 
BRANCH   4   5
ATOM      5  C   UNL     1      34.884  13.293  40.744  1.00  0.00     0.000 C 
BRANCH   5   6
ATOM      6  C   UNL     1      33.792  12.455  40.055  1.00  0.00     0.006 C 
BRANCH   6   7
ATOM      7  C   UNL     1      33.280  11.322  40.954  1.00  0.00     0.053 C 
BRANCH   7   8
ATOM      8  C   UNL     1      33.326   9.997  40.256  1.00  0.00     0.041 C 
ATOM      9  O   UNL     1      34.429   9.418  40.072  1.00  0.00    -0.550 OA
ATOM     10  O   UNL     1      32.150   9.387  39.843  1.00  0.00    -0.550 OA
ENDBRANCH   7   8
ENDBRANCH   6   7
ENDBRANCH   5   6
ENDBRANCH   4   5
ENDBRANCH   3   4
ENDBRANCH   2   3
ENDBRANCH   1   2
BRANCH   1  11
ATOM     11  C   UNL     1      34.914  17.207  43.033  1.00  0.00     0.000 C 
BRANCH  11  12
ATOM     12  C   UNL     1      33.983  17.685  41.905  1.00  0.00    -0.000 C 
BRANCH  12  13
ATOM     13  C   UNL     1      34.127  16.853  40.619  1.00  0.00    -0.000 C 
BRANCH  13  14
ATOM     14  C   UNL     1      33.993  17.647  39.303  1.00  0.00    -0.000 C 
BRANCH  14  15
ATOM     15  C   UNL     1      32.621  18.307  39.071  1.00  0.00    -0.000 C 
BRANCH  15  16
ATOM     16  C   UNL     1      31.983  17.902  37.732  1.00  0.00    -0.000 C 
BRANCH  16  17
ATOM     17  C   UNL     1      30.844  18.844  37.313  1.00  0.00    -0.003 C 
ATOM     18  C   UNL     1      30.855  20.166  38.082  1.00  0.00     0.004 C 
ENDBRANCH  16  17
ENDBRANCH  15  16
ENDBRANCH  14  15
ENDBRANCH  13  14
ENDBRANCH  12  13
ENDBRANCH  11  12
ENDBRANCH   1  11
TORSDOF 14
ENDMDL
MODEL 3
REMARK VINA RESULT:     7.673     12.580     15.029
REMARK INTER + INTRA:          13.336
REMARK INTER:                  14.224
REMARK INTRA:                  -0.888
REMARK UNBOUND:                -0.618
REMARK SMILES CCCCCCCCCCCCCCCC(=O)[O-]
REMARK SMILES IDX 9 1 10 2 11 3 12 4 13 5 14 6 15 7 16 8 17 9 18 10 8 11 7 12
REMARK SMILES IDX 6 13 5 14 4 15 3 16 2 17 1 18
REMARK H PARENT
REMARK Flexibility Score: inf
ROOT
ATOM      1  C   UNL     1      34.886  15.679  43.548  1.00  0.00     0.000 C 
ENDROOT
BRANCH   1   2
ATOM      2  C   UNL     1      35.036  17.190  43.301  1.00  0.00     0.000 C 
BRANCH   2   3
ATOM      3  C   UNL     1      34.128  17.701  42.166  1.00  0.00     0.000 C 
BRANCH   3   4
ATOM      4  C   UNL     1      34.111  16.828  40.894  1.00  0.00     0.000 C 
BRANCH   4   5
ATOM      5  C   UNL     1      34.132  17.609  39.568  1.00  0.00     0.000 C 
BRANCH   5   6
ATOM      6  C   UNL     1      32.817  18.361  39.297  1.00  0.00     0.006 C 
BRANCH   6   7
ATOM      7  C   UNL     1      32.165  17.928  37.978  1.00  0.00     0.053 C 
BRANCH   7   8
ATOM      8  C   UNL     1      31.010  18.810  37.615  1.00  0.00     0.041 C 
ATOM      9  O   UNL     1      29.997  18.325  37.044  1.00  0.00    -0.550 OA
ATOM     10  O   UNL     1      31.036  20.160  37.939  1.00  0.00    -0.550 OA
ENDBRANCH   7   8
ENDBRANCH   6   7
ENDBRANCH   5   6
ENDBRANCH   4   5
ENDBRANCH   3   4
ENDBRANCH   2   3
ENDBRANCH   1   2
BRANCH   1  11
ATOM     11  C   UNL     1      36.242  14.974  43.719  1.00  0.00     0.000 C 
BRANCH  11  12
ATOM     12  C   UNL     1      36.306  13.630  42.973  1.00  0.00    -0.000 C 
BRANCH  12  13
ATOM     13  C   UNL     1      34.953  13.221  42.363  1.00  0.00    -0.000 C 
BRANCH  13  14
ATOM     14  C   UNL     1      35.037  12.492  41.006  1.00  0.00    -0.000 C 
BRANCH  14  15
ATOM     15  C   UNL     1      33.684  12.185  40.340  1.00  0.00    -0.000 C 
BRANCH  15  16
ATOM     16  C   UNL     1      32.950  11.003  40.996  1.00  0.00    -0.000 C 
BRANCH  16  17
ATOM     17  C   UNL     1      32.748   9.826  40.028  1.00  0.00    -0.003 C 
ATOM     18  C   UNL     1      34.057   9.124  39.667  1.00  0.00     0.004 C 
ENDBRANCH  16  17
ENDBRANCH  15  16
ENDBRANCH  14  15
ENDBRANCH  13  14
ENDBRANCH  12  13
ENDBRANCH  11  12
ENDBRANCH   1  11
TORSDOF 14
ENDMDL
